data_PCOD8163140
_publ_section_title
;
Structure prediction by ZEFSAII (Michael W. Deem and Ramdas Pophale) SiO2 
 PCOD8163140
Probable space group: F 2 2 2
;
_chemical_formula_sum "Si O2"
_cell_formula_units_Z 64
_cell_length_a 11.459439
_cell_length_b 15.857866
_cell_length_c 14.316528
_cell_angle_alpha 90.000000
_cell_angle_beta 90.000000
_cell_angle_gamma 90.000000
_cell_volume 2601.631653
_symmetry_space_group_name_H-M "F 2 2 2"
_symmetry_group_IT_number 22
_symmetry_cell_setting 'orthorhombic'
loop_
_space_group_symop_operation_xyz
x,y,z
-x,-y,z
x,-y,-z
-x,y,-z
x,1/2+y,1/2+z
-x,1/2-y,1/2+z
x,1/2-y,1/2-z
-x,1/2+y,1/2-z
1/2+x,y,1/2+z
1/2-x,-y,1/2+z
1/2+x,-y,1/2-z
1/2-x,y,1/2-z
1/2+x,1/2+y,z
1/2-x,1/2-y,z
1/2+x,1/2-y,-z
1/2-x,1/2+y,-z
loop_
_atom_site_type_symbol
_atom_site_label
_atom_site_fract_x
_atom_site_fract_y
_atom_site_fract_z
Si Si1 0.045454 0.206502 0.151587
Si Si2 0.203252 0.551144 0.646897
Si Si3 0.628042 0.651621 0.480870
Si Si4 0.202645 0.638338 0.354771
O O1 0.074293 0.250000 0.250000
O O2 0.092208 0.111712 0.145017
O O3 0.112301 0.259399 0.072519
O O4 0.907652 0.200315 0.133163
O O5 0.250000 0.547578 0.750000
O O6 0.305857 0.582641 0.580158
O O7 0.166083 0.456919 0.617298
O O8 0.500000 0.613184 0.500000
O O9 0.694934 0.669908 0.577304
O O10 0.250000 0.645532 0.250000
#
# Coordination Sequence:
#
# PCOD8163140 Si02
#       4
#    16  16  16  16
#     4  12  26  48  80 114 156 198 265 319 383 453
#     4  11  25  49  79 114 157 206 257 317 384 456
#     4  12  28  47  79 115 154 199 259 319 382 452
#     4  11  28  51  77 114 163 207 252 313 390 461
#
# _framework density 24.599945999999999
#
# number of rings (size 3 to 8) (size 9 to 14) (size 15 to 20)
#    0.000    0.500    2.500    3.750    7.000    4.500 
#    0.000    2.500    0.000    0.000    0.000    0.000 
#    0.000    0.000    0.000    0.000    0.000    0.000 
#
# Total GULP energy -198480.133450 kJ/mol
# GULP energy per Si atom -12405.008341 kJ/mol
# Density = 2.454396 g / cm^3
# Si number density = 24.599946 Si / 1000 Ang^3
#
#
#
# Elastic Constant Matrix: (Units=GPa)
#
#
# Indices 1 2 3 4 5 6 
#
# 1 140.0223 43.7531 71.3911 0.0000 0.0000 0.0000
# 2 43.7531 149.3628 63.4013 0.0000 0.0000 0.0000
# 3 71.3911 63.4013 143.5117 0.0000 0.0000 0.0000
# 4 0.0000 0.0000 0.0000 28.8690 0.0000 0.0000
# 5 0.0000 0.0000 0.0000 0.0000 48.0305 0.0000
# 6 0.0000 0.0000 0.0000 0.0000 0.0000 46.7692
#
#
#
# Elastic Compliance Matrix: (Units=1/GPa)
#
#
# Indices 1 2 3 4 5 6 
#
# 1 0.009683 -0.000974 -0.004386 0.000000 0.000000 0.000000
# 2 -0.000974 0.008338 -0.003199 0.000000 0.000000 0.000000
# 3 -0.004386 -0.003199 0.010563 0.000000 0.000000 0.000000
# 4 0.000000 0.000000 0.000000 0.034639 0.000000 0.000000
# 5 0.000000 0.000000 0.000000 0.000000 0.020820 0.000000
# 6 0.000000 0.000000 0.000000 0.000000 0.000000 0.021382
#
#
# Mechanical properties :
#
#
# Convention : Reuss Voigt Hill
#
# Bulk Modulus (GPa) = 87.22244 87.77642 87.49943
# Shear Modulus (GPa) = 39.56752 41.69048 40.62900
#
# Velocity S-wave (km/s) = 4.01489 4.12119 4.06838
# Velocity P-wave (km/s) = 7.55154 7.64229 7.59705
#
# Compressibility (1/GPa) = 0.01146494
#
# Stress axis : x y z
#
# Youngs Moduli (GPa) = 103.27888 119.92568 94.66748
#
# Poissons Ratio (x) = 0.11687 0.41522
# Poissons Ratio (y) = 0.10064 0.30285
# Poissons Ratio (z) = 0.45300 0.38365
#
# Static dielectric constant tensor:
#      x y z
#    x 4.478120 0.000000 0.000000 
#    y 0.000000 4.908520 0.000000 
#    z 0.000000 0.000000 4.638500 
# 
# 
# High freq. dielectric constant tensor:
#      x y z
#    x 1.983060 0.000000 0.000000 
#    y 0.000000 1.995900 0.000000 
#    z 0.000000 0.000000 1.997030 
# 
# From -- ./inp_files/27795.got.cif
#   From: 2010.03.12/outbox.cif.g09.slc.cpg/sg22_14_cif.got.tgz:27795.got - 2010.04.14 02:24:06.
