data_PCOD8163166
_publ_section_title
;
Structure prediction by ZEFSAII (Michael W. Deem and Ramdas Pophale) SiO2 
 PCOD8163166
Probable space group: F 2 2 2
;
_chemical_formula_sum "Si O2"
_cell_formula_units_Z 52
_cell_length_a 13.237705
_cell_length_b 30.085299
_cell_length_c 5.825457
_cell_angle_alpha 90.000000
_cell_angle_beta 90.000000
_cell_angle_gamma 90.000000
_cell_volume 2320.048328
_symmetry_space_group_name_H-M "F 2 2 2"
_symmetry_group_IT_number 22
_symmetry_cell_setting 'orthorhombic'
loop_
_space_group_symop_operation_xyz
x,y,z
-x,-y,z
x,-y,-z
-x,y,-z
x,1/2+y,1/2+z
-x,1/2-y,1/2+z
x,1/2-y,1/2-z
-x,1/2+y,1/2-z
1/2+x,y,1/2+z
1/2-x,-y,1/2+z
1/2+x,-y,1/2-z
1/2-x,y,1/2-z
1/2+x,1/2+y,z
1/2-x,1/2-y,z
1/2+x,1/2-y,-z
1/2-x,1/2+y,-z
loop_
_atom_site_type_symbol
_atom_site_label
_atom_site_fract_x
_atom_site_fract_y
_atom_site_fract_z
Si Si1 0.139012 0.573652 0.693160
Si Si2 0.856792 0.343251 0.366134
Si Si3 0.000000 0.372864 0.000000
Si Si4 0.500000 0.000000 0.500000
Si Si5 0.500000 0.774686 0.500000
O O1 0.250000 0.556107 0.750000
O O2 0.144840 0.608286 0.482920
O O3 0.071328 0.530797 0.651140
O O4 0.092693 0.597457 0.912772
O O5 0.750000 0.331946 0.250000
O O6 0.895221 0.303787 0.532118
O O7 0.949768 0.341905 0.188473
O O8 0.507838 0.750000 0.750000
#
# Coordination Sequence:
#
# PCOD8163166 Si02
#       5
#    16  16   8   4   8
#     4  12  26  43  74 104 141 195 251 299 371 446
#     4  12  25  47  77 107 140 198 248 295 367 454
#     4  12  21  45  74 102 138 190 246 306 354 440
#     4  12  26  46  60 112 154 180 242 318 382 420
#     4  12  28  50  78 116 158 191 241 316 387 447
#
# _framework density 22.413325
#
# number of rings (size 3 to 8) (size 9 to 14) (size 15 to 20)
#    0.000    0.000    9.231    0.923    0.000    4.923 
#    0.000    4.615    0.000    0.000    0.000    0.000 
#    0.000    0.000    0.000    0.000    0.000    0.000 
#
# Total GULP energy -161098.024711 kJ/mol
# GULP energy per Si atom -12392.155747 kJ/mol
# Density = 2.236231 g / cm^3
# Si number density = 22.413325 Si / 1000 Ang^3
#
#
#
# Elastic Constant Matrix: (Units=GPa)
#
#
# Indices 1 2 3 4 5 6 
#
# 1 187.9797 59.3367 41.0062 -0.0002 -0.0003 0.0003
# 2 59.3367 117.7508 31.7894 -0.0001 0.0001 0.0000
# 3 41.0062 31.7894 93.8245 -0.0001 -0.0007 0.0003
# 4 -0.0002 -0.0001 -0.0001 -6.9537 0.0000 0.0000
# 5 -0.0003 0.0001 -0.0007 0.0000 53.5961 -0.0001
# 6 0.0003 0.0000 0.0003 0.0000 -0.0001 24.1603
#
#
#
# Elastic Compliance Matrix: (Units=1/GPa)
#
#
# Indices 1 2 3 4 5 6 
#
# 1 0.006633 -0.002818 -0.001944 0.000000 0.000000 0.000000
# 2 -0.002818 0.010544 -0.002341 0.000000 0.000000 0.000000
# 3 -0.001944 -0.002341 0.012301 0.000000 0.000000 0.000000
# 4 0.000000 0.000000 0.000000 -0.143809 0.000000 0.000000
# 5 0.000000 0.000000 0.000000 0.000000 0.018658 0.000000
# 6 0.000000 0.000000 0.000000 0.000000 0.000000 0.041390
#
#
# Mechanical properties :
#
#
# Convention : Reuss Voigt Hill
#
# Bulk Modulus (GPa) = 65.47744 73.75773 69.61758
# Shear Modulus (GPa) = -142.92030 31.98871 -55.46579
#
# Velocity S-wave (km/s) = -7.99401 3.78195 -4.98001
# Velocity P-wave (km/s) = 7.47854 7.21459 1.39252
#
# Compressibility (1/GPa) = 0.01527244
#
# Stress axis : x y z
#
# Youngs Moduli (GPa) = 150.75447 94.83664 81.29261
#
# Poissons Ratio (x) = 0.26722 0.15807
# Poissons Ratio (y) = 0.42478 0.19032
# Poissons Ratio (z) = 0.29313 0.22203
#
# Static dielectric constant tensor:
#      x y z
#    x 4.870380 0.000000 0.000000 
#    y 0.000000 4.227600 0.000000 
#    z 0.000000 0.000000 3.749400 
# 
# 
# High freq. dielectric constant tensor:
#      x y z
#    x 1.900660 0.000000 0.000000 
#    y 0.000000 1.882370 0.000000 
#    z 0.000000 0.000000 1.886610 
# 
# From -- ./inp_files/1924.got.cif
#   From: 2010.03.12/outbox.cif.g09.slc.cpg/sg22_1_cif.got.tgz:1924.got - 2010.04.14 02:24:06.
