data_PCOD8163656
_publ_section_title
;
Structure prediction by ZEFSAII (Michael W. Deem and Ramdas Pophale) SiO2 
 PCOD8163656
Probable space group: I 2 2 2
;
_chemical_formula_sum "Si O2"
_cell_formula_units_Z 48
_cell_length_a 13.529529
_cell_length_b 5.361809
_cell_length_c 28.548822
_cell_angle_alpha 90.000000
_cell_angle_beta 90.000000
_cell_angle_gamma 90.000000
_cell_volume 2071.010067
_symmetry_space_group_name_H-M "I 2 2 2"
_symmetry_group_IT_number 23
_symmetry_cell_setting 'orthorhombic'
loop_
_space_group_symop_operation_xyz
x,y,z
-x,-y,z
x,-y,-z
-x,y,-z
1/2+x,1/2+y,1/2+z
1/2-x,1/2-y,1/2+z
1/2+x,1/2-y,1/2-z
1/2-x,1/2+y,1/2-z
loop_
_atom_site_type_symbol
_atom_site_label
_atom_site_fract_x
_atom_site_fract_y
_atom_site_fract_z
Si Si1 0.500000 0.500000 0.387593
Si Si2 0.437093 0.748836 0.064381
Si Si3 0.311644 0.257777 0.584654
Si Si4 0.811058 0.521050 0.254414
Si Si5 0.285836 0.500000 0.000000
Si Si6 0.376990 0.128103 0.339832
Si Si7 0.682170 0.071737 0.145149
O O1 0.401707 0.540948 0.419622
O O2 0.479449 0.266289 0.352781
O O3 0.500000 0.500000 0.059812
O O4 0.349300 0.712933 0.026747
O O5 0.393792 0.751118 0.117325
O O6 0.500000 0.000000 0.053294
O O7 0.209083 0.356902 0.607441
O O8 0.286304 0.149477 0.534293
O O9 0.353886 0.053226 0.618378
O O10 0.729940 0.302174 0.250544
O O11 0.888555 0.493960 0.211548
O O12 0.865806 0.484967 0.305285
O O13 0.285901 0.318384 0.337941
#
# Coordination Sequence:
#
# PCOD8163656 Si02
#       7
#     4   8   8   8   4   8   8
#     4  10  24  42  71 102 144 184 238 299 366 400
#     4  12  28  48  75 108 146 182 236 307 361 429
#     4  11  22  45  71  98 140 187 240 297 351 438
#     4  10  20  37  73 107 136 189 241 277 339 425
#     4  12  27  48  77 100 134 198 240 291 377 440
#     4  10  20  42  71 101 143 188 231 293 344 437
#     4  10  22  42  72 104 140 189 231 286 356 425
#
# _framework density 23.177097
#
# number of rings (size 3 to 8) (size 9 to 14) (size 15 to 20)
#    0.000    1.333    3.333    1.750    0.000    4.667 
#    0.000    4.167    7.333    0.000    0.000    0.000 
#    0.000    0.000    0.000    0.000    0.000    0.000 
#
# Total GULP energy -297400.922995 kJ/mol
# GULP energy per Si atom -12391.705125 kJ/mol
# Density = 2.312434 g / cm^3
# Si number density = 23.177097 Si / 1000 Ang^3
#
#
#
# Elastic Constant Matrix: (Units=GPa)
#
#
# Indices 1 2 3 4 5 6 
#
# 1 78.6129 20.6795 61.0517 0.0000 0.0000 0.0000
# 2 20.6795 92.5559 41.7390 0.0000 0.0000 0.0000
# 3 61.0517 41.7390 211.4910 0.0000 0.0000 0.0000
# 4 0.0000 0.0000 0.0000 40.7686 0.0000 0.0000
# 5 0.0000 0.0000 0.0000 0.0000 70.4599 0.0000
# 6 0.0000 0.0000 0.0000 0.0000 0.0000 6.8870
#
#
#
# Elastic Compliance Matrix: (Units=1/GPa)
#
#
# Indices 1 2 3 4 5 6 
#
# 1 0.016637 -0.001703 -0.004467 0.000000 0.000000 0.000000
# 2 -0.001703 0.012034 -0.001883 0.000000 0.000000 0.000000
# 3 -0.004467 -0.001883 0.006389 0.000000 0.000000 0.000000
# 4 0.000000 0.000000 0.000000 0.024529 0.000000 0.000000
# 5 0.000000 0.000000 0.000000 0.000000 0.014192 0.000000
# 6 0.000000 0.000000 0.000000 0.000000 0.000000 0.145202
#
#
# Mechanical properties :
#
#
# Convention : Reuss Voigt Hill
#
# Bulk Modulus (GPa) = 52.75686 69.95558 61.35622
# Shear Modulus (GPa) = 20.71182 40.90240 30.80711
#
# Velocity S-wave (km/s) = 2.99261 4.20548 3.64978
# Velocity P-wave (km/s) = 5.89516 7.33689 6.65518
#
# Compressibility (1/GPa) = 0.01895488
#
# Stress axis : x y z
#
# Youngs Moduli (GPa) = 60.10555 83.09717 156.50808
#
# Poissons Ratio (x) = 0.14151 0.69907
# Poissons Ratio (y) = 0.10236 0.29477
# Poissons Ratio (z) = 0.26847 0.15651
#
# Static dielectric constant tensor:
#      x y z
#    x 4.669770 0.000000 0.000000 
#    y 0.000000 4.277160 0.000000 
#    z 0.000000 0.000000 4.598950 
# 
# 
# High freq. dielectric constant tensor:
#      x y z
#    x 1.898980 0.000000 0.000000 
#    y 0.000000 1.922610 0.000000 
#    z 0.000000 0.000000 1.928250 
# 
# From -- ./inp_files/29589.got.cif
#   From: 2010.03.12/outbox.cif.g09.slc.cpg/sg23_15_cif.got.tgz:29589.got - 2010.04.14 02:50:06.
