data_PCOD8163311
_publ_section_title
;
Structure prediction by ZEFSAII (Michael W. Deem and Ramdas Pophale) SiO2 
 PCOD8163311
Probable space group: I 2 2 2
;
_chemical_formula_sum "Si O2"
_cell_formula_units_Z 56
_cell_length_a 18.084396
_cell_length_b 12.540446
_cell_length_c 12.650637
_cell_angle_alpha 90.000000
_cell_angle_beta 90.000000
_cell_angle_gamma 90.000000
_cell_volume 2868.992315
_symmetry_space_group_name_H-M "I 2 2 2"
_symmetry_group_IT_number 23
_symmetry_cell_setting 'orthorhombic'
loop_
_space_group_symop_operation_xyz
x,y,z
-x,-y,z
x,-y,-z
-x,y,-z
1/2+x,1/2+y,1/2+z
1/2-x,1/2-y,1/2+z
1/2+x,1/2-y,1/2-z
1/2-x,1/2+y,1/2-z
loop_
_atom_site_type_symbol
_atom_site_label
_atom_site_fract_x
_atom_site_fract_y
_atom_site_fract_z
Si Si1 0.830613 0.857360 0.299245
Si Si2 0.222302 0.809715 0.262545
Si Si3 0.211666 0.514272 0.881824
Si Si4 0.841417 0.627141 0.610945
Si Si5 0.188132 0.999575 0.883398
Si Si6 0.572993 0.773996 0.929578
Si Si7 0.074893 0.538487 0.727213
O O1 0.802294 0.740416 0.264383
O O2 0.859277 0.927676 0.199122
O O3 0.898068 0.839576 0.381594
O O4 0.757633 0.910224 0.350064
O O5 0.233669 0.885614 0.364940
O O6 0.164560 0.718636 0.298256
O O7 0.194251 0.880109 0.162528
O O8 0.141161 0.535663 0.809567
O O9 0.183502 0.500000 0.000000
O O10 0.767310 0.557460 0.604447
O O11 0.859542 0.679216 0.498492
O O12 0.908645 0.548435 0.636251
O O13 0.150456 0.000000 0.000000
O O14 0.558529 0.848970 0.828752
O O15 0.500000 0.754148 0.000000
O O16 0.000000 0.500000 0.785609
#
# Coordination Sequence:
#
# PCOD8163311 Si02
#       7
#     8   8   8   8   8   8   8
#     4  10  20  36  55  90 119 156 214 253 312 377
#     4  10  18  35  55  84 119 154 206 262 304 377
#     4  11  22  38  59  82 123 163 203 265 311 372
#     4  11  20  33  56  87 120 159 198 255 326 374
#     4  10  19  33  59  86 120 157 201 264 316 364
#     4  12  23  36  61  90 127 162 200 260 324 385
#     4  12  22  37  56  91 122 157 204 242 315 400
#
# _framework density 19.519048000000002
#
# number of rings (size 3 to 8) (size 9 to 14) (size 15 to 20)
#    0.000    1.143    7.143    3.000    0.000    1.429 
#    0.000    0.000    0.000   10.714    0.000    1.000 
#    0.000    0.000    0.000    0.000    0.000    0.000 
#
# Total GULP energy -346999.409059 kJ/mol
# GULP energy per Si atom -12392.836038 kJ/mol
# Density = 1.947462 g / cm^3
# Si number density = 19.519048 Si / 1000 Ang^3
#
#
#
# Elastic Constant Matrix: (Units=GPa)
#
#
# Indices 1 2 3 4 5 6 
#
# 1 70.8436 19.2625 27.8685 0.0000 0.0000 0.0000
# 2 19.2625 81.1895 35.4136 0.0000 0.0000 0.0000
# 3 27.8685 35.4136 126.6672 0.0000 0.0000 0.0000
# 4 0.0000 0.0000 0.0000 29.7618 0.0000 0.0000
# 5 0.0000 0.0000 0.0000 0.0000 34.3654 0.0000
# 6 0.0000 0.0000 0.0000 0.0000 0.0000 18.8485
#
#
#
# Elastic Compliance Matrix: (Units=1/GPa)
#
#
# Indices 1 2 3 4 5 6 
#
# 1 0.015907 -0.002560 -0.002784 0.000000 0.000000 0.000000
# 2 -0.002560 0.014439 -0.003474 0.000000 0.000000 0.000000
# 3 -0.002784 -0.003474 0.009478 0.000000 0.000000 0.000000
# 4 0.000000 0.000000 0.000000 0.033600 0.000000 0.000000
# 5 0.000000 0.000000 0.000000 0.000000 0.029099 0.000000
# 6 0.000000 0.000000 0.000000 0.000000 0.000000 0.053055
#
#
# Mechanical properties :
#
#
# Convention : Reuss Voigt Hill
#
# Bulk Modulus (GPa) = 45.06613 49.30996 47.18804
# Shear Modulus (GPa) = 27.68396 29.67217 28.67807
#
# Velocity S-wave (km/s) = 3.77012 3.90316 3.83722
# Velocity P-wave (km/s) = 6.48770 6.75501 6.62270
#
# Compressibility (1/GPa) = 0.02218961
#
# Stress axis : x y z
#
# Youngs Moduli (GPa) = 62.86631 69.25517 105.50240
#
# Poissons Ratio (x) = 0.17726 0.29373
# Poissons Ratio (y) = 0.16091 0.36650
# Poissons Ratio (z) = 0.17503 0.24058
#
# Static dielectric constant tensor:
#      x y z
#    x 3.281840 0.000000 0.000000 
#    y 0.000000 3.745970 0.000000 
#    z 0.000000 0.000000 3.861270 
# 
# 
# High freq. dielectric constant tensor:
#      x y z
#    x 1.717480 0.000000 0.000000 
#    y 0.000000 1.769980 0.000000 
#    z 0.000000 0.000000 1.758950 
# 
# From -- ./inp_files/18008.got.cif
#   From: 2010.03.12/outbox.cif.g09.slc.cpg/sg23_10_cif.got.tgz:18008.got - 2010.04.14 02:50:06.
