data_PCOD8163449
_publ_section_title
;
Structure prediction by ZEFSAII (Michael W. Deem and Ramdas Pophale) SiO2 
 PCOD8163449
Probable space group: I 2 2 2
;
_chemical_formula_sum "Si O2"
_cell_formula_units_Z 46
_cell_length_a 13.025209
_cell_length_b 19.395525
_cell_length_c 9.319386
_cell_angle_alpha 90.000000
_cell_angle_beta 90.000000
_cell_angle_gamma 90.000000
_cell_volume 2354.363631
_symmetry_space_group_name_H-M "I 2 2 2"
_symmetry_group_IT_number 23
_symmetry_cell_setting 'orthorhombic'
loop_
_space_group_symop_operation_xyz
x,y,z
-x,-y,z
x,-y,-z
-x,y,-z
1/2+x,1/2+y,1/2+z
1/2-x,1/2-y,1/2+z
1/2+x,1/2-y,1/2-z
1/2-x,1/2+y,1/2-z
loop_
_atom_site_type_symbol
_atom_site_label
_atom_site_fract_x
_atom_site_fract_y
_atom_site_fract_z
Si Si1 0.014066 0.273161 0.300330
Si Si2 0.800729 0.422130 0.951776
Si Si3 0.297020 0.194139 0.082655
Si Si4 0.000000 0.671495 0.000000
Si Si5 0.688450 0.314256 0.115259
Si Si6 0.345370 0.899996 0.143118
Si Si7 0.000000 0.500000 0.500000
O O1 0.982048 0.276565 0.133343
O O2 0.067913 0.200885 0.349602
O O3 0.103148 0.328492 0.315776
O O4 0.918805 0.290438 0.401924
O O5 0.778075 0.423546 0.779796
O O6 0.816139 0.500000 0.000000
O O7 0.704406 0.388106 0.037237
O O8 0.902865 0.379104 0.986621
O O9 0.245325 0.187469 0.233957
O O10 0.255425 0.258613 0.990056
O O11 0.278984 0.120935 0.998306
O O12 0.430141 0.956629 0.107358
#
# Coordination Sequence:
#
# PCOD8163449 Si02
#       7
#     8   8   8   4   8   8   2
#     4  10  20  37  57  83 121 154 199 244 302 356
#     4  11  24  37  55  85 125 159 199 242 307 376
#     4  11  20  39  57  86 118 153 200 257 296 359
#     4  10  19  36  56  92 114 163 190 252 304 367
#     4  11  22  36  58  84 117 160 200 246 300 363
#     4  10  22  33  53  81 117 162 188 229 298 371
#     4  12  20  32  54  84 120 160 190 224 304 400
#
# _framework density 19.538187000000001
#
# number of rings (size 3 to 8) (size 9 to 14) (size 15 to 20)
#    0.000    1.391    3.478    4.957    7.304    0.000 
#    0.000    0.000    0.000    2.087    0.000    0.000 
#    0.000    0.000    0.000    0.000    0.000    0.000 
#
# Total GULP energy -285032.132468 kJ/mol
# GULP energy per Si atom -12392.701412 kJ/mol
# Density = 1.949372 g / cm^3
# Si number density = 19.538187 Si / 1000 Ang^3
#
#
#
# Elastic Constant Matrix: (Units=GPa)
#
#
# Indices 1 2 3 4 5 6 
#
# 1 41.0793 28.3911 31.3994 0.0000 0.0000 0.0000
# 2 28.3911 79.0855 57.5172 0.0000 0.0000 0.0000
# 3 31.3994 57.5172 172.2583 0.0003 0.0000 0.0001
# 4 0.0000 0.0000 0.0003 24.9720 0.0000 0.0000
# 5 0.0000 0.0000 0.0000 0.0000 30.2331 0.0000
# 6 0.0000 0.0000 0.0001 0.0000 0.0000 29.6037
#
#
#
# Elastic Compliance Matrix: (Units=1/GPa)
#
#
# Indices 1 2 3 4 5 6 
#
# 1 0.033332 -0.009968 -0.002748 0.000000 0.000000 0.000000
# 2 -0.009968 0.019681 -0.004754 0.000000 0.000000 0.000000
# 3 -0.002748 -0.004754 0.007894 0.000000 0.000000 0.000000
# 4 0.000000 0.000000 0.000000 0.040045 0.000000 0.000000
# 5 0.000000 0.000000 0.000000 0.000000 0.033076 0.000000
# 6 0.000000 0.000000 0.000000 0.000000 0.000000 0.033780
#
#
# Mechanical properties :
#
#
# Convention : Reuss Voigt Hill
#
# Bulk Modulus (GPa) = 38.51050 58.55981 48.53516
# Shear Modulus (GPa) = 23.65155 28.63613 26.14384
#
# Velocity S-wave (km/s) = 3.48304 3.83253 3.66196
# Velocity P-wave (km/s) = 5.99405 7.04425 6.54026
#
# Compressibility (1/GPa) = 0.02596694
#
# Stress axis : x y z
#
# Youngs Moduli (GPa) = 30.00093 50.81115 126.68512
#
# Poissons Ratio (x) = 0.50647 0.34808
# Poissons Ratio (y) = 0.29904 0.60232
# Poissons Ratio (z) = 0.08243 0.24158
#
# Static dielectric constant tensor:
#      x y z
#    x 3.403740 0.000000 0.000000 
#    y 0.000000 3.688450 0.000000 
#    z 0.000000 0.000000 4.433280 
# 
# 
# High freq. dielectric constant tensor:
#      x y z
#    x 1.718200 0.000000 0.000000 
#    y 0.000000 1.732710 0.000000 
#    z 0.000000 0.000000 1.802160 
# 
# From -- ./inp_files/10112.got.cif
#   From: 2010.03.12/outbox.cif.g09.slc.cpg/sg23_6_cif.got.tgz:10112.got - 2010.04.14 02:50:06.
