data_PCOD8163284
_publ_section_title
;
Structure prediction by ZEFSAII (Michael W. Deem and Ramdas Pophale) SiO2 
 PCOD8163284
Probable space group: I 2 2 2
;
_chemical_formula_sum "Si O2"
_cell_formula_units_Z 64
_cell_length_a 8.668252
_cell_length_b 23.368836
_cell_length_c 18.049202
_cell_angle_alpha 90.000000
_cell_angle_beta 90.000000
_cell_angle_gamma 90.000000
_cell_volume 3656.171969
_symmetry_space_group_name_H-M "I 2 2 2"
_symmetry_group_IT_number 23
_symmetry_cell_setting 'orthorhombic'
loop_
_space_group_symop_operation_xyz
x,y,z
-x,-y,z
x,-y,-z
-x,y,-z
1/2+x,1/2+y,1/2+z
1/2-x,1/2-y,1/2+z
1/2+x,1/2-y,1/2-z
1/2-x,1/2+y,1/2-z
loop_
_atom_site_type_symbol
_atom_site_label
_atom_site_fract_x
_atom_site_fract_y
_atom_site_fract_z
Si Si1 0.199906 0.355003 0.251835
Si Si2 0.897871 0.949461 0.818858
Si Si3 0.295719 0.753544 0.131177
Si Si4 0.325001 0.623832 0.366024
Si Si5 0.164685 0.515502 0.415217
Si Si6 0.333386 0.269629 0.524229
Si Si7 0.373440 0.719883 0.858059
Si Si8 0.636592 0.822968 0.255302
O O1 0.270101 0.417538 0.268883
O O2 0.198617 0.309698 0.318324
O O3 0.311052 0.334098 0.186515
O O4 0.019535 0.359226 0.228687
O O5 0.805848 0.979848 0.883821
O O6 0.006573 0.902735 0.856870
O O7 0.000000 0.000000 0.778055
O O8 0.448675 0.715006 0.118798
O O9 0.177854 0.707560 0.167035
O O10 0.253281 0.780643 0.052489
O O11 0.197355 0.582463 0.402249
O O12 0.347595 0.675019 0.423743
O O13 0.270707 0.638077 0.281407
O O14 0.154565 0.500000 0.500000
O O15 0.000000 0.500000 0.377453
O O16 0.500000 0.245692 0.500000
O O17 0.237864 0.223398 0.570914
O O18 0.379701 0.776003 0.808055
#
# Coordination Sequence:
#
# PCOD8163284 Si02
#       8
#     8   8   8   8   8   8   8   8
#     4  10  18  32  52  69  96 133 167 209 256 296
#     4  10  21  34  51  70  96 132 175 215 251 295
#     4  10  19  31  50  71  98 130 168 209 247 304
#     4  10  21  34  49  70  99 135 171 211 256 300
#     4  10  22  36  48  67  98 129 174 221 253 290
#     4  11  21  31  47  73 101 134 168 204 251 308
#     4   9  19  33  47  72 100 128 167 210 249 304
#     4   9  18  33  51  72  96 129 171 208 253 302
#
# _framework density 17.504646999999999
#
# number of rings (size 3 to 8) (size 9 to 14) (size 15 to 20)
#    0.000    2.125    0.000    3.375    3.500    5.750 
#    4.500    0.000    0.000    0.000    0.000    0.000 
#    0.000   17.000    0.000   32.250    0.000    2.375 
#
# Total GULP energy -396440.704404 kJ/mol
# GULP energy per Si atom -12388.772013 kJ/mol
# Density = 1.746481 g / cm^3
# Si number density = 17.504647 Si / 1000 Ang^3
#
#
#
# Elastic Constant Matrix: (Units=GPa)
#
#
# Indices 1 2 3 4 5 6 
#
# 1 112.1549 26.2804 19.0830 0.0000 0.0000 0.0000
# 2 26.2804 56.3260 25.6085 0.0000 0.0000 0.0000
# 3 19.0830 25.6085 54.1256 0.0001 0.0000 0.0000
# 4 0.0000 0.0000 0.0001 20.2991 0.0000 0.0000
# 5 0.0000 0.0000 0.0000 0.0000 24.7669 0.0000
# 6 0.0000 0.0000 0.0000 0.0000 0.0000 30.8650
#
#
#
# Elastic Compliance Matrix: (Units=1/GPa)
#
#
# Indices 1 2 3 4 5 6 
#
# 1 0.010132 -0.003954 -0.001702 0.000000 0.000000 0.000000
# 2 -0.003954 0.024162 -0.010038 0.000000 0.000000 0.000000
# 3 -0.001702 -0.010038 0.023825 0.000000 0.000000 0.000000
# 4 0.000000 0.000000 0.000000 0.049263 0.000000 0.000000
# 5 0.000000 0.000000 0.000000 0.000000 0.040377 0.000000
# 6 0.000000 0.000000 0.000000 0.000000 0.000000 0.032399
#
#
# Mechanical properties :
#
#
# Convention : Reuss Voigt Hill
#
# Bulk Modulus (GPa) = 37.40767 40.50559 38.95663
# Shear Modulus (GPa) = 22.68028 25.29516 23.98772
#
# Velocity S-wave (km/s) = 3.60345 3.80551 3.70586
# Velocity P-wave (km/s) = 6.22332 6.51915 6.37295
#
# Compressibility (1/GPa) = 0.02673249
#
# Stress axis : x y z
#
# Youngs Moduli (GPa) = 98.69489 41.38684 41.97316
#
# Poissons Ratio (x) = 0.16364 0.07142
# Poissons Ratio (y) = 0.39022 0.42132
# Poissons Ratio (z) = 0.16794 0.41544
#
# Static dielectric constant tensor:
#      x y z
#    x 3.839440 0.000000 0.000000 
#    y 0.000000 3.149820 0.000000 
#    z 0.000000 0.000000 3.106370 
# 
# 
# High freq. dielectric constant tensor:
#      x y z
#    x 1.704370 0.000000 0.000000 
#    y 0.000000 1.645010 0.000000 
#    z 0.000000 0.000000 1.649580 
# 
# From -- ./inp_files/12195.got.cif
#   From: 2010.03.12/outbox.cif.g09.slc.cpg/sg23_7_cif.got.tgz:12195.got - 2010.04.14 02:50:06.
