data_PCOD8163468
_publ_section_title
;
Structure prediction by ZEFSAII (Michael W. Deem and Ramdas Pophale) SiO2 
 PCOD8163468
Probable space group: I 2 2 2
;
_chemical_formula_sum "Si O2"
_cell_formula_units_Z 64
_cell_length_a 11.635928
_cell_length_b 15.399244
_cell_length_c 18.463116
_cell_angle_alpha 90.000000
_cell_angle_beta 90.000000
_cell_angle_gamma 90.000000
_cell_volume 3308.304106
_symmetry_space_group_name_H-M "I 2 2 2"
_symmetry_group_IT_number 23
_symmetry_cell_setting 'orthorhombic'
loop_
_space_group_symop_operation_xyz
x,y,z
-x,-y,z
x,-y,-z
-x,y,-z
1/2+x,1/2+y,1/2+z
1/2-x,1/2-y,1/2+z
1/2+x,1/2-y,1/2-z
1/2-x,1/2+y,1/2-z
loop_
_atom_site_type_symbol
_atom_site_label
_atom_site_fract_x
_atom_site_fract_y
_atom_site_fract_z
Si Si1 0.146457 0.656377 0.194752
Si Si2 0.373857 0.420141 0.035164
Si Si3 0.249507 0.173123 0.150509
Si Si4 0.285850 0.511050 0.822606
Si Si5 0.381308 0.834588 0.288961
Si Si6 0.869888 0.000608 0.167129
Si Si7 0.364624 0.768718 0.991875
Si Si8 0.263298 0.176272 0.858671
O O1 0.170783 0.661465 0.279917
O O2 0.221114 0.579390 0.156962
O O3 0.174159 0.746324 0.155152
O O4 0.010635 0.642881 0.188992
O O5 0.373382 0.445661 0.119794
O O6 0.314259 0.329054 0.016940
O O7 0.301867 0.500000 0.000000
O O8 0.500000 0.418728 0.000000
O O9 0.161550 0.252485 0.163951
O O10 0.331463 0.183663 0.081658
O O11 0.183200 0.085129 0.132161
O O12 0.187511 0.579954 0.808174
O O13 0.365685 0.494017 0.753802
O O14 0.363232 0.817488 0.202683
O O15 0.803628 0.085820 0.140990
O O16 0.000000 0.000000 0.140309
O O17 0.500000 0.766764 0.000000
O O18 0.315075 0.815639 0.061796
#
# Coordination Sequence:
#
# PCOD8163468 Si02
#       8
#     8   8   8   8   8   8   8   8
#     4  10  20  36  60  86 120 160 198 246 297 352
#     4  10  21  35  57  90 124 155 187 240 304 354
#     4  10  21  38  59  88 116 155 205 252 296 352
#     4  10  20  36  59  90 120 153 199 244 291 366
#     4  10  19  37  59  85 119 158 198 246 299 352
#     4  10  22  39  61  86 116 156 207 253 294 339
#     4  11  22  40  62  87 121 157 195 250 306 353
#     4  10  22  38  58  89 118 153 206 252 292 354
#
# _framework density 19.34526
#
# number of rings (size 3 to 8) (size 9 to 14) (size 15 to 20)
#    0.000    1.875    1.250    2.625    1.750    0.500 
#    4.500    5.625    0.000    0.750    0.000    0.000 
#    0.000    0.000    0.000    0.000    0.000    0.000 
#
# Total GULP energy -396615.199444 kJ/mol
# GULP energy per Si atom -12394.224983 kJ/mol
# Density = 1.930123 g / cm^3
# Si number density = 19.345260 Si / 1000 Ang^3
#
#
#
# Elastic Constant Matrix: (Units=GPa)
#
#
# Indices 1 2 3 4 5 6 
#
# 1 86.5513 30.8787 28.5358 0.0000 0.0000 0.0000
# 2 30.8787 130.5752 21.2204 0.0000 0.0000 0.0000
# 3 28.5358 21.2204 90.3513 0.0000 0.0000 0.0000
# 4 0.0000 0.0000 0.0000 18.3247 0.0000 0.0000
# 5 0.0000 0.0000 0.0000 0.0000 20.7606 0.0000
# 6 0.0000 0.0000 0.0000 0.0000 0.0000 18.8095
#
#
#
# Elastic Compliance Matrix: (Units=1/GPa)
#
#
# Indices 1 2 3 4 5 6 
#
# 1 0.013720 -0.002641 -0.003713 0.000000 0.000000 0.000000
# 2 -0.002641 0.008471 -0.001155 0.000000 0.000000 0.000000
# 3 -0.003713 -0.001155 0.012512 0.000000 0.000000 0.000000
# 4 0.000000 0.000000 0.000000 0.054571 0.000000 0.000000
# 5 0.000000 0.000000 0.000000 0.000000 0.048168 0.000000
# 6 0.000000 0.000000 0.000000 0.000000 0.000000 0.053165
#
#
# Mechanical properties :
#
#
# Convention : Reuss Voigt Hill
#
# Bulk Modulus (GPa) = 50.80262 52.08306 51.44284
# Shear Modulus (GPa) = 23.56411 26.70183 25.13297
#
# Velocity S-wave (km/s) = 3.49389 3.71924 3.60832
# Velocity P-wave (km/s) = 6.52644 6.73981 6.63398
#
# Compressibility (1/GPa) = 0.01968402
#
# Stress axis : x y z
#
# Youngs Moduli (GPa) = 72.88470 118.05296 79.92368
#
# Poissons Ratio (x) = 0.31180 0.29676
# Poissons Ratio (y) = 0.19250 0.09234
# Poissons Ratio (z) = 0.27062 0.13639
#
# Static dielectric constant tensor:
#      x y z
#    x 3.294840 0.000000 0.000000 
#    y 0.000000 4.052550 0.000000 
#    z 0.000000 0.000000 3.548470 
# 
# 
# High freq. dielectric constant tensor:
#      x y z
#    x 1.737170 0.000000 0.000000 
#    y 0.000000 1.776320 0.000000 
#    z 0.000000 0.000000 1.743910 
# 
# From -- ./inp_files/17567.got.cif
#   From: 2010.03.12/outbox.cif.g09.slc.cpg/sg23_9_cif.got.tgz:17567.got - 2010.04.14 02:50:06.
