data_PCOD8163060
_publ_section_title
;
Structure prediction by ZEFSAII (Michael W. Deem and Ramdas Pophale) SiO2 
 PCOD8163060
Probable space group: F 2 2 2
;
_chemical_formula_sum "Si O2"
_cell_formula_units_Z 68
_cell_length_a 9.686218
_cell_length_b 17.844210
_cell_length_c 17.053961
_cell_angle_alpha 90.000000
_cell_angle_beta 90.000000
_cell_angle_gamma 90.000000
_cell_volume 2947.656214
_symmetry_space_group_name_H-M "F 2 2 2"
_symmetry_group_IT_number 22
_symmetry_cell_setting 'orthorhombic'
loop_
_space_group_symop_operation_xyz
x,y,z
-x,-y,z
x,-y,-z
-x,y,-z
x,1/2+y,1/2+z
-x,1/2-y,1/2+z
x,1/2-y,1/2-z
-x,1/2+y,1/2-z
1/2+x,y,1/2+z
1/2-x,-y,1/2+z
1/2+x,-y,1/2-z
1/2-x,y,1/2-z
1/2+x,1/2+y,z
1/2-x,1/2-y,z
1/2+x,1/2-y,-z
1/2-x,1/2+y,-z
loop_
_atom_site_type_symbol
_atom_site_label
_atom_site_fract_x
_atom_site_fract_y
_atom_site_fract_z
Si Si1 0.065027 0.369519 0.824627
Si Si2 0.772021 0.839397 0.941586
Si Si3 0.759932 0.162189 0.620971
Si Si4 0.750000 0.750000 0.750000
Si Si5 0.995113 0.083978 0.159735
O O1 0.155391 0.393460 0.900439
O O2 0.144959 0.292715 0.806193
O O3 0.077374 0.419849 0.746036
O O4 0.909288 0.363232 0.851723
O O5 0.750000 0.750000 0.936627
O O6 0.916612 0.861224 0.900671
O O7 0.770585 0.862325 0.032094
O O8 0.750000 0.250000 0.635602
O O9 0.646417 0.119318 0.673154
O O10 0.000000 0.000000 0.125698
#
# Coordination Sequence:
#
# PCOD8163060 Si02
#       5
#    16  16  16   4  16
#     4  12  22  40  68  97 137 179 241 279 349 413
#     4  11  22  43  70 101 138 185 233 286 358 424
#     4  11  25  41  69 106 140 175 238 301 344 415
#     4  12  20  40  74 104 132 200 230 304 364 416
#     4  12  27  46  69 102 146 190 231 286 358 428
#
# _framework density 23.069174
#
# number of rings (size 3 to 8) (size 9 to 14) (size 15 to 20)
#    0.000    0.471    3.529    4.941    0.000   10.353 
#    0.000    0.000    0.000    4.235    0.000    0.000 
#    0.000    0.000    0.000    0.000    0.000    0.000 
#
# Total GULP energy -210658.928341 kJ/mol
# GULP energy per Si atom -12391.701667 kJ/mol
# Density = 2.301667 g / cm^3
# Si number density = 23.069174 Si / 1000 Ang^3
#
#
#
# Elastic Constant Matrix: (Units=GPa)
#
#
# Indices 1 2 3 4 5 6 
#
# 1 151.7682 29.0384 10.3025 0.0000 0.0000 0.0000
# 2 29.0384 90.9324 9.5339 0.0000 0.0000 0.0000
# 3 10.3025 9.5339 90.6450 0.0000 0.0000 0.0000
# 4 0.0000 0.0000 0.0000 15.0684 0.0000 0.0000
# 5 0.0000 0.0000 0.0000 0.000012099.2678 0.0000
# 6 0.0000 0.0000 0.0000 0.0000 0.0000 23.4701
#
#
#
# Elastic Compliance Matrix: (Units=1/GPa)
#
#
# Indices 1 2 3 4 5 6 
#
# 1 0.007047 -0.002191 -0.000571 0.000000 0.000000 0.000000
# 2 -0.002191 0.011801 -0.000992 0.000000 0.000000 0.000000
# 3 -0.000571 -0.000992 0.011201 0.000000 0.000000 0.000000
# 4 0.000000 0.000000 0.000000 0.066364 0.000000 0.000000
# 5 0.000000 0.000000 0.000000 0.000000 0.000083 0.000000
# 6 0.000000 0.000000 0.000000 0.000000 0.000000 0.042607
#
#
# Mechanical properties :
#
#
# Convention : Reuss Voigt Hill
#
# Bulk Modulus (GPa) = 44.36106 47.89947 46.13027
# Shear Modulus (GPa) = 32.44155 2446.52599 1239.48377
#
# Velocity S-wave (km/s) = 3.75410 32.60091 23.20466
# Velocity P-wave (km/s) = 6.16947 37.91967 27.16582
#
# Compressibility (1/GPa) = 0.02254229
#
# Stress axis : x y z
#
# Youngs Moduli (GPa) = 141.90742 84.74049 89.27571
#
# Poissons Ratio (x) = 0.18563 0.05093
# Poissons Ratio (y) = 0.31085 0.08858
# Poissons Ratio (z) = 0.08096 0.08408
#
# Static dielectric constant tensor:
#      x y z
#    x 0.000000 0.000000 0.000000 
#    y 0.000000 0.000000 0.000000 
#    z 0.000000 0.000000 0.000000 
# 
# 
# High freq. dielectric constant tensor:
#      x y z
#    x 1.928390 0.000000 0.000000 
#    y 0.000000 1.868520 0.000000 
#    z 0.000000 0.000000 1.937620 
# 
# From -- ./inp_files/11247.got.cif
#   From: 2010.03.12/outbox.cif.g09.slc.cpg/sg22_6_cif.got.tgz:11247.got - 2010.04.14 02:24:06.
