data_PCOD8163167
_publ_section_title
;
Structure prediction by ZEFSAII (Michael W. Deem and Ramdas Pophale) SiO2 
 PCOD8163167
Probable space group: F 2 2 2
;
_chemical_formula_sum "Si O2"
_cell_formula_units_Z 88
_cell_length_a 20.681184
_cell_length_b 13.367521
_cell_length_c 15.413492
_cell_angle_alpha 90.000000
_cell_angle_beta 90.000000
_cell_angle_gamma 90.000000
_cell_volume 4261.154832
_symmetry_space_group_name_H-M "F 2 2 2"
_symmetry_group_IT_number 22
_symmetry_cell_setting 'orthorhombic'
loop_
_space_group_symop_operation_xyz
x,y,z
-x,-y,z
x,-y,-z
-x,y,-z
x,1/2+y,1/2+z
-x,1/2-y,1/2+z
x,1/2-y,1/2-z
-x,1/2+y,1/2-z
1/2+x,y,1/2+z
1/2-x,-y,1/2+z
1/2+x,-y,1/2-z
1/2-x,y,1/2-z
1/2+x,1/2+y,z
1/2-x,1/2-y,z
1/2+x,1/2-y,-z
1/2-x,1/2+y,-z
loop_
_atom_site_type_symbol
_atom_site_label
_atom_site_fract_x
_atom_site_fract_y
_atom_site_fract_z
Si Si1 0.851179 0.500000 0.000000
Si Si2 0.546296 0.590185 0.629909
Si Si3 0.750000 0.508476 0.250000
Si Si4 0.256073 0.634251 0.918751
Si Si5 0.615530 0.108507 0.473574
Si Si6 0.000000 0.753235 0.500000
Si Si7 0.360429 0.859207 0.270884
O O1 0.895033 0.446449 0.070760
O O2 0.808479 0.589845 0.038641
O O3 0.500000 0.500000 0.652750
O O4 0.505050 0.677393 0.584610
O O5 0.571907 0.632043 0.720671
O O6 0.729744 0.576132 0.169424
O O7 0.688690 0.439143 0.270329
O O8 0.250000 0.750000 0.895801
O O9 0.314502 0.621500 0.984871
O O10 0.564462 0.187581 0.510987
O O11 0.625315 0.122616 0.371386
O O12 0.588178 0.000000 0.500000
O O13 0.331007 0.750000 0.250000
#
# Coordination Sequence:
#
# PCOD8163167 Si02
#       7
#     8  16   8  16  16   8  16
#     4  12  21  46  74 101 140 184 242 312 356 443
#     4  12  25  44  74 104 139 187 250 307 368 438
#     4  12  24  48  70 104 150 182 246 320 358 444
#     4  12  26  43  74 106 144 194 241 300 384 442
#     4  12  26  48  71 105 149 195 243 306 383 443
#     4  12  24  46  74 102 144 196 248 300 370 458
#     4  12  26  46  72 108 141 190 252 308 370 455
#
# _framework density 20.651679000000001
#
# number of rings (size 3 to 8) (size 9 to 14) (size 15 to 20)
#    0.000    0.000    8.182    1.909    0.000    1.455 
#    0.000    0.000    4.000    0.000    0.000    0.000 
#    0.000    0.000    0.000    0.000    0.000    0.000 
#
# Total GULP energy -272907.100622 kJ/mol
# GULP energy per Si atom -12404.868210 kJ/mol
# Density = 2.060467 g / cm^3
# Si number density = 20.651679 Si / 1000 Ang^3
#
#
#
# Elastic Constant Matrix: (Units=GPa)
#
#
# Indices 1 2 3 4 5 6 
#
# 1 88.5885 37.3313 44.5300 0.0000 0.0000 0.0000
# 2 37.3313 160.9640 53.3946 0.0000 0.0000 0.0000
# 3 44.5300 53.3946 150.1912 0.0000 0.0000 0.0000
# 4 0.0000 0.0000 0.0000 -5.4448 0.0000 0.0000
# 5 0.0000 0.0000 0.0000 0.0000 44.0548 0.0000
# 6 0.0000 0.0000 0.0000 0.0000 0.0000 52.9182
#
#
#
# Elastic Compliance Matrix: (Units=1/GPa)
#
#
# Indices 1 2 3 4 5 6 
#
# 1 0.013864 -0.002099 -0.003364 0.000000 0.000000 0.000000
# 2 -0.002099 0.007361 -0.001994 0.000000 0.000000 0.000000
# 3 -0.003364 -0.001994 0.008365 0.000000 0.000000 0.000000
# 4 0.000000 0.000000 0.000000 -0.183662 0.000000 0.000000
# 5 0.000000 0.000000 0.000000 0.000000 0.022699 0.000000
# 6 0.000000 0.000000 0.000000 0.000000 0.000000 0.018897
#
#
# Mechanical properties :
#
#
# Convention : Reuss Voigt Hill
#
# Bulk Modulus (GPa) = 68.14981 74.47286 71.31133
# Shear Modulus (GPa) = -53.95567 35.93816 -9.00876
#
# Velocity S-wave (km/s) = -5.11696 4.17610 -2.09086
# Velocity P-wave (km/s) = 1.35636 7.70667 5.36438
#
# Compressibility (1/GPa) = 0.01467356
#
# Stress axis : x y z
#
# Youngs Moduli (GPa) = 72.13006 135.84961 119.55050
#
# Poissons Ratio (x) = 0.28520 0.40218
# Poissons Ratio (y) = 0.15143 0.23844
# Poissons Ratio (z) = 0.24265 0.27095
#
# Static dielectric constant tensor:
#      x y z
#    x 4.059210 0.000000 0.000000 
#    y 0.000000 4.338570 0.000000 
#    z 0.000000 0.000000 3.684340 
# 
# 
# High freq. dielectric constant tensor:
#      x y z
#    x 1.813400 0.000000 0.000000 
#    y 0.000000 1.831740 0.000000 
#    z 0.000000 0.000000 1.811650 
# 
# From -- ./inp_files/29310.got.cif
#   From: 2010.03.12/outbox.cif.g09.slc.cpg/sg22_15_cif.got.tgz:29310.got - 2010.04.14 02:24:06.
