data_PCOD8163705
_publ_section_title
;
Structure prediction by ZEFSAII (Michael W. Deem and Ramdas Pophale) SiO2 
 PCOD8163705
Probable space group: I 2 2 2
;
_chemical_formula_sum "Si O2"
_cell_formula_units_Z 48
_cell_length_a 17.675129
_cell_length_b 14.057491
_cell_length_c 9.313935
_cell_angle_alpha 90.000000
_cell_angle_beta 90.000000
_cell_angle_gamma 90.000000
_cell_volume 2314.214493
_symmetry_space_group_name_H-M "I 2 2 2"
_symmetry_group_IT_number 23
_symmetry_cell_setting 'orthorhombic'
loop_
_space_group_symop_operation_xyz
x,y,z
-x,-y,z
x,-y,-z
-x,y,-z
1/2+x,1/2+y,1/2+z
1/2-x,1/2-y,1/2+z
1/2+x,1/2-y,1/2-z
1/2-x,1/2+y,1/2-z
loop_
_atom_site_type_symbol
_atom_site_label
_atom_site_fract_x
_atom_site_fract_y
_atom_site_fract_z
Si Si1 0.166992 0.715209 0.355923
Si Si2 0.419356 0.410934 0.427979
Si Si3 0.416778 0.976608 0.835314
Si Si4 0.802710 0.433106 0.873167
Si Si5 0.130146 0.926338 0.375999
Si Si6 0.702195 0.257831 0.542020
O O1 0.104029 0.635418 0.321571
O O2 0.129274 0.813558 0.416445
O O3 0.225588 0.682816 0.481430
O O4 0.215265 0.729128 0.208084
O O5 0.376789 0.500000 0.500000
O O6 0.500000 0.397203 0.500000
O O7 0.425899 0.435467 0.258914
O O8 0.374217 0.316597 0.460731
O O9 0.500000 0.000000 0.769890
O O10 0.355880 0.045805 0.761641
O O11 0.416645 0.000000 0.000000
O O12 0.715739 0.454878 0.830099
O O13 0.810603 0.326874 0.930376
O O14 0.831160 0.500000 0.000000
O O15 0.102522 0.000000 0.500000
#
# Coordination Sequence:
#
# PCOD8163705 Si02
#       6
#     8   8   8   8   8   8
#     4  10  22  40  65 100 131 166 236 268 336 405
#     4  10  23  40  59  90 124 160 212 274 336 398
#     4  11  26  42  61  95 142 186 220 275 346 415
#     4  10  20  39  63  97 127 169 227 271 327 396
#     4   9  21  40  67  93 127 171 218 281 333 393
#     4  10  22  38  66  97 127 176 218 282 325 391
#
# _framework density 20.741379999999999
#
# number of rings (size 3 to 8) (size 9 to 14) (size 15 to 20)
#    0.000    2.000    1.667    0.000    9.333    3.000 
#    0.000    1.667    7.333    0.000    0.000    0.000 
#    0.000    0.000    0.000    0.000    0.000    0.000 
#
# Total GULP energy -297409.494047 kJ/mol
# GULP energy per Si atom -12392.062252 kJ/mol
# Density = 2.069417 g / cm^3
# Si number density = 20.741380 Si / 1000 Ang^3
#
#
#
# Elastic Constant Matrix: (Units=GPa)
#
#
# Indices 1 2 3 4 5 6 
#
# 1 95.6970 37.4605 58.9725 0.0000 0.0000 0.0000
# 2 37.4605 103.4017 44.7742 0.0000 0.0000 0.0000
# 3 58.9725 44.7742 110.5657 0.0000 0.0000 0.0000
# 4 0.0000 0.0000 0.0000 38.7614 0.0000 0.0000
# 5 0.0000 0.0000 0.0000 0.0000 30.3839 0.0000
# 6 0.0000 0.0000 0.0000 0.0000 0.0000 23.5912
#
#
#
# Elastic Compliance Matrix: (Units=1/GPa)
#
#
# Indices 1 2 3 4 5 6 
#
# 1 0.016108 -0.002565 -0.007553 0.000000 0.000000 0.000000
# 2 -0.002565 0.012136 -0.003546 0.000000 0.000000 0.000000
# 3 -0.007553 -0.003546 0.014509 0.000000 0.000000 0.000000
# 4 0.000000 0.000000 0.000000 0.025799 0.000000 0.000000
# 5 0.000000 0.000000 0.000000 0.000000 0.032912 0.000000
# 6 0.000000 0.000000 0.000000 0.000000 0.000000 0.042389
#
#
# Mechanical properties :
#
#
# Convention : Reuss Voigt Hill
#
# Bulk Modulus (GPa) = 64.83250 65.78652 65.30951
# Shear Modulus (GPa) = 28.35706 29.77778 29.06742
#
# Velocity S-wave (km/s) = 3.70154 3.79313 3.74762
# Velocity P-wave (km/s) = 7.04230 7.13934 7.09099
#
# Compressibility (1/GPa) = 0.01542436
#
# Stress axis : x y z
#
# Youngs Moduli (GPa) = 62.08022 82.39985 68.92293
#
# Poissons Ratio (x) = 0.21137 0.52056
# Poissons Ratio (y) = 0.15925 0.24442
# Poissons Ratio (z) = 0.46888 0.29221
#
# Static dielectric constant tensor:
#      x y z
#    x 3.695790 0.000000 0.000000 
#    y 0.000000 4.243320 0.000000 
#    z 0.000000 0.000000 4.054920 
# 
# 
# High freq. dielectric constant tensor:
#      x y z
#    x 1.789500 0.000000 0.000000 
#    y 0.000000 1.820230 0.000000 
#    z 0.000000 0.000000 1.819120 
# 
# From -- ./inp_files/11051.got.cif
#   From: 2010.03.12/outbox.cif.g09.slc.cpg/sg23_6_cif.got.tgz:11051.got - 2010.04.14 02:50:06.
