data_PCOD8163426
_publ_section_title
;
Structure prediction by ZEFSAII (Michael W. Deem and Ramdas Pophale) SiO2 
 PCOD8163426
Probable space group: I 2 2 2
;
_chemical_formula_sum "Si O2"
_cell_formula_units_Z 64
_cell_length_a 12.191757
_cell_length_b 17.271106
_cell_length_c 15.239777
_cell_angle_alpha 90.000000
_cell_angle_beta 90.000000
_cell_angle_gamma 90.000000
_cell_volume 3208.965587
_symmetry_space_group_name_H-M "I 2 2 2"
_symmetry_group_IT_number 23
_symmetry_cell_setting 'orthorhombic'
loop_
_space_group_symop_operation_xyz
x,y,z
-x,-y,z
x,-y,-z
-x,y,-z
1/2+x,1/2+y,1/2+z
1/2-x,1/2-y,1/2+z
1/2+x,1/2-y,1/2-z
1/2-x,1/2+y,1/2-z
loop_
_atom_site_type_symbol
_atom_site_label
_atom_site_fract_x
_atom_site_fract_y
_atom_site_fract_z
Si Si1 0.568567 0.366597 0.226297
Si Si2 0.688330 0.743166 0.008097
Si Si3 0.056198 0.370150 0.589041
Si Si4 0.215239 0.942969 0.870488
Si Si5 0.623001 0.343871 0.509889
Si Si6 0.127456 0.699109 0.683525
Si Si7 0.378834 0.581551 0.034404
Si Si8 0.666168 0.611924 0.301225
O O1 0.647103 0.389605 0.304941
O O2 0.576685 0.273877 0.230041
O O3 0.617244 0.408733 0.139575
O O4 0.440035 0.391907 0.237252
O O5 0.806562 0.775909 0.036586
O O6 0.667638 0.774602 0.911322
O O7 0.689810 0.650234 0.011486
O O8 0.596766 0.781403 0.071161
O O9 0.155554 0.424044 0.621753
O O10 0.000000 0.404569 0.500000
O O11 0.968265 0.364887 0.668100
O O12 0.203909 0.028423 0.834051
O O13 0.159049 0.926364 0.965913
O O14 0.500000 0.320694 0.500000
O O15 0.634510 0.341525 0.613343
O O16 0.227780 0.658452 0.738427
O O17 0.327901 0.500000 0.000000
O O18 0.500000 0.589969 0.000000
#
# Coordination Sequence:
#
# PCOD8163426 Si02
#       8
#     8   8   8   8   8   8   8   8
#     4  11  23  38  57  87 125 154 205 259 304 363
#     4   8  16  34  56  84 109 146 202 246 282 357
#     4   9  18  37  61  85 119 157 207 244 291 371
#     4  11  23  35  58  92 125 158 194 254 310 361
#     4  10  19  35  55  82 121 162 190 226 297 376
#     4   9  20  37  57  80 113 162 199 244 297 352
#     4  10  21  36  60  85 111 149 199 261 320 345
#     4  11  23  37  58  87 124 158 200 248 304 372
#
# _framework density 19.944120000000002
#
# number of rings (size 3 to 8) (size 9 to 14) (size 15 to 20)
#    0.000    2.125    1.250    3.375    5.250    1.000 
#    0.000    3.125    0.000    0.375    0.000    0.000 
#    0.000    0.000    0.000    0.000    0.000    0.000 
#
# Total GULP energy -396439.548129 kJ/mol
# GULP energy per Si atom -12388.735879 kJ/mol
# Density = 1.989873 g / cm^3
# Si number density = 19.944120 Si / 1000 Ang^3
#
#
#
# Elastic Constant Matrix: (Units=GPa)
#
#
# Indices 1 2 3 4 5 6 
#
# 1 141.2240 54.8651 16.9264 0.0000 0.0000 0.0000
# 2 54.8651 112.9874 9.9500 0.0000 0.0000 0.0001
# 3 16.9264 9.9500 29.1098 0.0000 0.0000 0.0001
# 4 0.0000 0.0000 0.0000 35.9227 0.0000 0.0001
# 5 0.0000 0.0000 0.0000 0.0000 15.5348 0.0000
# 6 0.0000 0.0001 0.0001 0.0001 0.0000 10.5370
#
#
#
# Elastic Compliance Matrix: (Units=1/GPa)
#
#
# Indices 1 2 3 4 5 6 
#
# 1 0.009141 -0.004094 -0.003916 0.000000 0.000000 0.000000
# 2 -0.004094 0.010959 -0.001365 0.000000 0.000000 0.000000
# 3 -0.003916 -0.001365 0.037096 0.000000 0.000000 0.000000
# 4 0.000000 0.000000 0.000000 0.027838 0.000000 0.000000
# 5 0.000000 0.000000 0.000000 0.000000 0.064371 0.000000
# 6 0.000000 0.000000 0.000000 0.000000 0.000000 0.094904
#
#
# Mechanical properties :
#
#
# Convention : Reuss Voigt Hill
#
# Bulk Modulus (GPa) = 26.01058 49.64491 37.82775
# Shear Modulus (GPa) = 18.12424 25.83754 21.98089
#
# Velocity S-wave (km/s) = 3.01782 3.60321 3.32343
# Velocity P-wave (km/s) = 5.02126 6.50053 5.80818
#
# Compressibility (1/GPa) = 0.03844589
#
# Stress axis : x y z
#
# Youngs Moduli (GPa) = 109.40104 91.25204 26.95688
#
# Poissons Ratio (x) = 0.37356 0.10556
# Poissons Ratio (y) = 0.44786 0.03681
# Poissons Ratio (z) = 0.42838 0.12459
#
# Static dielectric constant tensor:
#      x y z
#    x 2.407980 0.000000 -0.000010 
#    y 0.000000 3.879060 0.000000 
#    z -0.000010 0.000000 5.399920 
# 
# 
# High freq. dielectric constant tensor:
#      x y z
#    x 1.778260 0.000000 0.000000 
#    y 0.000000 1.769410 0.000000 
#    z 0.000000 0.000000 1.755420 
# 
# From -- ./inp_files/21035.got.cif
#   From: 2010.03.12/outbox.cif.g09.slc.cpg/sg23_11_cif.got.tgz:21035.got - 2010.04.14 02:50:06.
