data_PCOD8163589
_publ_section_title
;
Structure prediction by ZEFSAII (Michael W. Deem and Ramdas Pophale) SiO2 
 PCOD8163589
Probable space group: I 2 2 2
;
_chemical_formula_sum "Si O2"
_cell_formula_units_Z 64
_cell_length_a 11.971939
_cell_length_b 8.993056
_cell_length_c 31.082540
_cell_angle_alpha 90.000000
_cell_angle_beta 90.000000
_cell_angle_gamma 90.000000
_cell_volume 3346.480466
_symmetry_space_group_name_H-M "I 2 2 2"
_symmetry_group_IT_number 23
_symmetry_cell_setting 'orthorhombic'
loop_
_space_group_symop_operation_xyz
x,y,z
-x,-y,z
x,-y,-z
-x,y,-z
1/2+x,1/2+y,1/2+z
1/2-x,1/2-y,1/2+z
1/2+x,1/2-y,1/2-z
1/2-x,1/2+y,1/2-z
loop_
_atom_site_type_symbol
_atom_site_label
_atom_site_fract_x
_atom_site_fract_y
_atom_site_fract_z
Si Si1 0.396772 0.101459 0.345672
Si Si2 0.725135 0.174172 0.325220
Si Si3 0.872044 0.175477 0.997129
Si Si4 0.272368 0.316938 0.075058
Si Si5 0.528562 0.670796 0.195105
Si Si6 0.751682 0.655376 0.927328
Si Si7 0.023938 0.174127 0.212267
Si Si8 0.488748 0.676918 0.101821
O O1 0.328087 0.170164 0.385184
O O2 0.433855 0.238593 0.316346
O O3 0.500000 0.000000 0.362921
O O4 0.320036 0.992982 0.316667
O O5 0.732802 0.195175 0.376203
O O6 0.839531 0.191892 0.300288
O O7 0.646074 0.301260 0.306655
O O8 0.804697 0.247049 0.035776
O O9 0.809499 0.215041 0.952823
O O10 0.000000 0.234090 0.000000
O O11 0.870278 0.000000 0.000000
O O12 0.259267 0.484908 0.057706
O O13 0.403876 0.266877 0.073859
O O14 0.500000 0.500000 0.192517
O O15 0.476413 0.738523 0.238741
O O16 0.487845 0.746768 0.150383
O O17 0.627596 0.722673 0.919863
O O18 0.000000 0.000000 0.210996
O O19 0.500000 0.500000 0.106533
#
# Coordination Sequence:
#
# PCOD8163589 Si02
#       8
#     8   8   8   8   8   8   8   8
#     4   9  19  34  53  80 108 147 187 232 276 317
#     4   9  19  35  56  78 109 147 184 233 275 317
#     4  11  26  40  54  81 113 146 173 217 277 335
#     4   9  19  38  61  81 107 140 183 230 269 323
#     4   9  17  32  55  82 110 145 187 228 277 326
#     4  10  20  35  61  86 104 139 185 231 271 319
#     4  10  21  32  50  80 114 151 185 224 281 334
#     4   8  16  34  59  85 108 137 181 231 277 313
#
# _framework density 19.124569000000001
#
# number of rings (size 3 to 8) (size 9 to 14) (size 15 to 20)
#    0.000    2.625    0.000    2.625    5.250    5.000 
#    0.000    3.125    0.000    9.000    0.000    0.000 
#    0.000    0.000    0.000    0.000    0.000    0.000 
#
# Total GULP energy -396616.025662 kJ/mol
# GULP energy per Si atom -12394.250802 kJ/mol
# Density = 1.908104 g / cm^3
# Si number density = 19.124569 Si / 1000 Ang^3
#
#
#
# Elastic Constant Matrix: (Units=GPa)
#
#
# Indices 1 2 3 4 5 6 
#
# 1 153.6850 38.0656 67.0485 0.0000 0.0000 0.0000
# 2 38.0656 56.1187 38.2324 0.0000 0.0000 0.0000
# 3 67.0485 38.2324 83.6191 0.0000 0.0000 0.0000
# 4 0.0000 0.0000 0.0000 27.6825 0.0000 0.0000
# 5 0.0000 0.0000 0.0000 0.0000 22.0760 0.0000
# 6 0.0000 0.0000 0.0000 0.0000 0.0000 20.2085
#
#
#
# Elastic Compliance Matrix: (Units=1/GPa)
#
#
# Indices 1 2 3 4 5 6 
#
# 1 0.010152 -0.001947 -0.007250 0.000000 0.000000 0.000000
# 2 -0.001947 0.026255 -0.010443 0.000000 0.000000 0.000000
# 3 -0.007250 -0.010443 0.022547 0.000000 0.000000 0.000000
# 4 0.000000 0.000000 0.000000 0.036124 0.000000 0.000000
# 5 0.000000 0.000000 0.000000 0.000000 0.045298 0.000000
# 6 0.000000 0.000000 0.000000 0.000000 0.000000 0.049484
#
#
# Mechanical properties :
#
#
# Convention : Reuss Voigt Hill
#
# Bulk Modulus (GPa) = 50.82928 64.45730 57.64329
# Shear Modulus (GPa) = 21.21360 23.99847 22.60604
#
# Velocity S-wave (km/s) = 3.33413 3.54623 3.44181
# Velocity P-wave (km/s) = 6.43876 7.10948 6.78242
#
# Compressibility (1/GPa) = 0.01967370
#
# Stress axis : x y z
#
# Youngs Moduli (GPa) = 98.50236 38.08861 44.35152
#
# Poissons Ratio (x) = 0.07415 0.32155
# Poissons Ratio (y) = 0.19177 0.46317
# Poissons Ratio (z) = 0.71415 0.39776
#
# Static dielectric constant tensor:
#      x y z
#    x 3.931490 0.000000 0.000000 
#    y 0.000000 3.166230 0.000000 
#    z 0.000000 0.000000 3.636030 
# 
# 
# High freq. dielectric constant tensor:
#      x y z
#    x 1.762670 0.000000 0.000000 
#    y 0.000000 1.705530 0.000000 
#    z 0.000000 0.000000 1.744720 
# 
# From -- ./inp_files/30482.got.cif
#   From: 2010.03.12/outbox.cif.g09.slc.cpg/sg23_16_cif.got.tgz:30482.got - 2010.04.14 02:50:06.
