data_PCOD8163346
_publ_section_title
;
Structure prediction by ZEFSAII (Michael W. Deem and Ramdas Pophale) SiO2 
 PCOD8163346
Probable space group: I 2 2 2
;
_chemical_formula_sum "Si O2"
_cell_formula_units_Z 48
_cell_length_a 8.102660
_cell_length_b 14.318301
_cell_length_c 23.615976
_cell_angle_alpha 90.000000
_cell_angle_beta 90.000000
_cell_angle_gamma 90.000000
_cell_volume 2739.838742
_symmetry_space_group_name_H-M "I 2 2 2"
_symmetry_group_IT_number 23
_symmetry_cell_setting 'orthorhombic'
loop_
_space_group_symop_operation_xyz
x,y,z
-x,-y,z
x,-y,-z
-x,y,-z
1/2+x,1/2+y,1/2+z
1/2-x,1/2-y,1/2+z
1/2+x,1/2-y,1/2-z
1/2-x,1/2+y,1/2-z
loop_
_atom_site_type_symbol
_atom_site_label
_atom_site_fract_x
_atom_site_fract_y
_atom_site_fract_z
Si Si1 0.949138 0.394917 0.940139
Si Si2 0.060954 0.098310 0.563027
Si Si3 0.661556 0.557588 0.213917
Si Si4 0.039072 0.212307 0.342576
Si Si5 0.638656 0.111972 0.674147
Si Si6 0.060480 0.401389 0.286875
O O1 0.754569 0.385513 0.931505
O O2 0.000000 0.500000 0.948503
O O3 0.047813 0.359368 0.884432
O O4 0.000000 0.343426 0.000000
O O5 0.000000 0.093897 0.500000
O O6 0.963240 0.185466 0.591037
O O7 0.000000 0.000000 0.592845
O O8 0.500000 0.500000 0.230406
O O9 0.614901 0.651707 0.180904
O O10 0.791601 0.495497 0.175771
O O11 0.745122 0.587640 0.273369
O O12 0.211240 0.182654 0.314745
O O13 0.017041 0.322535 0.332972
O O14 0.519526 0.127161 0.727037
O O15 0.000000 0.500000 0.311996
#
# Coordination Sequence:
#
# PCOD8163346 Si02
#       6
#     8   8   8   8   8   8
#     4  11  19  29  46  69 101 134 160 187 231 290
#     4  11  21  33  50  74 102 128 157 195 242 293
#     4   9  18  31  48  70  98 130 162 199 241 287
#     4  11  19  31  50  72  98 129 165 199 240 289
#     4  10  19  31  47  70 100 131 162 198 241 286
#     4  10  20  33  49  69  97 130 167 205 240 283
#
# _framework density 17.519279000000001
#
# number of rings (size 3 to 8) (size 9 to 14) (size 15 to 20)
#    0.000    1.667    0.000   10.000    0.000    0.000 
#    0.000    1.667    0.000    0.500    0.000    0.000 
#    0.000    1.333    0.000    0.000    0.000    0.000 
#
# Total GULP energy -297404.943160 kJ/mol
# GULP energy per Si atom -12391.872632 kJ/mol
# Density = 1.747940 g / cm^3
# Si number density = 17.519279 Si / 1000 Ang^3
#
#
#
# Elastic Constant Matrix: (Units=GPa)
#
#
# Indices 1 2 3 4 5 6 
#
# 1 87.3800 24.8331 23.6318 0.0000 0.0000 0.0000
# 2 24.8331 101.2100 47.7025 0.0000 0.0000 0.0000
# 3 23.6318 47.7025 73.9182 0.0000 0.0000 0.0000
# 4 0.0000 0.0000 0.0000 25.3574 0.0000 0.0000
# 5 0.0000 0.0000 0.0000 0.0000 24.2466 0.0000
# 6 0.0000 0.0000 0.0000 0.0000 0.0000 13.3853
#
#
#
# Elastic Compliance Matrix: (Units=1/GPa)
#
#
# Indices 1 2 3 4 5 6 
#
# 1 0.012735 -0.001733 -0.002953 0.000000 0.000000 0.000000
# 2 -0.001733 0.014435 -0.008762 0.000000 0.000000 0.000000
# 3 -0.002953 -0.008762 0.020127 0.000000 0.000000 0.000000
# 4 0.000000 0.000000 0.000000 0.039436 0.000000 0.000000
# 5 0.000000 0.000000 0.000000 0.000000 0.041243 0.000000
# 6 0.000000 0.000000 0.000000 0.000000 0.000000 0.074709
#
#
# Mechanical properties :
#
#
# Convention : Reuss Voigt Hill
#
# Bulk Modulus (GPa) = 49.01480 50.53812 49.77646
# Shear Modulus (GPa) = 21.15221 23.68722 22.41971
#
# Velocity S-wave (km/s) = 3.47849 3.68103 3.58119
# Velocity P-wave (km/s) = 6.64617 6.85394 6.75085
#
# Compressibility (1/GPa) = 0.02040200
#
# Stress axis : x y z
#
# Youngs Moduli (GPa) = 78.52097 69.27521 49.68476
#
# Poissons Ratio (x) = 0.12004 0.14673
# Poissons Ratio (y) = 0.13606 0.43532
# Poissons Ratio (z) = 0.23189 0.60696
#
# Static dielectric constant tensor:
#      x y z
#    x 3.432720 0.000000 0.000000 
#    y 0.000000 3.001950 0.000000 
#    z 0.000000 0.000000 3.371270 
# 
# 
# High freq. dielectric constant tensor:
#      x y z
#    x 1.702710 0.000000 0.000000 
#    y 0.000000 1.626470 0.000000 
#    z 0.000000 0.000000 1.657340 
# 
# From -- ./inp_files/26169.got.cif
#   From: 2010.03.12/outbox.cif.g09.slc.cpg/sg23_14_cif.got.tgz:26169.got - 2010.04.14 02:50:06.
