data_PCOD8163013
_publ_section_title
;
Structure prediction by ZEFSAII (Michael W. Deem and Ramdas Pophale) SiO2 
 PCOD8163013
Probable space group: F 2 2 2
;
_chemical_formula_sum "Si O2"
_cell_formula_units_Z 64
_cell_length_a 24.192351
_cell_length_b 8.529892
_cell_length_c 15.966223
_cell_angle_alpha 90.000000
_cell_angle_beta 90.000000
_cell_angle_gamma 90.000000
_cell_volume 3294.760101
_symmetry_space_group_name_H-M "F 2 2 2"
_symmetry_group_IT_number 22
_symmetry_cell_setting 'orthorhombic'
loop_
_space_group_symop_operation_xyz
x,y,z
-x,-y,z
x,-y,-z
-x,y,-z
x,1/2+y,1/2+z
-x,1/2-y,1/2+z
x,1/2-y,1/2-z
-x,1/2+y,1/2-z
1/2+x,y,1/2+z
1/2-x,-y,1/2+z
1/2+x,-y,1/2-z
1/2-x,y,1/2-z
1/2+x,1/2+y,z
1/2-x,1/2-y,z
1/2+x,1/2-y,-z
1/2-x,1/2+y,-z
loop_
_atom_site_type_symbol
_atom_site_label
_atom_site_fract_x
_atom_site_fract_y
_atom_site_fract_z
Si Si1 0.910963 0.111499 0.419846
Si Si2 0.121454 0.308847 0.158309
Si Si3 0.494203 0.685259 0.843010
Si Si4 0.691652 0.317788 0.504457
O O1 0.858183 0.224295 0.440000
O O2 0.962391 0.223032 0.401063
O O3 0.923577 0.000000 0.500000
O O4 0.894370 0.995260 0.342764
O O5 0.138358 0.250000 0.250000
O O6 0.067244 0.219539 0.124260
O O7 0.173074 0.267446 0.098117
O O8 0.500000 0.500000 0.847423
O O9 0.502028 0.750000 0.750000
O O10 0.700673 0.500000 0.500000
O O11 0.750000 0.250000 0.476564
#
# Coordination Sequence:
#
# PCOD8163013 Si02
#       4
#    16  16  16  16
#     4   9  20  38  57  78 113 149 178 226 278 322
#     4   9  18  34  55  80 109 143 179 220 274 327
#     4  11  21  34  57  87 115 146 182 225 276 331
#     4   9  20  36  55  77 106 142 180 226 274 317
#
# _framework density 19.424783999999999
#
# number of rings (size 3 to 8) (size 9 to 14) (size 15 to 20)
#    0.000    3.000    0.000    3.750    0.000   10.500 
#    0.000    8.750    0.000    6.750    0.000    0.000 
#    0.000    0.000    0.000    0.000    0.000    0.000 
#
# Total GULP energy -198226.689803 kJ/mol
# GULP energy per Si atom -12389.168113 kJ/mol
# Density = 1.938057 g / cm^3
# Si number density = 19.424784 Si / 1000 Ang^3
#
#
#
# Elastic Constant Matrix: (Units=GPa)
#
#
# Indices 1 2 3 4 5 6 
#
# 1 131.0833 39.7151 47.8200 0.0000 0.0000 0.0000
# 2 39.7151 82.4856 47.3686 0.0000 0.0000 0.0000
# 3 47.8200 47.3686 92.7217 0.0000 0.0000 0.0000
# 4 0.0000 0.0000 0.0000 30.4404 0.0000 0.0000
# 5 0.0000 0.0000 0.0000 0.0000 22.9897 0.0000
# 6 0.0000 0.0000 0.0000 0.0000 0.0000 32.7549
#
#
#
# Elastic Compliance Matrix: (Units=1/GPa)
#
#
# Indices 1 2 3 4 5 6 
#
# 1 0.009764 -0.002561 -0.003728 0.000000 0.000000 0.000000
# 2 -0.002561 0.017828 -0.007787 0.000000 0.000000 0.000000
# 3 -0.003728 -0.007787 0.016686 0.000000 0.000000 0.000000
# 4 0.000000 0.000000 0.000000 0.032851 0.000000 0.000000
# 5 0.000000 0.000000 0.000000 0.000000 0.043498 0.000000
# 6 0.000000 0.000000 0.000000 0.000000 0.000000 0.030530
#
#
# Mechanical properties :
#
#
# Convention : Reuss Voigt Hill
#
# Bulk Modulus (GPa) = 62.00733 64.01089 63.00911
# Shear Modulus (GPa) = 27.07326 28.66277 27.86802
#
# Velocity S-wave (km/s) = 3.73734 3.84549 3.79180
# Velocity P-wave (km/s) = 7.11440 7.26236 7.18876
#
# Compressibility (1/GPa) = 0.01612712
#
# Stress axis : x y z
#
# Youngs Moduli (GPa) = 102.41217 56.09098 59.93143
#
# Poissons Ratio (x) = 0.14363 0.22341
# Poissons Ratio (y) = 0.26225 0.46670
# Poissons Ratio (z) = 0.38176 0.43679
#
# Static dielectric constant tensor:
#      x y z
#    x 4.966430 0.000000 0.000000 
#    y 0.000000 3.535910 0.000000 
#    z 0.000000 0.000000 3.584270 
# 
# 
# High freq. dielectric constant tensor:
#      x y z
#    x 1.760660 0.000000 0.000000 
#    y 0.000000 1.745020 0.000000 
#    z 0.000000 0.000000 1.744640 
# 
# From -- ./inp_files/11350.got.cif
#   From: 2010.03.12/outbox.cif.g09.slc.cpg/sg22_6_cif.got.tgz:11350.got - 2010.04.14 02:24:06.
