data_PCOD8163427
_publ_section_title
;
Structure prediction by ZEFSAII (Michael W. Deem and Ramdas Pophale) SiO2 
 PCOD8163427
Probable space group: I 2 2 2
;
_chemical_formula_sum "Si O2"
_cell_formula_units_Z 64
_cell_length_a 9.984836
_cell_length_b 21.284349
_cell_length_c 15.318317
_cell_angle_alpha 90.000000
_cell_angle_beta 90.000000
_cell_angle_gamma 90.000000
_cell_volume 3255.459975
_symmetry_space_group_name_H-M "I 2 2 2"
_symmetry_group_IT_number 23
_symmetry_cell_setting 'orthorhombic'
loop_
_space_group_symop_operation_xyz
x,y,z
-x,-y,z
x,-y,-z
-x,y,-z
1/2+x,1/2+y,1/2+z
1/2-x,1/2-y,1/2+z
1/2+x,1/2-y,1/2-z
1/2-x,1/2+y,1/2-z
loop_
_atom_site_type_symbol
_atom_site_label
_atom_site_fract_x
_atom_site_fract_y
_atom_site_fract_z
Si Si1 0.714362 0.607521 0.717889
Si Si2 0.848524 0.121877 0.971013
Si Si3 0.477595 0.178141 0.182030
Si Si4 0.710005 0.145015 0.307991
Si Si5 0.597907 0.921941 0.927383
Si Si6 0.643951 0.016102 0.259506
Si Si7 0.096410 0.744531 0.924373
Si Si8 0.983252 0.194174 0.248821
O O1 0.668818 0.587184 0.621247
O O2 0.827741 0.660844 0.710920
O O3 0.762520 0.545165 0.766791
O O4 0.590689 0.639573 0.769311
O O5 0.817929 0.196826 0.961982
O O6 0.747043 0.091064 0.038897
O O7 0.000000 0.110129 0.000000
O O8 0.573061 0.153122 0.257150
O O9 0.519688 0.143349 0.093419
O O10 0.491315 0.253488 0.174574
O O11 0.716821 0.069306 0.319329
O O12 0.695665 0.187610 0.395466
O O13 0.835305 0.165234 0.248975
O O14 0.616687 0.964809 0.841829
O O15 0.500000 0.954164 0.000000
O O16 0.500000 0.000000 0.301401
O O17 0.008399 0.772931 0.844590
O O18 0.000000 0.717655 0.000000
#
# Coordination Sequence:
#
# PCOD8163427 Si02
#       8
#     8   8   8   8   8   8   8   8
#     4  11  21  38  53  79 117 158 199 240 294 351
#     4  10  21  35  50  81 119 154 193 240 297 351
#     4  10  19  35  56  82 111 148 196 244 293 348
#     4  10  21  36  59  83 110 155 198 244 294 344
#     4  11  21  34  56  80 113 162 196 240 289 353
#     4  11  22  38  55  80 117 158 209 238 284 365
#     4   9  20  36  60  86 124 151 188 253 310 352
#     4  10  21  36  58  88 120 150 196 249 302 353
#
# _framework density 19.659279999999999
#
# number of rings (size 3 to 8) (size 9 to 14) (size 15 to 20)
#    0.000    1.750    3.750    2.250   10.500    2.250 
#    0.000    0.625    0.000    0.375    0.000    0.000 
#    0.000    0.000    0.000    0.000    0.000    0.000 
#
# Total GULP energy -396563.535854 kJ/mol
# GULP energy per Si atom -12392.610495 kJ/mol
# Density = 1.961453 g / cm^3
# Si number density = 19.659280 Si / 1000 Ang^3
#
#
#
# Elastic Constant Matrix: (Units=GPa)
#
#
# Indices 1 2 3 4 5 6 
#
# 1 110.0122 40.3207 26.5961 0.0000 0.0000 0.0000
# 2 40.3207 120.6894 24.3335 0.0001 0.0000 0.0000
# 3 26.5961 24.3335 23.6917 0.0001 0.0000 0.0000
# 4 0.0000 0.0001 0.0001 18.9356 0.0000 0.0000
# 5 0.0000 0.0000 0.0000 0.0000 24.0554 0.0000
# 6 0.0000 0.0000 0.0000 0.0000 0.0000 33.2817
#
#
#
# Elastic Compliance Matrix: (Units=1/GPa)
#
#
# Indices 1 2 3 4 5 6 
#
# 1 0.012757 -0.001734 -0.012540 0.000000 0.000000 0.000000
# 2 -0.001734 0.010685 -0.009029 0.000000 0.000000 0.000000
# 3 -0.012540 -0.009029 0.065560 0.000000 0.000000 0.000000
# 4 0.000000 0.000000 0.000000 0.052811 0.000000 0.000000
# 5 0.000000 0.000000 0.000000 0.000000 0.041571 0.000000
# 6 0.000000 0.000000 0.000000 0.000000 0.000000 0.030047
#
#
# Mechanical properties :
#
#
# Convention : Reuss Voigt Hill
#
# Bulk Modulus (GPa) = 23.58664 48.54375 36.06520
# Shear Modulus (GPa) = 18.23706 26.13074 22.18390
#
# Velocity S-wave (km/s) = 3.04905 3.64975 3.36284
# Velocity P-wave (km/s) = 4.94160 6.51974 5.78474
#
# Compressibility (1/GPa) = 0.04239688
#
# Stress axis : x y z
#
# Youngs Moduli (GPa) = 78.38865 93.58707 15.25329
#
# Poissons Ratio (x) = 0.16224 0.19128
# Poissons Ratio (y) = 0.13589 0.13772
# Poissons Ratio (z) = 0.98302 0.84496
#
# Static dielectric constant tensor:
#      x y z
#    x 3.637170 0.000000 0.000000 
#    y 0.000000 4.109690 0.000000 
#    z 0.000000 0.000000 3.517990 
# 
# 
# High freq. dielectric constant tensor:
#      x y z
#    x 1.773880 0.000000 0.000000 
#    y 0.000000 1.771670 0.000000 
#    z 0.000000 0.000000 1.712930 
# 
# From -- ./inp_files/24003.got.cif
#   From: 2010.03.12/outbox.cif.g09.slc.cpg/sg23_13_cif.got.tgz:24003.got - 2010.04.14 02:50:06.
