data_PCOD8163723
_publ_section_title
;
Structure prediction by ZEFSAII (Michael W. Deem and Ramdas Pophale) SiO2 
 PCOD8163723
Probable space group: I 2 2 2
;
_chemical_formula_sum "Si O2"
_cell_formula_units_Z 52
_cell_length_a 13.565938
_cell_length_b 9.805314
_cell_length_c 19.164952
_cell_angle_alpha 90.000000
_cell_angle_beta 90.000000
_cell_angle_gamma 90.000000
_cell_volume 2549.288986
_symmetry_space_group_name_H-M "I 2 2 2"
_symmetry_group_IT_number 23
_symmetry_cell_setting 'orthorhombic'
loop_
_space_group_symop_operation_xyz
x,y,z
-x,-y,z
x,-y,-z
-x,y,-z
1/2+x,1/2+y,1/2+z
1/2-x,1/2-y,1/2+z
1/2+x,1/2-y,1/2-z
1/2-x,1/2+y,1/2-z
loop_
_atom_site_type_symbol
_atom_site_label
_atom_site_fract_x
_atom_site_fract_y
_atom_site_fract_z
Si Si1 0.000000 0.500000 0.838461
Si Si2 0.164044 0.501513 0.733410
Si Si3 0.142121 0.393820 0.942071
Si Si4 0.878766 0.724818 0.634780
Si Si5 0.400417 0.798025 0.118481
Si Si6 0.319069 0.479641 0.845042
Si Si7 0.241631 0.343995 0.503597
O O1 0.084444 0.561650 0.788514
O O2 0.051478 0.382504 0.886591
O O3 0.142319 0.345753 0.709640
O O4 0.160816 0.595806 0.665456
O O5 0.270930 0.500416 0.768859
O O6 0.237258 0.456968 0.904324
O O7 0.166491 0.248010 0.977048
O O8 0.107507 0.500000 0.000000
O O9 0.790066 0.686979 0.582582
O O10 0.984509 0.667060 0.609973
O O11 0.884011 0.887561 0.639959
O O12 0.391149 0.649660 0.153912
O O13 0.354334 0.809007 0.042114
O O14 0.276247 0.500000 0.500000
#
# Coordination Sequence:
#
# PCOD8163723 Si02
#       7
#     4   8   8   8   8   8   8
#     4  10  21  38  66  89 116 158 220 256 278 381
#     4  11  21  39  59  87 118 164 207 242 308 367
#     4  10  20  40  64  90 115 161 212 254 309 348
#     4  12  21  38  60  87 124 156 204 252 307 382
#     4  11  22  37  58  88 123 162 201 248 312 372
#     4  10  23  37  59  86 123 159 202 258 304 367
#     4  11  23  38  60  92 124 160 198 258 316 368
#
# _framework density 20.397845
#
# number of rings (size 3 to 8) (size 9 to 14) (size 15 to 20)
#    0.000    1.231    4.615    2.077    0.000    0.615 
#    0.000    1.538    0.000    1.846    0.000    0.000 
#    0.000    0.000    0.000    0.000    0.000    0.000 
#
# Total GULP energy -322368.909241 kJ/mol
# GULP energy per Si atom -12398.804202 kJ/mol
# Density = 2.035142 g / cm^3
# Si number density = 20.397845 Si / 1000 Ang^3
#
#
#
# Elastic Constant Matrix: (Units=GPa)
#
#
# Indices 1 2 3 4 5 6 
#
# 1 54.7163 12.3833 26.6757 0.0000 0.0000 0.0000
# 2 12.3833 127.0779 21.3649 0.0000 0.0000 0.0000
# 3 26.6757 21.3649 76.8592 0.0000 0.0000 0.0000
# 4 0.0000 0.0000 0.0000 30.4225 0.0000 0.0000
# 5 0.0000 0.0000 0.0000 0.0000 25.1191 0.0000
# 6 0.0000 0.0000 0.0000 0.0000 0.0000 21.3977
#
#
#
# Elastic Compliance Matrix: (Units=1/GPa)
#
#
# Indices 1 2 3 4 5 6 
#
# 1 0.022097 -0.000906 -0.007417 0.000000 0.000000 0.000000
# 2 -0.000906 0.008292 -0.001990 0.000000 0.000000 0.000000
# 3 -0.007417 -0.001990 0.016139 0.000000 0.000000 0.000000
# 4 0.000000 0.000000 0.000000 0.032870 0.000000 0.000000
# 5 0.000000 0.000000 0.000000 0.000000 0.039810 0.000000
# 6 0.000000 0.000000 0.000000 0.000000 0.000000 0.046734
#
#
# Mechanical properties :
#
#
# Convention : Reuss Voigt Hill
#
# Bulk Modulus (GPa) = 38.61055 42.16681 40.38868
# Shear Modulus (GPa) = 25.61417 28.60316 27.10867
#
# Velocity S-wave (km/s) = 3.54747 3.74874 3.64950
# Velocity P-wave (km/s) = 5.97907 6.28128 6.13204
#
# Compressibility (1/GPa) = 0.02589966
#
# Stress axis : x y z
#
# Youngs Moduli (GPa) = 45.25413 120.59605 61.96360
#
# Poissons Ratio (x) = 0.10929 0.45961
# Poissons Ratio (y) = 0.04101 0.12334
# Poissons Ratio (z) = 0.33567 0.24004
#
# Static dielectric constant tensor:
#      x y z
#    x 3.500200 0.000000 0.000000 
#    y 0.000000 3.695900 0.000000 
#    z 0.000000 0.000000 3.830540 
# 
# 
# High freq. dielectric constant tensor:
#      x y z
#    x 1.780300 0.000000 0.000000 
#    y 0.000000 1.788160 0.000000 
#    z 0.000000 0.000000 1.806490 
# 
# From -- ./inp_files/11235.got.cif
#   From: 2010.03.12/outbox.cif.g09.slc.cpg/sg23_6_cif.got.tgz:11235.got - 2010.04.14 02:50:06.
