data_PCOD8163213
_publ_section_title
;
Structure prediction by ZEFSAII (Michael W. Deem and Ramdas Pophale) SiO2 
 PCOD8163213
Probable space group: I 2 2 2
;
_chemical_formula_sum "Si O2"
_cell_formula_units_Z 38
_cell_length_a 15.699298
_cell_length_b 18.140495
_cell_length_c 6.658756
_cell_angle_alpha 90.000000
_cell_angle_beta 90.000000
_cell_angle_gamma 90.000000
_cell_volume 1896.367343
_symmetry_space_group_name_H-M "I 2 2 2"
_symmetry_group_IT_number 23
_symmetry_cell_setting 'orthorhombic'
loop_
_space_group_symop_operation_xyz
x,y,z
-x,-y,z
x,-y,-z
-x,y,-z
1/2+x,1/2+y,1/2+z
1/2-x,1/2-y,1/2+z
1/2+x,1/2-y,1/2-z
1/2-x,1/2+y,1/2-z
loop_
_atom_site_type_symbol
_atom_site_label
_atom_site_fract_x
_atom_site_fract_y
_atom_site_fract_z
Si Si1 0.386269 0.621457 0.681647
Si Si2 0.752983 0.913007 0.512461
Si Si3 0.500000 0.500000 0.500000
Si Si4 0.754549 0.671841 0.608828
Si Si5 0.352421 0.189882 0.740858
Si Si6 0.500000 0.742591 0.500000
O O1 0.344873 0.616587 0.904366
O O2 0.442468 0.549084 0.646351
O O3 0.310599 0.623586 0.521298
O O4 0.443360 0.694149 0.652066
O O5 0.728147 0.876693 0.302387
O O6 0.676035 0.889855 0.658872
O O7 0.756036 0.000000 0.500000
O O8 0.717202 0.751277 0.663778
O O9 0.842976 0.686032 0.484243
O O10 0.445469 0.208324 0.655424
#
# Coordination Sequence:
#
# PCOD8163213 Si02
#       6
#     8   8   2   8   8   4
#     4   9  20  35  57  86 129 160 200 253 312 385
#     4  11  22  37  61  91 122 168 213 263 316 383
#     4  10  16  36  54  84 134 170 188 252 320 384
#     4  10  19  37  62  86 120 165 214 251 303 382
#     4  10  20  37  62  88 124 163 213 262 307 377
#     4   9  20  39  61  94 123 162 214 276 315 370
#
# _framework density 20.038311
#
# number of rings (size 3 to 8) (size 9 to 14) (size 15 to 20)
#    0.000    2.105    2.105    1.263    0.000    2.526 
#    0.000   23.158    0.000    0.000    0.000    8.842 
#    0.000    0.000    0.000    0.000    0.000    0.000 
#
# Total GULP energy -235485.622928 kJ/mol
# GULP energy per Si atom -12393.980154 kJ/mol
# Density = 1.999270 g / cm^3
# Si number density = 20.038311 Si / 1000 Ang^3
#
#
#
# Elastic Constant Matrix: (Units=GPa)
#
#
# Indices 1 2 3 4 5 6 
#
# 1 93.0316 41.0345 48.2902 0.0000 0.0000 0.0000
# 2 41.0345 81.4542 38.9942 0.0000 0.0000 0.0000
# 3 48.2902 38.9942 129.8420 0.0000 0.0000 0.0000
# 4 0.0000 0.0000 0.0000 27.3740 0.0000 0.0000
# 5 0.0000 0.0000 0.0000 0.0000 29.8298 0.0000
# 6 0.0000 0.0000 0.0000 0.0000 0.0000 25.5685
#
#
#
# Elastic Compliance Matrix: (Units=1/GPa)
#
#
# Indices 1 2 3 4 5 6 
#
# 1 0.015390 -0.005855 -0.003965 0.000000 0.000000 0.000000
# 2 -0.005855 0.016565 -0.002798 0.000000 0.000000 0.000000
# 3 -0.003965 -0.002798 0.010017 0.000000 0.000000 0.000000
# 4 0.000000 0.000000 0.000000 0.036531 0.000000 0.000000
# 5 0.000000 0.000000 0.000000 0.000000 0.033524 0.000000
# 6 0.000000 0.000000 0.000000 0.000000 0.000000 0.039111
#
#
# Mechanical properties :
#
#
# Convention : Reuss Voigt Hill
#
# Bulk Modulus (GPa) = 59.74883 62.32952 61.03917
# Shear Modulus (GPa) = 27.47993 28.28840 27.88417
#
# Velocity S-wave (km/s) = 3.70722 3.76136 3.73439
# Velocity P-wave (km/s) = 6.94310 7.07364 7.00868
#
# Compressibility (1/GPa) = 0.01673673
#
# Stress axis : x y z
#
# Youngs Moduli (GPa) = 64.97843 60.36648 99.83402
#
# Poissons Ratio (x) = 0.35342 0.39588
# Poissons Ratio (y) = 0.38042 0.27929
# Poissons Ratio (z) = 0.25767 0.16888
#
# Static dielectric constant tensor:
#      x y z
#    x 3.600890 0.000000 0.000000 
#    y 0.000000 3.713570 0.000000 
#    z 0.000000 0.000000 3.864220 
# 
# 
# High freq. dielectric constant tensor:
#      x y z
#    x 1.758300 0.000000 0.000000 
#    y 0.000000 1.777700 0.000000 
#    z 0.000000 0.000000 1.785890 
# 
# From -- ./inp_files/3129.got.cif
#   From: 2010.03.12/outbox.cif.g09.slc.cpg/sg23_2_cif.got.tgz:3129.got - 2010.04.14 02:50:06.
