data_PCOD8163020
_publ_section_title
;
Structure prediction by ZEFSAII (Michael W. Deem and Ramdas Pophale) SiO2 
 PCOD8163020
Probable space group: F 2 2 2
;
_chemical_formula_sum "Si O2"
_cell_formula_units_Z 112
_cell_length_a 31.910398
_cell_length_b 15.941078
_cell_length_c 11.549609
_cell_angle_alpha 90.000000
_cell_angle_beta 90.000000
_cell_angle_gamma 90.000000
_cell_volume 5875.126061
_symmetry_space_group_name_H-M "F 2 2 2"
_symmetry_group_IT_number 22
_symmetry_cell_setting 'orthorhombic'
loop_
_space_group_symop_operation_xyz
x,y,z
-x,-y,z
x,-y,-z
-x,y,-z
x,1/2+y,1/2+z
-x,1/2-y,1/2+z
x,1/2-y,1/2-z
-x,1/2+y,1/2-z
1/2+x,y,1/2+z
1/2-x,-y,1/2+z
1/2+x,-y,1/2-z
1/2-x,y,1/2-z
1/2+x,1/2+y,z
1/2-x,1/2-y,z
1/2+x,1/2-y,-z
1/2-x,1/2+y,-z
loop_
_atom_site_type_symbol
_atom_site_label
_atom_site_fract_x
_atom_site_fract_y
_atom_site_fract_z
Si Si1 0.117886 0.267748 0.928238
Si Si2 0.297305 0.739683 0.559057
Si Si3 0.366292 0.471657 0.129344
Si Si4 0.417810 0.693508 0.854937
Si Si5 0.703730 0.613349 0.241436
Si Si6 0.089755 0.625907 0.270163
Si Si7 0.001068 0.096741 0.861783
O O1 0.100844 0.352308 0.863758
O O2 0.117597 0.188737 0.844017
O O3 0.166911 0.271157 0.962733
O O4 0.084807 0.253500 0.032839
O O5 0.250000 0.750000 0.506064
O O6 0.304387 0.656941 0.636029
O O7 0.303346 0.821007 0.638021
O O8 0.386022 0.380586 0.118789
O O9 0.325978 0.465759 0.213260
O O10 0.399061 0.531589 0.193729
O O11 0.354275 0.500000 0.000000
O O12 0.401299 0.750000 0.750000
O O13 0.462499 0.654109 0.821182
O O14 0.750000 0.575715 0.250000
O O15 0.041143 0.640110 0.302685
O O16 0.000000 0.000000 0.819294
O O17 0.000000 0.099102 0.000000
#
# Coordination Sequence:
#
# PCOD8163020 Si02
#       7
#    16  16  16  16  16  16  16
#     4  11  22  40  59  93 126 163 206 257 326 370
#     4   9  17  35  61  89 124 164 208 253 304 378
#     4  12  20  39  62  90 122 165 212 258 314 369
#     4  12  24  37  67  94 119 162 217 259 301 388
#     4   9  18  33  61  93 119 155 212 267 299 357
#     4  11  24  39  59  88 129 163 199 268 316 373
#     4  11  21  39  64  92 118 157 212 255 314 370
#
# _framework density 19.063420000000001
#
# number of rings (size 3 to 8) (size 9 to 14) (size 15 to 20)
#    0.000    1.286    5.714    1.714    2.000    0.000 
#    0.000    8.571    0.000    0.857    0.000    0.000 
#    0.000    0.000    0.000    0.000    0.000    0.000 
#
# Total GULP energy -347006.844552 kJ/mol
# GULP energy per Si atom -12393.101591 kJ/mol
# Density = 1.902003 g / cm^3
# Si number density = 19.063420 Si / 1000 Ang^3
#
#
#
# Elastic Constant Matrix: (Units=GPa)
#
#
# Indices 1 2 3 4 5 6 
#
# 1 156.7685 28.7451 51.2174 0.0000 0.0000 0.0000
# 2 28.7451 58.4252 38.6084 0.0000 0.0000 0.0000
# 3 51.2174 38.6084 98.0573 0.0000 0.0000 0.0000
# 4 0.0000 0.0000 0.0000 24.9726 0.0000 0.0000
# 5 0.0000 0.0000 0.0000 0.0000 36.6310 0.0000
# 6 0.0000 0.0000 0.0000 0.0000 0.0000 21.7788
#
#
#
# Elastic Compliance Matrix: (Units=1/GPa)
#
#
# Indices 1 2 3 4 5 6 
#
# 1 0.007793 -0.001547 -0.003462 0.000000 0.000000 0.000000
# 2 -0.001547 0.023442 -0.008422 0.000000 0.000000 0.000000
# 3 -0.003462 -0.008422 0.015322 0.000000 0.000000 0.000000
# 4 0.000000 0.000000 0.000000 0.040044 0.000000 0.000000
# 5 0.000000 0.000000 0.000000 0.000000 0.027299 0.000000
# 6 0.000000 0.000000 0.000000 0.000000 0.000000 0.045916
#
#
# Mechanical properties :
#
#
# Convention : Reuss Voigt Hill
#
# Bulk Modulus (GPa) = 50.76928 61.15475 55.96201
# Shear Modulus (GPa) = 25.87398 29.65515 27.76457
#
# Velocity S-wave (km/s) = 3.68810 3.94839 3.82046
# Velocity P-wave (km/s) = 6.69520 7.27569 6.99147
#
# Compressibility (1/GPa) = 0.01969695
#
# Stress axis : x y z
#
# Youngs Moduli (GPa) = 128.31376 42.65765 65.26449
#
# Poissons Ratio (x) = 0.06598 0.22592
# Poissons Ratio (y) = 0.19848 0.54967
# Poissons Ratio (z) = 0.44417 0.35927
#
# Static dielectric constant tensor:
#      x y z
#    x 3.963980 0.000000 0.000000 
#    y 0.000000 3.453550 0.000000 
#    z 0.000000 0.000000 3.562590 
# 
# 
# High freq. dielectric constant tensor:
#      x y z
#    x 1.754070 0.000000 0.000000 
#    y 0.000000 1.728310 0.000000 
#    z 0.000000 0.000000 1.721830 
# 
# From -- ./inp_files/25401.got.cif
#   From: 2010.03.12/outbox.cif.g09.slc.cpg/sg22_13_cif.got.tgz:25401.got - 2010.04.14 02:24:06.
