data_PCOD8163054
_publ_section_title
;
Structure prediction by ZEFSAII (Michael W. Deem and Ramdas Pophale) SiO2 
 PCOD8163054
Probable space group: F 2 2 2
;
_chemical_formula_sum "Si O2"
_cell_formula_units_Z 88
_cell_length_a 25.300441
_cell_length_b 11.704157
_cell_length_c 14.702548
_cell_angle_alpha 90.000000
_cell_angle_beta 90.000000
_cell_angle_gamma 90.000000
_cell_volume 4353.723419
_symmetry_space_group_name_H-M "F 2 2 2"
_symmetry_group_IT_number 22
_symmetry_cell_setting 'orthorhombic'
loop_
_space_group_symop_operation_xyz
x,y,z
-x,-y,z
x,-y,-z
-x,y,-z
x,1/2+y,1/2+z
-x,1/2-y,1/2+z
x,1/2-y,1/2-z
-x,1/2+y,1/2-z
1/2+x,y,1/2+z
1/2-x,-y,1/2+z
1/2+x,-y,1/2-z
1/2-x,y,1/2-z
1/2+x,1/2+y,z
1/2-x,1/2-y,z
1/2+x,1/2-y,-z
1/2-x,1/2+y,-z
loop_
_atom_site_type_symbol
_atom_site_label
_atom_site_fract_x
_atom_site_fract_y
_atom_site_fract_z
Si Si1 0.327700 0.235468 0.404995
Si Si2 0.760819 0.933649 0.351443
Si Si3 0.798800 0.829328 0.599058
Si Si4 0.437321 0.639339 0.908591
Si Si5 0.947062 0.129098 0.112676
Si Si6 0.873105 0.250000 0.250000
O O1 0.289944 0.124014 0.400060
O O2 0.306492 0.337407 0.341327
O O3 0.326954 0.283629 0.508028
O O4 0.385713 0.201086 0.366917
O O5 0.750000 0.978664 0.250000
O O6 0.779003 0.040385 0.413026
O O7 0.750000 0.750000 0.625060
O O8 0.839079 0.828329 0.683008
O O9 0.437393 0.504678 0.896066
O O10 0.493426 0.673889 0.863279
O O11 0.434115 0.678812 0.013625
O O12 0.908620 0.166380 0.191492
#
# Coordination Sequence:
#
# PCOD8163054 Si02
#       6
#    16  16  16  16  16   8
#     4  11  22  40  69  88 127 171 213 259 325 374
#     4  11  25  44  60  93 131 167 218 258 315 395
#     4  12  25  40  60  95 130 174 207 260 319 382
#     4   9  19  40  65  90 117 169 214 265 323 375
#     4   9  20  38  63  92 125 158 218 267 315 385
#     4  12  23  40  58 100 130 165 210 270 318 366
#
# _framework density 20.212584
#
# number of rings (size 3 to 8) (size 9 to 14) (size 15 to 20)
#    0.000    1.455    3.636    4.091    5.091    0.000 
#    3.273    0.000    0.000    0.000    0.000    0.000 
#    0.000    0.000    0.000    0.000    0.000    0.000 
#
# Total GULP energy -272643.689490 kJ/mol
# GULP energy per Si atom -12392.894977 kJ/mol
# Density = 2.016658 g / cm^3
# Si number density = 20.212584 Si / 1000 Ang^3
#
#
#
# Elastic Constant Matrix: (Units=GPa)
#
#
# Indices 1 2 3 4 5 6 
#
# 1 145.9313 56.5784 24.0197 0.0000 0.0000 0.0000
# 2 56.5784 90.3202 18.2009 0.0000 0.0000 0.0000
# 3 24.0197 18.2009 82.1586 0.0000 0.0000 0.0000
# 4 0.0000 0.0000 0.0000 24.8064 0.0000 0.0000
# 5 0.0000 0.0000 0.0000 0.0000 31.6262 0.0000
# 6 0.0000 0.0000 0.0000 0.0000 0.0000 33.8368
#
#
#
# Elastic Compliance Matrix: (Units=1/GPa)
#
#
# Indices 1 2 3 4 5 6 
#
# 1 0.009220 -0.005477 -0.001482 0.000000 0.000000 0.000000
# 2 -0.005477 0.014842 -0.001687 0.000000 0.000000 0.000000
# 3 -0.001482 -0.001687 0.012979 0.000000 0.000000 0.000000
# 4 0.000000 0.000000 0.000000 0.040312 0.000000 0.000000
# 5 0.000000 0.000000 0.000000 0.000000 0.031619 0.000000
# 6 0.000000 0.000000 0.000000 0.000000 0.000000 0.029554
#
#
# Mechanical properties :
#
#
# Convention : Reuss Voigt Hill
#
# Bulk Modulus (GPa) = 50.63530 57.33423 53.98477
# Shear Modulus (GPa) = 30.78797 32.69463 31.74130
#
# Velocity S-wave (km/s) = 3.90706 4.02623 3.96709
# Velocity P-wave (km/s) = 6.74235 7.07398 6.91015
#
# Compressibility (1/GPa) = 0.01974907
#
# Stress axis : x y z
#
# Youngs Moduli (GPa) = 108.46100 67.37430 77.04981
#
# Poissons Ratio (x) = 0.36900 0.11420
# Poissons Ratio (y) = 0.59402 0.12998
# Poissons Ratio (z) = 0.16076 0.11365
#
# Static dielectric constant tensor:
#      x y z
#    x 3.910970 0.000000 0.000000 
#    y 0.000000 3.487320 0.000000 
#    z 0.000000 0.000000 3.849580 
# 
# 
# High freq. dielectric constant tensor:
#      x y z
#    x 1.794440 0.000000 0.000000 
#    y 0.000000 1.775120 0.000000 
#    z 0.000000 0.000000 1.787840 
# 
# From -- ./inp_files/33045.got.cif
#   From: 2010.03.12/outbox.cif.g09.slc.cpg/sg22_17_cif.got.tgz:33045.got - 2010.04.14 02:24:06.
