data_PCOD8163302
_publ_section_title
;
Structure prediction by ZEFSAII (Michael W. Deem and Ramdas Pophale) SiO2 
 PCOD8163302
Probable space group: I 2 2 2
;
_chemical_formula_sum "Si O2"
_cell_formula_units_Z 58
_cell_length_a 9.913315
_cell_length_b 16.113647
_cell_length_c 17.685173
_cell_angle_alpha 90.000000
_cell_angle_beta 90.000000
_cell_angle_gamma 90.000000
_cell_volume 2825.023496
_symmetry_space_group_name_H-M "I 2 2 2"
_symmetry_group_IT_number 23
_symmetry_cell_setting 'orthorhombic'
loop_
_space_group_symop_operation_xyz
x,y,z
-x,-y,z
x,-y,-z
-x,y,-z
1/2+x,1/2+y,1/2+z
1/2-x,1/2-y,1/2+z
1/2+x,1/2-y,1/2-z
1/2-x,1/2+y,1/2-z
loop_
_atom_site_type_symbol
_atom_site_label
_atom_site_fract_x
_atom_site_fract_y
_atom_site_fract_z
Si Si1 0.552734 0.409696 0.267680
Si Si2 0.452737 0.213689 0.079740
Si Si3 0.359055 0.373885 0.892838
Si Si4 0.523944 0.095856 0.214873
Si Si5 0.714197 0.678724 0.266226
Si Si6 0.166266 0.776053 0.871014
Si Si7 0.500000 0.500000 0.000000
Si Si8 0.090435 0.685070 0.138449
O O1 0.500000 0.500000 0.291982
O O2 0.647460 0.408301 0.193757
O O3 0.425566 0.357450 0.236757
O O4 0.621408 0.368419 0.342310
O O5 0.540862 0.295468 0.096956
O O6 0.458956 0.148350 0.147296
O O7 0.290729 0.229318 0.070537
O O8 0.500000 0.175062 0.000000
O O9 0.200104 0.360665 0.914926
O O10 0.404538 0.445716 0.947933
O O11 0.685404 0.105468 0.209125
O O12 0.460253 0.126263 0.293587
O O13 0.500000 0.000000 0.201521
O O14 0.791584 0.730396 0.204402
O O15 0.685404 0.739537 0.334925
O O16 0.037913 0.725180 0.905548
#
# Coordination Sequence:
#
# PCOD8163302 Si02
#       8
#     8   8   8   8   8   8   2   8
#     4  11  21  32  62  93 128 156 202 271 324 360
#     4  12  23  41  65  83 122 175 211 253 315 396
#     4  12  21  41  61  94 125 167 216 251 312 385
#     4  11  23  36  60  97 127 155 210 276 322 366
#     4  10  18  33  61  91 119 158 199 260 317 374
#     4  10  20  39  60  94 119 157 219 258 315 385
#     4  12  28  36  64  94 134 168 222 250 304 412
#     4  10  20  40  65  88 125 161 205 271 319 370
#
# _framework density 20.530802000000001
#
# number of rings (size 3 to 8) (size 9 to 14) (size 15 to 20)
#    0.000    1.103    6.897    0.828    3.862    0.276 
#    0.000    0.690    0.000    0.828    0.000    0.966 
#    0.000    0.000    0.000    0.000    0.000    0.000 
#
# Total GULP energy -359329.107437 kJ/mol
# GULP energy per Si atom -12390.658877 kJ/mol
# Density = 2.048407 g / cm^3
# Si number density = 20.530802 Si / 1000 Ang^3
#
#
#
# Elastic Constant Matrix: (Units=GPa)
#
#
# Indices 1 2 3 4 5 6 
#
# 1 159.1895 31.4313 29.8208 0.0000 0.0000 0.0000
# 2 31.4313 106.5949 19.5827 0.0000 0.0000 0.0000
# 3 29.8208 19.5827 44.8009 0.0000 0.0000 0.0000
# 4 0.0000 0.0000 0.0000 -11.5822 0.0000 0.0000
# 5 0.0000 0.0000 0.0000 0.0000 3.8468 0.0000
# 6 0.0000 0.0000 0.0000 0.0000 0.0000 10.8888
#
#
#
# Elastic Compliance Matrix: (Units=1/GPa)
#
#
# Indices 1 2 3 4 5 6 
#
# 1 0.007359 -0.001381 -0.004295 0.000000 0.000000 0.000000
# 2 -0.001381 0.010460 -0.003653 0.000000 0.000000 0.000000
# 3 -0.004295 -0.003653 0.026776 0.000000 0.000000 0.000000
# 4 0.000000 0.000000 0.000000 -0.086339 0.000000 0.000000
# 5 0.000000 0.000000 0.000000 0.000000 0.259953 0.000000
# 6 0.000000 0.000000 0.000000 0.000000 0.000000 0.091837
#
#
# Mechanical properties :
#
#
# Convention : Reuss Voigt Hill
#
# Bulk Modulus (GPa) = 38.55340 52.47277 45.51308
# Shear Modulus (GPa) = 14.82145 15.94739 15.38442
#
# Velocity S-wave (km/s) = 2.68976 2.79005 2.74037
# Velocity P-wave (km/s) = 5.33531 5.99940 5.67707
#
# Compressibility (1/GPa) = 0.02593805
#
# Stress axis : x y z
#
# Youngs Moduli (GPa) = 135.88777 95.60635 37.34639
#
# Poissons Ratio (x) = 0.13203 0.16039
# Poissons Ratio (y) = 0.18765 0.13642
# Poissons Ratio (z) = 0.58361 0.34922
#
# Static dielectric constant tensor:
#      x y z
#    x 5.214780 0.000000 0.000000 
#    y 0.000000 3.856570 0.000000 
#    z 0.000000 0.000000 3.509740 
# 
# 
# High freq. dielectric constant tensor:
#      x y z
#    x 1.832710 0.000000 0.000000 
#    y 0.000000 1.794350 0.000000 
#    z 0.000000 0.000000 1.757830 
# 
# From -- ./inp_files/23900.got.cif
#   From: 2010.03.12/outbox.cif.g09.slc.cpg/sg23_12_cif.got.tgz:23900.got - 2010.04.14 02:50:06.
