data_PCOD8163600
_publ_section_title
;
Structure prediction by ZEFSAII (Michael W. Deem and Ramdas Pophale) SiO2 
 PCOD8163600
Probable space group: I 2 2 2
;
_chemical_formula_sum "Si O2"
_cell_formula_units_Z 32
_cell_length_a 4.904215
_cell_length_b 9.360202
_cell_length_c 28.523157
_cell_angle_alpha 90.000000
_cell_angle_beta 90.000000
_cell_angle_gamma 90.000000
_cell_volume 1309.339636
_symmetry_space_group_name_H-M "I 2 2 2"
_symmetry_group_IT_number 23
_symmetry_cell_setting 'orthorhombic'
loop_
_space_group_symop_operation_xyz
x,y,z
-x,-y,z
x,-y,-z
-x,y,-z
1/2+x,1/2+y,1/2+z
1/2-x,1/2-y,1/2+z
1/2+x,1/2-y,1/2-z
1/2-x,1/2+y,1/2-z
loop_
_atom_site_type_symbol
_atom_site_label
_atom_site_fract_x
_atom_site_fract_y
_atom_site_fract_z
Si Si1 0.523046 0.841686 0.911276
Si Si2 0.846215 0.704637 0.689326
Si Si3 0.348450 0.868053 0.707830
Si Si4 0.026627 0.665502 0.944707
O O1 0.447387 0.873150 0.857162
O O2 0.324821 0.724056 0.933330
O O3 0.818954 0.771058 0.917880
O O4 0.500000 0.000000 0.935331
O O5 0.522654 0.734760 0.687186
O O6 0.900278 0.614577 0.736318
O O7 0.030963 0.850537 0.694664
O O8 0.500000 0.000000 0.682999
O O9 0.000000 0.500000 0.928149
O O10 0.000000 0.676491 0.000000
#
# Coordination Sequence:
#
# PCOD8163600 Si02
#       4
#     8   8   8   8
#     4  12  25  42  68  99 131 167 212 265 319 381
#     4  10  22  36  55  86 120 159 204 254 308 360
#     4  10  20  36  56  80 118 164 209 253 301 360
#     4  11  26  47  69  95 129 167 208 262 325 386
#
# _framework density 24.439799000000001
#
# number of rings (size 3 to 8) (size 9 to 14) (size 15 to 20)
#    0.000    1.250    0.000    5.250    0.000   11.000 
#    0.000    7.500    0.000    0.000    0.000    0.000 
#    0.000    0.000    0.000    0.000    0.000    0.000 
#
# Total GULP energy -198241.445490 kJ/mol
# GULP energy per Si atom -12390.090343 kJ/mol
# Density = 2.438417 g / cm^3
# Si number density = 24.439799 Si / 1000 Ang^3
#
#
#
# Elastic Constant Matrix: (Units=GPa)
#
#
# Indices 1 2 3 4 5 6 
#
# 1 78.5483 -4.9523 5.6406 0.0000 0.0000 0.0000
# 2 -4.9523 118.0758 4.7875 0.0000 0.0000 0.0000
# 3 5.6406 4.7875 86.7056 0.0000 0.0000 0.0000
# 4 0.0000 0.0000 0.0000 5.8702 0.0000 0.0000
# 5 0.0000 0.0000 0.0000 0.0000 32.9225 0.0000
# 6 0.0000 0.0000 0.0000 0.0000 0.0000 23.3527
#
#
#
# Elastic Compliance Matrix: (Units=1/GPa)
#
#
# Indices 1 2 3 4 5 6 
#
# 1 0.012829 0.000573 -0.000866 0.000000 0.000000 0.000000
# 2 0.000573 0.008514 -0.000507 0.000000 0.000000 0.000000
# 3 -0.000866 -0.000507 0.011618 0.000000 0.000000 0.000000
# 4 0.000000 0.000000 0.000000 0.170352 0.000000 0.000000
# 5 0.000000 0.000000 0.000000 0.000000 0.030374 0.000000
# 6 0.000000 0.000000 0.000000 0.000000 0.000000 0.042822
#
#
# Mechanical properties :
#
#
# Convention : Reuss Voigt Hill
#
# Bulk Modulus (GPa) = 31.88787 32.69794 32.29290
# Shear Modulus (GPa) = 17.32725 30.95265 24.13995
#
# Velocity S-wave (km/s) = 2.66555 3.56263 3.14623
# Velocity P-wave (km/s) = 4.74862 5.50737 5.14201
#
# Compressibility (1/GPa) = 0.03135989
#
# Stress axis : x y z
#
# Youngs Moduli (GPa) = 77.94613 117.45705 86.07588
#
# Poissons Ratio (x) = -0.06733 0.07456
# Poissons Ratio (y) = -0.04468 0.04367
# Poissons Ratio (z) = 0.06752 0.05960
#
# Static dielectric constant tensor:
#      x y z
#    x 4.638880 0.000000 0.000000 
#    y 0.000000 4.174760 0.000000 
#    z 0.000000 0.000000 4.258870 
# 
# 
# High freq. dielectric constant tensor:
#      x y z
#    x 1.983530 0.000000 0.000000 
#    y 0.000000 1.967300 0.000000 
#    z 0.000000 0.000000 1.960720 
# 
# From -- ./inp_files/29825.got.cif
#   From: 2010.03.12/outbox.cif.g09.slc.cpg/sg23_15_cif.got.tgz:29825.got - 2010.04.14 02:50:06.
