data_PCOD8163904
_publ_section_title
;
Structure prediction by ZEFSAII (Michael W. Deem and Ramdas Pophale) SiO2 
 PCOD8163904
Probable space group: I 2 2 2
;
_chemical_formula_sum "Si O2"
_cell_formula_units_Z 32
_cell_length_a 12.859019
_cell_length_b 20.779785
_cell_length_c 4.982541
_cell_angle_alpha 90.000000
_cell_angle_beta 90.000000
_cell_angle_gamma 90.000000
_cell_volume 1331.373072
_symmetry_space_group_name_H-M "I 2 2 2"
_symmetry_group_IT_number 23
_symmetry_cell_setting 'orthorhombic'
loop_
_space_group_symop_operation_xyz
x,y,z
-x,-y,z
x,-y,-z
-x,y,-z
1/2+x,1/2+y,1/2+z
1/2-x,1/2-y,1/2+z
1/2+x,1/2-y,1/2-z
1/2-x,1/2+y,1/2-z
loop_
_atom_site_type_symbol
_atom_site_label
_atom_site_fract_x
_atom_site_fract_y
_atom_site_fract_z
Si Si1 0.122969 0.842102 0.039845
Si Si2 0.121475 0.230306 0.461310
Si Si3 0.430554 0.136387 0.754531
Si Si4 0.250539 0.042613 0.751146
O O1 0.166651 0.787191 0.246050
O O2 0.158207 0.911893 0.141776
O O3 0.171213 0.819760 0.754796
O O4 0.000000 0.843763 0.000000
O O5 0.137110 0.303632 0.366168
O O6 0.000000 0.216506 0.500000
O O7 0.500000 0.158176 0.500000
O O8 0.351444 0.082080 0.654972
O O9 0.500000 0.109845 0.000000
O O10 0.210601 0.000000 0.500000
O O11 0.286453 0.000000 0.000000
#
# Coordination Sequence:
#
# PCOD8163904 Si02
#       4
#     8   8   8   8
#     4  10  21  40  65  92 125 159 199 263 322 370
#     4   9  18  36  64  96 122 152 201 256 325 388
#     4  11  23  41  66  94 128 166 207 266 325 375
#     4  12  27  43  61  92 129 173 226 257 297 381
#
# _framework density 24.035336999999998
#
# number of rings (size 3 to 8) (size 9 to 14) (size 15 to 20)
#    0.000    1.500    0.000    6.750    0.000    5.500 
#    0.000    1.250    0.000    0.000    0.000    0.000 
#    0.000    0.000    0.000    0.000    0.000    0.000 
#
# Total GULP energy -198343.588356 kJ/mol
# GULP energy per Si atom -12396.474272 kJ/mol
# Density = 2.398063 g / cm^3
# Si number density = 24.035337 Si / 1000 Ang^3
#
#
#
# Elastic Constant Matrix: (Units=GPa)
#
#
# Indices 1 2 3 4 5 6 
#
# 1 38.8570 26.6741 22.0153 -0.0008 -0.0008 -0.0001
# 2 26.6741 135.8541 47.6646 -0.0007 -0.0007 -0.0004
# 3 22.0153 47.6646 134.6916 0.0014 0.0006 -0.0066
# 4 -0.0008 -0.0007 0.0014 51.4520 -0.0005 -0.0010
# 5 -0.0008 -0.0007 0.0006 -0.0005 26.8357 -0.0005
# 6 -0.0001 -0.0004 -0.0066 -0.0010 -0.0005 24.5223
#
#
#
# Elastic Compliance Matrix: (Units=1/GPa)
#
#
# Indices 1 2 3 4 5 6 
#
# 1 0.030996 -0.004919 -0.003326 0.000001 0.000001 -0.000001
# 2 -0.004919 0.009185 -0.002446 0.000000 0.000000 -0.000001
# 3 -0.003326 -0.002446 0.008834 0.000000 0.000000 0.000002
# 4 0.000001 0.000000 0.000000 0.019436 0.000000 0.000001
# 5 0.000001 0.000000 0.000000 0.000000 0.037264 0.000001
# 6 -0.000001 -0.000001 0.000002 0.000001 0.000001 0.040779
#
#
# Mechanical properties :
#
#
# Convention : Reuss Voigt Hill
#
# Bulk Modulus (GPa) = 36.18875 55.79008 45.98941
# Shear Modulus (GPa) = 28.23474 34.76525 31.49999
#
# Velocity S-wave (km/s) = 3.43113 3.80731 3.62411
# Velocity P-wave (km/s) = 5.54852 6.52607 6.05705
#
# Compressibility (1/GPa) = 0.02763290
#
# Stress axis : x y z
#
# Youngs Moduli (GPa) = 32.26177 108.87326 113.20359
#
# Poissons Ratio (x) = 0.53557 0.37647
# Poissons Ratio (y) = 0.15870 0.27693
# Poissons Ratio (z) = 0.10729 0.26634
#
# Static dielectric constant tensor:
#      x y z
#    x 4.016940 0.000000 -0.000010 
#    y 0.000000 4.289850 0.000000 
#    z -0.000010 0.000000 5.038300 
# 
# 
# High freq. dielectric constant tensor:
#      x y z
#    x 1.945650 0.000000 0.000000 
#    y 0.000000 1.942670 0.000000 
#    z 0.000000 0.000000 1.977150 
# 
# From -- ./inp_files/2184.got.cif
#   From: 2010.03.12/outbox.cif.g09.slc.cpg/sg23_2_cif.got.tgz:2184.got - 2010.04.14 02:50:06.
