data_PCOD8163643
_publ_section_title
;
Structure prediction by ZEFSAII (Michael W. Deem and Ramdas Pophale) SiO2 
 PCOD8163643
Probable space group: I 2 2 2
;
_chemical_formula_sum "Si O2"
_cell_formula_units_Z 64
_cell_length_a 30.751146
_cell_length_b 11.509586
_cell_length_c 8.413754
_cell_angle_alpha 90.000000
_cell_angle_beta 90.000000
_cell_angle_gamma 90.000000
_cell_volume 2977.904854
_symmetry_space_group_name_H-M "I 2 2 2"
_symmetry_group_IT_number 23
_symmetry_cell_setting 'orthorhombic'
loop_
_space_group_symop_operation_xyz
x,y,z
-x,-y,z
x,-y,-z
-x,y,-z
1/2+x,1/2+y,1/2+z
1/2-x,1/2-y,1/2+z
1/2+x,1/2-y,1/2-z
1/2-x,1/2+y,1/2-z
loop_
_atom_site_type_symbol
_atom_site_label
_atom_site_fract_x
_atom_site_fract_y
_atom_site_fract_z
Si Si1 0.896737 0.139332 0.344103
Si Si2 0.723159 0.742853 0.353240
Si Si3 0.955375 0.762068 0.401229
Si Si4 0.875325 0.620672 0.335832
Si Si5 0.955687 0.964160 0.181507
Si Si6 0.854455 0.366727 0.308003
Si Si7 0.692430 0.465814 0.836932
Si Si8 0.190084 0.795281 0.795325
O O1 0.928473 0.146970 0.493142
O O2 0.890024 0.266570 0.259799
O O3 0.849317 0.103463 0.404555
O O4 0.914155 0.040082 0.229314
O O5 0.692102 0.838893 0.270433
O O6 0.721485 0.617770 0.269284
O O7 0.773276 0.779264 0.340653
O O8 0.710915 0.730582 0.535529
O O9 0.926743 0.646073 0.369354
O O10 0.955990 0.826749 0.228543
O O11 0.000000 0.732564 0.500000
O O12 0.871427 0.493959 0.253376
O O13 0.849365 0.628508 0.501512
O O14 0.852609 0.715325 0.222419
O O15 0.000000 0.000000 0.272427
O O16 0.960868 0.000000 0.000000
O O17 0.676448 0.570736 0.723491
O O18 0.718053 0.500000 0.000000
#
# Coordination Sequence:
#
# PCOD8163643 Si02
#       8
#     8   8   8   8   8   8   8   8
#     4  10  20  37  61  89 124 163 203 258 323 388
#     4  11  25  41  64  93 127 174 219 272 326 397
#     4  11  21  38  65  94 126 167 215 266 329 401
#     4  10  22  41  65  91 127 172 216 278 327 391
#     4  11  22  34  55  89 125 160 199 258 324 385
#     4   9  21  42  62  88 128 166 218 268 324 383
#     4  11  22  40  63  91 127 162 210 265 327 383
#     4  12  24  41  63  94 129 170 221 268 334 387
#
# _framework density 21.491620999999999
#
# number of rings (size 3 to 8) (size 9 to 14) (size 15 to 20)
#    0.000    1.375    1.250    6.000    1.750    4.500 
#    0.000    5.000    0.000    0.000    0.000    1.750 
#    0.000    0.000    0.000    0.000    0.000    0.000 
#
# Total GULP energy -396453.365290 kJ/mol
# GULP energy per Si atom -12389.167665 kJ/mol
# Density = 2.144271 g / cm^3
# Si number density = 21.491621 Si / 1000 Ang^3
#
#
#
# Elastic Constant Matrix: (Units=GPa)
#
#
# Indices 1 2 3 4 5 6 
#
# 1 98.2757 34.6203 15.7491 0.0000 0.0000 0.0000
# 2 34.6203 140.8825 16.6902 0.0000 0.0000 0.0000
# 3 15.7491 16.6902 65.7798 0.0001 0.0000 0.0000
# 4 0.0000 0.0000 0.0001 24.4568 0.0000 0.0000
# 5 0.0000 0.0000 0.0000 0.0000 27.1989 0.0000
# 6 0.0000 0.0000 0.0000 0.0000 0.0000 18.7244
#
#
#
# Elastic Compliance Matrix: (Units=1/GPa)
#
#
# Indices 1 2 3 4 5 6 
#
# 1 0.011410 -0.002557 -0.002083 0.000000 0.000000 0.000000
# 2 -0.002557 0.007891 -0.001390 0.000000 0.000000 0.000000
# 3 -0.002083 -0.001390 0.016054 0.000000 0.000000 0.000000
# 4 0.000000 0.000000 0.000000 0.040888 0.000000 0.000000
# 5 0.000000 0.000000 0.000000 0.000000 0.036766 0.000000
# 6 0.000000 0.000000 0.000000 0.000000 0.000000 0.053406
#
#
# Mechanical properties :
#
#
# Convention : Reuss Voigt Hill
#
# Bulk Modulus (GPa) = 42.92832 48.78414 45.85623
# Shear Modulus (GPa) = 26.84693 29.93457 28.39075
#
# Velocity S-wave (km/s) = 3.53821 3.73614 3.63852
# Velocity P-wave (km/s) = 6.05885 6.43118 6.24779
#
# Compressibility (1/GPa) = 0.02329464
#
# Stress axis : x y z
#
# Youngs Moduli (GPa) = 87.64180 126.72392 62.29123
#
# Poissons Ratio (x) = 0.32405 0.12975
# Poissons Ratio (y) = 0.22411 0.08658
# Poissons Ratio (z) = 0.18256 0.17614
#
# Static dielectric constant tensor:
#      x y z
#    x 3.967960 0.000000 0.000000 
#    y 0.000000 4.222500 0.000000 
#    z 0.000000 0.000000 3.692680 
# 
# 
# High freq. dielectric constant tensor:
#      x y z
#    x 1.838360 0.000000 0.000000 
#    y 0.000000 1.849240 0.000000 
#    z 0.000000 0.000000 1.826050 
# 
# From -- ./inp_files/13497.got.cif
#   From: 2010.03.12/outbox.cif.g09.slc.cpg/sg23_7_cif.got.tgz:13497.got - 2010.04.14 02:50:06.
