data_PCOD8163995
_publ_section_title
;
Structure prediction by ZEFSAII (Michael W. Deem and Ramdas Pophale) SiO2 
 PCOD8163995
Probable space group: I 2 2 2
;
_chemical_formula_sum "Si O2"
_cell_formula_units_Z 40
_cell_length_a 20.652238
_cell_length_b 11.409464
_cell_length_c 7.669154
_cell_angle_alpha 90.000000
_cell_angle_beta 90.000000
_cell_angle_gamma 90.000000
_cell_volume 1807.090165
_symmetry_space_group_name_H-M "I 2 2 2"
_symmetry_group_IT_number 23
_symmetry_cell_setting 'orthorhombic'
loop_
_space_group_symop_operation_xyz
x,y,z
-x,-y,z
x,-y,-z
-x,y,-z
1/2+x,1/2+y,1/2+z
1/2-x,1/2-y,1/2+z
1/2+x,1/2-y,1/2-z
1/2-x,1/2+y,1/2-z
loop_
_atom_site_type_symbol
_atom_site_label
_atom_site_fract_x
_atom_site_fract_y
_atom_site_fract_z
Si Si1 0.696635 0.626030 0.932880
Si Si2 0.433308 0.268656 0.038754
Si Si3 0.067100 0.358192 0.896964
Si Si4 0.620559 0.934115 0.829685
Si Si5 0.187062 0.732142 0.885767
O O1 0.689768 0.643713 0.722233
O O2 0.720768 0.500000 0.000000
O O3 0.628208 0.647410 0.025775
O O4 0.750278 0.720525 0.993827
O O5 0.439512 0.223491 0.232516
O O6 0.500000 0.338790 0.000000
O O7 0.431333 0.161985 0.897495
O O8 0.089630 0.487899 0.827323
O O9 0.120053 0.289113 0.012265
O O10 0.000000 0.369980 0.000000
O O11 0.685375 0.870161 0.761377
O O12 0.645515 0.000000 0.000000
#
# Coordination Sequence:
#
# PCOD8163995 Si02
#       5
#     8   8   8   8   8
#     4  11  24  43  65  88 120 164 206 255 314 372
#     4  10  22  39  58  87 125 164 210 256 298 362
#     4  11  21  36  60  93 128 162 201 254 313 367
#     4   9  20  35  58  90 124 159 198 251 316 369
#     4  11  23  39  60  90 121 155 203 255 305 370
#
# _framework density 22.135033
#
# number of rings (size 3 to 8) (size 9 to 14) (size 15 to 20)
#    0.000    1.600    0.000    5.400    0.000   13.600 
#    0.000    3.000    0.000    1.200    0.000    0.000 
#    0.000    0.000    0.000    0.000    0.000    0.000 
#
# Total GULP energy -247791.213942 kJ/mol
# GULP energy per Si atom -12389.560697 kJ/mol
# Density = 2.208465 g / cm^3
# Si number density = 22.135033 Si / 1000 Ang^3
#
#
#
# Elastic Constant Matrix: (Units=GPa)
#
#
# Indices 1 2 3 4 5 6 
#
# 1 129.2761 16.2738 41.6198 0.0000 0.0000 0.0000
# 2 16.2738 57.9706 36.2885 0.0000 0.0000 0.0000
# 3 41.6198 36.2885 128.9205 0.0000 0.0000 0.0000
# 4 0.0000 0.0000 0.0000 23.6194 0.0000 0.0000
# 5 0.0000 0.0000 0.0000 0.0000 36.5572 0.0000
# 6 0.0000 0.0000 0.0000 0.0000 0.0000 21.4528
#
#
#
# Elastic Compliance Matrix: (Units=1/GPa)
#
#
# Indices 1 2 3 4 5 6 
#
# 1 0.008665 -0.000827 -0.002565 0.000000 0.000000 0.000000
# 2 -0.000827 0.021019 -0.005649 0.000000 0.000000 0.000000
# 3 -0.002565 -0.005649 0.010175 0.000000 0.000000 0.000000
# 4 0.000000 0.000000 0.000000 0.042338 0.000000 0.000000
# 5 0.000000 0.000000 0.000000 0.000000 0.027354 0.000000
# 6 0.000000 0.000000 0.000000 0.000000 0.000000 0.046614
#
#
# Mechanical properties :
#
#
# Convention : Reuss Voigt Hill
#
# Bulk Modulus (GPa) = 45.92084 56.05906 50.98995
# Shear Modulus (GPa) = 27.54730 31.12488 29.33609
#
# Velocity S-wave (km/s) = 3.53159 3.75392 3.64445
# Velocity P-wave (km/s) = 6.11721 6.64606 6.38711
#
# Compressibility (1/GPa) = 0.02177660
#
# Stress axis : x y z
#
# Youngs Moduli (GPa) = 115.40468 47.57669 98.28192
#
# Poissons Ratio (x) = 0.03935 0.25205
# Poissons Ratio (y) = 0.09546 0.55522
# Poissons Ratio (z) = 0.29596 0.26878
#
# Static dielectric constant tensor:
#      x y z
#    x 3.941110 0.000000 0.000000 
#    y 0.000000 3.771970 0.000000 
#    z 0.000000 0.000000 4.685710 
# 
# 
# High freq. dielectric constant tensor:
#      x y z
#    x 1.878520 0.000000 0.000000 
#    y 0.000000 1.827370 0.000000 
#    z 0.000000 0.000000 1.900510 
# 
# From -- ./inp_files/8457.got.cif
#   From: 2010.03.12/outbox.cif.g09.slc.cpg/sg23_5_cif.got.tgz:8457.got - 2010.04.14 02:50:06.
