data_PCOD8163522
_publ_section_title
;
Structure prediction by ZEFSAII (Michael W. Deem and Ramdas Pophale) SiO2 
 PCOD8163522
Probable space group: I 2 2 2
;
_chemical_formula_sum "Si O2"
_cell_formula_units_Z 48
_cell_length_a 9.063918
_cell_length_b 7.609914
_cell_length_c 28.862076
_cell_angle_alpha 90.000000
_cell_angle_beta 90.000000
_cell_angle_gamma 90.000000
_cell_volume 1990.780062
_symmetry_space_group_name_H-M "I 2 2 2"
_symmetry_group_IT_number 23
_symmetry_cell_setting 'orthorhombic'
loop_
_space_group_symop_operation_xyz
x,y,z
-x,-y,z
x,-y,-z
-x,y,-z
1/2+x,1/2+y,1/2+z
1/2-x,1/2-y,1/2+z
1/2+x,1/2-y,1/2-z
1/2-x,1/2+y,1/2-z
loop_
_atom_site_type_symbol
_atom_site_label
_atom_site_fract_x
_atom_site_fract_y
_atom_site_fract_z
Si Si1 0.150687 0.899310 0.750428
Si Si2 0.333120 0.209264 0.998675
Si Si3 0.416313 0.179283 0.828150
Si Si4 0.811154 0.178332 0.093599
Si Si5 0.211841 0.829698 0.322858
Si Si6 0.647242 0.266762 0.413409
O O1 0.126559 0.706973 0.726021
O O2 0.242175 0.857537 0.797362
O O3 0.242879 0.011182 0.712572
O O4 0.000000 0.000000 0.765040
O O5 0.273743 0.267031 0.948938
O O6 0.500000 0.280826 0.000000
O O7 0.229286 0.292657 0.039078
O O8 0.328280 0.000000 0.000000
O O9 0.274995 0.226887 0.859450
O O10 0.540112 0.328541 0.836587
O O11 0.500000 0.000000 0.840591
O O12 0.972534 0.260679 0.087520
O O13 0.812544 0.968894 0.093255
O O14 0.300274 0.852203 0.370397
#
# Coordination Sequence:
#
# PCOD8163522 Si02
#       6
#     8   8   8   8   8   8
#     4  10  25  41  62  93 125 163 220 271 327 392
#     4   9  17  30  52  87 124 159 204 254 315 382
#     4  11  21  38  62  88 120 162 206 256 322 384
#     4  10  20  32  56  87 125 160 206 254 318 386
#     4  11  22  39  61  85 122 161 209 265 320 388
#     4  10  20  33  56  84 126 164 203 260 319 379
#
# _framework density 24.111153000000002
#
# number of rings (size 3 to 8) (size 9 to 14) (size 15 to 20)
#    0.000    1.833    1.667    2.500    4.667    3.333 
#    0.000    4.167    0.000    1.000    0.000    7.000 
#    0.000    0.000    0.000    0.000    0.000    0.000 
#
# Total GULP energy -297397.796767 kJ/mol
# GULP energy per Si atom -12391.574865 kJ/mol
# Density = 2.405628 g / cm^3
# Si number density = 24.111153 Si / 1000 Ang^3
#
#
#
# Elastic Constant Matrix: (Units=GPa)
#
#
# Indices 1 2 3 4 5 6 
#
# 1 167.1487 2.8803 71.8152 0.0000 0.0000 0.0000
# 2 2.8803 34.7276 8.4611 0.0000 0.0000 0.0000
# 3 71.8152 8.4611 120.7221 0.0000 0.0000 0.0000
# 4 0.0000 0.0000 0.0000 8.2989 0.0000 0.0000
# 5 0.0000 0.0000 0.0000 0.0000 52.1911 0.0000
# 6 0.0000 0.0000 0.0000 0.0000 0.0000 13.7689
#
#
#
# Elastic Compliance Matrix: (Units=1/GPa)
#
#
# Indices 1 2 3 4 5 6 
#
# 1 0.008046 0.000507 -0.004822 0.000000 0.000000 0.000000
# 2 0.000507 0.029328 -0.002357 0.000000 0.000000 0.000000
# 3 -0.004822 -0.002357 0.011317 0.000000 0.000000 0.000000
# 4 0.000000 0.000000 0.000000 0.120498 0.000000 0.000000
# 5 0.000000 0.000000 0.000000 0.000000 0.019160 0.000000
# 6 0.000000 0.000000 0.000000 0.000000 0.000000 0.072627
#
#
# Mechanical properties :
#
#
# Convention : Reuss Voigt Hill
#
# Bulk Modulus (GPa) = 28.29082 54.32351 41.30716
# Shear Modulus (GPa) = 17.47631 30.81456 24.14544
#
# Velocity S-wave (km/s) = 2.69517 3.57882 3.16796
# Velocity P-wave (km/s) = 4.63079 6.29735 5.52725
#
# Compressibility (1/GPa) = 0.03534716
#
# Stress axis : x y z
#
# Youngs Moduli (GPa) = 124.29138 34.09733 88.36204
#
# Poissons Ratio (x) = -0.01730 0.42606
# Poissons Ratio (y) = -0.06307 0.20830
# Poissons Ratio (z) = 0.59930 0.08038
#
# Static dielectric constant tensor:
#      x y z
#    x 4.532750 0.000000 0.000000 
#    y 0.000000 3.965070 0.000000 
#    z 0.000000 0.000000 4.405100 
# 
# 
# High freq. dielectric constant tensor:
#      x y z
#    x 1.963180 0.000000 0.000000 
#    y 0.000000 1.931630 0.000000 
#    z 0.000000 0.000000 1.958980 
# 
# From -- ./inp_files/13350.got.cif
#   From: 2010.03.12/outbox.cif.g09.slc.cpg/sg23_7_cif.got.tgz:13350.got - 2010.04.14 02:50:06.
