data_PCOD8163342
_publ_section_title
;
Structure prediction by ZEFSAII (Michael W. Deem and Ramdas Pophale) SiO2 
 PCOD8163342
Probable space group: I 2 2 2
;
_chemical_formula_sum "Si O2"
_cell_formula_units_Z 40
_cell_length_a 35.610930
_cell_length_b 12.664923
_cell_length_c 5.097351
_cell_angle_alpha 90.000000
_cell_angle_beta 90.000000
_cell_angle_gamma 90.000000
_cell_volume 2298.954676
_symmetry_space_group_name_H-M "I 2 2 2"
_symmetry_group_IT_number 23
_symmetry_cell_setting 'orthorhombic'
loop_
_space_group_symop_operation_xyz
x,y,z
-x,-y,z
x,-y,-z
-x,y,-z
1/2+x,1/2+y,1/2+z
1/2-x,1/2-y,1/2+z
1/2+x,1/2-y,1/2-z
1/2-x,1/2+y,1/2-z
loop_
_atom_site_type_symbol
_atom_site_label
_atom_site_fract_x
_atom_site_fract_y
_atom_site_fract_z
Si Si1 0.256727 0.811132 0.062451
Si Si2 0.088020 0.625323 0.498061
Si Si3 0.835093 0.747450 0.534660
Si Si4 0.541986 0.874750 0.502028
Si Si5 0.679884 0.616458 0.535555
O O1 0.253640 0.788648 0.373234
O O2 0.300258 0.836205 0.992781
O O3 0.225411 0.897929 0.987737
O O4 0.094089 0.500000 0.500000
O O5 0.128007 0.679961 0.506053
O O6 0.063935 0.665067 0.743726
O O7 0.064993 0.665252 0.247649
O O8 0.835561 0.802438 0.818202
O O9 0.831601 0.839570 0.318889
O O10 0.500000 0.826307 0.500000
O O11 0.539088 0.000000 0.500000
O O12 0.662118 0.500000 0.500000
#
# Coordination Sequence:
#
# PCOD8163342 Si02
#       5
#     8   8   8   8   8
#     4   8  16  29  44  61  85 118 152 191 232 268
#     4  10  19  30  47  71  99 129 153 184 233 280
#     4  10  19  32  47  70  99 122 158 203 236 276
#     4   9  17  30  47  68  96 127 155 182 221 282
#     4  10  19  32  49  67  92 128 166 201 238 274
#
# _framework density 17.399211999999999
#
# number of rings (size 3 to 8) (size 9 to 14) (size 15 to 20)
#    0.000    2.600    0.000    2.400    0.000    3.200 
#    0.000    0.000    0.000   12.000    0.000    0.000 
#    0.000   56.000    0.000    0.000    0.000    0.000 
#
# Total GULP energy -247817.634667 kJ/mol
# GULP energy per Si atom -12390.881733 kJ/mol
# Density = 1.735961 g / cm^3
# Si number density = 17.399212 Si / 1000 Ang^3
#
#
#
# Elastic Constant Matrix: (Units=GPa)
#
#
# Indices 1 2 3 4 5 6 
#
# 1 152.9548 27.9653 43.2249 0.0000 0.0058 -0.0284
# 2 27.9653 35.9076 12.6714 0.0065 0.0013 -0.0507
# 3 43.2249 12.6714 114.6921 -0.0221 -0.0008 -0.1329
# 4 0.0000 0.0065 -0.0221 6.1797 0.0030 -0.0997
# 5 0.0058 0.0013 -0.0008 0.0030 27.4800 -0.0442
# 6 -0.0284 -0.0507 -0.1329 -0.0997 -0.0442 22.3434
#
#
#
# Elastic Compliance Matrix: (Units=1/GPa)
#
#
# Indices 1 2 3 4 5 6 
#
# 1 0.008259 -0.005550 -0.002499 -0.000003 -0.000002 -0.000017
# 2 -0.005550 0.032709 -0.001522 -0.000039 0.000000 0.000058
# 3 -0.002499 -0.001522 0.009829 0.000038 0.000001 0.000052
# 4 -0.000003 -0.000039 0.000038 0.161831 -0.000017 0.000722
# 5 -0.000002 0.000000 0.000001 -0.000017 0.036390 0.000072
# 6 -0.000017 0.000058 0.000052 0.000722 0.000072 0.044760
#
#
# Mechanical properties :
#
#
# Convention : Reuss Voigt Hill
#
# Bulk Modulus (GPa) = 31.59162 52.36419 41.97790
# Shear Modulus (GPa) = 15.45727 25.84681 20.65204
#
# Velocity S-wave (km/s) = 2.98382 3.85842 3.44896
# Velocity P-wave (km/s) = 5.48336 7.07184 6.32765
#
# Compressibility (1/GPa) = 0.03165396
#
# Stress axis : x y z
#
# Youngs Moduli (GPa) = 121.08039 30.57268 101.73769
#
# Poissons Ratio (x) = 0.16968 0.25429
# Poissons Ratio (y) = 0.67202 0.15484
# Poissons Ratio (z) = 0.30263 0.04653
#
# Static dielectric constant tensor:
#      x y z
#    x 3.350850 0.000000 0.000140 
#    y 0.000000 2.683390 0.000170 
#    z 0.000140 0.000170 3.206200 
# 
# 
# High freq. dielectric constant tensor:
#      x y z
#    x 1.673210 0.000000 0.000000 
#    y 0.000000 1.609060 0.000000 
#    z 0.000000 0.000000 1.697860 
# 
# From -- ./inp_files/1715.got.cif
#   From: 2010.03.12/outbox.cif.g09.slc.cpg/sg23_1_cif.got.tgz:1715.got - 2010.04.14 02:50:06.
