data_PCOD8163742
_publ_section_title
;
Structure prediction by ZEFSAII (Michael W. Deem and Ramdas Pophale) SiO2 
 PCOD8163742
Probable space group: I 2 2 2
;
_chemical_formula_sum "Si O2"
_cell_formula_units_Z 44
_cell_length_a 9.496212
_cell_length_b 13.526917
_cell_length_c 17.142819
_cell_angle_alpha 90.000000
_cell_angle_beta 90.000000
_cell_angle_gamma 90.000000
_cell_volume 2202.071755
_symmetry_space_group_name_H-M "I 2 2 2"
_symmetry_group_IT_number 23
_symmetry_cell_setting 'orthorhombic'
loop_
_space_group_symop_operation_xyz
x,y,z
-x,-y,z
x,-y,-z
-x,y,-z
1/2+x,1/2+y,1/2+z
1/2-x,1/2-y,1/2+z
1/2+x,1/2-y,1/2-z
1/2-x,1/2+y,1/2-z
loop_
_atom_site_type_symbol
_atom_site_label
_atom_site_fract_x
_atom_site_fract_y
_atom_site_fract_z
Si Si1 0.462842 0.192405 0.795350
Si Si2 0.100231 0.833117 0.571924
Si Si3 0.643300 0.657978 0.286744
Si Si4 0.143176 0.805999 0.038169
Si Si5 0.000000 0.000000 0.321972
Si Si6 0.223983 0.500000 0.500000
Si Si7 0.000000 0.500000 0.370949
O O1 0.475042 0.250556 0.876599
O O2 0.551424 0.244792 0.728735
O O3 0.303901 0.181491 0.765229
O O4 0.535788 0.088629 0.812824
O O5 0.251225 0.788799 0.543897
O O6 0.000000 0.856753 0.500000
O O7 0.105973 0.933644 0.624296
O O8 0.621731 0.640291 0.378478
O O9 0.596469 0.565805 0.234457
O O10 0.000000 0.764153 0.000000
O O11 0.191848 0.898200 0.983282
O O12 0.133023 0.473470 0.423887
#
# Coordination Sequence:
#
# PCOD8163742 Si02
#       7
#     8   8   8   8   4   4   4
#     4  10  22  37  60  88 124 158 205 250 309 361
#     4  10  20  42  62  89 115 164 215 250 292 366
#     4  10  23  42  57  92 122 165 203 255 310 371
#     4  11  24  38  61  94 130 158 198 264 326 368
#     4  10  23  38  69  84 122 166 216 252 295 378
#     4  11  21  36  60  94 126 160 206 254 314 380
#     4  11  20  36  64  92 115 168 208 252 295 380
#
# _framework density 19.981183000000001
#
# number of rings (size 3 to 8) (size 9 to 14) (size 15 to 20)
#    0.000    1.636    3.636    1.636    2.545    8.727 
#    0.000    0.000    0.000   13.091    0.000    0.000 
#    0.000    0.000    0.000    0.000    0.000    0.000 
#
# Total GULP energy -272707.804686 kJ/mol
# GULP energy per Si atom -12395.809304 kJ/mol
# Density = 1.993570 g / cm^3
# Si number density = 19.981183 Si / 1000 Ang^3
#
#
#
# Elastic Constant Matrix: (Units=GPa)
#
#
# Indices 1 2 3 4 5 6 
#
# 1 90.6193 37.5283 42.0732 0.0000 0.0000 0.0000
# 2 37.5283 129.5373 42.1684 0.0000 0.0000 0.0000
# 3 42.0732 42.1684 79.4640 0.0000 0.0000 0.0000
# 4 0.0000 0.0000 0.0000 31.8011 0.0000 0.0000
# 5 0.0000 0.0000 0.0000 0.0000 20.1490 0.0000
# 6 0.0000 0.0000 0.0000 0.0000 0.0000 24.0133
#
#
#
# Elastic Compliance Matrix: (Units=1/GPa)
#
#
# Indices 1 2 3 4 5 6 
#
# 1 0.015109 -0.002143 -0.006862 0.000000 0.000000 0.000000
# 2 -0.002143 0.009636 -0.003979 0.000000 0.000000 0.000000
# 3 -0.006862 -0.003979 0.018329 0.000000 0.000000 0.000000
# 4 0.000000 0.000000 0.000000 0.031445 0.000000 0.000000
# 5 0.000000 0.000000 0.000000 0.000000 0.049630 0.000000
# 6 0.000000 0.000000 0.000000 0.000000 0.000000 0.041644
#
#
# Mechanical properties :
#
#
# Convention : Reuss Voigt Hill
#
# Bulk Modulus (GPa) = 58.46108 60.35117 59.40612
# Shear Modulus (GPa) = 25.32122 27.04938 26.18530
#
# Velocity S-wave (km/s) = 3.56371 3.68332 3.62401
# Velocity P-wave (km/s) = 6.80110 6.95404 6.87800
#
# Compressibility (1/GPa) = 0.01710540
#
# Stress axis : x y z
#
# Youngs Moduli (GPa) = 66.18659 103.77890 54.55882
#
# Poissons Ratio (x) = 0.22243 0.37439
# Poissons Ratio (y) = 0.14186 0.21707
# Poissons Ratio (z) = 0.45418 0.41289
#
# Static dielectric constant tensor:
#      x y z
#    x 3.637610 0.000000 0.000000 
#    y 0.000000 3.793110 0.000000 
#    z 0.000000 0.000000 3.581600 
# 
# 
# High freq. dielectric constant tensor:
#      x y z
#    x 1.769650 0.000000 0.000000 
#    y 0.000000 1.784960 0.000000 
#    z 0.000000 0.000000 1.777500 
# 
# From -- ./inp_files/11002.got.cif
#   From: 2010.03.12/outbox.cif.g09.slc.cpg/sg23_6_cif.got.tgz:11002.got - 2010.04.14 02:50:06.
