data_PCOD8163955
_publ_section_title
;
Structure prediction by ZEFSAII (Michael W. Deem and Ramdas Pophale) SiO2 
 PCOD8163955
Probable space group: I 2 2 2
;
_chemical_formula_sum "Si O2"
_cell_formula_units_Z 60
_cell_length_a 21.379341
_cell_length_b 5.329117
_cell_length_c 25.525433
_cell_angle_alpha 90.000000
_cell_angle_beta 90.000000
_cell_angle_gamma 90.000000
_cell_volume 2908.189402
_symmetry_space_group_name_H-M "I 2 2 2"
_symmetry_group_IT_number 23
_symmetry_cell_setting 'orthorhombic'
loop_
_space_group_symop_operation_xyz
x,y,z
-x,-y,z
x,-y,-z
-x,y,-z
1/2+x,1/2+y,1/2+z
1/2-x,1/2-y,1/2+z
1/2+x,1/2-y,1/2-z
1/2-x,1/2+y,1/2-z
loop_
_atom_site_type_symbol
_atom_site_label
_atom_site_fract_x
_atom_site_fract_y
_atom_site_fract_z
Si Si1 0.378967 0.750189 0.531879
Si Si2 0.561517 0.631155 0.799819
Si Si3 0.765784 0.748699 0.467437
Si Si4 0.316971 0.253330 0.853764
Si Si5 0.268808 0.246502 0.202054
Si Si6 0.500000 0.000000 0.279514
Si Si7 0.346558 0.532850 0.717799
Si Si8 0.439181 0.327746 0.361474
O O1 0.397208 0.500000 0.500000
O O2 0.306901 0.739260 0.549199
O O3 0.424570 0.776241 0.581400
O O4 0.393504 0.000000 0.500000
O O5 0.500000 0.500000 0.825458
O O6 0.607497 0.740538 0.844298
O O7 0.540355 0.830445 0.757700
O O8 0.600662 0.444986 0.762995
O O9 0.783541 0.500000 0.500000
O O10 0.807784 0.754517 0.415844
O O11 0.780270 0.000000 0.500000
O O12 0.284061 0.499337 0.829539
O O13 0.289699 0.995993 0.831011
O O14 0.299325 0.250451 0.260761
O O15 0.194454 0.223406 0.214173
O O16 0.449140 0.115878 0.318387
O O17 0.375865 0.542987 0.659771
O O18 0.500000 0.500000 0.363319
#
# Coordination Sequence:
#
# PCOD8163955 Si02
#       8
#     8   8   8   8   8   4   8   8
#     4  10  25  45  66  90 124 164 213 278 328 373
#     4  11  23  40  60  90 133 171 215 253 312 392
#     4  10  21  43  70  99 128 160 212 277 340 389
#     4  11  24  41  66 100 126 173 216 267 330 403
#     4  11  24  38  62  96 135 168 216 271 330 391
#     4  12  22  42  63  92 127 178 220 258 310 382
#     4  11  21  42  58  93 133 169 216 271 323 386
#     4  12  25  42  63  90 125 175 222 266 317 384
#
# _framework density 20.631394
#
# number of rings (size 3 to 8) (size 9 to 14) (size 15 to 20)
#    0.000    1.067    2.667    4.000    3.733    4.533 
#    0.000    0.000    0.000    0.400    0.000    0.000 
#    0.000    0.000    0.000    0.000    0.000    0.000 
#
# Total GULP energy -371696.254096 kJ/mol
# GULP energy per Si atom -12389.875137 kJ/mol
# Density = 2.058444 g / cm^3
# Si number density = 20.631394 Si / 1000 Ang^3
#
#
#
# Elastic Constant Matrix: (Units=GPa)
#
#
# Indices 1 2 3 4 5 6 
#
# 1 112.6499 33.6807 63.2610 0.0000 0.0000 0.0000
# 2 33.6807 125.8010 59.9888 0.0000 0.0000 0.0000
# 3 63.2610 59.9888 146.3750 0.0000 0.0000 0.0000
# 4 0.0000 0.0000 0.0000 23.3224 0.0000 0.0000
# 5 0.0000 0.0000 0.0000 0.0000 19.7921 0.0000
# 6 0.0000 0.0000 0.0000 0.0000 0.0000 10.7239
#
#
#
# Elastic Compliance Matrix: (Units=1/GPa)
#
#
# Indices 1 2 3 4 5 6 
#
# 1 0.011804 -0.000904 -0.004731 0.000000 0.000000 0.000000
# 2 -0.000904 0.009949 -0.003687 0.000000 0.000000 0.000000
# 3 -0.004731 -0.003687 0.010387 0.000000 0.000000 0.000000
# 4 0.000000 0.000000 0.000000 0.042877 0.000000 0.000000
# 5 0.000000 0.000000 0.000000 0.000000 0.050525 0.000000
# 6 0.000000 0.000000 0.000000 0.000000 0.000000 0.093250
#
#
# Mechanical properties :
#
#
# Convention : Reuss Voigt Hill
#
# Bulk Modulus (GPa) = 74.09159 77.63190 75.86174
# Shear Modulus (GPa) = 20.66667 25.96071 23.31369
#
# Velocity S-wave (km/s) = 3.16841 3.55112 3.36521
# Velocity P-wave (km/s) = 7.02675 7.38401 7.20759
#
# Compressibility (1/GPa) = 0.01349681
#
# Stress axis : x y z
#
# Youngs Moduli (GPa) = 84.71536 100.51092 96.27139
#
# Poissons Ratio (x) = 0.09090 0.45546
# Poissons Ratio (y) = 0.07661 0.35492
# Poissons Ratio (z) = 0.40079 0.37054
#
# Static dielectric constant tensor:
#      x y z
#    x 3.895770 0.000000 0.000000 
#    y 0.000000 4.458140 0.000000 
#    z 0.000000 0.000000 3.682330 
# 
# 
# High freq. dielectric constant tensor:
#      x y z
#    x 1.813630 0.000000 0.000000 
#    y 0.000000 1.815270 0.000000 
#    z 0.000000 0.000000 1.791940 
# 
# From -- ./inp_files/28705.got.cif
#   From: 2010.03.12/outbox.cif.g09.slc.cpg/sg23_15_cif.got.tgz:28705.got - 2010.04.14 02:50:06.
