data_PCOD8163441
_publ_section_title
;
Structure prediction by ZEFSAII (Michael W. Deem and Ramdas Pophale) SiO2 
 PCOD8163441
Probable space group: I 2 2 2
;
_chemical_formula_sum "Si O2"
_cell_formula_units_Z 40
_cell_length_a 9.232734
_cell_length_b 7.488037
_cell_length_c 28.659460
_cell_angle_alpha 90.000000
_cell_angle_beta 90.000000
_cell_angle_gamma 90.000000
_cell_volume 1981.373309
_symmetry_space_group_name_H-M "I 2 2 2"
_symmetry_group_IT_number 23
_symmetry_cell_setting 'orthorhombic'
loop_
_space_group_symop_operation_xyz
x,y,z
-x,-y,z
x,-y,-z
-x,y,-z
1/2+x,1/2+y,1/2+z
1/2-x,1/2-y,1/2+z
1/2+x,1/2-y,1/2-z
1/2-x,1/2+y,1/2-z
loop_
_atom_site_type_symbol
_atom_site_label
_atom_site_fract_x
_atom_site_fract_y
_atom_site_fract_z
Si Si1 0.346597 0.792876 0.876260
Si Si2 0.171235 0.993330 0.551698
Si Si3 0.628170 0.872492 0.297288
Si Si4 0.630603 0.382059 0.783386
Si Si5 0.309938 0.805770 0.120059
O O1 0.283457 0.660765 0.915859
O O2 0.295428 0.731506 0.825151
O O3 0.519707 0.789137 0.870703
O O4 0.277267 0.985292 0.888000
O O5 0.241453 0.000000 0.500000
O O6 0.226718 0.807653 0.573844
O O7 0.000000 0.000000 0.547121
O O8 0.567693 0.730126 0.259974
O O9 0.711328 0.772621 0.338821
O O10 0.500000 0.000000 0.316462
O O11 0.740719 0.988522 0.266626
O O12 0.500000 0.500000 0.804237
#
# Coordination Sequence:
#
# PCOD8163441 Si02
#       5
#     8   8   8   8   8
#     4  10  19  35  61  82 117 160 200 249 297 363
#     4   9  17  33  57  88 120 151 194 253 305 355
#     4  12  25  37  57  88 124 161 209 257 298 359
#     4  12  22  40  58  82 121 164 206 249 305 359
#     4  10  20  36  56  86 119 157 201 245 304 359
#
# _framework density 20.188016999999999
#
# number of rings (size 3 to 8) (size 9 to 14) (size 15 to 20)
#    0.000    1.400    4.000    3.000    2.800    0.800 
#    0.000    4.000    0.000    0.600    0.000    0.000 
#    6.000    0.000    0.000    0.000    0.000    0.000 
#
# Total GULP energy -247882.662379 kJ/mol
# GULP energy per Si atom -12394.133119 kJ/mol
# Density = 2.014207 g / cm^3
# Si number density = 20.188017 Si / 1000 Ang^3
#
#
#
# Elastic Constant Matrix: (Units=GPa)
#
#
# Indices 1 2 3 4 5 6 
#
# 1 48.2982 37.3114 16.1209 0.0000 0.0000 0.0000
# 2 37.3114 171.0577 82.9831 0.0000 0.0000 0.0000
# 3 16.1209 82.9831 160.5604 0.0000 0.0000 0.0000
# 4 0.0000 0.0000 0.0000 29.4330 0.0000 0.0000
# 5 0.0000 0.0000 0.0000 0.0000 16.2248 0.0000
# 6 0.0000 0.0000 0.0000 0.0000 0.0000 24.9936
#
#
#
# Elastic Compliance Matrix: (Units=1/GPa)
#
#
# Indices 1 2 3 4 5 6 
#
# 1 0.024921 -0.005635 0.000410 0.000000 0.000000 0.000000
# 2 -0.005635 0.009076 -0.004125 0.000000 0.000000 0.000000
# 3 0.000410 -0.004125 0.008319 0.000000 0.000000 0.000000
# 4 0.000000 0.000000 0.000000 0.033976 0.000000 0.000000
# 5 0.000000 0.000000 0.000000 0.000000 0.061634 0.000000
# 6 0.000000 0.000000 0.000000 0.000000 0.000000 0.040010
#
#
# Mechanical properties :
#
#
# Convention : Reuss Voigt Hill
#
# Bulk Modulus (GPa) = 42.34339 72.52746 57.43543
# Shear Modulus (GPa) = 24.44897 30.36366 27.40631
#
# Velocity S-wave (km/s) = 3.48381 3.88241 3.68850
# Velocity P-wave (km/s) = 6.09939 7.49009 6.83023
#
# Compressibility (1/GPa) = 0.02361644
#
# Stress axis : x y z
#
# Youngs Moduli (GPa) = 40.12722 110.17815 120.20627
#
# Poissons Ratio (x) = 0.62082 -0.04929
# Poissons Ratio (y) = 0.22610 0.49587
# Poissons Ratio (z) = -0.01645 0.45450
#
# Static dielectric constant tensor:
#      x y z
#    x 3.238600 0.000000 0.000000 
#    y 0.000000 4.071020 0.000000 
#    z 0.000000 0.000000 3.639430 
# 
# 
# High freq. dielectric constant tensor:
#      x y z
#    x 1.743130 0.000000 0.000000 
#    y 0.000000 1.808440 0.000000 
#    z 0.000000 0.000000 1.777110 
# 
# From -- ./inp_files/7085.got.cif
#   From: 2010.03.12/outbox.cif.g09.slc.cpg/sg23_4_cif.got.tgz:7085.got - 2010.04.14 02:50:06.
