data_PCOD8163007
_publ_section_title
;
Structure prediction by ZEFSAII (Michael W. Deem and Ramdas Pophale) SiO2 
 PCOD8163007
Probable space group: F 2 2 2
;
_chemical_formula_sum "Si O2"
_cell_formula_units_Z 52
_cell_length_a 13.586639
_cell_length_b 10.356793
_cell_length_c 16.003904
_cell_angle_alpha 90.000000
_cell_angle_beta 90.000000
_cell_angle_gamma 90.000000
_cell_volume 2251.973471
_symmetry_space_group_name_H-M "F 2 2 2"
_symmetry_group_IT_number 22
_symmetry_cell_setting 'orthorhombic'
loop_
_space_group_symop_operation_xyz
x,y,z
-x,-y,z
x,-y,-z
-x,y,-z
x,1/2+y,1/2+z
-x,1/2-y,1/2+z
x,1/2-y,1/2-z
-x,1/2+y,1/2-z
1/2+x,y,1/2+z
1/2-x,-y,1/2+z
1/2+x,-y,1/2-z
1/2-x,y,1/2-z
1/2+x,1/2+y,z
1/2-x,1/2-y,z
1/2+x,1/2-y,-z
1/2-x,1/2+y,-z
loop_
_atom_site_type_symbol
_atom_site_label
_atom_site_fract_x
_atom_site_fract_y
_atom_site_fract_z
Si Si1 0.398794 0.047389 0.593568
Si Si2 0.195389 0.069855 0.385014
Si Si3 0.250000 0.250000 0.250000
Si Si4 0.604226 0.666038 0.545092
O O1 0.385785 0.201860 0.595801
O O2 0.500000 0.000000 0.638944
O O3 0.404939 0.000000 0.500000
O O4 0.305131 0.981052 0.635523
O O5 0.175198 0.166923 0.308443
O O6 0.188248 0.147592 0.473415
O O7 0.118822 0.949946 0.387818
O O8 0.500000 0.654921 0.500000
#
# Coordination Sequence:
#
# PCOD8163007 Si02
#       4
#    16  16   4  16
#     4  11  20  35  65 101 134 168 219 291 342 397
#     4  11  24  41  65  97 138 185 228 285 341 414
#     4  12  28  44  66  96 152 192 224 286 368 404
#     4  11  22  40  73 108 128 175 248 290 336 405
#
# _framework density 23.090858000000001
#
# number of rings (size 3 to 8) (size 9 to 14) (size 15 to 20)
#    0.000    0.923    6.154    4.615    0.000    0.000 
#    0.000    6.154    0.000    0.000    0.000    0.000 
#    0.000    0.000    0.000    0.000    0.000    0.000 
#
# Total GULP energy -161115.439836 kJ/mol
# GULP energy per Si atom -12393.495372 kJ/mol
# Density = 2.303830 g / cm^3
# Si number density = 23.090858 Si / 1000 Ang^3
#
#
#
# Elastic Constant Matrix: (Units=GPa)
#
#
# Indices 1 2 3 4 5 6 
#
# 1 137.3600 48.3969 9.1255 0.0000 0.0000 0.0000
# 2 48.3969 194.2490 55.2535 0.0000 0.0000 0.0000
# 3 9.1255 55.2535 68.5676 0.0000 0.0000 0.0000
# 4 0.0000 0.0000 0.0000 45.9881 0.0000 0.0000
# 5 0.0000 0.0000 0.0000 0.0000 9.1617 0.0000
# 6 0.0000 0.0000 0.0000 0.0000 0.0000 120.7344
#
#
#
# Elastic Compliance Matrix: (Units=1/GPa)
#
#
# Indices 1 2 3 4 5 6 
#
# 1 0.008007 -0.002195 0.000703 0.000000 0.000000 0.000000
# 2 -0.002195 0.007281 -0.005575 0.000000 0.000000 0.000000
# 3 0.000703 -0.005575 0.018983 0.000000 0.000000 0.000000
# 4 0.000000 0.000000 0.000000 0.021745 0.000000 0.000000
# 5 0.000000 0.000000 0.000000 0.000000 0.109150 0.000000
# 6 0.000000 0.000000 0.000000 0.000000 0.000000 0.008283
#
#
# Mechanical properties :
#
#
# Convention : Reuss Voigt Hill
#
# Bulk Modulus (GPa) = 49.65960 69.52537 59.59248
# Shear Modulus (GPa) = 25.73425 54.33689 40.03557
#
# Velocity S-wave (km/s) = 3.34200 4.85622 4.16844
# Velocity P-wave (km/s) = 6.03695 7.84976 7.00227
#
# Compressibility (1/GPa) = 0.02013710
#
# Stress axis : x y z
#
# Youngs Moduli (GPa) = 124.89452 137.35123 52.67904
#
# Poissons Ratio (x) = 0.30147 -0.03704
# Poissons Ratio (y) = 0.27413 0.29367
# Poissons Ratio (z) = -0.08781 0.76570
#
# Static dielectric constant tensor:
#      x y z
#    x 5.256790 0.000000 0.000000 
#    y 0.000000 4.861720 0.000000 
#    z 0.000000 0.000000 3.457420 
# 
# 
# High freq. dielectric constant tensor:
#      x y z
#    x 1.914580 0.000000 0.000000 
#    y 0.000000 1.941920 0.000000 
#    z 0.000000 0.000000 1.841210 
# 
# From -- ./inp_files/20718.got.cif
#   From: 2010.03.12/outbox.cif.g09.slc.cpg/sg22_11_cif.got.tgz:20718.got - 2010.04.14 02:24:06.
