data_PCOD8163484
_publ_section_title
;
Structure prediction by ZEFSAII (Michael W. Deem and Ramdas Pophale) SiO2 
 PCOD8163484
Probable space group: I 2 2 2
;
_chemical_formula_sum "Si O2"
_cell_formula_units_Z 48
_cell_length_a 12.837007
_cell_length_b 12.293174
_cell_length_c 13.903572
_cell_angle_alpha 90.000000
_cell_angle_beta 90.000000
_cell_angle_gamma 90.000000
_cell_volume 2194.088782
_symmetry_space_group_name_H-M "I 2 2 2"
_symmetry_group_IT_number 23
_symmetry_cell_setting 'orthorhombic'
loop_
_space_group_symop_operation_xyz
x,y,z
-x,-y,z
x,-y,-z
-x,y,-z
1/2+x,1/2+y,1/2+z
1/2-x,1/2-y,1/2+z
1/2+x,1/2-y,1/2-z
1/2-x,1/2+y,1/2-z
loop_
_atom_site_type_symbol
_atom_site_label
_atom_site_fract_x
_atom_site_fract_y
_atom_site_fract_z
Si Si1 0.802335 0.671677 0.002522
Si Si2 0.903127 0.747801 0.431058
Si Si3 0.117750 0.484893 0.364354
Si Si4 0.322547 0.405687 0.567881
Si Si5 0.185003 0.492157 0.844855
Si Si6 0.905458 0.920876 0.276802
O O1 0.844355 0.793514 0.012293
O O2 0.829383 0.603623 0.097097
O O3 0.677571 0.677598 0.989744
O O4 0.851622 0.611637 0.908983
O O5 0.847337 0.635669 0.396943
O O6 0.933696 0.809885 0.332839
O O7 0.000000 0.725163 0.500000
O O8 0.198484 0.571886 0.411048
O O9 0.115151 0.500582 0.249800
O O10 0.000000 0.500000 0.402535
O O11 0.368346 0.500000 0.500000
O O12 0.388109 0.397084 0.664931
O O13 0.305139 0.481264 0.818142
O O14 0.000000 0.000000 0.293195
#
# Coordination Sequence:
#
# PCOD8163484 Si02
#       6
#     8   8   8   8   8   8
#     4  10  19  38  62  85 118 158 208 242 304 364
#     4  11  21  35  62  93 121 157 199 259 312 362
#     4  11  23  38  58  90 125 153 203 252 313 360
#     4  11  22  39  62  86 120 163 204 253 303 369
#     4   9  21  39  62  86 118 163 197 254 301 365
#     4  10  22  39  58  91 123 157 204 250 310 364
#
# _framework density 21.876964000000001
#
# number of rings (size 3 to 8) (size 9 to 14) (size 15 to 20)
#    0.000    1.667    1.667    3.000    0.000    2.000 
#    3.000    1.667    3.667    0.000    0.000    0.000 
#    0.000    0.000    0.000    0.000    0.000    0.000 
#
# Total GULP energy -297570.068589 kJ/mol
# GULP energy per Si atom -12398.752858 kJ/mol
# Density = 2.182717 g / cm^3
# Si number density = 21.876964 Si / 1000 Ang^3
#
#
#
# Elastic Constant Matrix: (Units=GPa)
#
#
# Indices 1 2 3 4 5 6 
#
# 1 26.9417 11.9884 4.5392 0.0000 0.0000 0.0000
# 2 11.9884 158.9158 66.5743 0.0000 0.0000 0.0000
# 3 4.5392 66.5743 149.1384 0.0000 0.0000 0.0000
# 4 0.0000 0.0000 0.0000 36.5790 0.0000 0.0000
# 5 0.0000 0.0000 0.0000 0.0000 23.1871 0.0000
# 6 0.0000 0.0000 0.0000 0.0000 0.0000 18.4215
#
#
#
# Elastic Compliance Matrix: (Units=1/GPa)
#
#
# Indices 1 2 3 4 5 6 
#
# 1 0.038409 -0.002962 0.000153 0.000000 0.000000 0.000000
# 2 -0.002962 0.007968 -0.003467 0.000000 0.000000 0.000000
# 3 0.000153 -0.003467 0.008248 0.000000 0.000000 0.000000
# 4 0.000000 0.000000 0.000000 0.027338 0.000000 0.000000
# 5 0.000000 0.000000 0.000000 0.000000 0.043127 0.000000
# 6 0.000000 0.000000 0.000000 0.000000 0.000000 0.054284
#
#
# Mechanical properties :
#
#
# Convention : Reuss Voigt Hill
#
# Bulk Modulus (GPa) = 23.76722 55.68886 39.72804
# Shear Modulus (GPa) = 24.27754 32.43046 28.35400
#
# Velocity S-wave (km/s) = 3.33488 3.85437 3.60400
# Velocity P-wave (km/s) = 5.07111 6.73194 5.95966
#
# Compressibility (1/GPa) = 0.04207475
#
# Stress axis : x y z
#
# Youngs Moduli (GPa) = 26.03538 125.49479 121.23952
#
# Poissons Ratio (x) = 0.37167 -0.01855
# Poissons Ratio (y) = 0.07711 0.42033
# Poissons Ratio (z) = -0.00398 0.43508
#
# Static dielectric constant tensor:
#      x y z
#    x 3.556650 0.000000 0.000000 
#    y 0.000000 4.009620 0.000000 
#    z 0.000000 0.000000 4.262990 
# 
# 
# High freq. dielectric constant tensor:
#      x y z
#    x 1.832630 0.000000 0.000000 
#    y 0.000000 1.865020 0.000000 
#    z 0.000000 0.000000 1.880030 
# 
# From -- ./inp_files/16673.got.cif
#   From: 2010.03.12/outbox.cif.g09.slc.cpg/sg23_9_cif.got.tgz:16673.got - 2010.04.14 02:50:06.
