data_PCOD8163087
_publ_section_title
;
Structure prediction by ZEFSAII (Michael W. Deem and Ramdas Pophale) SiO2 
 PCOD8163087
Probable space group: F 2 2 2
;
_chemical_formula_sum "Si O2"
_cell_formula_units_Z 56
_cell_length_a 12.405141
_cell_length_b 9.328998
_cell_length_c 21.176867
_cell_angle_alpha 90.000000
_cell_angle_beta 90.000000
_cell_angle_gamma 90.000000
_cell_volume 2450.746629
_symmetry_space_group_name_H-M "F 2 2 2"
_symmetry_group_IT_number 22
_symmetry_cell_setting 'orthorhombic'
loop_
_space_group_symop_operation_xyz
x,y,z
-x,-y,z
x,-y,-z
-x,y,-z
x,1/2+y,1/2+z
-x,1/2-y,1/2+z
x,1/2-y,1/2-z
-x,1/2+y,1/2-z
1/2+x,y,1/2+z
1/2-x,-y,1/2+z
1/2+x,-y,1/2-z
1/2-x,y,1/2-z
1/2+x,1/2+y,z
1/2-x,1/2-y,z
1/2+x,1/2-y,-z
1/2-x,1/2+y,-z
loop_
_atom_site_type_symbol
_atom_site_label
_atom_site_fract_x
_atom_site_fract_y
_atom_site_fract_z
Si Si1 0.570268 0.282332 0.935029
Si Si2 0.750000 0.250000 0.151584
Si Si3 0.966837 0.158872 0.194200
Si Si4 0.774151 0.971543 0.431105
O O1 0.489018 0.301335 0.877950
O O2 0.649291 0.420390 0.936477
O O3 0.642971 0.150786 0.909968
O O4 0.500000 0.265571 0.000000
O O5 0.839799 0.187249 0.198363
O O6 0.788901 0.384089 0.108825
O O7 0.024654 0.250000 0.250000
O O8 0.000000 0.000000 0.210810
O O9 0.818333 0.000000 0.500000
#
# Coordination Sequence:
#
# PCOD8163087 Si02
#       4
#    16   8  16  16
#     4  11  25  46  75 106 149 191 244 307 374 438
#     4  12  25  46  74 106 148 190 253 306 365 444
#     4  12  28  50  74 107 145 196 246 306 372 446
#     4  11  23  42  69 112 148 189 244 306 370 446
#
# _framework density 22.850180999999999
#
# number of rings (size 3 to 8) (size 9 to 14) (size 15 to 20)
#    0.000    0.571    2.857    5.571    4.000    2.857 
#    0.000    4.286    0.000    0.000    0.000    0.000 
#    0.000    0.000    0.000    0.000    0.000    0.000 
#
# Total GULP energy -173443.523352 kJ/mol
# GULP energy per Si atom -12388.823097 kJ/mol
# Density = 2.279817 g / cm^3
# Si number density = 22.850181 Si / 1000 Ang^3
#
#
#
# Elastic Constant Matrix: (Units=GPa)
#
#
# Indices 1 2 3 4 5 6 
#
# 1 113.0709 57.2000 25.4692 0.0000 0.0000 0.0000
# 2 57.2000 171.1391 61.6954 0.0000 0.0000 0.0000
# 3 25.4692 61.6954 135.8020 0.0000 0.0000 0.0000
# 4 0.0000 0.0000 0.0000 12.8748 0.0000 0.0000
# 5 0.0000 0.0000 0.0000 0.0000 945.8178 0.0000
# 6 0.0000 0.0000 0.0000 0.0000 0.0000 34.8566
#
#
#
# Elastic Compliance Matrix: (Units=1/GPa)
#
#
# Indices 1 2 3 4 5 6 
#
# 1 0.010667 -0.003401 -0.000455 0.000000 0.000000 0.000000
# 2 -0.003401 0.008072 -0.003029 0.000000 0.000000 0.000000
# 3 -0.000455 -0.003029 0.008825 0.000000 0.000000 0.000000
# 4 0.000000 0.000000 0.000000 0.077671 0.000000 0.000000
# 5 0.000000 0.000000 0.000000 0.000000 0.001057 0.000000
# 6 0.000000 0.000000 0.000000 0.000000 0.000000 0.028689
#
#
# Mechanical properties :
#
#
# Convention : Reuss Voigt Hill
#
# Bulk Modulus (GPa) = 72.50175 78.74904 75.62539
# Shear Modulus (GPa) = 32.60494 217.08633 124.84564
#
# Velocity S-wave (km/s) = 3.78153 9.75758 7.39968
# Velocity P-wave (km/s) = 7.13195 12.70769 10.30413
#
# Compressibility (1/GPa) = 0.01379277
#
# Stress axis : x y z
#
# Youngs Moduli (GPa) = 93.74589 123.88493 113.31061
#
# Poissons Ratio (x) = 0.42134 0.05161
# Poissons Ratio (y) = 0.31884 0.34325
# Poissons Ratio (z) = 0.04270 0.37528
#
# Static dielectric constant tensor:
#      x y z
#    x 4.176140 0.000000 0.000000 
#    y 0.000000 -7.704420 0.000000 
#    z 0.000000 0.000000 4.262190 
# 
# 
# High freq. dielectric constant tensor:
#      x y z
#    x 1.907270 0.000000 0.000000 
#    y 0.000000 1.915790 0.000000 
#    z 0.000000 0.000000 1.905960 
# 
# From -- ./inp_files/14328.got.cif
#   From: 2010.03.12/outbox.cif.g09.slc.cpg/sg22_8_cif.got.tgz:14328.got - 2010.04.14 02:24:06.
