data_PCOD8163990
_publ_section_title
;
Structure prediction by ZEFSAII (Michael W. Deem and Ramdas Pophale) SiO2 
 PCOD8163990
Probable space group: I 2 2 2
;
_chemical_formula_sum "Si O2"
_cell_formula_units_Z 56
_cell_length_a 16.270310
_cell_length_b 13.695873
_cell_length_c 12.354059
_cell_angle_alpha 90.000000
_cell_angle_beta 90.000000
_cell_angle_gamma 90.000000
_cell_volume 2752.930320
_symmetry_space_group_name_H-M "I 2 2 2"
_symmetry_group_IT_number 23
_symmetry_cell_setting 'orthorhombic'
loop_
_space_group_symop_operation_xyz
x,y,z
-x,-y,z
x,-y,-z
-x,y,-z
1/2+x,1/2+y,1/2+z
1/2-x,1/2-y,1/2+z
1/2+x,1/2-y,1/2-z
1/2-x,1/2+y,1/2-z
loop_
_atom_site_type_symbol
_atom_site_label
_atom_site_fract_x
_atom_site_fract_y
_atom_site_fract_z
Si Si1 0.834535 0.181765 0.872392
Si Si2 0.112290 0.769133 0.106328
Si Si3 0.212799 0.316551 0.313300
Si Si4 0.010556 0.889109 0.754964
Si Si5 0.543349 0.904751 0.271971
Si Si6 0.455603 0.776491 0.108621
Si Si7 0.810907 0.529218 0.619287
O O1 0.806364 0.278942 0.808247
O O2 0.760108 0.109092 0.899463
O O3 0.898530 0.121521 0.801655
O O4 0.883217 0.215633 0.978623
O O5 0.203036 0.765977 0.154099
O O6 0.059047 0.855614 0.160088
O O7 0.071846 0.663877 0.129836
O O8 0.143648 0.278072 0.399493
O O9 0.222424 0.433749 0.317319
O O10 0.005386 0.827065 0.643930
O O11 0.000000 0.000000 0.721368
O O12 0.471617 0.853497 0.203971
O O13 0.617295 0.924350 0.189524
O O14 0.500000 0.000000 0.322373
O O15 0.500000 0.810554 0.000000
O O16 0.844199 0.500000 0.500000
#
# Coordination Sequence:
#
# PCOD8163990 Si02
#       7
#     8   8   8   8   8   8   8
#     4  11  24  41  64  92 128 165 213 271 327 391
#     4  11  23  42  65  91 128 172 214 270 336 393
#     4  11  22  39  62  96 128 159 215 273 326 390
#     4  10  23  40  61  90 123 164 219 268 321 403
#     4  11  23  40  64  95 133 170 221 269 327 405
#     4  10  22  38  62  92 130 168 210 276 339 394
#     4  12  22  37  68  98 122 168 214 269 323 389
#
# _framework density 20.34196
#
# number of rings (size 3 to 8) (size 9 to 14) (size 15 to 20)
#    0.000    1.143    4.286    2.143    0.000    0.857 
#    0.000    0.714    6.286    1.714    0.000    0.000 
#    0.000    0.000    0.000    0.000    0.000    0.000 
#
# Total GULP energy -347237.054736 kJ/mol
# GULP energy per Si atom -12401.323383 kJ/mol
# Density = 2.029566 g / cm^3
# Si number density = 20.341960 Si / 1000 Ang^3
#
#
#
# Elastic Constant Matrix: (Units=GPa)
#
#
# Indices 1 2 3 4 5 6 
#
# 1 76.6333 18.8085 -0.5122 0.0000 0.0000 0.0000
# 2 18.8085 142.0381 26.6818 0.0000 0.0000 0.0000
# 3 -0.5122 26.6818 46.9242 0.0000 0.0000 0.0000
# 4 0.0000 0.0000 0.0000 20.5161 0.0000 0.0000
# 5 0.0000 0.0000 0.0000 0.0000 27.2002 0.0000
# 6 0.0000 0.0000 0.0000 0.0000 0.0000 32.0097
#
#
#
# Elastic Compliance Matrix: (Units=1/GPa)
#
#
# Indices 1 2 3 4 5 6 
#
# 1 0.013559 -0.002041 0.001309 0.000000 0.000000 0.000000
# 2 -0.002041 0.008190 -0.004679 0.000000 0.000000 0.000000
# 3 0.001309 -0.004679 0.023986 0.000000 0.000000 0.000000
# 4 0.000000 0.000000 0.000000 0.048742 0.000000 0.000000
# 5 0.000000 0.000000 0.000000 0.000000 0.036764 0.000000
# 6 0.000000 0.000000 0.000000 0.000000 0.000000 0.031240
#
#
# Mechanical properties :
#
#
# Convention : Reuss Voigt Hill
#
# Bulk Modulus (GPa) = 28.64415 39.50576 34.07495
# Shear Modulus (GPa) = 27.03553 30.65304 28.84429
#
# Velocity S-wave (km/s) = 3.64957 3.88608 3.76968
# Velocity P-wave (km/s) = 5.64545 6.29273 5.97785
#
# Compressibility (1/GPa) = 0.03491114
#
# Stress axis : x y z
#
# Youngs Moduli (GPa) = 73.75226 122.10577 41.69129
#
# Poissons Ratio (x) = 0.24925 -0.05456
# Poissons Ratio (y) = 0.15055 0.19507
# Poissons Ratio (z) = -0.09652 0.57134
#
# Static dielectric constant tensor:
#      x y z
#    x 3.873020 0.000000 0.000000 
#    y 0.000000 3.797960 0.000000 
#    z 0.000000 0.000000 3.547750 
# 
# 
# High freq. dielectric constant tensor:
#      x y z
#    x 1.814630 0.000000 0.000000 
#    y 0.000000 1.796970 0.000000 
#    z 0.000000 0.000000 1.777740 
# 
# From -- ./inp_files/16795.got.cif
#   From: 2010.03.12/outbox.cif.g09.slc.cpg/sg23_9_cif.got.tgz:16795.got - 2010.04.14 02:50:06.
