data_PCOD8163425
_publ_section_title
;
Structure prediction by ZEFSAII (Michael W. Deem and Ramdas Pophale) SiO2 
 PCOD8163425
Probable space group: I 2 2 2
;
_chemical_formula_sum "Si O2"
_cell_formula_units_Z 56
_cell_length_a 18.997665
_cell_length_b 8.396424
_cell_length_c 18.890915
_cell_angle_alpha 90.000000
_cell_angle_beta 90.000000
_cell_angle_gamma 90.000000
_cell_volume 3013.336141
_symmetry_space_group_name_H-M "I 2 2 2"
_symmetry_group_IT_number 23
_symmetry_cell_setting 'orthorhombic'
loop_
_space_group_symop_operation_xyz
x,y,z
-x,-y,z
x,-y,-z
-x,y,-z
1/2+x,1/2+y,1/2+z
1/2-x,1/2-y,1/2+z
1/2+x,1/2-y,1/2-z
1/2-x,1/2+y,1/2-z
loop_
_atom_site_type_symbol
_atom_site_label
_atom_site_fract_x
_atom_site_fract_y
_atom_site_fract_z
Si Si1 0.963383 0.173692 0.064646
Si Si2 0.151391 0.199141 0.738598
Si Si3 0.875228 0.836870 0.263014
Si Si4 0.012954 0.679908 0.217479
Si Si5 0.674923 0.183183 0.507874
Si Si6 0.278364 0.191213 0.647658
Si Si7 0.752908 0.673458 0.854006
O O1 0.881348 0.193822 0.042453
O O2 0.978642 0.236834 0.142034
O O3 0.000000 0.000000 0.063668
O O4 0.000000 0.271873 0.000000
O O5 0.200142 0.247690 0.671528
O O6 0.196896 0.208142 0.810519
O O7 0.085178 0.316919 0.738291
O O8 0.116606 0.025695 0.737367
O O9 0.952032 0.757796 0.265732
O O10 0.838395 0.778578 0.191522
O O11 0.827762 0.792244 0.331450
O O12 0.000000 0.500000 0.198620
O O13 0.705465 0.240316 0.432901
O O14 0.740970 0.192818 0.561714
O O15 0.646778 0.000000 0.500000
O O16 0.279907 0.003901 0.665412
#
# Coordination Sequence:
#
# PCOD8163425 Si02
#       7
#     8   8   8   8   8   8   8
#     4  11  24  36  52  78 120 149 183 217 274 333
#     4  10  19  35  55  78 108 143 184 234 273 326
#     4  10  20  33  54  79 109 140 186 230 278 329
#     4  12  24  35  55  78 111 149 187 226 281 336
#     4  10  20  35  59  81 111 148 188 225 274 333
#     4   9  19  35  56  80 107 143 187 227 275 328
#     4   9  18  35  55  78 106 145 184 229 274 329
#
# _framework density 18.584053999999998
#
# number of rings (size 3 to 8) (size 9 to 14) (size 15 to 20)
#    0.000    1.857    1.429    3.000    4.000    2.286 
#    0.000    0.000    0.000    0.857    0.000    6.000 
#    0.000    0.000    0.000    0.000    0.000    0.000 
#
# Total GULP energy -346915.127920 kJ/mol
# GULP energy per Si atom -12389.825997 kJ/mol
# Density = 1.854176 g / cm^3
# Si number density = 18.584054 Si / 1000 Ang^3
#
#
#
# Elastic Constant Matrix: (Units=GPa)
#
#
# Indices 1 2 3 4 5 6 
#
# 1 95.3148 19.1021 44.0445 0.0000 0.0000 0.0000
# 2 19.1021 43.5753 23.0190 0.0000 0.0000 0.0000
# 3 44.0445 23.0190 94.7830 0.0000 0.0000 0.0000
# 4 0.0000 0.0000 0.0000 11.0168 0.0000 0.0000
# 5 0.0000 0.0000 0.0000 0.0000 28.7328 0.0000
# 6 0.0000 0.0000 0.0000 0.0000 0.0000 30.8313
#
#
#
# Elastic Compliance Matrix: (Units=1/GPa)
#
#
# Indices 1 2 3 4 5 6 
#
# 1 0.013701 -0.003032 -0.005630 0.000000 0.000000 0.000000
# 2 -0.003032 0.026997 -0.005148 0.000000 0.000000 0.000000
# 3 -0.005630 -0.005148 0.014417 0.000000 0.000000 0.000000
# 4 0.000000 0.000000 0.000000 0.090770 0.000000 0.000000
# 5 0.000000 0.000000 0.000000 0.000000 0.034803 0.000000
# 6 0.000000 0.000000 0.000000 0.000000 0.000000 0.032435
#
#
# Mechanical properties :
#
#
# Convention : Reuss Voigt Hill
#
# Bulk Modulus (GPa) = 36.36985 45.11162 40.74073
# Shear Modulus (GPa) = 20.00735 23.95001 21.97868
#
# Velocity S-wave (km/s) = 3.28470 3.59380 3.44272
# Velocity P-wave (km/s) = 5.83083 6.44574 6.14598
#
# Compressibility (1/GPa) = 0.02749530
#
# Stress axis : x y z
#
# Youngs Moduli (GPa) = 72.98786 37.04099 69.36284
#
# Poissons Ratio (x) = 0.11230 0.39054
# Poissons Ratio (y) = 0.22128 0.35706
# Poissons Ratio (z) = 0.41095 0.19068
#
# Static dielectric constant tensor:
#      x y z
#    x 3.597520 0.000000 0.000000 
#    y 0.000000 3.427920 0.000000 
#    z 0.000000 0.000000 3.455680 
# 
# 
# High freq. dielectric constant tensor:
#      x y z
#    x 1.716890 0.000000 0.000000 
#    y 0.000000 1.718950 0.000000 
#    z 0.000000 0.000000 1.706070 
# 
# From -- ./inp_files/27162.got.cif
#   From: 2010.03.12/outbox.cif.g09.slc.cpg/sg23_14_cif.got.tgz:27162.got - 2010.04.14 02:50:06.
