data_PCOD8163481
_publ_section_title
;
Structure prediction by ZEFSAII (Michael W. Deem and Ramdas Pophale) SiO2 
 PCOD8163481
Probable space group: I 2 2 2
;
_chemical_formula_sum "Si O2"
_cell_formula_units_Z 64
_cell_length_a 9.657489
_cell_length_b 21.305858
_cell_length_c 15.878827
_cell_angle_alpha 90.000000
_cell_angle_beta 90.000000
_cell_angle_gamma 90.000000
_cell_volume 3267.244740
_symmetry_space_group_name_H-M "I 2 2 2"
_symmetry_group_IT_number 23
_symmetry_cell_setting 'orthorhombic'
loop_
_space_group_symop_operation_xyz
x,y,z
-x,-y,z
x,-y,-z
-x,y,-z
1/2+x,1/2+y,1/2+z
1/2-x,1/2-y,1/2+z
1/2+x,1/2-y,1/2-z
1/2-x,1/2+y,1/2-z
loop_
_atom_site_type_symbol
_atom_site_label
_atom_site_fract_x
_atom_site_fract_y
_atom_site_fract_z
Si Si1 0.848739 0.470125 0.265950
Si Si2 0.882964 0.949234 0.818040
Si Si3 0.967474 0.165309 0.095370
Si Si4 0.768186 0.730687 0.305586
Si Si5 0.734501 0.165330 0.822583
Si Si6 0.839738 0.515911 0.091238
Si Si7 0.544034 0.742792 0.094181
Si Si8 0.707238 0.632163 0.173307
O O1 0.763666 0.516334 0.326783
O O2 0.837749 0.401042 0.303893
O O3 0.786205 0.472953 0.169889
O O4 0.000000 0.500000 0.264689
O O5 0.898587 0.903725 0.898777
O O6 0.893357 0.910250 0.730835
O O7 0.000000 0.000000 0.816540
O O8 0.857754 0.215218 0.131130
O O9 0.105471 0.161467 0.151602
O O10 0.000000 0.183783 0.000000
O O11 0.718525 0.794172 0.261519
O O12 0.796570 0.675775 0.236875
O O13 0.911748 0.742277 0.350217
O O14 0.652045 0.199952 0.897364
O O15 0.808354 0.589022 0.115386
O O16 0.000000 0.500000 0.080809
O O17 0.768425 0.500000 0.000000
O O18 0.611364 0.676025 0.116480
O O19 0.500000 0.737495 0.000000
#
# Coordination Sequence:
#
# PCOD8163481 Si02
#       8
#     8   8   8   8   8   8   8   8
#     4  10  22  37  62  90 119 163 211 254 312 380
#     4  10  19  38  61  87 116 162 203 252 302 384
#     4  11  23  41  63  92 127 157 209 266 319 362
#     4  10  22  41  67  87 121 176 208 256 306 381
#     4  11  22  40  64  92 121 166 218 252 309 385
#     4   9  19  37  60  93 127 160 200 262 321 371
#     4  11  24  40  63  90 129 163 206 265 318 356
#     4   9  21  39  61  89 126 158 218 246 312 382
#
# _framework density 19.588370000000001
#
# number of rings (size 3 to 8) (size 9 to 14) (size 15 to 20)
#    0.000    1.875    1.250    3.000    7.000    1.250 
#    2.250    0.000    0.000    0.000    0.000    0.000 
#    0.000    0.000    0.000    0.000    0.000    0.000 
#
# Total GULP energy -396611.536848 kJ/mol
# GULP energy per Si atom -12394.110526 kJ/mol
# Density = 1.954379 g / cm^3
# Si number density = 19.588370 Si / 1000 Ang^3
#
#
#
# Elastic Constant Matrix: (Units=GPa)
#
#
# Indices 1 2 3 4 5 6 
#
# 1 92.6349 41.3754 34.9292 0.0000 0.0000 0.0000
# 2 41.3754 114.8957 46.2879 0.0000 0.0000 0.0000
# 3 34.9292 46.2879 99.7782 0.0000 0.0000 -0.0001
# 4 0.0000 0.0000 0.0000 23.4878 0.0000 0.0000
# 5 0.0000 0.0000 0.0000 0.0000 27.3492 0.0000
# 6 0.0000 0.0000 -0.0001 0.0000 0.0000 40.0169
#
#
#
# Elastic Compliance Matrix: (Units=1/GPa)
#
#
# Indices 1 2 3 4 5 6 
#
# 1 0.013582 -0.003660 -0.003057 0.000000 0.000000 0.000000
# 2 -0.003660 0.011690 -0.004142 0.000000 0.000000 0.000000
# 3 -0.003057 -0.004142 0.013014 0.000000 0.000000 0.000000
# 4 0.000000 0.000000 0.000000 0.042575 0.000000 0.000000
# 5 0.000000 0.000000 0.000000 0.000000 0.036564 0.000000
# 6 0.000000 0.000000 0.000000 0.000000 0.000000 0.024989
#
#
# Mechanical properties :
#
#
# Convention : Reuss Voigt Hill
#
# Bulk Modulus (GPa) = 60.35346 61.38819 60.87082
# Shear Modulus (GPa) = 29.47150 30.48521 29.97835
#
# Velocity S-wave (km/s) = 3.88305 3.94927 3.91630
# Velocity P-wave (km/s) = 7.14016 7.22515 7.18278
#
# Compressibility (1/GPa) = 0.01656906
#
# Stress axis : x y z
#
# Youngs Moduli (GPa) = 73.62520 85.54245 76.84087
#
# Poissons Ratio (x) = 0.31305 0.23490
# Poissons Ratio (y) = 0.26944 0.31828
# Poissons Ratio (z) = 0.22507 0.35432
#
# Static dielectric constant tensor:
#      x y z
#    x 3.542820 0.000000 0.000000 
#    y 0.000000 3.871990 0.000000 
#    z 0.000000 0.000000 3.501280 
# 
# 
# High freq. dielectric constant tensor:
#      x y z
#    x 1.763630 0.000000 0.000000 
#    y 0.000000 1.772340 0.000000 
#    z 0.000000 0.000000 1.754100 
# 
# From -- ./inp_files/23991.got.cif
#   From: 2010.03.12/outbox.cif.g09.slc.cpg/sg23_12_cif.got.tgz:23991.got - 2010.04.14 02:50:06.
