data_PCOD8163565
_publ_section_title
;
Structure prediction by ZEFSAII (Michael W. Deem and Ramdas Pophale) SiO2 
 PCOD8163565
Probable space group: I 2 2 2
;
_chemical_formula_sum "Si O2"
_cell_formula_units_Z 44
_cell_length_a 22.088014
_cell_length_b 22.292197
_cell_length_c 5.288421
_cell_angle_alpha 90.000000
_cell_angle_beta 90.000000
_cell_angle_gamma 90.000000
_cell_volume 2603.967517
_symmetry_space_group_name_H-M "I 2 2 2"
_symmetry_group_IT_number 23
_symmetry_cell_setting 'orthorhombic'
loop_
_space_group_symop_operation_xyz
x,y,z
-x,-y,z
x,-y,-z
-x,y,-z
1/2+x,1/2+y,1/2+z
1/2-x,1/2-y,1/2+z
1/2+x,1/2-y,1/2-z
1/2-x,1/2+y,1/2-z
loop_
_atom_site_type_symbol
_atom_site_label
_atom_site_fract_x
_atom_site_fract_y
_atom_site_fract_z
Si Si1 0.576887 0.500000 0.500000
Si Si2 0.553476 0.394787 0.808415
Si Si3 0.670685 0.256552 0.748753
Si Si4 0.284910 0.319659 0.753192
Si Si5 0.463244 0.263006 0.262709
Si Si6 0.662834 0.439049 0.115298
O O1 0.534482 0.454040 0.653589
O O2 0.618691 0.456451 0.339082
O O3 0.553911 0.331800 0.660830
O O4 0.500000 0.386517 0.000000
O O5 0.621033 0.405191 0.911401
O O6 0.683875 0.299279 0.508096
O O7 0.714692 0.198962 0.739074
O O8 0.602161 0.230618 0.751219
O O9 0.679610 0.291305 0.011326
O O10 0.287289 0.392290 0.780768
O O11 0.500000 0.235466 0.500000
O O12 0.500000 0.255282 0.000000
O O13 0.693129 0.500000 0.000000
#
# Coordination Sequence:
#
# PCOD8163565 Si02
#       6
#     4   8   8   8   8   8
#     4  10  22  33  44  58  92 128 175 206 238 278
#     4  10  22  32  42  61  90 133 171 208 239 277
#     4  10  20  35  55  75  95 131 169 210 253 298
#     4  10  20  35  55  73  98 129 173 208 249 304
#     4  11  22  34  51  71 100 128 164 209 250 296
#     4  10  21  34  47  67  96 130 166 211 247 286
#
# _framework density 16.897292
#
# number of rings (size 3 to 8) (size 9 to 14) (size 15 to 20)
#    0.000    1.818    1.818    2.182   10.182    4.000 
#    0.000    0.000    0.000    0.000    0.000    0.000 
#    0.000    0.727    0.000    0.000    0.000    0.000 
#
# Total GULP energy -272624.492139 kJ/mol
# GULP energy per Si atom -12392.022370 kJ/mol
# Density = 1.685883 g / cm^3
# Si number density = 16.897292 Si / 1000 Ang^3
#
#
#
# Elastic Constant Matrix: (Units=GPa)
#
#
# Indices 1 2 3 4 5 6 
#
# 1 110.7651 32.0189 28.3603 0.0000 0.0000 0.0000
# 2 32.0189 56.6877 5.1099 0.0000 0.0000 0.0000
# 3 28.3603 5.1099 86.9632 0.0000 0.0000 0.0000
# 4 0.0000 0.0000 0.0000 10.5420 0.0000 0.0000
# 5 0.0000 0.0000 0.0000 0.0000 -213.8667 0.0000
# 6 0.0000 0.0000 0.0000 0.0000 0.0000 28.3478
#
#
#
# Elastic Compliance Matrix: (Units=1/GPa)
#
#
# Indices 1 2 3 4 5 6 
#
# 1 0.011740 -0.006320 -0.003457 0.000000 0.000000 0.000000
# 2 -0.006320 0.021136 0.000819 0.000000 0.000000 0.000000
# 3 -0.003457 0.000819 0.012578 0.000000 0.000000 0.000000
# 4 0.000000 0.000000 0.000000 0.094859 0.000000 0.000000
# 5 0.000000 0.000000 0.000000 0.000000 -0.004676 0.000000
# 6 0.000000 0.000000 0.000000 0.000000 0.000000 0.035276
#
#
# Mechanical properties :
#
#
# Convention : Reuss Voigt Hill
#
# Bulk Modulus (GPa) = 36.31218 42.82157 39.56688
# Shear Modulus (GPa) = 25.25133 -22.40026 1.42554
#
# Velocity S-wave (km/s) = 3.86994 -3.64493 0.91950
# Velocity P-wave (km/s) = 6.44245 2.77188 4.95926
#
# Compressibility (1/GPa) = 0.02753897
#
# Stress axis : x y z
#
# Youngs Moduli (GPa) = 85.17803 47.31233 79.50081
#
# Poissons Ratio (x) = 0.29899 0.27486
# Poissons Ratio (y) = 0.53828 -0.06511
# Poissons Ratio (z) = 0.29449 -0.03875
#
# Static dielectric constant tensor:
#      x y z
#    x 3.142270 0.000000 0.000000 
#    y 0.000000 3.233680 0.000000 
#    z 0.000000 0.000000 3.430290 
# 
# 
# High freq. dielectric constant tensor:
#      x y z
#    x 1.633960 0.000000 0.000000 
#    y 0.000000 1.612680 0.000000 
#    z 0.000000 0.000000 1.674450 
# 
# From -- ./inp_files/3337.got.cif
#   From: 2010.03.12/outbox.cif.g09.slc.cpg/sg23_2_cif.got.tgz:3337.got - 2010.04.14 02:50:06.
