data_PCOD8163501
_publ_section_title
;
Structure prediction by ZEFSAII (Michael W. Deem and Ramdas Pophale) SiO2 
 PCOD8163501
Probable space group: I 2 2 2
;
_chemical_formula_sum "Si O2"
_cell_formula_units_Z 38
_cell_length_a 8.795076
_cell_length_b 23.447418
_cell_length_c 8.052406
_cell_angle_alpha 90.000000
_cell_angle_beta 90.000000
_cell_angle_gamma 90.000000
_cell_volume 1660.581847
_symmetry_space_group_name_H-M "I 2 2 2"
_symmetry_group_IT_number 23
_symmetry_cell_setting 'orthorhombic'
loop_
_space_group_symop_operation_xyz
x,y,z
-x,-y,z
x,-y,-z
-x,y,-z
1/2+x,1/2+y,1/2+z
1/2-x,1/2-y,1/2+z
1/2+x,1/2-y,1/2-z
1/2-x,1/2+y,1/2-z
loop_
_atom_site_type_symbol
_atom_site_label
_atom_site_fract_x
_atom_site_fract_y
_atom_site_fract_z
Si Si1 0.000000 0.000000 0.500000
Si Si2 0.881000 0.698282 0.246803
Si Si3 0.204616 0.303794 0.871447
Si Si4 0.267275 0.427010 0.795935
Si Si5 0.838989 0.590439 0.437890
Si Si6 0.000000 0.500000 0.231527
O O1 0.096809 0.037074 0.372033
O O2 0.825776 0.754866 0.336769
O O3 0.788071 0.643016 0.319461
O O4 0.065243 0.694734 0.261839
O O5 0.851016 0.705640 0.055045
O O6 0.289625 0.364055 0.864541
O O7 0.271856 0.423467 0.593293
O O8 0.104006 0.453528 0.865159
O O9 0.000000 0.613503 0.500000
O O10 0.868597 0.531649 0.338604
#
# Coordination Sequence:
#
# PCOD8163501 Si02
#       6
#     2   8   8   8   8   4
#     4  12  32  42  62 112 156 190 222 298 380 416
#     4  11  24  42  71 107 134 182 232 295 359 416
#     4  11  25  43  70 102 141 179 237 293 355 427
#     4  11  24  46  69 101 144 189 235 295 352 423
#     4  10  19  42  75 102 128 182 241 291 341 419
#     4  10  21  43  82 103 128 187 250 295 336 425
#
# _framework density 22.883543
#
# number of rings (size 3 to 8) (size 9 to 14) (size 15 to 20)
#    0.000    1.263    4.211    4.105    2.947    2.105 
#    0.000    2.105    4.632    0.000    0.000    0.000 
#    0.000    0.000    0.000    0.000    0.000    0.000 
#
# Total GULP energy -235426.473983 kJ/mol
# GULP energy per Si atom -12390.867052 kJ/mol
# Density = 2.283146 g / cm^3
# Si number density = 22.883543 Si / 1000 Ang^3
#
#
#
# Elastic Constant Matrix: (Units=GPa)
#
#
# Indices 1 2 3 4 5 6 
#
# 1 87.6090 49.7293 46.4329 -0.0007 -0.0009 -0.0002
# 2 49.7293 172.5873 42.5899 -0.0022 0.0013 0.0000
# 3 46.4329 42.5899 86.8825 0.0011 0.0017 0.0007
# 4 -0.0007 -0.0022 0.0011 29.6241 0.0001 0.0000
# 5 -0.0009 0.0013 0.0017 0.0001 32.2386 0.0004
# 6 -0.0002 0.0000 0.0007 0.0000 0.0004 37.4654
#
#
#
# Elastic Compliance Matrix: (Units=1/GPa)
#
#
# Indices 1 2 3 4 5 6 
#
# 1 0.017241 -0.003065 -0.007712 0.000000 0.000001 0.000000
# 2 -0.003065 0.007136 -0.001860 0.000001 0.000000 0.000000
# 3 -0.007712 -0.001860 0.016543 -0.000001 -0.000001 0.000000
# 4 0.000000 0.000001 -0.000001 0.033756 0.000000 0.000000
# 5 0.000001 0.000000 -0.000001 0.000000 0.031019 0.000000
# 6 0.000000 0.000000 0.000000 0.000000 0.000000 0.026691
#
#
# Mechanical properties :
#
#
# Convention : Reuss Voigt Hill
#
# Bulk Modulus (GPa) = 63.91098 69.39812 66.65455
# Shear Modulus (GPa) = 30.69797 33.75405 32.22601
#
# Velocity S-wave (km/s) = 3.66660 3.84479 3.75675
# Velocity P-wave (km/s) = 6.77604 7.07830 6.92882
#
# Compressibility (1/GPa) = 0.01564676
#
# Stress axis : x y z
#
# Youngs Moduli (GPa) = 57.99994 140.12783 60.44753
#
# Poissons Ratio (x) = 0.42947 0.46617
# Poissons Ratio (y) = 0.17776 0.11245
# Poissons Ratio (z) = 0.44730 0.26068
#
# Static dielectric constant tensor:
#      x y z
#    x 4.863650 -0.000170 -0.000070 
#    y -0.000170 4.321800 -0.000040 
#    z -0.000070 -0.000040 4.276120 
# 
# 
# High freq. dielectric constant tensor:
#      x y z
#    x 1.859130 0.000000 0.000000 
#    y 0.000000 1.928550 0.000000 
#    z 0.000000 0.000000 1.909140 
# 
# From -- ./inp_files/6931.got.cif
#   From: 2010.03.12/outbox.cif.g09.slc.cpg/sg23_4_cif.got.tgz:6931.got - 2010.04.14 02:50:06.
