data_PCOD8163749
_publ_section_title
;
Structure prediction by ZEFSAII (Michael W. Deem and Ramdas Pophale) SiO2 
 PCOD8163749
Probable space group: I 2 2 2
;
_chemical_formula_sum "Si O2"
_cell_formula_units_Z 64
_cell_length_a 9.218677
_cell_length_b 31.117027
_cell_length_c 11.082741
_cell_angle_alpha 90.000000
_cell_angle_beta 90.000000
_cell_angle_gamma 90.000000
_cell_volume 3179.170935
_symmetry_space_group_name_H-M "I 2 2 2"
_symmetry_group_IT_number 23
_symmetry_cell_setting 'orthorhombic'
loop_
_space_group_symop_operation_xyz
x,y,z
-x,-y,z
x,-y,-z
-x,y,-z
1/2+x,1/2+y,1/2+z
1/2-x,1/2-y,1/2+z
1/2+x,1/2-y,1/2-z
1/2-x,1/2+y,1/2-z
loop_
_atom_site_type_symbol
_atom_site_label
_atom_site_fract_x
_atom_site_fract_y
_atom_site_fract_z
Si Si1 0.838001 0.996576 0.360014
Si Si2 0.028597 0.272556 0.864929
Si Si3 0.747415 0.660787 0.862914
Si Si4 0.831235 0.571872 0.262821
Si Si5 0.666585 0.551005 0.499969
Si Si6 0.020446 0.211698 0.638042
Si Si7 0.702988 0.841613 0.628313
Si Si8 0.326873 0.922716 0.762856
O O1 0.734530 0.034795 0.319333
O O2 0.861520 0.000000 0.500000
O O3 0.759697 0.951492 0.333646
O O4 0.000000 0.000000 0.298141
O O5 0.950069 0.318566 0.856577
O O6 0.193164 0.289747 0.853041
O O7 0.985867 0.243674 0.749915
O O8 0.000000 0.251397 0.000000
O O9 0.575999 0.668666 0.847395
O O10 0.808380 0.627656 0.765322
O O11 0.779359 0.640307 0.993373
O O12 0.756940 0.570007 0.391148
O O13 0.786991 0.618420 0.216045
O O14 0.004045 0.564957 0.268380
O O15 0.674146 0.500000 0.500000
O O16 0.500000 0.566973 0.500000
O O17 0.751090 0.569606 0.611777
O O18 0.183049 0.195901 0.657818
O O19 0.000000 0.231189 0.500000
#
# Coordination Sequence:
#
# PCOD8163749 Si02
#       8
#     8   8   8   8   8   8   8   8
#     4  11  25  40  63  96 129 165 211 265 314 377
#     4  10  20  42  66  91 128 167 211 266 331 390
#     4  10  22  40  64  93 130 167 208 265 319 376
#     4  12  24  42  66  93 127 167 216 261 319 379
#     4  11  25  45  67  89 128 174 210 260 322 384
#     4  10  22  40  64  93 128 171 215 262 325 390
#     4  10  22  40  64  93 130 167 208 265 319 376
#     4  12  24  42  66  93 127 167 216 261 319 379
#
# _framework density 20.131035000000001
#
# number of rings (size 3 to 8) (size 9 to 14) (size 15 to 20)
#    0.000    1.250    2.500    3.000    3.500    2.500 
#    4.500    0.000    0.000    0.000    0.000    0.000 
#    0.000    0.000    0.000    0.000    0.000    0.000 
#
# Total GULP energy -396654.099726 kJ/mol
# GULP energy per Si atom -12395.440616 kJ/mol
# Density = 2.008522 g / cm^3
# Si number density = 20.131035 Si / 1000 Ang^3
#
#
#
# Elastic Constant Matrix: (Units=GPa)
#
#
# Indices 1 2 3 4 5 6 
#
# 1 115.0487 31.3898 50.6609 0.0003 -0.0003 -0.0006
# 2 31.3898 80.6340 59.0692 0.0000 0.0003 -0.0002
# 3 50.6609 59.0692 141.7080 -0.0062 -0.0012 -0.0046
# 4 0.0003 0.0000 -0.0062 37.2105 -0.0001 -0.0013
# 5 -0.0003 0.0003 -0.0012 -0.0001 32.8979 -0.0010
# 6 -0.0006 -0.0002 -0.0046 -0.0013 -0.0010 19.4949
#
#
#
# Elastic Compliance Matrix: (Units=1/GPa)
#
#
# Indices 1 2 3 4 5 6 
#
# 1 0.010520 -0.001929 -0.002957 -0.000001 0.000000 0.000000
# 2 -0.001929 0.018207 -0.006900 -0.000001 0.000000 -0.000001
# 3 -0.002957 -0.006900 0.010990 0.000002 0.000000 0.000002
# 4 -0.000001 -0.000001 0.000002 0.026874 0.000000 0.000002
# 5 0.000000 0.000000 0.000000 0.000000 0.030397 0.000002
# 6 0.000000 -0.000001 0.000002 0.000002 0.000002 0.051296
#
#
# Mechanical properties :
#
#
# Convention : Reuss Voigt Hill
#
# Bulk Modulus (GPa) = 61.93603 68.84781 65.39192
# Shear Modulus (GPa) = 28.21066 31.00538 29.60802
#
# Velocity S-wave (km/s) = 3.74752 3.92877 3.83922
# Velocity P-wave (km/s) = 7.03978 7.40637 7.22540
#
# Compressibility (1/GPa) = 0.01614569
#
# Stress axis : x y z
#
# Youngs Moduli (GPa) = 95.05338 54.92317 90.99277
#
# Poissons Ratio (x) = 0.10597 0.26905
# Poissons Ratio (y) = 0.18340 0.62782
# Poissons Ratio (z) = 0.28105 0.37895
#
# Static dielectric constant tensor:
#      x y z
#    x 3.934240 0.000000 0.000000 
#    y 0.000000 3.364250 0.000000 
#    z 0.000000 0.000000 3.957970 
# 
# 
# High freq. dielectric constant tensor:
#      x y z
#    x 1.813690 0.000000 0.000000 
#    y 0.000000 1.767280 0.000000 
#    z 0.000000 0.000000 1.791650 
# 
# From -- ./inp_files/14989.got.cif
#   From: 2010.03.12/outbox.cif.g09.slc.cpg/sg23_8_cif.got.tgz:14989.got - 2010.04.14 02:50:06.
