data_PCOD8163622
_publ_section_title
;
Structure prediction by ZEFSAII (Michael W. Deem and Ramdas Pophale) SiO2 
 PCOD8163622
Probable space group: I 2 2 2
;
_chemical_formula_sum "Si O2"
_cell_formula_units_Z 44
_cell_length_a 8.416201
_cell_length_b 11.211583
_cell_length_c 23.726557
_cell_angle_alpha 90.000000
_cell_angle_beta 90.000000
_cell_angle_gamma 90.000000
_cell_volume 2238.812675
_symmetry_space_group_name_H-M "I 2 2 2"
_symmetry_group_IT_number 23
_symmetry_cell_setting 'orthorhombic'
loop_
_space_group_symop_operation_xyz
x,y,z
-x,-y,z
x,-y,-z
-x,y,-z
1/2+x,1/2+y,1/2+z
1/2-x,1/2-y,1/2+z
1/2+x,1/2-y,1/2-z
1/2-x,1/2+y,1/2-z
loop_
_atom_site_type_symbol
_atom_site_label
_atom_site_fract_x
_atom_site_fract_y
_atom_site_fract_z
Si Si1 0.549578 0.374692 0.404421
Si Si2 0.500000 0.500000 0.900792
Si Si3 0.500000 0.809786 0.500000
Si Si4 0.853881 0.428219 0.342986
Si Si5 0.259417 0.500000 0.000000
Si Si6 0.668903 0.359316 0.703607
Si Si7 0.467024 0.300433 0.806941
O O1 0.500000 0.500000 0.432673
O O2 0.530410 0.267278 0.445787
O O3 0.735208 0.383417 0.390622
O O4 0.439780 0.346701 0.351111
O O5 0.355025 0.527487 0.942823
O O6 0.466006 0.383953 0.862310
O O7 0.345976 0.886143 0.513955
O O8 0.766995 0.516596 0.298392
O O9 0.919302 0.313038 0.312030
O O10 0.000000 0.500000 0.372011
O O11 0.547187 0.371360 0.755477
O O12 0.788511 0.245686 0.706797
#
# Coordination Sequence:
#
# PCOD8163622 Si02
#       7
#     8   4   4   8   4   8   8
#     4  10  20  36  62  86 119 152 200 250 310 360
#     4  11  24  40  62  86 118 165 204 252 314 371
#     4  11  21  40  64  86 117 161 204 252 308 365
#     4   9  20  38  56  86 122 159 196 259 310 364
#     4  10  24  42  58  86 122 156 206 258 298 368
#     4  10  22  36  58  87 121 159 199 260 309 364
#     4  11  22  36  60  85 119 159 211 245 316 379
#
# _framework density 19.653272999999999
#
# number of rings (size 3 to 8) (size 9 to 14) (size 15 to 20)
#    0.000    1.818    0.000    3.545    6.364    0.000 
#    0.000    0.000    0.000    8.727    0.000    0.000 
#    0.000    0.000    0.000    0.000    0.000    0.000 
#
# Total GULP energy -272727.699698 kJ/mol
# GULP energy per Si atom -12396.713623 kJ/mol
# Density = 1.960854 g / cm^3
# Si number density = 19.653273 Si / 1000 Ang^3
#
#
#
# Elastic Constant Matrix: (Units=GPa)
#
#
# Indices 1 2 3 4 5 6 
#
# 1 120.1044 47.0330 34.5414 0.0000 0.0000 0.0000
# 2 47.0330 100.0753 45.3367 0.0000 0.0000 0.0000
# 3 34.5414 45.3367 85.5295 0.0000 0.0000 0.0000
# 4 0.0000 0.0000 0.0000 33.3564 0.0000 0.0000
# 5 0.0000 0.0000 0.0000 0.0000 13.2671 0.0000
# 6 0.0000 0.0000 0.0000 0.0000 0.0000 -13.4333
#
#
#
# Elastic Compliance Matrix: (Units=1/GPa)
#
#
# Indices 1 2 3 4 5 6 
#
# 1 0.010493 -0.003963 -0.002137 0.000000 0.000000 0.000000
# 2 -0.003963 0.014647 -0.006164 0.000000 0.000000 0.000000
# 3 -0.002137 -0.006164 0.015822 0.000000 0.000000 0.000000
# 4 0.000000 0.000000 0.000000 0.029979 0.000000 0.000000
# 5 0.000000 0.000000 0.000000 0.000000 0.075374 0.000000
# 6 0.000000 0.000000 0.000000 0.000000 0.000000 -0.074442
#
#
# Mechanical properties :
#
#
# Convention : Reuss Voigt Hill
#
# Bulk Modulus (GPa) = 60.84628 62.17015 61.50821
# Shear Modulus (GPa) = 49.07788 18.55792 33.81790
#
# Velocity S-wave (km/s) = 5.00261 3.07622 4.15266
# Velocity P-wave (km/s) = 8.02466 6.65730 7.37275
#
# Compressibility (1/GPa) = 0.01643486
#
# Stress axis : x y z
#
# Youngs Moduli (GPa) = 95.30518 68.27160 63.20358
#
# Poissons Ratio (x) = 0.27058 0.13504
# Poissons Ratio (y) = 0.37772 0.38956
# Poissons Ratio (z) = 0.20363 0.42080
#
# Static dielectric constant tensor:
#      x y z
#    x 3.910280 0.000000 0.000000 
#    y 0.000000 3.818110 0.000000 
#    z 0.000000 0.000000 3.672110 
# 
# 
# High freq. dielectric constant tensor:
#      x y z
#    x 1.785770 0.000000 0.000000 
#    y 0.000000 1.780970 0.000000 
#    z 0.000000 0.000000 1.747470 
# 
# From -- ./inp_files/27955.got.cif
#   From: 2010.03.12/outbox.cif.g09.slc.cpg/sg23_14_cif.got.tgz:27955.got - 2010.04.14 02:50:06.
