data_PCOD8163573
_publ_section_title
;
Structure prediction by ZEFSAII (Michael W. Deem and Ramdas Pophale) SiO2 
 PCOD8163573
Probable space group: I 2 2 2
;
_chemical_formula_sum "Si O2"
_cell_formula_units_Z 64
_cell_length_a 12.457878
_cell_length_b 16.814604
_cell_length_c 16.533215
_cell_angle_alpha 90.000000
_cell_angle_beta 90.000000
_cell_angle_gamma 90.000000
_cell_volume 3463.283395
_symmetry_space_group_name_H-M "I 2 2 2"
_symmetry_group_IT_number 23
_symmetry_cell_setting 'orthorhombic'
loop_
_space_group_symop_operation_xyz
x,y,z
-x,-y,z
x,-y,-z
-x,y,-z
1/2+x,1/2+y,1/2+z
1/2-x,1/2-y,1/2+z
1/2+x,1/2-y,1/2-z
1/2-x,1/2+y,1/2-z
loop_
_atom_site_type_symbol
_atom_site_label
_atom_site_fract_x
_atom_site_fract_y
_atom_site_fract_z
Si Si1 0.270863 0.924240 0.755728
Si Si2 0.861339 0.808555 0.707960
Si Si3 0.720693 0.188130 0.903831
Si Si4 0.967602 0.205196 0.911684
Si Si5 0.543836 0.166563 0.693479
Si Si6 0.378989 0.915212 0.030412
Si Si7 0.835957 0.602294 0.280411
Si Si8 0.473869 0.588631 0.268471
O O1 0.304386 0.882986 0.840251
O O2 0.351450 0.890315 0.686746
O O3 0.147680 0.900987 0.736647
O O4 0.283737 0.018307 0.757751
O O5 0.834889 0.771798 0.620329
O O6 0.930402 0.740415 0.749973
O O7 0.753301 0.830828 0.758907
O O8 0.942693 0.883199 0.698522
O O9 0.842157 0.212388 0.906224
O O10 0.684603 0.158134 0.991194
O O11 0.005139 0.138418 0.848289
O O12 0.016070 0.293291 0.893036
O O13 0.000000 0.175966 0.000000
O O14 0.443158 0.117358 0.728865
O O15 0.368671 0.900936 0.125714
O O16 0.500000 0.910321 0.000000
O O17 0.330357 0.000000 0.000000
O O18 0.500000 0.500000 0.293747
#
# Coordination Sequence:
#
# PCOD8163573 Si02
#       8
#     8   8   8   8   8   8   8   8
#     4  10  20  35  59  85 116 150 196 248 283 351
#     4  10  21  36  56  81 119 163 198 235 287 356
#     4  10  20  39  53  83 124 152 194 239 291 357
#     4  10  22  37  55  80 118 157 193 247 293 344
#     4  10  22  37  57  83 116 154 204 241 287 357
#     4  11  23  35  55  88 125 154 186 242 306 362
#     4  12  21  37  62  87 116 160 197 240 302 358
#     4  10  20  35  55  88 121 150 196 236 292 359
#
# _framework density 18.479572999999998
#
# number of rings (size 3 to 8) (size 9 to 14) (size 15 to 20)
#    0.000    1.625    3.750    1.875    7.000    0.250 
#    0.000    0.000    0.000    1.500    0.000    0.000 
#    0.000    0.000    0.000    0.000    0.000    0.000 
#
# Total GULP energy -396565.009980 kJ/mol
# GULP energy per Si atom -12392.656562 kJ/mol
# Density = 1.843751 g / cm^3
# Si number density = 18.479573 Si / 1000 Ang^3
#
#
#
# Elastic Constant Matrix: (Units=GPa)
#
#
# Indices 1 2 3 4 5 6 
#
# 1 88.9078 37.3082 21.9355 0.0000 0.0000 0.0000
# 2 37.3082 88.6300 45.0661 0.0000 0.0000 0.0000
# 3 21.9355 45.0661 47.7557 0.0000 0.0000 0.0000
# 4 0.0000 0.0000 0.0000 20.0262 0.0000 0.0000
# 5 0.0000 0.0000 0.0000 0.0000 21.0056 0.0000
# 6 0.0000 0.0000 0.0000 0.0000 0.0000 59.2529
#
#
#
# Elastic Compliance Matrix: (Units=1/GPa)
#
#
# Indices 1 2 3 4 5 6 
#
# 1 0.013727 -0.004945 -0.001639 0.000000 0.000000 0.000000
# 2 -0.004945 0.023473 -0.019879 0.000000 0.000000 0.000000
# 3 -0.001639 -0.019879 0.040452 0.000000 0.000000 0.000000
# 4 0.000000 0.000000 0.000000 0.049934 0.000000 0.000000
# 5 0.000000 0.000000 0.000000 0.000000 0.047606 0.000000
# 6 0.000000 0.000000 0.000000 0.000000 0.000000 0.016877
#
#
# Mechanical properties :
#
#
# Convention : Reuss Voigt Hill
#
# Bulk Modulus (GPa) = 40.44333 48.21258 44.32796
# Shear Modulus (GPa) = 19.74436 28.12252 23.93344
#
# Velocity S-wave (km/s) = 3.27225 3.90528 3.60270
# Velocity P-wave (km/s) = 6.01745 6.81772 6.43005
#
# Compressibility (1/GPa) = 0.02472595
#
# Stress axis : x y z
#
# Youngs Moduli (GPa) = 72.84925 42.60304 24.72061
#
# Poissons Ratio (x) = 0.21068 0.04051
# Poissons Ratio (y) = 0.36025 0.49142
# Poissons Ratio (z) = 0.11937 0.84691
#
# Static dielectric constant tensor:
#      x y z
#    x 3.726690 0.000000 0.000000 
#    y 0.000000 3.680420 0.000000 
#    z 0.000000 0.000000 0.323510 
# 
# 
# High freq. dielectric constant tensor:
#      x y z
#    x 1.738350 0.000000 0.000000 
#    y 0.000000 1.721590 0.000000 
#    z 0.000000 0.000000 1.669190 
# 
# From -- ./inp_files/24492.got.cif
#   From: 2010.03.12/outbox.cif.g09.slc.cpg/sg23_13_cif.got.tgz:24492.got - 2010.04.14 02:50:06.
