data_PCOD8163453
_publ_section_title
;
Structure prediction by ZEFSAII (Michael W. Deem and Ramdas Pophale) SiO2 
 PCOD8163453
Probable space group: I 2 2 2
;
_chemical_formula_sum "Si O2"
_cell_formula_units_Z 32
_cell_length_a 5.130346
_cell_length_b 19.316162
_cell_length_c 12.741126
_cell_angle_alpha 90.000000
_cell_angle_beta 90.000000
_cell_angle_gamma 90.000000
_cell_volume 1262.627678
_symmetry_space_group_name_H-M "I 2 2 2"
_symmetry_group_IT_number 23
_symmetry_cell_setting 'orthorhombic'
loop_
_space_group_symop_operation_xyz
x,y,z
-x,-y,z
x,-y,-z
-x,y,-z
1/2+x,1/2+y,1/2+z
1/2-x,1/2-y,1/2+z
1/2+x,1/2-y,1/2-z
1/2-x,1/2+y,1/2-z
loop_
_atom_site_type_symbol
_atom_site_label
_atom_site_fract_x
_atom_site_fract_y
_atom_site_fract_z
Si Si1 0.187666 0.304807 0.139963
Si Si2 0.247279 0.961496 0.365070
Si Si3 0.500000 0.388442 0.500000
Si Si4 0.810727 0.721600 0.384313
Si Si5 0.500000 0.500000 0.664037
O O1 0.246689 0.381749 0.100769
O O2 0.206220 0.303872 0.265131
O O3 0.400981 0.251871 0.089906
O O4 0.902430 0.282571 0.099806
O O5 0.231584 0.970511 0.237978
O O6 0.500000 0.000000 0.408844
O O7 0.000000 0.000000 0.417560
O O8 0.257471 0.342520 0.459927
O O9 0.389480 0.436961 0.593337
#
# Coordination Sequence:
#
# PCOD8163453 Si02
#       5
#     8   8   4   8   4
#     4  10  20  37  55  84 112 161 208 243 285 353
#     4  10  19  36  59  87 116 156 196 246 296 353
#     4  11  20  42  54  94 125 168 190 248 311 372
#     4  10  21  35  58  77 120 162 203 243 287 354
#     4   9  22  36  58  90 130 159 192 239 310 388
#
# _framework density 25.343971
#
# number of rings (size 3 to 8) (size 9 to 14) (size 15 to 20)
#    0.750    1.250    2.500    1.500    0.000    3.000 
#    4.500    1.250    0.000    0.000    0.000   13.125 
#    0.000    0.000    0.000    0.000    0.000    0.000 
#
# Total GULP energy -198385.921655 kJ/mol
# GULP energy per Si atom -12399.120103 kJ/mol
# Density = 2.528629 g / cm^3
# Si number density = 25.343971 Si / 1000 Ang^3
#
#
#
# Elastic Constant Matrix: (Units=GPa)
#
#
# Indices 1 2 3 4 5 6 
#
# 1 162.6777 48.4594 0.8379 0.0000 0.0000 0.0000
# 2 48.4594 175.1473 26.3543 0.0000 0.0000 0.0000
# 3 0.8379 26.3543 71.7242 0.0002 0.0000 -0.0001
# 4 0.0000 0.0000 0.0002 28.5857 0.0000 0.0000
# 5 0.0000 0.0000 0.0000 0.0000 17.9144 0.0000
# 6 0.0000 0.0000 -0.0001 0.0000 0.0000 29.0718
#
#
#
# Elastic Compliance Matrix: (Units=1/GPa)
#
#
# Indices 1 2 3 4 5 6 
#
# 1 0.006727 -0.001958 0.000641 0.000000 0.000000 0.000000
# 2 -0.001958 0.006613 -0.002407 0.000000 0.000000 0.000000
# 3 0.000641 -0.002407 0.014819 0.000000 0.000000 0.000000
# 4 0.000000 0.000000 0.000000 0.034983 0.000000 0.000000
# 5 0.000000 0.000000 0.000000 0.000000 0.055821 0.000000
# 6 0.000000 0.000000 0.000000 0.000000 0.000000 0.034398
#
#
# Mechanical properties :
#
#
# Convention : Reuss Voigt Hill
#
# Bulk Modulus (GPa) = 48.28227 62.31693 55.29960
# Shear Modulus (GPa) = 29.81288 37.37420 33.59354
#
# Velocity S-wave (km/s) = 3.43349 3.84432 3.64470
# Velocity P-wave (km/s) = 5.90005 6.65935 6.29116
#
# Compressibility (1/GPa) = 0.02071154
#
# Stress axis : x y z
#
# Youngs Moduli (GPa) = 148.65536 151.21025 67.47960
#
# Poissons Ratio (x) = 0.29601 -0.04324
# Poissons Ratio (y) = 0.29101 0.16243
# Poissons Ratio (z) = -0.09525 0.36398
#
# Static dielectric constant tensor:
#      x y z
#    x 4.247210 0.000000 0.000000 
#    y 0.000000 4.397310 0.000000 
#    z 0.000000 0.000000 4.725850 
# 
# 
# High freq. dielectric constant tensor:
#      x y z
#    x 1.991080 0.000000 0.000000 
#    y 0.000000 2.011620 0.000000 
#    z 0.000000 0.000000 2.045260 
# 
# From -- ./inp_files/2195.got.cif
#   From: 2010.03.12/outbox.cif.g09.slc.cpg/sg23_2_cif.got.tgz:2195.got - 2010.04.14 02:50:06.
