data_PCOD8163516
_publ_section_title
;
Structure prediction by ZEFSAII (Michael W. Deem and Ramdas Pophale) SiO2 
 PCOD8163516
Probable space group: I 2 2 2
;
_chemical_formula_sum "Si O2"
_cell_formula_units_Z 48
_cell_length_a 16.183871
_cell_length_b 4.992244
_cell_length_c 30.614243
_cell_angle_alpha 90.000000
_cell_angle_beta 90.000000
_cell_angle_gamma 90.000000
_cell_volume 2473.442033
_symmetry_space_group_name_H-M "I 2 2 2"
_symmetry_group_IT_number 23
_symmetry_cell_setting 'orthorhombic'
loop_
_space_group_symop_operation_xyz
x,y,z
-x,-y,z
x,-y,-z
-x,y,-z
1/2+x,1/2+y,1/2+z
1/2-x,1/2-y,1/2+z
1/2+x,1/2-y,1/2-z
1/2-x,1/2+y,1/2-z
loop_
_atom_site_type_symbol
_atom_site_label
_atom_site_fract_x
_atom_site_fract_y
_atom_site_fract_z
Si Si1 0.555409 0.741130 0.267249
Si Si2 0.054878 0.240853 0.669192
Si Si3 0.815135 0.098327 0.954400
Si Si4 0.273680 0.101160 0.134393
Si Si5 0.908184 0.600418 0.928164
Si Si6 0.319904 0.895744 0.660943
O O1 0.500000 0.500000 0.287390
O O2 0.584566 0.662943 0.218241
O O3 0.637626 0.804103 0.294379
O O4 0.500000 0.000000 0.267101
O O5 0.132388 0.304508 0.638534
O O6 0.000000 0.500000 0.671581
O O7 0.000000 0.000000 0.649054
O O8 0.745720 0.086867 0.917075
O O9 0.848738 0.400759 0.955187
O O10 0.892919 0.899982 0.945596
O O11 0.774327 0.000000 0.000000
O O12 0.215456 0.303801 0.161795
O O13 0.257166 0.804846 0.153117
O O14 0.888829 0.610186 0.876764
O O15 0.000000 0.500000 0.936059
#
# Coordination Sequence:
#
# PCOD8163516 Si02
#       6
#     8   8   8   8   8   8
#     4  10  20  33  51  76 108 145 179 213 254 299
#     4  10  21  37  56  78 103 133 172 218 269 321
#     4  10  21  35  51  74 102 135 172 213 263 310
#     4  10  21  36  54  77 102 134 174 215 265 317
#     4  10  20  32  49  74 105 141 177 210 245 295
#     4  10  20  33  51  76 107 141 176 211 250 300
#
# _framework density 19.406154999999998
#
# number of rings (size 3 to 8) (size 9 to 14) (size 15 to 20)
#    0.000    2.000    0.000    3.500    0.000    6.000 
#    0.000    0.000    0.000    0.500    0.000    1.167 
#    0.000    0.000    0.000    0.000    0.000    0.000 
#
# Total GULP energy -297565.264185 kJ/mol
# GULP energy per Si atom -12398.552674 kJ/mol
# Density = 1.936199 g / cm^3
# Si number density = 19.406155 Si / 1000 Ang^3
#
#
#
# Elastic Constant Matrix: (Units=GPa)
#
#
# Indices 1 2 3 4 5 6 
#
# 1 91.0265 16.3619 55.6125 0.0000 0.0000 0.0000
# 2 16.3619 93.3811 23.8079 0.0000 0.0000 0.0000
# 3 55.6125 23.8079 84.0509 0.0000 0.0000 0.0000
# 4 0.0000 0.0000 0.0000 27.1478 0.0000 0.0000
# 5 0.0000 0.0000 0.0000 0.0000 15.0451 0.0000
# 6 0.0000 0.0000 0.0000 0.0000 0.0000 30.3289
#
#
#
# Elastic Compliance Matrix: (Units=1/GPa)
#
#
# Indices 1 2 3 4 5 6 
#
# 1 0.018441 -0.000130 -0.012165 0.000000 0.000000 0.000000
# 2 -0.000130 0.011543 -0.003184 0.000000 0.000000 0.000000
# 3 -0.012165 -0.003184 0.020848 0.000000 0.000000 0.000000
# 4 0.000000 0.000000 0.000000 0.036835 0.000000 0.000000
# 5 0.000000 0.000000 0.000000 0.000000 0.066467 0.000000
# 6 0.000000 0.000000 0.000000 0.000000 0.000000 0.032972
#
#
# Mechanical properties :
#
#
# Convention : Reuss Voigt Hill
#
# Bulk Modulus (GPa) = 50.31237 51.11367 50.71302
# Shear Modulus (GPa) = 22.25293 26.01611 24.13452
#
# Velocity S-wave (km/s) = 3.38996 3.66541 3.53037
# Velocity P-wave (km/s) = 6.42688 6.65655 6.54272
#
# Compressibility (1/GPa) = 0.01987583
#
# Stress axis : x y z
#
# Youngs Moduli (GPa) = 54.22610 86.63056 47.96536
#
# Poissons Ratio (x) = 0.01124 0.58350
# Poissons Ratio (y) = 0.00703 0.15272
# Poissons Ratio (z) = 0.65966 0.27582
#
# Static dielectric constant tensor:
#      x y z
#    x 3.121230 0.000000 0.000000 
#    y 0.000000 3.853460 0.000000 
#    z 0.000000 0.000000 3.593800 
# 
# 
# High freq. dielectric constant tensor:
#      x y z
#    x 1.723130 0.000000 0.000000 
#    y 0.000000 1.782690 0.000000 
#    z 0.000000 0.000000 1.740620 
# 
# From -- ./inp_files/4902.got.cif
#   From: 2010.03.12/outbox.cif.g09.slc.cpg/sg23_3_cif.got.tgz:4902.got - 2010.04.14 02:50:06.
