data_PCOD8163187
_publ_section_title
;
Structure prediction by ZEFSAII (Michael W. Deem and Ramdas Pophale) SiO2 
 PCOD8163187
Probable space group: F 2 2 2
;
_chemical_formula_sum "Si O2"
_cell_formula_units_Z 27
_cell_length_a 12.000000
_cell_length_b 30.000000
_cell_length_c 15.000000
_cell_angle_alpha 90.000000
_cell_angle_beta 90.000000
_cell_angle_gamma 90.000000
_cell_volume 5400.000000
_symmetry_space_group_name_H-M "F 2 2 2"
_symmetry_group_IT_number 22
_symmetry_cell_setting 'orthorhombic'
loop_
_space_group_symop_operation_xyz
x,y,z
-x,-y,z
x,-y,-z
-x,y,-z
x,1/2+y,1/2+z
-x,1/2-y,1/2+z
x,1/2-y,1/2-z
-x,1/2+y,1/2-z
1/2+x,y,1/2+z
1/2-x,-y,1/2+z
1/2+x,-y,1/2-z
1/2-x,y,1/2-z
1/2+x,1/2+y,z
1/2-x,1/2-y,z
1/2+x,1/2-y,-z
1/2-x,1/2+y,-z
loop_
_atom_site_type_symbol
_atom_site_label
_atom_site_fract_x
_atom_site_fract_y
_atom_site_fract_z
Si Si1 0.963013 0.608934 0.399888
Si Si2 0.160028 0.285819 0.583478
Si Si3 0.091579 0.705285 0.614038
Si Si4 0.348049 0.539327 0.800694
Si Si5 0.000000 0.000000 0.335266
Si Si6 0.250000 0.250000 0.250000
Si Si7 0.275819 0.527997 0.412797
Si Si8 0.801052 0.381884 0.347974
O O1 0.892425 0.652568 0.381555
O O2 0.886323 0.566100 0.386972
O O3 0.000000 0.610177 0.500000
O O4 0.069190 0.606898 0.334990
O O5 0.250000 0.250000 0.619710
O O6 0.139331 0.277093 0.479271
O O7 0.213011 0.334218 0.603697
O O8 0.038335 0.280847 0.629847
O O9 0.168325 0.720698 0.692619
O O10 0.250000 0.566037 0.750000
O O11 0.447400 0.536527 0.730138
O O12 0.298719 0.491662 0.831963
O O13 0.092628 0.977559 0.397154
O O14 0.241632 0.500000 0.500000
O O15 0.252387 0.580935 0.414463
O O16 0.750000 0.381918 0.250000
#
# Coordination Sequence:
#
# PCOD8163187 Si02
#       8
#    16  16  16  16   8   4  16  16
#     4  11  20  38  60  86 124 156 196 256 310 364
#     4  10  21  43  69  90 134 164 208 270 321 385
#     4  10  22  40  63  96 125 169 200 259 338 365
#     4  10  21  34  56  84 113 158 202 246 289 359
#     4  10  21  40  53  78 126 162 194 256 305 354
#     4  12  24  40  70  92 126 168 212 254 312 412
#     4  11  22  37  59  84 119 163 205 246 311 364
#     4  11  22  37  63  93 121 161 208 259 312 364
#
# _framework density 5.0
#
# number of rings (size 3 to 8) (size 9 to 14) (size 15 to 20)
#    0.000    1.481    3.704    4.222    1.037    2.667 
#    0.000    1.481    6.519    0.000    0.000    0.000 
#    0.000    0.000    0.000    0.000    0.000    0.000 
#
# Total GULP energy -334579.117765 kJ/mol
# GULP energy per Si atom -12391.819176 kJ/mol
# Density = 0.498862 g / cm^3
# Si number density = 5.000000 Si / 1000 Ang^3
#
#
#
# Elastic Constant Matrix: (Units=GPa)
#
#
# Indices 1 2 3 4 5 6 
#
# 1 89.3494 63.2584 44.7958 0.0000 0.0000 0.0000
# 2 63.2584 121.7010 45.3209 0.0000 0.0000 0.0000
# 3 44.7958 45.3209 96.7355 0.0000 0.0000 0.0000
# 4 0.0000 0.0000 0.0000 32.5193 0.0000 0.0000
# 5 0.0000 0.0000 0.0000 0.0000 -4.0219 0.0000
# 6 0.0000 0.0000 0.0000 0.0000 0.0000 35.0388
#
#
#
# Elastic Compliance Matrix: (Units=1/GPa)
#
#
# Indices 1 2 3 4 5 6 
#
# 1 0.019677 -0.008279 -0.005233 0.000000 0.000000 0.000000
# 2 -0.008279 0.013437 -0.002461 0.000000 0.000000 0.000000
# 3 -0.005233 -0.002461 0.013914 0.000000 0.000000 0.000000
# 4 0.000000 0.000000 0.000000 0.030751 0.000000 0.000000
# 5 0.000000 0.000000 0.000000 0.000000 -0.248639 0.000000
# 6 0.000000 0.000000 0.000000 0.000000 0.000000 0.028540
#
#
# Mechanical properties :
#
#
# Convention : Reuss Voigt Hill
#
# Bulk Modulus (GPa) = 66.31009 68.28177 67.29593
# Shear Modulus (GPa) = -47.46255 23.00128 -12.23063
#
# Velocity S-wave (km/s) = -4.87676 3.39494 -2.47560
# Velocity P-wave (km/s) = 1.23152 7.04148 5.05466
#
# Compressibility (1/GPa) = 0.01508066
#
# Stress axis : x y z
#
# Youngs Moduli (GPa) = 50.82016 74.42248 71.87004
#
# Poissons Ratio (x) = 0.61615 0.37611
# Poissons Ratio (y) = 0.42074 0.17690
# Poissons Ratio (z) = 0.26595 0.18318
#
# Static dielectric constant tensor:
#      x y z
#    x 3.545460 0.000000 0.000000 
#    y 0.000000 3.679630 0.000000 
#    z 0.000000 0.000000 3.498930 
# 
# 
# High freq. dielectric constant tensor:
#      x y z
#    x 1.785200 0.000000 0.000000 
#    y 0.000000 1.762150 0.000000 
#    z 0.000000 0.000000 1.772570 
# 
# From -- ./inp_files/28475.got.cif
#   From: 2010.03.12/outbox.ucp.g09.slc.cvg/sg22_15_cif.got.tgz:28475.got - 2010.05.04 21:00:24.
