data_PCOD8163004
_publ_section_title
;
Structure prediction by ZEFSAII (Michael W. Deem and Ramdas Pophale) SiO2 
 PCOD8163004
Probable space group: F 2 2 2
;
_chemical_formula_sum "Si O2"
_cell_formula_units_Z 116
_cell_length_a 15.723924
_cell_length_b 29.017416
_cell_length_c 10.689257
_cell_angle_alpha 90.000000
_cell_angle_beta 90.000000
_cell_angle_gamma 90.000000
_cell_volume 4877.162106
_symmetry_space_group_name_H-M "F 2 2 2"
_symmetry_group_IT_number 22
_symmetry_cell_setting 'orthorhombic'
loop_
_space_group_symop_operation_xyz
x,y,z
-x,-y,z
x,-y,-z
-x,y,-z
x,1/2+y,1/2+z
-x,1/2-y,1/2+z
x,1/2-y,1/2-z
-x,1/2+y,1/2-z
1/2+x,y,1/2+z
1/2-x,-y,1/2+z
1/2+x,-y,1/2-z
1/2-x,y,1/2-z
1/2+x,1/2+y,z
1/2-x,1/2-y,z
1/2+x,1/2-y,-z
1/2-x,1/2+y,-z
loop_
_atom_site_type_symbol
_atom_site_label
_atom_site_fract_x
_atom_site_fract_y
_atom_site_fract_z
Si Si1 0.128434 0.430078 0.161775
Si Si2 0.566536 0.798200 0.686084
Si Si3 0.250000 0.250000 0.250000
Si Si4 0.306941 0.596618 0.904828
Si Si5 0.137337 0.031649 0.624019
Si Si6 0.662125 0.034511 0.396829
Si Si7 0.463897 0.878119 0.124490
Si Si8 0.877954 0.192810 0.909617
O O1 0.203699 0.401692 0.091262
O O2 0.164996 0.442318 0.301060
O O3 0.108657 0.478199 0.081918
O O4 0.044236 0.401286 0.190935
O O5 0.593746 0.750000 0.750000
O O6 0.581104 0.841015 0.783862
O O7 0.623389 0.804719 0.561423
O O8 0.468935 0.795115 0.646734
O O9 0.191226 0.225002 0.150783
O O10 0.348279 0.643527 0.860307
O O11 0.345838 0.585156 0.040583
O O12 0.237519 0.027648 0.618783
O O13 0.108714 0.034680 0.769732
O O14 0.096668 0.079694 0.569815
O O15 0.624258 0.000000 0.500000
O O16 0.500000 0.852212 0.000000
#
# Coordination Sequence:
#
# PCOD8163004 Si02
#       8
#    16  16   4  16  16  16  16  16
#     4  11  21  37  63  98 138 185 236 296 348 426
#     4  11  26  51  74 105 150 200 235 315 397 454
#     4  12  24  48  82 124 128 194 248 306 376 468
#     4  11  20  38  66  97 133 180 237 290 350 422
#     4  11  23  39  59 100 136 182 245 290 359 437
#     4  11  19  37  64  87 128 189 231 285 361 427
#     4  12  27  42  67 101 140 192 247 295 370 445
#     4  11  25  45  80 110 147 181 251 311 370 459
#
# _framework density 23.784324000000002
#
# number of rings (size 3 to 8) (size 9 to 14) (size 15 to 20)
#    0.000    0.828    4.828    3.724    1.931    0.552 
#    2.483    0.345    0.000    0.000    0.000    0.000 
#    0.000    0.000    0.000    0.000    0.000    0.000 
#
# Total GULP energy -359276.557956 kJ/mol
# GULP energy per Si atom -12388.846826 kJ/mol
# Density = 2.373019 g / cm^3
# Si number density = 23.784324 Si / 1000 Ang^3
#
#
#
# Elastic Constant Matrix: (Units=GPa)
#
#
# Indices 1 2 3 4 5 6 
#
# 1 66.1051 29.6658 20.2252 0.0000 0.0000 0.0000
# 2 29.6658 131.4230 49.3928 0.0000 0.0000 0.0000
# 3 20.2252 49.3928 115.7472 0.0000 0.0000 0.0000
# 4 0.0000 0.0000 0.0000 44.6401 0.0000 0.0000
# 5 0.0000 0.0000 0.0000 0.0000 34.5611 0.0000
# 6 0.0000 0.0000 0.0000 0.0000 0.0000 22.6787
#
#
#
# Elastic Compliance Matrix: (Units=1/GPa)
#
#
# Indices 1 2 3 4 5 6 
#
# 1 0.017076 -0.003255 -0.001595 0.000000 0.000000 0.000000
# 2 -0.003255 0.009683 -0.003563 0.000000 0.000000 0.000000
# 3 -0.001595 -0.003563 0.010439 0.000000 0.000000 0.000000
# 4 0.000000 0.000000 0.000000 0.022401 0.000000 0.000000
# 5 0.000000 0.000000 0.000000 0.000000 0.028934 0.000000
# 6 0.000000 0.000000 0.000000 0.000000 0.000000 0.044094
#
#
# Mechanical properties :
#
#
# Convention : Reuss Voigt Hill
#
# Bulk Modulus (GPa) = 49.08805 56.87142 52.97973
# Shear Modulus (GPa) = 32.00110 34.64208 33.32159
#
# Velocity S-wave (km/s) = 3.67204 3.82056 3.74704
# Velocity P-wave (km/s) = 6.21789 6.58980 6.40655
#
# Compressibility (1/GPa) = 0.02037156
#
# Stress axis : x y z
#
# Youngs Moduli (GPa) = 58.56110 103.27411 95.79740
#
# Poissons Ratio (x) = 0.33618 0.15277
# Poissons Ratio (y) = 0.19063 0.34135
# Poissons Ratio (z) = 0.09339 0.36799
#
# Static dielectric constant tensor:
#      x y z
#    x 3.966510 0.000000 0.000000 
#    y 0.000000 4.212390 0.000000 
#    z 0.000000 0.000000 5.216820 
# 
# 
# High freq. dielectric constant tensor:
#      x y z
#    x 1.915890 0.000000 0.000000 
#    y 0.000000 1.932780 0.000000 
#    z 0.000000 0.000000 1.987930 
# 
# From -- ./inp_files/21830.got.cif
#   From: 2010.03.12/outbox.cif.g09.slc.cpg/sg22_11_cif.got.tgz:21830.got - 2010.04.14 02:24:06.
