data_PCOD8163712
_publ_section_title
;
Structure prediction by ZEFSAII (Michael W. Deem and Ramdas Pophale) SiO2 
 PCOD8163712
Probable space group: I 2 2 2
;
_chemical_formula_sum "Si O2"
_cell_formula_units_Z 44
_cell_length_a 7.861095
_cell_length_b 18.557256
_cell_length_c 13.968893
_cell_angle_alpha 90.000000
_cell_angle_beta 90.000000
_cell_angle_gamma 90.000000
_cell_volume 2037.787033
_symmetry_space_group_name_H-M "I 2 2 2"
_symmetry_group_IT_number 23
_symmetry_cell_setting 'orthorhombic'
loop_
_space_group_symop_operation_xyz
x,y,z
-x,-y,z
x,-y,-z
-x,y,-z
1/2+x,1/2+y,1/2+z
1/2-x,1/2-y,1/2+z
1/2+x,1/2-y,1/2-z
1/2-x,1/2+y,1/2-z
loop_
_atom_site_type_symbol
_atom_site_label
_atom_site_fract_x
_atom_site_fract_y
_atom_site_fract_z
Si Si1 0.500000 0.500000 0.000000
Si Si2 0.500000 0.500000 0.500000
Si Si3 0.500000 0.280325 0.500000
Si Si4 0.992667 0.376027 0.610211
Si Si5 0.192475 0.917250 0.661919
Si Si6 0.160231 0.227830 0.434356
Si Si7 0.875668 0.888648 0.138840
Si Si8 0.000000 0.500000 0.252941
O O1 0.613456 0.549322 0.932591
O O2 0.372444 0.454528 0.565213
O O3 0.326768 0.235093 0.501564
O O4 0.502904 0.328337 0.597364
O O5 0.183239 0.358955 0.646774
O O6 0.000000 0.401067 0.500000
O O7 0.881694 0.303032 0.619643
O O8 0.914119 0.439212 0.677595
O O9 0.215961 0.832404 0.641547
O O10 0.069460 0.917407 0.755746
O O11 0.363678 0.961596 0.684432
O O12 0.000000 0.204623 0.500000
#
# Coordination Sequence:
#
# PCOD8163712 Si02
#       8
#     2   2   4   8   8   8   8   4
#     4  12  26  46  68  82 140 196 230 316 348 432
#     4  10  22  36  62 102 144 172 234 294 362 468
#     4  11  22  41  70 103 138 181 232 304 374 427
#     4  10  20  39  70 102 149 181 223 301 378 443
#     4  11  26  46  67 101 139 191 251 298 371 445
#     4  11  23  45  70 100 142 196 241 298 370 448
#     4  10  22  38  65 104 135 182 235 293 371 441
#     4  10  25  41  70 112 136 184 252 306 372 450
#
# _framework density 21.592047999999998
#
# number of rings (size 3 to 8) (size 9 to 14) (size 15 to 20)
#    0.000    1.455    4.545    0.818    5.091    6.182 
#    0.000    0.000    0.000    0.000    0.000    0.000 
#    0.000    0.000    0.000    0.000    0.000    0.000 
#
# Total GULP energy -272620.810586 kJ/mol
# GULP energy per Si atom -12391.855027 kJ/mol
# Density = 2.154290 g / cm^3
# Si number density = 21.592048 Si / 1000 Ang^3
#
#
#
# Elastic Constant Matrix: (Units=GPa)
#
#
# Indices 1 2 3 4 5 6 
#
# 1 109.4896 52.7294 46.4801 0.0000 0.0000 0.0000
# 2 52.7294 144.7610 71.9087 0.0000 0.0000 0.0000
# 3 46.4801 71.9087 160.8252 0.0000 0.0000 0.0000
# 4 0.0000 0.0000 0.0000 32.0949 0.0000 0.0000
# 5 0.0000 0.0000 0.0000 0.0000 32.1414 0.0000
# 6 0.0000 0.0000 0.0000 0.0000 0.0000 23.2574
#
#
#
# Elastic Compliance Matrix: (Units=1/GPa)
#
#
# Indices 1 2 3 4 5 6 
#
# 1 0.011495 -0.003261 -0.001864 0.000000 0.000000 0.000000
# 2 -0.003261 0.009805 -0.003442 0.000000 0.000000 0.000000
# 3 -0.001864 -0.003442 0.008296 0.000000 0.000000 0.000000
# 4 0.000000 0.000000 0.000000 0.031158 0.000000 0.000000
# 5 0.000000 0.000000 0.000000 0.000000 0.031113 0.000000
# 6 0.000000 0.000000 0.000000 0.000000 0.000000 0.042997
#
#
# Mechanical properties :
#
#
# Convention : Reuss Voigt Hill
#
# Bulk Modulus (GPa) = 80.24253 84.14580 82.19416
# Shear Modulus (GPa) = 32.02019 33.76258 32.89138
#
# Velocity S-wave (km/s) = 3.85510 3.95860 3.90719
# Velocity P-wave (km/s) = 7.55377 7.74270 7.64882
#
# Compressibility (1/GPa) = 0.01246222
#
# Stress axis : x y z
#
# Youngs Moduli (GPa) = 86.99305 101.98379 120.54651
#
# Poissons Ratio (x) = 0.33259 0.22471
# Poissons Ratio (y) = 0.28370 0.41489
# Poissons Ratio (z) = 0.16216 0.35100
#
# Static dielectric constant tensor:
#      x y z
#    x 3.667330 0.000000 0.000000 
#    y 0.000000 4.013570 0.000000 
#    z 0.000000 0.000000 4.070080 
# 
# 
# High freq. dielectric constant tensor:
#      x y z
#    x 1.834470 0.000000 0.000000 
#    y 0.000000 1.850300 0.000000 
#    z 0.000000 0.000000 1.844390 
# 
# From -- ./inp_files/19983.got.cif
#   From: 2010.03.12/outbox.cif.g09.slc.cpg/sg23_10_cif.got.tgz:19983.got - 2010.04.14 02:50:06.
