data_PCOD8163067
_publ_section_title
;
Structure prediction by ZEFSAII (Michael W. Deem and Ramdas Pophale) SiO2 
 PCOD8163067
Probable space group: F 2 2 2
;
_chemical_formula_sum "Si O2"
_cell_formula_units_Z 64
_cell_length_a 14.432255
_cell_length_b 17.143837
_cell_length_c 11.234633
_cell_angle_alpha 90.000000
_cell_angle_beta 90.000000
_cell_angle_gamma 90.000000
_cell_volume 2779.720389
_symmetry_space_group_name_H-M "F 2 2 2"
_symmetry_group_IT_number 22
_symmetry_cell_setting 'orthorhombic'
loop_
_space_group_symop_operation_xyz
x,y,z
-x,-y,z
x,-y,-z
-x,y,-z
x,1/2+y,1/2+z
-x,1/2-y,1/2+z
x,1/2-y,1/2-z
-x,1/2+y,1/2-z
1/2+x,y,1/2+z
1/2-x,-y,1/2+z
1/2+x,-y,1/2-z
1/2-x,y,1/2-z
1/2+x,1/2+y,z
1/2-x,1/2-y,z
1/2+x,1/2-y,-z
1/2-x,1/2+y,-z
loop_
_atom_site_type_symbol
_atom_site_label
_atom_site_fract_x
_atom_site_fract_y
_atom_site_fract_z
Si Si1 0.335284 0.462923 0.625805
Si Si2 0.954663 0.161741 0.251830
Si Si3 0.152438 0.383641 0.279773
Si Si4 0.864623 0.919096 0.957895
O O1 0.365016 0.500000 0.500000
O O2 0.401043 0.388819 0.649579
O O3 0.347554 0.526629 0.731218
O O4 0.229639 0.432377 0.618371
O O5 0.917486 0.250000 0.250000
O O6 0.939135 0.126006 0.121120
O O7 0.064782 0.160212 0.278237
O O8 0.250000 0.342512 0.250000
O O9 0.153856 0.372972 0.421499
O O10 0.909580 0.000000 0.000000
#
# Coordination Sequence:
#
# PCOD8163067 Si02
#       4
#    16  16  16  16
#     4  11  23  44  75 107 137 181 242 302 349 418
#     4  12  28  46  70 108 147 190 234 292 369 432
#     4  12  23  46  71 102 144 190 247 294 352 423
#     4  11  22  45  76 107 135 186 244 298 355 427
#
# _framework density 23.023897999999999
#
# number of rings (size 3 to 8) (size 9 to 14) (size 15 to 20)
#    0.000    0.500    7.500    2.250    0.000    5.500 
#    9.000    2.500    0.000    0.000    0.000    0.000 
#    0.000    0.000    0.000    0.000    0.000    0.000 
#
# Total GULP energy -198346.344457 kJ/mol
# GULP energy per Si atom -12396.646529 kJ/mol
# Density = 2.297149 g / cm^3
# Si number density = 23.023898 Si / 1000 Ang^3
#
#
#
# Elastic Constant Matrix: (Units=GPa)
#
#
# Indices 1 2 3 4 5 6 
#
# 1 139.7752 48.0581 44.0396 0.0000 0.0000 0.0000
# 2 48.0581 111.1661 29.7138 0.0000 0.0000 0.0000
# 3 44.0396 29.7138 90.9030 0.0000 0.0000 0.0000
# 4 0.0000 0.0000 0.0000 24.9110 0.0000 0.0000
# 5 0.0000 0.0000 0.0000 0.0000 22.0559 0.0000
# 6 0.0000 0.0000 0.0000 0.0000 0.0000 -1.3712
#
#
#
# Elastic Compliance Matrix: (Units=1/GPa)
#
#
# Indices 1 2 3 4 5 6 
#
# 1 0.009322 -0.003093 -0.003505 0.000000 0.000000 0.000000
# 2 -0.003093 0.010883 -0.002059 0.000000 0.000000 0.000000
# 3 -0.003505 -0.002059 0.013372 0.000000 0.000000 0.000000
# 4 0.000000 0.000000 0.000000 0.040143 0.000000 0.000000
# 5 0.000000 0.000000 0.000000 0.000000 0.045339 0.000000
# 6 0.000000 0.000000 0.000000 0.000000 0.000000 -0.729286
#
#
# Mechanical properties :
#
#
# Convention : Reuss Voigt Hill
#
# Bulk Modulus (GPa) = 61.49045 65.05191 63.27118
# Shear Modulus (GPa) = -8.51076 23.78798 7.63861
#
# Velocity S-wave (km/s) = -1.92471 3.21781 1.82343
# Velocity P-wave (km/s) = 4.67181 6.49008 5.65451
#
# Compressibility (1/GPa) = 0.01626269
#
# Stress axis : x y z
#
# Youngs Moduli (GPa) = 107.27001 91.88583 74.78365
#
# Poissons Ratio (x) = 0.28422 0.26214
# Poissons Ratio (y) = 0.33181 0.15397
# Poissons Ratio (z) = 0.37601 0.18918
#
# Static dielectric constant tensor:
#      x y z
#    x 4.293090 0.000000 0.000000 
#    y 0.000000 3.729300 0.000000 
#    z 0.000000 0.000000 4.348420 
# 
# 
# High freq. dielectric constant tensor:
#      x y z
#    x 1.923800 0.000000 0.000000 
#    y 0.000000 1.868240 0.000000 
#    z 0.000000 0.000000 1.925730 
# 
# From -- ./inp_files/19374.got.cif
#   From: 2010.03.12/outbox.cif.g09.slc.cpg/sg22_10_cif.got.tgz:19374.got - 2010.04.14 02:24:06.
