data_PCOD8163832
_publ_section_title
;
Structure prediction by ZEFSAII (Michael W. Deem and Ramdas Pophale) SiO2 
 PCOD8163832
Probable space group: I 2 2 2
;
_chemical_formula_sum "Si O2"
_cell_formula_units_Z 40
_cell_length_a 15.276404
_cell_length_b 14.846310
_cell_length_c 8.638083
_cell_angle_alpha 90.000000
_cell_angle_beta 90.000000
_cell_angle_gamma 90.000000
_cell_volume 1959.101930
_symmetry_space_group_name_H-M "I 2 2 2"
_symmetry_group_IT_number 23
_symmetry_cell_setting 'orthorhombic'
loop_
_space_group_symop_operation_xyz
x,y,z
-x,-y,z
x,-y,-z
-x,y,-z
1/2+x,1/2+y,1/2+z
1/2-x,1/2-y,1/2+z
1/2+x,1/2-y,1/2-z
1/2-x,1/2+y,1/2-z
loop_
_atom_site_type_symbol
_atom_site_label
_atom_site_fract_x
_atom_site_fract_y
_atom_site_fract_z
Si Si1 0.667756 0.766282 0.343786
Si Si2 0.514522 0.755009 0.831483
Si Si3 0.825285 0.820038 0.164554
Si Si4 0.771171 0.455855 0.151883
Si Si5 0.415612 0.953675 0.164591
O O1 0.578105 0.758454 0.251633
O O2 0.752037 0.750239 0.232130
O O3 0.672033 0.692291 0.479849
O O4 0.672176 0.869198 0.406639
O O5 0.578068 0.694056 0.729954
O O6 0.563709 0.849343 0.858177
O O7 0.500000 0.710884 0.000000
O O8 0.798459 0.921738 0.218170
O O9 0.832727 0.531984 0.225777
O O10 0.725627 0.500000 0.000000
O O11 0.500000 0.000000 0.243199
O O12 0.396295 0.000000 0.000000
#
# Coordination Sequence:
#
# PCOD8163832 Si02
#       5
#     8   8   8   8   8
#     4  10  21  38  59  90 129 161 209 257 313 378
#     4  12  21  37  62  95 129 164 204 257 318 378
#     4  10  23  37  58  89 122 167 208 250 317 374
#     4  10  22  38  56  86 124 160 205 253 312 373
#     4  11  19  34  55  91 129 158 196 249 321 379
#
# _framework density 20.417518999999999
#
# number of rings (size 3 to 8) (size 9 to 14) (size 15 to 20)
#    1.200    0.200    4.000    3.000    2.800    0.400 
#    0.000    0.000    0.000    0.600    0.000    0.000 
#    0.000    0.000    0.000    0.000    0.000    0.000 
#
# Total GULP energy -247820.352015 kJ/mol
# GULP energy per Si atom -12391.017601 kJ/mol
# Density = 2.037105 g / cm^3
# Si number density = 20.417519 Si / 1000 Ang^3
#
#
#
# Elastic Constant Matrix: (Units=GPa)
#
#
# Indices 1 2 3 4 5 6 
#
# 1 85.8083 11.4846 28.7158 0.0000 0.0000 0.0000
# 2 11.4846 23.5759 27.0319 0.0000 0.0000 0.0000
# 3 28.7158 27.0319 115.9049 0.0000 0.0000 0.0000
# 4 0.0000 0.0000 0.0000 28.7586 0.0000 0.0000
# 5 0.0000 0.0000 0.0000 0.0000 34.6904 0.0000
# 6 0.0000 0.0000 0.0000 0.0000 0.0000 23.9973
#
#
#
# Elastic Compliance Matrix: (Units=1/GPa)
#
#
# Indices 1 2 3 4 5 6 
#
# 1 0.012925 -0.003583 -0.002367 0.000000 0.000000 0.000000
# 2 -0.003583 0.058892 -0.012848 0.000000 0.000000 0.000000
# 3 -0.002367 -0.012848 0.012210 0.000000 0.000000 0.000000
# 4 0.000000 0.000000 0.000000 0.034772 0.000000 0.000000
# 5 0.000000 0.000000 0.000000 0.000000 0.028826 0.000000
# 6 0.000000 0.000000 0.000000 0.000000 0.000000 0.041671
#
#
# Mechanical properties :
#
#
# Convention : Reuss Voigt Hill
#
# Bulk Modulus (GPa) = 21.53584 39.97265 30.75424
# Shear Modulus (GPa) = 20.62959 28.02637 24.32798
#
# Velocity S-wave (km/s) = 3.18211 3.70897 3.45559
# Velocity P-wave (km/s) = 4.90629 6.16133 5.56928
#
# Compressibility (1/GPa) = 0.04643422
#
# Stress axis : x y z
#
# Youngs Moduli (GPa) = 77.36691 16.98015 81.89684
#
# Poissons Ratio (x) = 0.06084 0.19383
# Poissons Ratio (y) = 0.27719 1.05217
# Poissons Ratio (z) = 0.18311 0.21815
#
# Static dielectric constant tensor:
#      x y z
#    x 3.639230 0.000000 0.000000 
#    y 0.000000 3.404150 0.000000 
#    z 0.000000 0.000000 3.630100 
# 
# 
# High freq. dielectric constant tensor:
#      x y z
#    x 1.791560 0.000000 0.000000 
#    y 0.000000 1.760570 0.000000 
#    z 0.000000 0.000000 1.801220 
# 
# From -- ./inp_files/9779.got.cif
#   From: 2010.03.12/outbox.cif.g09.slc.cpg/sg23_5_cif.got.tgz:9779.got - 2010.04.14 02:50:06.
