data_PCOD8163408
_publ_section_title
;
Structure prediction by ZEFSAII (Michael W. Deem and Ramdas Pophale) SiO2 
 PCOD8163408
Probable space group: I 2 2 2
;
_chemical_formula_sum "Si O2"
_cell_formula_units_Z 40
_cell_length_a 8.729664
_cell_length_b 16.465161
_cell_length_c 12.780607
_cell_angle_alpha 90.000000
_cell_angle_beta 90.000000
_cell_angle_gamma 90.000000
_cell_volume 1837.024678
_symmetry_space_group_name_H-M "I 2 2 2"
_symmetry_group_IT_number 23
_symmetry_cell_setting 'orthorhombic'
loop_
_space_group_symop_operation_xyz
x,y,z
-x,-y,z
x,-y,-z
-x,y,-z
1/2+x,1/2+y,1/2+z
1/2-x,1/2-y,1/2+z
1/2+x,1/2-y,1/2-z
1/2-x,1/2+y,1/2-z
loop_
_atom_site_type_symbol
_atom_site_label
_atom_site_fract_x
_atom_site_fract_y
_atom_site_fract_z
Si Si1 0.349620 0.300843 0.102445
Si Si2 0.653601 0.318643 0.669759
Si Si3 0.826643 0.622841 0.519639
Si Si4 0.303253 0.659790 0.113042
Si Si5 0.381205 0.426808 0.690827
O O1 0.279342 0.330918 0.212389
O O2 0.301670 0.209844 0.073536
O O3 0.532812 0.295064 0.116652
O O4 0.289860 0.363352 0.011094
O O5 0.746623 0.377877 0.593343
O O6 0.669136 0.223554 0.641407
O O7 0.475341 0.344424 0.663774
O O8 0.744067 0.559014 0.599113
O O9 0.000000 0.595575 0.500000
O O10 0.299991 0.584619 0.194683
O O11 0.500000 0.500000 0.699000
#
# Coordination Sequence:
#
# PCOD8163408 Si02
#       5
#     8   8   8   8   8
#     4   9  16  32  57  91 116 152 218 258 310 374
#     4  10  19  34  59  86 121 165 213 264 313 383
#     4  11  20  36  60  85 127 169 211 261 325 387
#     4   9  17  34  60  83 118 162 213 263 311 378
#     4  11  24  39  58  90 131 165 211 269 331 392
#
# _framework density 21.774342000000001
#
# number of rings (size 3 to 8) (size 9 to 14) (size 15 to 20)
#    0.000    2.000    6.000    0.600    0.000    1.600 
#    0.000   10.000    0.000    0.000    0.000    0.000 
#    0.000   14.000    0.000    0.000    0.000    0.000 
#
# Total GULP energy -247787.846431 kJ/mol
# GULP energy per Si atom -12389.392322 kJ/mol
# Density = 2.172478 g / cm^3
# Si number density = 21.774342 Si / 1000 Ang^3
#
#
#
# Elastic Constant Matrix: (Units=GPa)
#
#
# Indices 1 2 3 4 5 6 
#
# 1 62.3797 18.1397 41.8565 0.0000 0.0000 0.0000
# 2 18.1397 52.1610 25.5127 0.0001 0.0000 0.0000
# 3 41.8565 25.5127 187.4972 0.0005 -0.0001 0.0000
# 4 0.0000 0.0001 0.0005 12.7303 0.0000 0.0000
# 5 0.0000 0.0000 -0.0001 0.0000 29.3291 0.0000
# 6 0.0000 0.0000 0.0000 0.0000 0.0000 27.5079
#
#
#
# Elastic Compliance Matrix: (Units=1/GPa)
#
#
# Indices 1 2 3 4 5 6 
#
# 1 0.020058 -0.005127 -0.003780 0.000000 0.000000 0.000000
# 2 -0.005127 0.021849 -0.001828 0.000000 0.000000 0.000000
# 3 -0.003780 -0.001828 0.006426 0.000000 0.000000 0.000000
# 4 0.000000 0.000000 0.000000 0.078553 0.000000 0.000000
# 5 0.000000 0.000000 0.000000 0.000000 0.034096 0.000000
# 6 0.000000 0.000000 0.000000 0.000000 0.000000 0.036353
#
#
# Mechanical properties :
#
#
# Convention : Reuss Voigt Hill
#
# Bulk Modulus (GPa) = 37.22679 52.56176 44.89427
# Shear Modulus (GPa) = 21.95303 28.34873 25.15088
#
# Velocity S-wave (km/s) = 3.17867 3.61215 3.40232
# Velocity P-wave (km/s) = 5.53224 6.44891 6.00809
#
# Compressibility (1/GPa) = 0.02686238
#
# Stress axis : x y z
#
# Youngs Moduli (GPa) = 49.85514 45.76951 155.61560
#
# Poissons Ratio (x) = 0.23464 0.58825
# Poissons Ratio (y) = 0.25559 0.28454
# Poissons Ratio (z) = 0.18846 0.08369
#
# Static dielectric constant tensor:
#      x y z
#    x 3.716990 0.000000 0.000000 
#    y 0.000000 3.400600 0.000000 
#    z 0.000000 0.000000 4.800400 
# 
# 
# High freq. dielectric constant tensor:
#      x y z
#    x 1.828820 0.000000 0.000000 
#    y 0.000000 1.801530 0.000000 
#    z 0.000000 0.000000 1.888780 
# 
# From -- ./inp_files/10729.got.cif
#   From: 2010.03.12/outbox.cif.g09.slc.cpg/sg23_6_cif.got.tgz:10729.got - 2010.04.14 02:50:06.
