data_PCOD8163739
_publ_section_title
;
Structure prediction by ZEFSAII (Michael W. Deem and Ramdas Pophale) SiO2 
 PCOD8163739
Probable space group: I 2 2 2
;
_chemical_formula_sum "Si O2"
_cell_formula_units_Z 64
_cell_length_a 19.362439
_cell_length_b 17.339929
_cell_length_c 9.104484
_cell_angle_alpha 90.000000
_cell_angle_beta 90.000000
_cell_angle_gamma 90.000000
_cell_volume 3056.769663
_symmetry_space_group_name_H-M "I 2 2 2"
_symmetry_group_IT_number 23
_symmetry_cell_setting 'orthorhombic'
loop_
_space_group_symop_operation_xyz
x,y,z
-x,-y,z
x,-y,-z
-x,y,-z
1/2+x,1/2+y,1/2+z
1/2-x,1/2-y,1/2+z
1/2+x,1/2-y,1/2-z
1/2-x,1/2+y,1/2-z
loop_
_atom_site_type_symbol
_atom_site_label
_atom_site_fract_x
_atom_site_fract_y
_atom_site_fract_z
Si Si1 0.926654 0.521371 0.167594
Si Si2 0.682348 0.720363 0.508927
Si Si3 0.219470 0.520053 0.166598
Si Si4 0.558046 0.306847 0.128293
Si Si5 0.422196 0.520646 0.158182
Si Si6 0.790368 0.817401 0.336197
Si Si7 0.556673 0.808185 0.618106
Si Si8 0.180790 0.055596 0.866483
O O1 0.859521 0.474038 0.232575
O O2 0.912504 0.613196 0.186789
O O3 0.000000 0.500000 0.248475
O O4 0.935947 0.500000 0.000000
O O5 0.729782 0.778506 0.422877
O O6 0.712662 0.710069 0.669779
O O7 0.609089 0.760672 0.519275
O O8 0.672723 0.642181 0.419374
O O9 0.273056 0.591352 0.174271
O O10 0.256436 0.449764 0.250856
O O11 0.206301 0.500000 0.000000
O O12 0.575974 0.389429 0.201600
O O13 0.638054 0.289173 0.081973
O O14 0.529938 0.246033 0.247800
O O15 0.500000 0.311801 0.000000
O O16 0.500000 0.500000 0.140995
O O17 0.389733 0.471043 0.288820
O O18 0.385679 0.500000 0.000000
O O19 0.500000 0.832962 0.500000
O O20 0.199326 0.000000 0.000000
#
# Coordination Sequence:
#
# PCOD8163739 Si02
#       8
#     8   8   8   8   8   8   8   8
#     4  10  20  41  71  98 120 162 223 280 325 392
#     4  11  26  42  66  97 136 176 222 286 340 410
#     4  11  23  40  72  95 129 176 222 278 332 403
#     4  11  24  44  62  96 140 174 214 277 336 402
#     4  11  23  42  66  93 130 178 232 270 321 414
#     4  11  25  45  64 101 134 174 232 276 345 411
#     4  11  24  43  66  99 131 167 223 274 336 401
#     4  12  24  44  63  96 136 176 222 283 340 397
#
# _framework density 20.937135000000001
#
# number of rings (size 3 to 8) (size 9 to 14) (size 15 to 20)
#    0.000    1.000    5.000    2.625    7.000    1.250 
#    0.000    0.000    0.000    0.000    0.000    0.000 
#    0.000    0.000    0.000    0.000    0.000    0.000 
#
# Total GULP energy -396468.252581 kJ/mol
# GULP energy per Si atom -12389.632893 kJ/mol
# Density = 2.088948 g / cm^3
# Si number density = 20.937135 Si / 1000 Ang^3
#
#
#
# Elastic Constant Matrix: (Units=GPa)
#
#
# Indices 1 2 3 4 5 6 
#
# 1 106.5220 15.6548 44.8007 0.0000 0.0000 0.0000
# 2 15.6548 94.4763 24.0650 0.0000 0.0000 0.0000
# 3 44.8007 24.0650 74.4270 0.0000 0.0000 0.0000
# 4 0.0000 0.0000 0.0000 24.3980 0.0000 0.0000
# 5 0.0000 0.0000 0.0000 0.0000 24.2812 0.0000
# 6 0.0000 0.0000 0.0000 0.0000 0.0000 124.8875
#
#
#
# Elastic Compliance Matrix: (Units=1/GPa)
#
#
# Indices 1 2 3 4 5 6 
#
# 1 0.012572 -0.000170 -0.007513 0.000000 0.000000 0.000000
# 2 -0.000170 0.011537 -0.003628 0.000000 0.000000 0.000000
# 3 -0.007513 -0.003628 0.019132 0.000000 0.000000 0.000000
# 4 0.000000 0.000000 0.000000 0.040987 0.000000 0.000000
# 5 0.000000 0.000000 0.000000 0.000000 0.041184 0.000000
# 6 0.000000 0.000000 0.000000 0.000000 0.000000 0.008007
#
#
# Mechanical properties :
#
#
# Convention : Reuss Voigt Hill
#
# Bulk Modulus (GPa) = 48.49842 49.38514 48.94178
# Shear Modulus (GPa) = 30.69102 47.44033 39.06567
#
# Velocity S-wave (km/s) = 3.83282 4.76525 4.32424
# Velocity P-wave (km/s) = 6.54228 7.34271 6.95402
#
# Compressibility (1/GPa) = 0.02061923
#
# Stress axis : x y z
#
# Youngs Moduli (GPa) = 79.53876 86.67806 52.26958
#
# Poissons Ratio (x) = 0.01470 0.39271
# Poissons Ratio (y) = 0.01349 0.18965
# Poissons Ratio (z) = 0.59758 0.31449
#
# Static dielectric constant tensor:
#      x y z
#    x 5.112960 0.000000 0.000000 
#    y 0.000000 3.906050 0.000000 
#    z 0.000000 0.000000 2.418260 
# 
# 
# High freq. dielectric constant tensor:
#      x y z
#    x 1.840370 0.000000 0.000000 
#    y 0.000000 1.826970 0.000000 
#    z 0.000000 0.000000 1.796070 
# 
# From -- ./inp_files/12211.got.cif
#   From: 2010.03.12/outbox.cif.g09.slc.cpg/sg23_7_cif.got.tgz:12211.got - 2010.04.14 02:50:06.
