data_PCOD8163978
_publ_section_title
;
Structure prediction by ZEFSAII (Michael W. Deem and Ramdas Pophale) SiO2 
 PCOD8163978
Probable space group: I 2 2 2
;
_chemical_formula_sum "Si O2"
_cell_formula_units_Z 48
_cell_length_a 9.247648
_cell_length_b 9.126190
_cell_length_c 28.980116
_cell_angle_alpha 90.000000
_cell_angle_beta 90.000000
_cell_angle_gamma 90.000000
_cell_volume 2445.799862
_symmetry_space_group_name_H-M "I 2 2 2"
_symmetry_group_IT_number 23
_symmetry_cell_setting 'orthorhombic'
loop_
_space_group_symop_operation_xyz
x,y,z
-x,-y,z
x,-y,-z
-x,y,-z
1/2+x,1/2+y,1/2+z
1/2-x,1/2-y,1/2+z
1/2+x,1/2-y,1/2-z
1/2-x,1/2+y,1/2-z
loop_
_atom_site_type_symbol
_atom_site_label
_atom_site_fract_x
_atom_site_fract_y
_atom_site_fract_z
Si Si1 0.289030 0.327299 0.196230
Si Si2 0.182951 0.849840 0.582051
Si Si3 0.366029 0.898298 0.667338
Si Si4 0.639905 0.686060 0.093308
Si Si5 0.328035 0.164133 0.003882
Si Si6 0.485844 0.667399 0.270373
O O1 0.244823 0.499657 0.196781
O O2 0.289928 0.277655 0.142838
O O3 0.448903 0.315626 0.218498
O O4 0.177567 0.227647 0.225676
O O5 0.297721 0.824192 0.622353
O O6 0.239368 0.769823 0.535505
O O7 0.030323 0.779662 0.597297
O O8 0.164863 0.022510 0.574861
O O9 0.411207 0.761930 0.697505
O O10 0.500000 0.000000 0.652150
O O11 0.718011 0.785763 0.055107
O O12 0.500000 0.172899 0.000000
O O13 0.268073 0.000000 0.000000
O O14 0.500000 0.500000 0.286782
#
# Coordination Sequence:
#
# PCOD8163978 Si02
#       6
#     8   8   8   8   8   8
#     4  10  22  37  59  82 113 150 188 238 273 336
#     4   9  17  31  57  80 104 147 182 227 269 336
#     4   9  20  38  55  81 113 146 187 236 279 329
#     4   9  18  31  54  81 109 142 188 223 274 327
#     4   9  17  30  49  80 117 140 169 224 280 333
#     4  11  23  37  58  81 113 151 189 236 285 330
#
# _framework density 19.625481000000001
#
# number of rings (size 3 to 8) (size 9 to 14) (size 15 to 20)
#    0.000    2.500    0.000    1.500    7.000    3.333 
#    0.000    0.000   11.000   17.000    0.000   11.667 
#    0.000    0.000    0.000    0.000    0.000    0.000 
#
# Total GULP energy -297509.244272 kJ/mol
# GULP energy per Si atom -12396.218511 kJ/mol
# Density = 1.958081 g / cm^3
# Si number density = 19.625481 Si / 1000 Ang^3
#
#
#
# Elastic Constant Matrix: (Units=GPa)
#
#
# Indices 1 2 3 4 5 6 
#
# 1 51.1819 25.4236 43.5995 0.0000 0.0000 0.0000
# 2 25.4236 100.1106 70.3637 0.0000 0.0000 0.0000
# 3 43.5995 70.3637 135.8537 0.0000 0.0000 0.0000
# 4 0.0000 0.0000 0.0000 21.3448 0.0000 0.0000
# 5 0.0000 0.0000 0.0000 0.0000 30.3590 0.0000
# 6 0.0000 0.0000 0.0000 0.0000 0.0000 21.9332
#
#
#
# Elastic Compliance Matrix: (Units=1/GPa)
#
#
# Indices 1 2 3 4 5 6 
#
# 1 0.026981 -0.001204 -0.008035 0.000000 0.000000 0.000000
# 2 -0.001204 0.015761 -0.007776 0.000000 0.000000 0.000000
# 3 -0.008035 -0.007776 0.013967 0.000000 0.000000 0.000000
# 4 0.000000 0.000000 0.000000 0.046850 0.000000 0.000000
# 5 0.000000 0.000000 0.000000 0.000000 0.032939 0.000000
# 6 0.000000 0.000000 0.000000 0.000000 0.000000 0.045593
#
#
# Mechanical properties :
#
#
# Convention : Reuss Voigt Hill
#
# Bulk Modulus (GPa) = 44.09763 62.87999 53.48881
# Shear Modulus (GPa) = 22.35311 24.57803 23.46557
#
# Velocity S-wave (km/s) = 3.37854 3.54270 3.46160
# Velocity P-wave (km/s) = 6.14311 6.98884 6.57957
#
# Compressibility (1/GPa) = 0.02267695
#
# Stress axis : x y z
#
# Youngs Moduli (GPa) = 37.06267 63.44944 71.59537
#
# Poissons Ratio (x) = 0.07641 0.57529
# Poissons Ratio (y) = 0.04464 0.55676
# Poissons Ratio (z) = 0.29781 0.49341
#
# Static dielectric constant tensor:
#      x y z
#    x 3.453880 0.000000 0.000000 
#    y 0.000000 3.578170 0.000000 
#    z 0.000000 0.000000 3.592850 
# 
# 
# High freq. dielectric constant tensor:
#      x y z
#    x 1.740890 0.000000 0.000000 
#    y 0.000000 1.758060 0.000000 
#    z 0.000000 0.000000 1.768110 
# 
# From -- ./inp_files/7362.got.cif
#   From: 2010.03.12/outbox.cif.g09.slc.cpg/sg23_4_cif.got.tgz:7362.got - 2010.04.14 02:50:06.
