data_PCOD8163848
_publ_section_title
;
Structure prediction by ZEFSAII (Michael W. Deem and Ramdas Pophale) SiO2 
 PCOD8163848
Probable space group: I 2 2 2
;
_chemical_formula_sum "Si O2"
_cell_formula_units_Z 40
_cell_length_a 7.119627
_cell_length_b 10.387606
_cell_length_c 26.948190
_cell_angle_alpha 90.000000
_cell_angle_beta 90.000000
_cell_angle_gamma 90.000000
_cell_volume 1992.977110
_symmetry_space_group_name_H-M "I 2 2 2"
_symmetry_group_IT_number 23
_symmetry_cell_setting 'orthorhombic'
loop_
_space_group_symop_operation_xyz
x,y,z
-x,-y,z
x,-y,-z
-x,y,-z
1/2+x,1/2+y,1/2+z
1/2-x,1/2-y,1/2+z
1/2+x,1/2-y,1/2-z
1/2-x,1/2+y,1/2-z
loop_
_atom_site_type_symbol
_atom_site_label
_atom_site_fract_x
_atom_site_fract_y
_atom_site_fract_z
Si Si1 0.256829 0.668764 0.305827
Si Si2 0.785115 0.484039 0.401575
Si Si3 0.500202 0.697013 0.441864
Si Si4 0.082755 0.135974 0.299679
Si Si5 0.948457 0.644038 0.854733
O O1 0.229903 0.545913 0.342440
O O2 0.317884 0.612457 0.253112
O O3 0.419049 0.760749 0.324870
O O4 0.065845 0.748838 0.299466
O O5 0.663217 0.605692 0.419319
O O6 0.704909 0.360187 0.430292
O O7 0.000000 0.500000 0.417808
O O8 0.500000 0.719791 0.500000
O O9 0.524918 0.832923 0.413787
O O10 0.235703 0.176736 0.340295
O O11 0.000000 0.000000 0.317107
O O12 0.000000 0.500000 0.840130
#
# Coordination Sequence:
#
# PCOD8163848 Si02
#       5
#     8   8   8   8   8
#     4  11  24  38  60  94 126 170 205 251 315 373
#     4  10  21  38  63  91 127 156 201 262 319 371
#     4  10  23  41  64  93 120 159 213 262 320 381
#     4  12  24  38  62  90 130 169 211 249 311 380
#     4  11  23  42  60  88 128 163 208 264 309 379
#
# _framework density 20.070475999999999
#
# number of rings (size 3 to 8) (size 9 to 14) (size 15 to 20)
#    0.000    1.200    4.000    2.400    5.600    4.400 
#    0.000    0.000    0.000    0.000    0.000    0.000 
#    0.000    0.000    0.000    0.000    0.000    0.000 
#
# Total GULP energy -247988.830821 kJ/mol
# GULP energy per Si atom -12399.441541 kJ/mol
# Density = 2.002479 g / cm^3
# Si number density = 20.070476 Si / 1000 Ang^3
#
#
#
# Elastic Constant Matrix: (Units=GPa)
#
#
# Indices 1 2 3 4 5 6 
#
# 1 151.9716 26.0947 40.7381 0.0000 0.0000 0.0000
# 2 26.0947 49.0067 14.1179 0.0000 0.0000 0.0000
# 3 40.7381 14.1179 123.5255 0.0000 0.0000 0.0000
# 4 0.0000 0.0000 0.0000 12.6707 0.0000 0.0000
# 5 0.0000 0.0000 0.0000 0.0000 10.7266 0.0000
# 6 0.0000 0.0000 0.0000 0.0000 0.0000 24.7735
#
#
#
# Elastic Compliance Matrix: (Units=1/GPa)
#
#
# Indices 1 2 3 4 5 6 
#
# 1 0.007762 -0.003511 -0.002158 0.000000 0.000000 0.000000
# 2 -0.003511 0.022688 -0.001435 0.000000 0.000000 0.000000
# 3 -0.002158 -0.001435 0.008971 0.000000 0.000000 0.000000
# 4 0.000000 0.000000 0.000000 0.078922 0.000000 0.000000
# 5 0.000000 0.000000 0.000000 0.000000 0.093226 0.000000
# 6 0.000000 0.000000 0.000000 0.000000 0.000000 0.040366
#
#
# Mechanical properties :
#
#
# Convention : Reuss Voigt Hill
#
# Bulk Modulus (GPa) = 39.66363 54.04502 46.85433
# Shear Modulus (GPa) = 18.21171 25.87103 22.04137
#
# Velocity S-wave (km/s) = 3.01556 3.59417 3.31750
# Velocity P-wave (km/s) = 5.65065 6.64907 6.17009
#
# Compressibility (1/GPa) = 0.02521201
#
# Stress axis : x y z
#
# Youngs Moduli (GPa) = 128.83835 44.07553 111.46560
#
# Poissons Ratio (x) = 0.15475 0.24060
# Poissons Ratio (y) = 0.45236 0.15997
# Poissons Ratio (z) = 0.27809 0.06325
#
# Static dielectric constant tensor:
#      x y z
#    x 3.865790 0.000000 0.000000 
#    y 0.000000 3.667080 0.000000 
#    z 0.000000 0.000000 3.677470 
# 
# 
# High freq. dielectric constant tensor:
#      x y z
#    x 1.798870 0.000000 0.000000 
#    y 0.000000 1.773940 0.000000 
#    z 0.000000 0.000000 1.777300 
# 
# From -- ./inp_files/28862.got.cif
#   From: 2010.03.12/outbox.cif.g09.slc.cpg/sg23_15_cif.got.tgz:28862.got - 2010.04.14 02:50:06.
