data_PCOD8163575
_publ_section_title
;
Structure prediction by ZEFSAII (Michael W. Deem and Ramdas Pophale) SiO2 
 PCOD8163575
Probable space group: I 2 2 2
;
_chemical_formula_sum "Si O2"
_cell_formula_units_Z 64
_cell_length_a 14.929959
_cell_length_b 24.505471
_cell_length_c 8.885355
_cell_angle_alpha 90.000000
_cell_angle_beta 90.000000
_cell_angle_gamma 90.000000
_cell_volume 3250.846425
_symmetry_space_group_name_H-M "I 2 2 2"
_symmetry_group_IT_number 23
_symmetry_cell_setting 'orthorhombic'
loop_
_space_group_symop_operation_xyz
x,y,z
-x,-y,z
x,-y,-z
-x,y,-z
1/2+x,1/2+y,1/2+z
1/2-x,1/2-y,1/2+z
1/2+x,1/2-y,1/2-z
1/2-x,1/2+y,1/2-z
loop_
_atom_site_type_symbol
_atom_site_label
_atom_site_fract_x
_atom_site_fract_y
_atom_site_fract_z
Si Si1 0.355618 0.389198 0.821928
Si Si2 0.355618 0.610802 0.821929
Si Si3 0.142466 0.000000 0.170009
Si Si4 0.649728 0.109317 0.323213
Si Si5 0.500000 0.190771 0.678181
Si Si6 0.145124 0.500000 0.332002
Si Si7 0.500000 0.314148 0.320392
Si Si8 0.649727 0.890683 0.323213
O O1 0.392044 0.446613 0.757570
O O2 0.410779 0.341160 0.744920
O O3 0.252271 0.379332 0.776816
O O4 0.370504 0.388712 1.000000
O O5 0.392044 0.553386 0.757570
O O6 0.252271 0.620668 0.776817
O O7 0.410780 0.658840 0.744921
O O8 0.248503 0.000001 0.169714
O O9 0.104117 0.000000 0.000000
O O10 0.589274 0.159565 0.265015
O O11 0.641579 0.101044 0.500000
O O12 0.610665 0.054172 0.250484
O O13 0.500000 0.192223 0.500000
O O14 0.500000 0.252096 0.740060
O O15 0.589273 0.159564 0.734986
O O16 0.106437 0.500000 0.500000
O O17 0.110664 0.554172 0.249515
O O18 0.500000 0.318265 0.500000
#
# Coordination Sequence:
#
# PCOD8163575 Si02
#       8
#     8   8   8   8   8   8   8   8
#     4  10  20  35  56  82 110 139 174 219 268 315
#     4  10  20  35  56  82 110 139 174 219 268 315
#     4   9  17  32  55  82 110 140 174 212 261 321
#     4   9  18  35  58  80 106 142 179 216 261 315
#     4   9  20  38  57  78 104 140 187 225 256 309
#     4   9  17  30  51  82 115 140 169 214 265 317
#     4  11  23  38  55  76 105 142 184 225 264 313
#     4   9  18  35  58  80 106 142 179 216 261 315
#
# _framework density 19.687179
#
# number of rings (size 3 to 8) (size 9 to 14) (size 15 to 20)
#    0.000    2.500    0.000    1.875    0.000    6.000 
#    0.000    8.125    0.000    0.000    0.000    0.000 
#    0.000    0.000    0.000    0.000    0.000    0.000 
#
# Total GULP energy -396802.351844 kJ/mol
# GULP energy per Si atom -12400.073495 kJ/mol
# Density = 1.964237 g / cm^3
# Si number density = 19.687179 Si / 1000 Ang^3
#
#
#
# Elastic Constant Matrix: (Units=GPa)
#
#
# Indices 1 2 3 4 5 6 
#
# 1 102.0060 80.3827 38.8236 0.0002 0.0000 0.0007
# 2 80.3827 207.3393 61.5944 -0.0001 -0.0003 -0.0021
# 3 38.8236 61.5944 86.0888 0.0013 -0.0016 -0.0034
# 4 0.0002 -0.0001 0.0013 27.6580 -0.0007 -0.0082
# 5 0.0000 -0.0003 -0.0016 -0.0007 18.4274 -0.0109
# 6 0.0007 -0.0021 -0.0034 -0.0082 -0.0109 81.9811
#
#
#
# Elastic Compliance Matrix: (Units=1/GPa)
#
#
# Indices 1 2 3 4 5 6 
#
# 1 0.014804 -0.004770 -0.003264 0.000000 0.000000 0.000000
# 2 -0.004770 0.007662 -0.003331 0.000000 0.000000 0.000000
# 3 -0.003264 -0.003331 0.015471 -0.000001 0.000001 0.000001
# 4 0.000000 0.000000 -0.000001 0.036156 0.000001 0.000004
# 5 0.000000 0.000000 0.000001 0.000001 0.054267 0.000007
# 6 0.000000 0.000000 0.000001 0.000004 0.000007 0.012198
#
#
# Mechanical properties :
#
#
# Convention : Reuss Voigt Hill
#
# Bulk Modulus (GPa) = 65.75319 84.11508 74.93413
# Shear Modulus (GPa) = 29.69915 39.92219 34.81067
#
# Velocity S-wave (km/s) = 3.88822 4.50802 4.20955
# Velocity P-wave (km/s) = 7.32320 8.36152 7.85952
#
# Compressibility (1/GPa) = 0.01520839
#
# Stress axis : x y z
#
# Youngs Moduli (GPa) = 67.54824 130.51966 64.63842
#
# Poissons Ratio (x) = 0.62257 0.21095
# Poissons Ratio (y) = 0.32220 0.21529
# Poissons Ratio (z) = 0.22045 0.43472
#
# Static dielectric constant tensor:
#      x y z
#    x 3.577240 0.000000 0.000000 
#    y 0.000000 3.817730 0.000000 
#    z 0.000000 0.000000 3.544780 
# 
# 
# High freq. dielectric constant tensor:
#      x y z
#    x 1.767180 0.000000 0.000000 
#    y 0.000000 1.767500 0.000000 
#    z 0.000000 0.000000 1.759870 
# 
# From -- ./inp_files/10341.got.cif
#   From: 2010.03.12/outbox.cif.g09.slc.cpg/sg23_6_cif.got.tgz:10341.got - 2010.04.14 02:50:06.
