data_PCOD8163362
_publ_section_title
;
Structure prediction by ZEFSAII (Michael W. Deem and Ramdas Pophale) SiO2 
 PCOD8163362
Probable space group: I 2 2 2
;
_chemical_formula_sum "Si O2"
_cell_formula_units_Z 42
_cell_length_a 12.190293
_cell_length_b 20.763863
_cell_length_c 9.656539
_cell_angle_alpha 90.000000
_cell_angle_beta 90.000000
_cell_angle_gamma 90.000000
_cell_volume 2444.239723
_symmetry_space_group_name_H-M "I 2 2 2"
_symmetry_group_IT_number 23
_symmetry_cell_setting 'orthorhombic'
loop_
_space_group_symop_operation_xyz
x,y,z
-x,-y,z
x,-y,-z
-x,y,-z
1/2+x,1/2+y,1/2+z
1/2-x,1/2-y,1/2+z
1/2+x,1/2-y,1/2-z
1/2-x,1/2+y,1/2-z
loop_
_atom_site_type_symbol
_atom_site_label
_atom_site_fract_x
_atom_site_fract_y
_atom_site_fract_z
Si Si1 0.000000 0.500000 0.000000
Si Si2 0.332744 0.161453 0.194104
Si Si3 0.361212 0.305230 0.871001
Si Si4 0.707622 0.838469 0.878325
Si Si5 0.031575 0.566795 0.736940
Si Si6 0.104456 0.194608 0.685992
O O1 0.066878 0.452074 0.104049
O O2 0.231977 0.152658 0.298746
O O3 0.421839 0.108655 0.230807
O O4 0.391412 0.229600 0.215728
O O5 0.279727 0.155122 0.042277
O O6 0.348174 0.229238 0.838000
O O7 0.478046 0.327520 0.809126
O O8 0.348591 0.319325 0.033472
O O9 0.632255 0.897525 0.832448
O O10 0.825310 0.843818 0.801364
O O11 0.000000 0.500000 0.657715
#
# Coordination Sequence:
#
# PCOD8163362 Si02
#       6
#     2   8   8   8   8   8
#     4   8  24  36  50  84  98 144 178 220 254 322
#     4  10  19  32  51  76 107 137 174 215 261 311
#     4   9  18  32  50  75 107 142 172 211 258 311
#     4  10  19  32  51  76 107 137 174 215 261 311
#     4  10  21  36  54  75 107 136 177 220 258 310
#     4   9  18  32  50  75 107 142 172 211 258 311
#
# _framework density 17.183259
#
# number of rings (size 3 to 8) (size 9 to 14) (size 15 to 20)
#    0.571    1.905    1.905    0.571    2.667    2.286 
#    0.000    0.000    0.000    1.143    0.000    6.667 
#    0.000    0.000    0.000    0.000    0.000    0.000 
#
# Total GULP energy -260211.494577 kJ/mol
# GULP energy per Si atom -12391.023551 kJ/mol
# Density = 1.714415 g / cm^3
# Si number density = 17.183259 Si / 1000 Ang^3
#
#
#
# Elastic Constant Matrix: (Units=GPa)
#
#
# Indices 1 2 3 4 5 6 
#
# 1 101.5117 36.3869 38.8911 -0.0001 0.0000 0.0000
# 2 36.3869 71.4422 21.2602 0.0000 0.0000 0.0000
# 3 38.8911 21.2602 71.9484 0.0002 -0.0001 0.0003
# 4 -0.0001 0.0000 0.0002 26.7074 0.0000 0.0001
# 5 0.0000 0.0000 -0.0001 0.0000 26.4141 0.0000
# 6 0.0000 0.0000 0.0003 0.0001 0.0000 18.7431
#
#
#
# Elastic Compliance Matrix: (Units=1/GPa)
#
#
# Indices 1 2 3 4 5 6 
#
# 1 0.014089 -0.005383 -0.006025 0.000000 0.000000 0.000000
# 2 -0.005383 0.017403 -0.002233 0.000000 0.000000 0.000000
# 3 -0.006025 -0.002233 0.017815 0.000000 0.000000 0.000000
# 4 0.000000 0.000000 0.000000 0.037443 0.000000 0.000000
# 5 0.000000 0.000000 0.000000 0.000000 0.037859 0.000000
# 6 0.000000 0.000000 0.000000 0.000000 0.000000 0.053353
#
#
# Mechanical properties :
#
#
# Convention : Reuss Voigt Hill
#
# Bulk Modulus (GPa) = 45.40057 48.66430 47.03244
# Shear Modulus (GPa) = 23.51993 24.26386 23.89189
#
# Velocity S-wave (km/s) = 3.70370 3.76182 3.73287
# Velocity P-wave (km/s) = 6.69094 6.87391 6.78304
#
# Compressibility (1/GPa) = 0.02202615
#
# Stress axis : x y z
#
# Youngs Moduli (GPa) = 70.97812 57.46015 56.13107
#
# Poissons Ratio (x) = 0.30929 0.33819
# Poissons Ratio (y) = 0.38206 0.12534
# Poissons Ratio (z) = 0.42765 0.12831
#
# Static dielectric constant tensor:
#      x y z
#    x 3.266090 0.000000 0.000000 
#    y 0.000000 2.999570 0.000000 
#    z 0.000000 0.000000 3.289830 
# 
# 
# High freq. dielectric constant tensor:
#      x y z
#    x 1.654590 0.000000 0.000000 
#    y 0.000000 1.632710 0.000000 
#    z 0.000000 0.000000 1.670370 
# 
# From -- ./inp_files/8604.got.cif
#   From: 2010.03.12/outbox.cif.g09.slc.cpg/sg23_5_cif.got.tgz:8604.got - 2010.04.14 02:50:06.
