data_PCOD8163476
_publ_section_title
;
Structure prediction by ZEFSAII (Michael W. Deem and Ramdas Pophale) SiO2 
 PCOD8163476
Probable space group: I 2 2 2
;
_chemical_formula_sum "Si O2"
_cell_formula_units_Z 46
_cell_length_a 9.173378
_cell_length_b 10.530520
_cell_length_c 22.870270
_cell_angle_alpha 90.000000
_cell_angle_beta 90.000000
_cell_angle_gamma 90.000000
_cell_volume 2209.278156
_symmetry_space_group_name_H-M "I 2 2 2"
_symmetry_group_IT_number 23
_symmetry_cell_setting 'orthorhombic'
loop_
_space_group_symop_operation_xyz
x,y,z
-x,-y,z
x,-y,-z
-x,y,-z
1/2+x,1/2+y,1/2+z
1/2-x,1/2-y,1/2+z
1/2+x,1/2-y,1/2-z
1/2-x,1/2+y,1/2-z
loop_
_atom_site_type_symbol
_atom_site_label
_atom_site_fract_x
_atom_site_fract_y
_atom_site_fract_z
Si Si1 0.781526 0.814373 0.680835
Si Si2 0.469849 0.722557 0.711739
Si Si3 0.234416 0.648429 0.430655
Si Si4 0.650905 0.065421 0.639991
Si Si5 0.000000 0.500000 0.500000
Si Si6 0.000000 0.000000 0.122572
Si Si7 0.332538 0.863959 0.515977
O O1 0.637153 0.767443 0.714864
O O2 0.918915 0.820366 0.724239
O O3 0.813203 0.717112 0.628841
O O4 0.766162 0.956537 0.655743
O O5 0.371053 0.843820 0.695292
O O6 0.442368 0.612342 0.664298
O O7 0.371426 0.553976 0.419098
O O8 0.263296 0.749909 0.480895
O O9 0.096720 0.575510 0.454247
O O10 0.698101 0.153299 0.585197
O O11 0.500000 0.000000 0.620216
O O12 0.500000 0.863131 0.500000
O O13 0.261583 0.000000 0.500000
#
# Coordination Sequence:
#
# PCOD8163476 Si02
#       7
#     8   8   8   8   2   4   8
#     4  10  22  43  66  94 132 168 223 271 326 392
#     4  10  23  39  65  98 130 172 216 268 330 392
#     4  11  26  46  64  99 133 179 223 273 335 408
#     4  10  19  37  62  99 126 163 212 275 326 378
#     4  12  32  46  62  92 148 182 216 262 362 406
#     4  10  24  45  70  96 128 173 238 266 326 412
#     4  11  18  36  71 100 125 158 221 282 325 378
#
# _framework density 20.821279000000001
#
# number of rings (size 3 to 8) (size 9 to 14) (size 15 to 20)
#    0.000    1.565    3.478    2.087    9.739    1.391 
#    1.565    0.435    0.000    0.000    0.000    0.000 
#    0.000    0.000    0.000    0.000    0.000    0.000 
#
# Total GULP energy -285158.210731 kJ/mol
# GULP energy per Si atom -12398.183075 kJ/mol
# Density = 2.077389 g / cm^3
# Si number density = 20.821279 Si / 1000 Ang^3
#
#
#
# Elastic Constant Matrix: (Units=GPa)
#
#
# Indices 1 2 3 4 5 6 
#
# 1 84.0017 57.9447 68.2441 0.0000 0.0000 0.0000
# 2 57.9447 119.4889 50.0970 0.0000 0.0000 0.0000
# 3 68.2441 50.0970 138.7848 0.0000 0.0000 0.0000
# 4 0.0000 0.0000 0.0000 38.9738 0.0000 0.0000
# 5 0.0000 0.0000 0.0000 0.0000 35.9875 0.0000
# 6 0.0000 0.0000 0.0000 0.0000 0.0000 21.4307
#
#
#
# Elastic Compliance Matrix: (Units=1/GPa)
#
#
# Indices 1 2 3 4 5 6 
#
# 1 0.025315 -0.008316 -0.009446 0.000000 0.000000 0.000000
# 2 -0.008316 0.012593 -0.000457 0.000000 0.000000 0.000000
# 3 -0.009446 -0.000457 0.012015 0.000000 0.000000 0.000000
# 4 0.000000 0.000000 0.000000 0.025658 0.000000 0.000000
# 5 0.000000 0.000000 0.000000 0.000000 0.027787 0.000000
# 6 0.000000 0.000000 0.000000 0.000000 0.000000 0.046662
#
#
# Mechanical properties :
#
#
# Convention : Reuss Voigt Hill
#
# Bulk Modulus (GPa) = 74.15149 77.20524 75.67837
# Shear Modulus (GPa) = 26.18294 30.34438 28.26366
#
# Velocity S-wave (km/s) = 3.54998 3.82170 3.68834
# Velocity P-wave (km/s) = 7.24526 7.52558 7.38675
#
# Compressibility (1/GPa) = 0.01348590
#
# Stress axis : x y z
#
# Youngs Moduli (GPa) = 39.50201 79.40878 83.22754
#
# Poissons Ratio (x) = 0.66035 0.78620
# Poissons Ratio (y) = 0.32849 0.03800
# Poissons Ratio (z) = 0.37315 0.03626
#
# Static dielectric constant tensor:
#      x y z
#    x 3.478200 0.000000 0.000000 
#    y 0.000000 4.352150 0.000000 
#    z 0.000000 0.000000 3.826810 
# 
# 
# High freq. dielectric constant tensor:
#      x y z
#    x 1.779710 0.000000 0.000000 
#    y 0.000000 1.831970 0.000000 
#    z 0.000000 0.000000 1.825730 
# 
# From -- ./inp_files/27999.got.cif
#   From: 2010.03.12/outbox.cif.g09.slc.cpg/sg23_14_cif.got.tgz:27999.got - 2010.04.14 02:50:06.
