data_PCOD8163443
_publ_section_title
;
Structure prediction by ZEFSAII (Michael W. Deem and Ramdas Pophale) SiO2 
 PCOD8163443
Probable space group: I 2 2 2
;
_chemical_formula_sum "Si O2"
_cell_formula_units_Z 56
_cell_length_a 22.688764
_cell_length_b 8.772042
_cell_length_c 13.321763
_cell_angle_alpha 90.000000
_cell_angle_beta 90.000000
_cell_angle_gamma 90.000000
_cell_volume 2651.387737
_symmetry_space_group_name_H-M "I 2 2 2"
_symmetry_group_IT_number 23
_symmetry_cell_setting 'orthorhombic'
loop_
_space_group_symop_operation_xyz
x,y,z
-x,-y,z
x,-y,-z
-x,y,-z
1/2+x,1/2+y,1/2+z
1/2-x,1/2-y,1/2+z
1/2+x,1/2-y,1/2-z
1/2-x,1/2+y,1/2-z
loop_
_atom_site_type_symbol
_atom_site_label
_atom_site_fract_x
_atom_site_fract_y
_atom_site_fract_z
Si Si1 0.861365 0.223318 0.140799
Si Si2 0.465715 0.366494 0.105328
Si Si3 0.148199 0.995831 0.686091
Si Si4 0.433575 0.823158 0.472596
Si Si5 0.445406 0.088300 0.231280
Si Si6 0.779576 0.508894 0.883169
Si Si7 0.873037 0.325351 0.769934
O O1 0.850986 0.067170 0.201242
O O2 0.919122 0.305136 0.184411
O O3 0.802659 0.325816 0.153986
O O4 0.884494 0.210961 0.026254
O O5 0.500000 0.500000 0.169617
O O6 0.396936 0.418248 0.110190
O O7 0.470103 0.193044 0.141652
O O8 0.500000 0.365231 0.000000
O O9 0.210921 0.012444 0.634601
O O10 0.133423 0.818522 0.697578
O O11 0.500000 0.774381 0.500000
O O12 0.422944 0.797167 0.354403
O O13 0.420080 0.000000 0.500000
O O14 0.500000 0.000000 0.280683
O O15 0.395974 0.963876 0.197967
O O16 0.811970 0.372656 0.823413
O O17 0.794378 0.500000 0.000000
#
# Coordination Sequence:
#
# PCOD8163443 Si02
#       7
#     8   8   8   8   8   8   8
#     4  10  20  39  59  94 124 159 211 256 316 385
#     4  10  23  42  61  87 124 166 213 260 316 366
#     4  11  25  39  65  90 129 167 209 269 321 384
#     4  11  19  35  64  91 125 165 202 253 317 388
#     4  10  19  35  62  89 122 162 208 252 304 383
#     4  11  21  41  66  88 119 170 215 260 324 389
#     4  11  21  39  63  98 124 163 213 261 324 387
#
# _framework density 21.121013999999999
#
# number of rings (size 3 to 8) (size 9 to 14) (size 15 to 20)
#    0.000    1.429    4.286    2.571    2.000    2.000 
#    0.000    1.429    0.000    0.000    0.000    0.000 
#    0.000    0.000    0.000    0.000    0.000    0.000 
#
# Total GULP energy -346908.058709 kJ/mol
# GULP energy per Si atom -12389.573525 kJ/mol
# Density = 2.107294 g / cm^3
# Si number density = 21.121014 Si / 1000 Ang^3
#
#
#
# Elastic Constant Matrix: (Units=GPa)
#
#
# Indices 1 2 3 4 5 6 
#
# 1 131.1253 23.6610 25.0590 0.0000 0.0000 0.0000
# 2 23.6610 96.0681 30.5432 0.0000 0.0000 0.0000
# 3 25.0590 30.5432 65.3095 0.0000 0.0000 0.0000
# 4 0.0000 0.0000 0.0000 28.5581 0.0000 0.0000
# 5 0.0000 0.0000 0.0000 0.0000 33.1048 0.0000
# 6 0.0000 0.0000 0.0000 0.0000 0.0000 21.6189
#
#
#
# Elastic Compliance Matrix: (Units=1/GPa)
#
#
# Indices 1 2 3 4 5 6 
#
# 1 0.008350 -0.001219 -0.002634 0.000000 0.000000 0.000000
# 2 -0.001219 0.012405 -0.005334 0.000000 0.000000 0.000000
# 3 -0.002634 -0.005334 0.018817 0.000000 0.000000 0.000000
# 4 0.000000 0.000000 0.000000 0.035016 0.000000 0.000000
# 5 0.000000 0.000000 0.000000 0.000000 0.030207 0.000000
# 6 0.000000 0.000000 0.000000 0.000000 0.000000 0.046256
#
#
# Mechanical properties :
#
#
# Convention : Reuss Voigt Hill
#
# Bulk Modulus (GPa) = 47.17302 50.11436 48.64369
# Shear Modulus (GPa) = 28.33024 30.87236 29.60130
#
# Velocity S-wave (km/s) = 3.66639 3.82735 3.74774
# Velocity P-wave (km/s) = 6.34873 6.58105 6.46593
#
# Compressibility (1/GPa) = 0.02119856
#
# Stress axis : x y z
#
# Youngs Moduli (GPa) = 119.76662 80.61045 53.14454
#
# Poissons Ratio (x) = 0.09828 0.13996
# Poissons Ratio (y) = 0.14602 0.28346
# Poissons Ratio (z) = 0.31541 0.42996
#
# Static dielectric constant tensor:
#      x y z
#    x 3.921050 0.000000 0.000000 
#    y 0.000000 4.408860 0.000000 
#    z 0.000000 0.000000 3.722720 
# 
# 
# High freq. dielectric constant tensor:
#      x y z
#    x 1.840460 0.000000 0.000000 
#    y 0.000000 1.817890 0.000000 
#    z 0.000000 0.000000 1.800070 
# 
# From -- ./inp_files/22413.got.cif
#   From: 2010.03.12/outbox.cif.g09.slc.cpg/sg23_12_cif.got.tgz:22413.got - 2010.04.14 02:50:06.
