data_PCOD8163264
_publ_section_title
;
Structure prediction by ZEFSAII (Michael W. Deem and Ramdas Pophale) SiO2 
 PCOD8163264
Probable space group: I 2 2 2
;
_chemical_formula_sum "Si O2"
_cell_formula_units_Z 64
_cell_length_a 15.004134
_cell_length_b 9.046537
_cell_length_c 24.520999
_cell_angle_alpha 90.000000
_cell_angle_beta 90.000000
_cell_angle_gamma 90.000000
_cell_volume 3328.368917
_symmetry_space_group_name_H-M "I 2 2 2"
_symmetry_group_IT_number 23
_symmetry_cell_setting 'orthorhombic'
loop_
_space_group_symop_operation_xyz
x,y,z
-x,-y,z
x,-y,-z
-x,y,-z
1/2+x,1/2+y,1/2+z
1/2-x,1/2-y,1/2+z
1/2+x,1/2-y,1/2-z
1/2-x,1/2+y,1/2-z
loop_
_atom_site_type_symbol
_atom_site_label
_atom_site_fract_x
_atom_site_fract_y
_atom_site_fract_z
Si Si1 0.664422 0.167133 0.000000
Si Si2 0.000000 0.825335 0.687440
Si Si3 0.500000 0.325108 0.309478
Si Si4 0.149135 0.826560 0.108705
Si Si5 0.855464 0.667797 0.618593
Si Si6 0.844340 0.673447 0.000000
Si Si7 0.649135 0.673440 0.608705
Si Si8 0.855464 0.667798 0.381407
O O1 0.608524 0.185690 0.055921
O O2 0.608524 0.185689 0.944079
O O3 0.739778 0.291058 1.000000
O O4 0.707360 0.000000 0.000000
O O5 0.089097 0.773433 0.657392
O O6 1.000000 0.758566 0.748568
O O7 0.910904 0.773433 0.657391
O O8 0.000000 0.000000 0.687992
O O9 0.500000 0.500000 0.305458
O O10 0.411264 0.271416 0.340969
O O11 0.588736 0.271416 0.340969
O O12 0.251694 0.786970 0.121901
O O13 0.137698 0.000000 0.098296
O O14 0.113672 0.743689 0.054643
O O15 0.751694 0.713029 0.621901
O O16 0.869764 0.500000 0.638374
O O17 0.886327 0.743689 0.054644
O O18 0.862065 0.500000 0.000000
#
# Coordination Sequence:
#
# PCOD8163264 Si02
#       8
#     8   8   8   8   8   8   8   8
#     4   8  16  33  56  79 104 138 178 211 249 313
#     4  11  23  36  51  76 108 139 176 223 268 307
#     4   9  20  38  57  76 100 137 186 225 252 301
#     4   9  18  36  59  78 101 139 181 214 251 309
#     4   9  18  34  56  79 103 135 174 216 260 310
#     4  10  18  29  50  83 116 136 160 209 269 317
#     4   9  18  36  59  78 101 139 181 214 251 309
#     4   9  18  34  56  79 103 135 174 216 260 310
#
# _framework density 19.228636999999999
#
# number of rings (size 3 to 8) (size 9 to 14) (size 15 to 20)
#    0.000    2.750    0.000    3.000    0.000    6.000 
#    0.000    8.125    0.000    0.000    0.000    0.000 
#    0.000    0.000    0.000    0.000    0.000    0.000 
#
# Total GULP energy -396620.084300 kJ/mol
# GULP energy per Si atom -12394.377634 kJ/mol
# Density = 1.918487 g / cm^3
# Si number density = 19.228637 Si / 1000 Ang^3
#
#
#
# Elastic Constant Matrix: (Units=GPa)
#
#
# Indices 1 2 3 4 5 6 
#
# 1 97.5580 34.3580 76.8531 0.0000 0.0000 0.0000
# 2 34.3580 68.6777 55.8264 0.0000 0.0000 0.0000
# 3 76.8531 55.8264 190.7843 0.0000 0.0000 0.0000
# 4 0.0000 0.0000 0.0000 26.2316 0.0000 0.0000
# 5 0.0000 0.0000 0.0000 0.0000 31.3634 0.0000
# 6 0.0000 0.0000 0.0000 0.0000 0.0000 20.8151
#
#
#
# Elastic Compliance Matrix: (Units=1/GPa)
#
#
# Indices 1 2 3 4 5 6 
#
# 1 0.015648 -0.003548 -0.005265 0.000000 0.000000 0.000000
# 2 -0.003548 0.019910 -0.004397 0.000000 0.000000 0.000000
# 3 -0.005265 -0.004397 0.008649 0.000000 0.000000 0.000000
# 4 0.000000 0.000000 0.000000 0.038122 0.000000 0.000000
# 5 0.000000 0.000000 0.000000 0.000000 0.031884 0.000000
# 6 0.000000 0.000000 0.000000 0.000000 0.000000 0.048042
#
#
# Mechanical properties :
#
#
# Convention : Reuss Voigt Hill
#
# Bulk Modulus (GPa) = 56.22244 76.78833 66.50538
# Shear Modulus (GPa) = 25.69335 28.34753 27.02044
#
# Velocity S-wave (km/s) = 3.65938 3.84374 3.75269
# Velocity P-wave (km/s) = 6.86710 7.72788 7.31017
#
# Compressibility (1/GPa) = 0.01778649
#
# Stress axis : x y z
#
# Youngs Moduli (GPa) = 63.90778 50.22662 115.62196
#
# Poissons Ratio (x) = 0.17822 0.60874
# Poissons Ratio (y) = 0.22677 0.50833
# Poissons Ratio (z) = 0.33647 0.22082
#
# Static dielectric constant tensor:
#      x y z
#    x 3.341230 0.000000 0.000000 
#    y 0.000000 3.194710 0.000000 
#    z 0.000000 0.000000 3.900970 
# 
# 
# High freq. dielectric constant tensor:
#      x y z
#    x 1.733730 0.000000 0.000000 
#    y 0.000000 1.722270 0.000000 
#    z 0.000000 0.000000 1.756410 
# 
# From -- ./inp_files/28577.got.cif
#   From: 2010.03.12/outbox.cif.g09.slc.cpg/sg23_15_cif.got.tgz:28577.got - 2010.04.14 02:50:06.
