data_PCOD8163154
_publ_section_title
;
Structure prediction by ZEFSAII (Michael W. Deem and Ramdas Pophale) SiO2 
 PCOD8163154
Probable space group: F 2 2 2
;
_chemical_formula_sum "Si O2"
_cell_formula_units_Z 72
_cell_length_a 8.588595
_cell_length_b 14.488794
_cell_length_c 24.019793
_cell_angle_alpha 90.000000
_cell_angle_beta 90.000000
_cell_angle_gamma 90.000000
_cell_volume 2988.984218
_symmetry_space_group_name_H-M "F 2 2 2"
_symmetry_group_IT_number 22
_symmetry_cell_setting 'orthorhombic'
loop_
_space_group_symop_operation_xyz
x,y,z
-x,-y,z
x,-y,-z
-x,y,-z
x,1/2+y,1/2+z
-x,1/2-y,1/2+z
x,1/2-y,1/2-z
-x,1/2+y,1/2-z
1/2+x,y,1/2+z
1/2-x,-y,1/2+z
1/2+x,-y,1/2-z
1/2-x,y,1/2-z
1/2+x,1/2+y,z
1/2-x,1/2-y,z
1/2+x,1/2-y,-z
1/2-x,1/2+y,-z
loop_
_atom_site_type_symbol
_atom_site_label
_atom_site_fract_x
_atom_site_fract_y
_atom_site_fract_z
Si Si1 0.314978 0.351327 0.806413
Si Si2 0.825321 0.999162 0.379947
Si Si3 0.401628 0.810607 0.452613
Si Si4 0.769635 0.000000 0.000000
Si Si5 0.371698 0.330635 0.152074
O O1 0.250000 0.399091 0.750000
O O2 0.250000 0.250000 0.813012
O O3 0.261103 0.405150 0.862997
O O4 0.502244 0.345070 0.798828
O O5 0.727752 0.922233 0.349222
O O6 0.833210 0.975842 0.445817
O O7 0.000000 0.000000 0.356647
O O8 0.500000 0.756296 0.500000
O O9 0.250000 0.750000 0.438165
O O10 0.368779 0.912234 0.478735
O O11 0.519315 0.814193 0.401154
O O12 0.250000 0.250000 0.163729
#
# Coordination Sequence:
#
# PCOD8163154 Si02
#       5
#    16  16  16   8  16
#     4  11  26  52  81 110 149 201 265 336 408 467
#     4  12  27  45  73 112 157 206 265 321 394 469
#     4  12  26  44  73 108 161 213 261 320 388 469
#     4  12  26  44  70 108 164 210 260 310 388 460
#     4  12  26  47  76 113 157 201 262 329 402 472
#
# _framework density 24.088449000000001
#
# number of rings (size 3 to 8) (size 9 to 14) (size 15 to 20)
#    0.000    0.222    4.444    4.000    3.111    1.778 
#    0.000    6.667    0.000    0.000    0.000    0.000 
#    0.000    0.000    0.000    0.000    0.000    0.000 
#
# Total GULP energy -223081.450513 kJ/mol
# GULP energy per Si atom -12393.413917 kJ/mol
# Density = 2.403362 g / cm^3
# Si number density = 24.088449 Si / 1000 Ang^3
#
#
#
# Elastic Constant Matrix: (Units=GPa)
#
#
# Indices 1 2 3 4 5 6 
#
# 1 223.2211 62.6923 48.9912 0.0000 0.0000 0.0000
# 2 62.6923 116.1909 27.1200 0.0000 0.0000 0.0000
# 3 48.9912 27.1200 116.4303 0.0000 0.0000 0.0000
# 4 0.0000 0.0000 0.0000 43.7055 0.0000 0.0000
# 5 0.0000 0.0000 0.0000 0.0000 39.2307 0.0000
# 6 0.0000 0.0000 0.0000 0.0000 0.0000 44.1263
#
#
#
# Elastic Compliance Matrix: (Units=1/GPa)
#
#
# Indices 1 2 3 4 5 6 
#
# 1 0.005597 -0.002612 -0.001747 0.000000 0.000000 0.000000
# 2 -0.002612 0.010321 -0.001305 0.000000 0.000000 0.000000
# 3 -0.001747 -0.001305 0.009628 0.000000 0.000000 0.000000
# 4 0.000000 0.000000 0.000000 0.022880 0.000000 0.000000
# 5 0.000000 0.000000 0.000000 0.000000 0.025490 0.000000
# 6 0.000000 0.000000 0.000000 0.000000 0.000000 0.022662
#
#
# Mechanical properties :
#
#
# Convention : Reuss Voigt Hill
#
# Bulk Modulus (GPa) = 70.33377 81.49437 75.91407
# Shear Modulus (GPa) = 44.38754 46.54844 45.46799
#
# Velocity S-wave (km/s) = 4.29731 4.40067 4.34930
# Velocity P-wave (km/s) = 7.34058 7.72826 7.53691
#
# Compressibility (1/GPa) = 0.01421792
#
# Stress axis : x y z
#
# Youngs Moduli (GPa) = 178.67276 96.89444 103.86734
#
# Poissons Ratio (x) = 0.25311 0.18141
# Poissons Ratio (y) = 0.46672 0.13553
# Poissons Ratio (z) = 0.31206 0.12643
#
# Static dielectric constant tensor:
#      x y z
#    x 4.876510 0.000000 0.000000 
#    y 0.000000 4.160530 0.000000 
#    z 0.000000 0.000000 4.927800 
# 
# 
# High freq. dielectric constant tensor:
#      x y z
#    x 1.977020 0.000000 0.000000 
#    y 0.000000 1.953340 0.000000 
#    z 0.000000 0.000000 1.956300 
# 
# From -- ./inp_files/51673.got.cif
#   From: 2010.03.12/outbox.cif.g09.slc.cpg/sg22_26_cif.got.tgz:51673.got - 2010.04.14 02:24:06.
