data_PCOD8163899
_publ_section_title
;
Structure prediction by ZEFSAII (Michael W. Deem and Ramdas Pophale) SiO2 
 PCOD8163899
Probable space group: I 2 2 2
;
_chemical_formula_sum "Si O2"
_cell_formula_units_Z 64
_cell_length_a 17.108473
_cell_length_b 22.419987
_cell_length_c 7.671144
_cell_angle_alpha 90.000000
_cell_angle_beta 90.000000
_cell_angle_gamma 90.000000
_cell_volume 2942.434069
_symmetry_space_group_name_H-M "I 2 2 2"
_symmetry_group_IT_number 23
_symmetry_cell_setting 'orthorhombic'
loop_
_space_group_symop_operation_xyz
x,y,z
-x,-y,z
x,-y,-z
-x,y,-z
1/2+x,1/2+y,1/2+z
1/2-x,1/2-y,1/2+z
1/2+x,1/2-y,1/2-z
1/2-x,1/2+y,1/2-z
loop_
_atom_site_type_symbol
_atom_site_label
_atom_site_fract_x
_atom_site_fract_y
_atom_site_fract_z
Si Si1 0.889598 0.658383 0.233324
Si Si2 0.339868 0.769667 0.601537
Si Si3 0.551740 0.840908 0.162622
Si Si4 0.660132 0.269667 0.101537
Si Si5 0.551740 0.659092 0.662622
Si Si6 0.889598 0.841617 0.733324
Si Si7 0.161140 0.069393 0.991587
Si Si8 0.338860 0.069393 0.991587
O O1 0.868252 0.700366 0.406724
O O2 0.852304 0.595138 0.294013
O O3 0.982041 0.648935 0.195311
O O4 0.850425 0.687432 0.063999
O O5 0.389394 0.790983 0.768617
O O6 0.250000 0.771378 0.657611
O O7 0.368252 0.700366 0.593276
O O8 0.500000 0.817835 0.000000
O O9 0.599214 0.901350 0.124918
O O10 0.610606 0.290983 0.268617
O O11 0.649575 0.312568 0.936001
O O12 0.500000 0.682164 0.500000
O O13 0.482041 0.648935 0.804689
O O14 0.599214 0.598650 0.624918
O O15 0.852304 0.904862 0.794014
O O16 0.250000 0.081739 0.051977
O O17 0.142388 0.000000 0.000000
O O18 0.357612 0.000000 0.000000
#
# Coordination Sequence:
#
# PCOD8163899 Si02
#       8
#     8   8   8   8   8   8   8   8
#     4  11  23  38  59  89 123 161 203 252 308 368
#     4  12  23  39  62  90 125 160 203 254 311 371
#     4  10  22  38  60  87 120 158 198 247 307 367
#     4  12  23  39  62  90 125 160 203 254 311 371
#     4  10  22  38  60  87 120 158 198 247 307 367
#     4  11  23  38  59  89 123 161 203 252 308 368
#     4  10  21  40  64  89 119 159 207 252 300 363
#     4  10  21  40  64  89 119 159 207 252 300 363
#
# _framework density 21.750699999999998
#
# number of rings (size 3 to 8) (size 9 to 14) (size 15 to 20)
#    0.000    1.250    0.000    7.500    0.000    6.500 
#    0.000    1.250    0.000   10.500    0.000    0.000 
#    0.000    0.000    0.000    0.000    0.000    0.000 
#
# Total GULP energy -396425.953864 kJ/mol
# GULP energy per Si atom -12388.311058 kJ/mol
# Density = 2.170119 g / cm^3
# Si number density = 21.750700 Si / 1000 Ang^3
#
#
#
# Elastic Constant Matrix: (Units=GPa)
#
#
# Indices 1 2 3 4 5 6 
#
# 1 200.5248 68.7118 27.2587 0.0000 0.0000 0.0000
# 2 68.7118 126.3443 39.2546 0.0000 0.0000 0.0000
# 3 27.2587 39.2546 69.7283 0.0000 0.0000 0.0000
# 4 0.0000 0.0000 0.0000 22.8624 0.0000 0.0000
# 5 0.0000 0.0000 0.0000 0.0000 40.3685 0.0000
# 6 0.0000 0.0000 0.0000 0.0000 0.0000 30.8253
#
#
#
# Elastic Compliance Matrix: (Units=1/GPa)
#
#
# Indices 1 2 3 4 5 6 
#
# 1 0.006152 -0.003149 -0.000632 0.000000 0.000000 0.000000
# 2 -0.003149 0.011205 -0.005077 0.000000 0.000000 0.000000
# 3 -0.000632 -0.005077 0.017447 0.000000 0.000000 0.000000
# 4 0.000000 0.000000 0.000000 0.043740 0.000000 0.000000
# 5 0.000000 0.000000 0.000000 0.000000 0.024772 0.000000
# 6 0.000000 0.000000 0.000000 0.000000 0.000000 0.032441
#
#
# Mechanical properties :
#
#
# Convention : Reuss Voigt Hill
#
# Bulk Modulus (GPa) = 58.52371 74.11640 66.32006
# Shear Modulus (GPa) = 31.41330 36.23606 33.82468
#
# Velocity S-wave (km/s) = 3.80444 4.08606 3.94776
# Velocity P-wave (km/s) = 6.80172 7.51070 7.16498
#
# Compressibility (1/GPa) = 0.01708709
#
# Stress axis : x y z
#
# Youngs Moduli (GPa) = 162.54898 89.24576 57.31799
#
# Poissons Ratio (x) = 0.28107 0.03622
# Poissons Ratio (y) = 0.51193 0.29099
# Poissons Ratio (z) = 0.10273 0.45309
#
# Static dielectric constant tensor:
#      x y z
#    x 4.546700 0.000000 0.000000 
#    y 0.000000 3.723120 0.000000 
#    z 0.000000 0.000000 3.810560 
# 
# 
# High freq. dielectric constant tensor:
#      x y z
#    x 1.894790 0.000000 0.000000 
#    y 0.000000 1.831540 0.000000 
#    z 0.000000 0.000000 1.840310 
# 
# From -- ./inp_files/11411.got.cif
#   From: 2010.03.12/outbox.cif.g09.slc.cpg/sg23_6_cif.got.tgz:11411.got - 2010.04.14 02:50:06.
