data_PCOD8163491
_publ_section_title
;
Structure prediction by ZEFSAII (Michael W. Deem and Ramdas Pophale) SiO2 
 PCOD8163491
Probable space group: I 2 2 2
;
_chemical_formula_sum "Si O2"
_cell_formula_units_Z 54
_cell_length_a 18.048357
_cell_length_b 5.233492
_cell_length_c 28.342154
_cell_angle_alpha 90.000000
_cell_angle_beta 90.000000
_cell_angle_gamma 90.000000
_cell_volume 2677.084570
_symmetry_space_group_name_H-M "I 2 2 2"
_symmetry_group_IT_number 23
_symmetry_cell_setting 'orthorhombic'
loop_
_space_group_symop_operation_xyz
x,y,z
-x,-y,z
x,-y,-z
-x,y,-z
1/2+x,1/2+y,1/2+z
1/2-x,1/2-y,1/2+z
1/2+x,1/2-y,1/2-z
1/2-x,1/2+y,1/2-z
loop_
_atom_site_type_symbol
_atom_site_label
_atom_site_fract_x
_atom_site_fract_y
_atom_site_fract_z
Si Si1 0.124982 0.697184 0.039965
Si Si2 0.706333 0.201434 0.734550
Si Si3 0.500000 0.500000 0.500000
Si Si4 0.461406 0.750287 0.763499
Si Si5 0.199900 0.626570 0.402062
Si Si6 0.714842 0.878979 0.374227
Si Si7 0.962927 0.252881 0.373386
Si Si8 0.242562 0.500000 0.500000
O O1 0.139040 0.623536 0.094417
O O2 0.205121 0.798477 0.025409
O O3 0.101226 0.500000 0.000000
O O4 0.053837 0.875900 0.038782
O O5 0.756293 0.453984 0.741384
O O6 0.626882 0.251447 0.757797
O O7 0.692463 0.147065 0.679812
O O8 0.500000 0.500000 0.740270
O O9 0.481203 0.748553 0.818404
O O10 0.500000 0.000000 0.740277
O O11 0.224847 0.343729 0.385323
O O12 0.123809 0.723605 0.380841
O O13 0.193291 0.632073 0.459312
O O14 0.256928 0.836022 0.383610
O O15 0.000000 0.500000 0.397588
O O16 0.000000 0.000000 0.396699
#
# Coordination Sequence:
#
# PCOD8163491 Si02
#       8
#     8   8   2   8   8   8   8   4
#     4  10  19  39  59  88 121 157 206 253 307 377
#     4  12  24  41  64  94 127 164 215 271 319 373
#     4  10  22  36  60  90 122 172 200 264 320 372
#     4  10  21  38  58  82 119 163 200 246 310 372
#     4  11  21  38  62  90 119 158 203 254 312 359
#     4  11  23  38  64  93 121 160 210 263 312 372
#     4  10  20  35  56  84 115 152 200 242 291 366
#     4   9  20  35  61  84 119 150 194 248 305 356
#
# _framework density 20.171196999999999
#
# number of rings (size 3 to 8) (size 9 to 14) (size 15 to 20)
#    0.000    1.481    1.481    4.667    0.000    2.370 
#    1.333    1.852    0.000    0.889    0.000    0.000 
#    0.000    0.000    0.000    0.000    0.000    0.000 
#
# Total GULP energy -334531.040551 kJ/mol
# GULP energy per Si atom -12390.038539 kJ/mol
# Density = 2.012529 g / cm^3
# Si number density = 20.171197 Si / 1000 Ang^3
#
#
#
# Elastic Constant Matrix: (Units=GPa)
#
#
# Indices 1 2 3 4 5 6 
#
# 1 85.0616 36.6876 7.2030 0.0000 0.0000 0.0000
# 2 36.6876 130.9577 23.7237 0.0000 0.0000 0.0000
# 3 7.2030 23.7237 75.7171 0.0000 0.0000 0.0000
# 4 0.0000 0.0000 0.0000 17.8007 0.0000 0.0000
# 5 0.0000 0.0000 0.0000 0.0000 20.9157 0.0000
# 6 0.0000 0.0000 0.0000 0.0000 0.0000 26.3216
#
#
#
# Elastic Compliance Matrix: (Units=1/GPa)
#
#
# Indices 1 2 3 4 5 6 
#
# 1 0.013373 -0.003727 -0.000104 0.000000 0.000000 0.000000
# 2 -0.003727 0.009135 -0.002507 0.000000 0.000000 0.000000
# 3 -0.000104 -0.002507 0.014003 0.000000 0.000000 0.000000
# 4 0.000000 0.000000 0.000000 0.056178 0.000000 0.000000
# 5 0.000000 0.000000 0.000000 0.000000 0.047811 0.000000
# 6 0.000000 0.000000 0.000000 0.000000 0.000000 0.037992
#
#
# Mechanical properties :
#
#
# Convention : Reuss Voigt Hill
#
# Bulk Modulus (GPa) = 41.96125 47.44057 44.70091
# Shear Modulus (GPa) = 25.11148 27.94908 26.53028
#
# Velocity S-wave (km/s) = 3.53217 3.72639 3.63058
# Velocity P-wave (km/s) = 6.12231 6.48727 6.30743
#
# Compressibility (1/GPa) = 0.02383151
#
# Stress axis : x y z
#
# Youngs Moduli (GPa) = 74.77933 109.47475 71.41528
#
# Poissons Ratio (x) = 0.40806 0.00745
# Poissons Ratio (y) = 0.27874 0.17907
# Poissons Ratio (z) = 0.00780 0.27450
#
# Static dielectric constant tensor:
#      x y z
#    x 3.553090 0.000000 0.000000 
#    y 0.000000 4.093410 0.000000 
#    z 0.000000 0.000000 5.981900 
# 
# 
# High freq. dielectric constant tensor:
#      x y z
#    x 1.781310 0.000000 0.000000 
#    y 0.000000 1.805180 0.000000 
#    z 0.000000 0.000000 1.772810 
# 
# From -- ./inp_files/30577.got.cif
#   From: 2010.03.12/outbox.cif.g09.slc.cpg/sg23_16_cif.got.tgz:30577.got - 2010.04.14 02:50:06.
