data_PCOD8163423
_publ_section_title
;
Structure prediction by ZEFSAII (Michael W. Deem and Ramdas Pophale) SiO2 
 PCOD8163423
Probable space group: I 2 2 2
;
_chemical_formula_sum "Si O2"
_cell_formula_units_Z 64
_cell_length_a 18.838014
_cell_length_b 8.779184
_cell_length_c 19.949300
_cell_angle_alpha 90.000000
_cell_angle_beta 90.000000
_cell_angle_gamma 90.000000
_cell_volume 3299.262935
_symmetry_space_group_name_H-M "I 2 2 2"
_symmetry_group_IT_number 23
_symmetry_cell_setting 'orthorhombic'
loop_
_space_group_symop_operation_xyz
x,y,z
-x,-y,z
x,-y,-z
-x,y,-z
1/2+x,1/2+y,1/2+z
1/2-x,1/2-y,1/2+z
1/2+x,1/2-y,1/2-z
1/2-x,1/2+y,1/2-z
loop_
_atom_site_type_symbol
_atom_site_label
_atom_site_fract_x
_atom_site_fract_y
_atom_site_fract_z
Si Si1 0.133858 0.348138 0.731319
Si Si2 0.330333 0.419140 0.567410
Si Si3 0.278019 0.862445 0.636473
Si Si4 0.344666 0.805971 0.212894
Si Si5 0.004264 0.829866 0.740491
Si Si6 0.119201 0.330631 0.978858
Si Si7 0.745217 0.794343 0.658670
Si Si8 0.048273 0.122212 0.889070
O O1 0.157721 0.343505 0.809512
O O2 0.147496 0.514130 0.700036
O O3 0.053994 0.293506 0.717668
O O4 0.178576 0.222309 0.692015
O O5 0.302191 0.500000 0.500000
O O6 0.378750 0.274909 0.544781
O O7 0.264652 0.344684 0.606653
O O8 0.373387 0.539262 0.614679
O O9 0.208319 0.765053 0.656928
O O10 0.307369 0.812883 0.563979
O O11 0.257259 0.038860 0.626938
O O12 0.421527 0.730782 0.213303
O O13 0.315357 0.772196 0.286209
O O14 0.992250 0.842134 0.820173
O O15 0.000000 0.000000 0.709435
O O16 0.054125 0.276646 0.931648
O O17 0.102262 0.500000 0.000000
O O18 0.000000 0.000000 0.928898
#
# Coordination Sequence:
#
# PCOD8163423 Si02
#       8
#     8   8   8   8   8   8   8   8
#     4  10  21  34  57  81 114 145 191 244 306 356
#     4  10  22  34  55  80 115 154 198 233 282 350
#     4  10  20  37  56  84 115 149 195 253 293 349
#     4  10  22  34  58  83 113 149 196 242 311 349
#     4  11  20  36  56  81 113 156 186 240 300 363
#     4  11  21  38  60  82 118 157 206 248 285 338
#     4  10  19  35  54  81 112 147 191 244 295 351
#     4  10  22  38  57  76 120 157 202 240 296 349
#
# _framework density 19.398271000000001
#
# number of rings (size 3 to 8) (size 9 to 14) (size 15 to 20)
#    0.000    1.750    2.500    2.625    3.500    4.250 
#    0.000    1.250    0.000    0.000    0.000    0.875 
#    0.000    0.000    0.000    0.000    0.000    0.000 
#
# Total GULP energy -396534.350381 kJ/mol
# GULP energy per Si atom -12391.698449 kJ/mol
# Density = 1.935412 g / cm^3
# Si number density = 19.398271 Si / 1000 Ang^3
#
#
#
# Elastic Constant Matrix: (Units=GPa)
#
#
# Indices 1 2 3 4 5 6 
#
# 1 96.1768 29.5540 6.3026 0.0000 0.0000 0.0000
# 2 29.5540 111.9315 13.9095 0.0000 0.0000 0.0000
# 3 6.3026 13.9095 30.2500 0.0000 0.0000 0.0000
# 4 0.0000 0.0000 0.0000 29.5455 0.0000 0.0000
# 5 0.0000 0.0000 0.0000 0.0000 17.7055 0.0000
# 6 0.0000 0.0000 0.0000 0.0000 0.0000 38.3391
#
#
#
# Elastic Compliance Matrix: (Units=1/GPa)
#
#
# Indices 1 2 3 4 5 6 
#
# 1 0.011347 -0.002866 -0.001046 0.000000 0.000000 0.000000
# 2 -0.002866 0.010199 -0.004093 0.000000 0.000000 0.000000
# 3 -0.001046 -0.004093 0.035158 0.000000 0.000000 0.000000
# 4 0.000000 0.000000 0.000000 0.033846 0.000000 0.000000
# 5 0.000000 0.000000 0.000000 0.000000 0.056480 0.000000
# 6 0.000000 0.000000 0.000000 0.000000 0.000000 0.026083
#
#
# Mechanical properties :
#
#
# Convention : Reuss Voigt Hill
#
# Bulk Modulus (GPa) = 24.57367 37.54338 31.05853
# Shear Modulus (GPa) = 24.66853 29.69081 27.17967
#
# Velocity S-wave (km/s) = 3.56994 3.91652 3.74724
# Velocity P-wave (km/s) = 5.44868 6.31254 5.89645
#
# Compressibility (1/GPa) = 0.04069396
#
# Stress axis : x y z
#
# Youngs Moduli (GPa) = 88.13092 98.04551 28.44319
#
# Poissons Ratio (x) = 0.28099 0.02976
# Poissons Ratio (y) = 0.25258 0.11641
# Poissons Ratio (z) = 0.09221 0.40127
#
# Static dielectric constant tensor:
#      x y z
#    x 3.417730 0.000000 0.000000 
#    y 0.000000 3.948520 0.000000 
#    z 0.000000 0.000000 3.236490 
# 
# 
# High freq. dielectric constant tensor:
#      x y z
#    x 1.735760 0.000000 0.000000 
#    y 0.000000 1.785840 0.000000 
#    z 0.000000 0.000000 1.714440 
# 
# From -- ./inp_files/11407.got.cif
#   From: 2010.03.12/outbox.cif.g09.slc.cpg/sg23_6_cif.got.tgz:11407.got - 2010.04.14 02:50:06.
