data_PCOD8163537
_publ_section_title
;
Structure prediction by ZEFSAII (Michael W. Deem and Ramdas Pophale) SiO2 
 PCOD8163537
Probable space group: I 2 2 2
;
_chemical_formula_sum "Si O2"
_cell_formula_units_Z 64
_cell_length_a 30.013066
_cell_length_b 12.650840
_cell_length_c 8.631001
_cell_angle_alpha 90.000000
_cell_angle_beta 90.000000
_cell_angle_gamma 90.000000
_cell_volume 3277.109050
_symmetry_space_group_name_H-M "I 2 2 2"
_symmetry_group_IT_number 23
_symmetry_cell_setting 'orthorhombic'
loop_
_space_group_symop_operation_xyz
x,y,z
-x,-y,z
x,-y,-z
-x,y,-z
1/2+x,1/2+y,1/2+z
1/2-x,1/2-y,1/2+z
1/2+x,1/2-y,1/2-z
1/2-x,1/2+y,1/2-z
loop_
_atom_site_type_symbol
_atom_site_label
_atom_site_fract_x
_atom_site_fract_y
_atom_site_fract_z
Si Si1 0.713379 0.842639 0.680147
Si Si2 0.717035 0.784110 0.328373
Si Si3 0.652644 0.498674 0.178236
Si Si4 0.747083 0.479003 0.322830
Si Si5 0.949917 0.617015 0.316815
Si Si6 0.874123 0.228095 0.314581
Si Si7 0.371679 0.266086 0.823235
Si Si8 0.549017 0.880815 0.184408
O O1 0.723774 0.819550 0.503226
O O2 0.756620 0.823742 0.793727
O O3 0.669823 0.782295 0.733623
O O4 0.713884 0.968313 0.712925
O O5 0.745380 0.856196 0.210504
O O6 0.665452 0.775831 0.287265
O O7 0.695920 0.506491 0.284190
O O8 0.621453 0.601401 0.211733
O O9 0.624687 0.391454 0.213470
O O10 0.668580 0.500000 0.000000
O O11 0.757497 0.500000 0.500000
O O12 0.915338 0.705899 0.257519
O O13 0.951653 0.620621 0.500542
O O14 0.935599 0.498678 0.261224
O O15 0.999296 0.643185 0.251457
O O16 0.865110 0.253945 0.494413
O O17 0.918196 0.288847 0.254029
#
# Coordination Sequence:
#
# PCOD8163537 Si02
#       8
#     8   8   8   8   8   8   8   8
#     4  12  24  38  55  80 113 149 191 237 280 333
#     4  12  24  38  55  80 113 149 191 237 280 333
#     4  10  20  34  51  74 112 151 186 231 278 327
#     4  12  24  38  56  77 108 152 193 233 284 338
#     4   8  15  30  53  81 110 140 180 232 285 337
#     4  10  20  34  54  80 110 147 190 233 281 337
#     4  10  20  34  54  80 110 147 190 233 281 337
#     4   8  15  30  53  81 110 140 180 232 285 337
#
# _framework density 19.529409000000001
#
# number of rings (size 3 to 8) (size 9 to 14) (size 15 to 20)
#    0.000    1.750    2.500    4.125    1.750    0.000 
#    0.000    0.625    0.000    4.500    0.000    1.750 
#    0.000    3.000    0.000    0.000    0.000    0.000 
#
# Total GULP energy -396608.972356 kJ/mol
# GULP energy per Si atom -12394.030386 kJ/mol
# Density = 1.948496 g / cm^3
# Si number density = 19.529409 Si / 1000 Ang^3
#
#
#
# Elastic Constant Matrix: (Units=GPa)
#
#
# Indices 1 2 3 4 5 6 
#
# 1 123.5960 72.9135 21.0138 0.0000 0.0000 0.0000
# 2 72.9135 119.8759 20.9283 0.0000 0.0000 0.0000
# 3 21.0138 20.9283 65.5005 0.0000 0.0000 0.0000
# 4 0.0000 0.0000 0.0000 19.7495 0.0000 0.0000
# 5 0.0000 0.0000 0.0000 0.0000 17.3363 0.0000
# 6 0.0000 0.0000 0.0000 0.0000 0.0000 41.4376
#
#
#
# Elastic Compliance Matrix: (Units=1/GPa)
#
#
# Indices 1 2 3 4 5 6 
#
# 1 0.012798 -0.007485 -0.001714 0.000000 0.000000 0.000000
# 2 -0.007485 0.013212 -0.001820 0.000000 0.000000 0.000000
# 3 -0.001714 -0.001820 0.016399 0.000000 0.000000 0.000000
# 4 0.000000 0.000000 0.000000 0.050634 0.000000 0.000000
# 5 0.000000 0.000000 0.000000 0.000000 0.057682 0.000000
# 6 0.000000 0.000000 0.000000 0.000000 0.000000 0.024133
#
#
# Mechanical properties :
#
#
# Convention : Reuss Voigt Hill
#
# Bulk Modulus (GPa) = 49.09170 59.85374 54.47272
# Shear Modulus (GPa) = 24.54745 28.64580 26.59663
#
# Velocity S-wave (km/s) = 3.54919 3.83404 3.69436
# Velocity P-wave (km/s) = 6.47978 7.09326 6.79345
#
# Compressibility (1/GPa) = 0.02037004
#
# Stress axis : x y z
#
# Youngs Moduli (GPa) = 78.13736 75.68644 60.98074
#
# Poissons Ratio (x) = 0.56651 0.10454
# Poissons Ratio (y) = 0.58486 0.11100
# Poissons Ratio (z) = 0.13395 0.13777
#
# Static dielectric constant tensor:
#      x y z
#    x 3.592020 0.000000 0.000000 
#    y 0.000000 4.028270 0.000000 
#    z 0.000000 0.000000 3.215200 
# 
# 
# High freq. dielectric constant tensor:
#      x y z
#    x 1.739600 0.000000 0.000000 
#    y 0.000000 1.783430 0.000000 
#    z 0.000000 0.000000 1.731410 
# 
# From -- ./inp_files/13505.got.cif
#   From: 2010.03.12/outbox.cif.g09.slc.cpg/sg23_7_cif.got.tgz:13505.got - 2010.04.14 02:50:06.
