data_PCOD8163118
_publ_section_title
;
Structure prediction by ZEFSAII (Michael W. Deem and Ramdas Pophale) SiO2 
 PCOD8163118
Probable space group: F 2 2 2
;
_chemical_formula_sum "Si O2"
_cell_formula_units_Z 108
_cell_length_a 13.151159
_cell_length_b 12.848723
_cell_length_c 28.979740
_cell_angle_alpha 90.000000
_cell_angle_beta 90.000000
_cell_angle_gamma 90.000000
_cell_volume 4896.868929
_symmetry_space_group_name_H-M "F 2 2 2"
_symmetry_group_IT_number 22
_symmetry_cell_setting 'orthorhombic'
loop_
_space_group_symop_operation_xyz
x,y,z
-x,-y,z
x,-y,-z
-x,y,-z
x,1/2+y,1/2+z
-x,1/2-y,1/2+z
x,1/2-y,1/2-z
-x,1/2+y,1/2-z
1/2+x,y,1/2+z
1/2-x,-y,1/2+z
1/2+x,-y,1/2-z
1/2-x,y,1/2-z
1/2+x,1/2+y,z
1/2-x,1/2-y,z
1/2+x,1/2-y,-z
1/2-x,1/2+y,-z
loop_
_atom_site_type_symbol
_atom_site_label
_atom_site_fract_x
_atom_site_fract_y
_atom_site_fract_z
Si Si1 0.084739 0.886632 0.416070
Si Si2 0.500000 0.000000 0.000000
Si Si3 0.107617 0.742691 0.602441
Si Si4 0.401339 0.058875 0.334187
Si Si5 0.882612 0.384152 0.510305
Si Si6 0.750000 0.250000 0.444770
Si Si7 0.822573 0.060761 0.642689
Si Si8 0.367589 0.637656 0.740724
O O1 0.192990 0.830571 0.412010
O O2 0.996078 0.806727 0.404513
O O3 0.096945 0.984556 0.381928
O O4 0.071211 0.928265 0.468245
O O5 0.093630 0.677786 0.649135
O O6 0.135356 0.661257 0.561688
O O7 0.192495 0.833394 0.611427
O O8 0.290616 0.012079 0.349710
O O9 0.411062 0.056759 0.278678
O O10 0.500000 0.000000 0.355593
O O11 0.836451 0.500000 0.500000
O O12 0.834378 0.303879 0.475588
O O13 0.000000 0.388533 0.500000
O O14 0.881772 0.091828 0.689610
O O15 0.420898 0.750000 0.750000
O O16 0.250000 0.652454 0.750000
#
# Coordination Sequence:
#
# PCOD8163118 Si02
#       8
#    16   4  16  16  16   8  16  16
#     4  12  27  43  68  99 136 179 227 286 340 409
#     4  12  24  48  64  96 128 172 240 280 328 392
#     4  12  24  44  66 101 132 178 228 282 338 407
#     4  11  26  40  70 102 139 175 222 279 338 414
#     4  11  27  46  66  94 135 178 226 280 341 410
#     4  12  28  44  64  96 135 181 220 286 346 400
#     4  11  24  44  73 100 135 179 228 284 337 408
#     4   9  18  42  67  99 132 173 223 275 337 400
#
# _framework density 22.054908999999999
#
# number of rings (size 3 to 8) (size 9 to 14) (size 15 to 20)
#    0.000    0.889    4.444    1.333    9.333    1.185 
#    0.000    0.000    0.000    0.000    0.000    0.000 
#    0.000    0.000    0.000    0.000    0.000    0.000 
#
# Total GULP energy -334633.176685 kJ/mol
# GULP energy per Si atom -12393.821359 kJ/mol
# Density = 2.200471 g / cm^3
# Si number density = 22.054909 Si / 1000 Ang^3
#
#
#
# Elastic Constant Matrix: (Units=GPa)
#
#
# Indices 1 2 3 4 5 6 
#
# 1 76.0568 31.9749 20.0828 0.0000 0.0000 0.0000
# 2 31.9749 109.0640 46.5981 0.0000 0.0000 0.0000
# 3 20.0828 46.5981 123.0416 0.0000 0.0000 0.0000
# 4 0.0000 0.0000 0.0000 -12.1019 0.0000 0.0000
# 5 0.0000 0.0000 0.0000 0.0000 1.4015 0.0000
# 6 0.0000 0.0000 0.0000 0.0000 0.0000 27.7754
#
#
#
# Elastic Compliance Matrix: (Units=1/GPa)
#
#
# Indices 1 2 3 4 5 6 
#
# 1 0.015087 -0.004022 -0.000939 0.000000 0.000000 0.000000
# 2 -0.004022 0.012011 -0.003892 0.000000 0.000000 0.000000
# 3 -0.000939 -0.003892 0.009755 0.000000 0.000000 0.000000
# 4 0.000000 0.000000 0.000000 -0.082632 0.000000 0.000000
# 5 0.000000 0.000000 0.000000 0.000000 0.713544 0.000000
# 6 0.000000 0.000000 0.000000 0.000000 0.000000 0.036003
#
#
# Mechanical properties :
#
#
# Convention : Reuss Voigt Hill
#
# Bulk Modulus (GPa) = 52.23104 56.16380 54.19742
# Shear Modulus (GPa) = 6.86949 17.38211 12.12580
#
# Velocity S-wave (km/s) = 1.76677 2.81041 2.34733
# Velocity P-wave (km/s) = 5.28163 6.00433 5.65454
#
# Compressibility (1/GPa) = 0.01914570
#
# Stress axis : x y z
#
# Youngs Moduli (GPa) = 66.28276 83.25678 102.51405
#
# Poissons Ratio (x) = 0.33484 0.09630
# Poissons Ratio (y) = 0.26657 0.39902
# Poissons Ratio (z) = 0.06226 0.32407
#
# Static dielectric constant tensor:
#      x y z
#    x 3.966200 0.000000 0.000000 
#    y 0.000000 5.104250 0.000000 
#    z 0.000000 0.000000 4.186280 
# 
# 
# High freq. dielectric constant tensor:
#      x y z
#    x 1.867540 0.000000 0.000000 
#    y 0.000000 1.868610 0.000000 
#    z 0.000000 0.000000 1.866990 
# 
# From -- ./inp_files/56504.got.cif
#   From: 2010.03.12/outbox.cif.g09.slc.cpg/sg22_29_cif.got.tgz:56504.got - 2010.04.14 02:24:06.
