data_PCOD8163665
_publ_section_title
;
Structure prediction by ZEFSAII (Michael W. Deem and Ramdas Pophale) SiO2 
 PCOD8163665
Probable space group: I 2 2 2
;
_chemical_formula_sum "Si O2"
_cell_formula_units_Z 44
_cell_length_a 32.322089
_cell_length_b 7.905385
_cell_length_c 7.836636
_cell_angle_alpha 90.000000
_cell_angle_beta 90.000000
_cell_angle_gamma 90.000000
_cell_volume 2002.405927
_symmetry_space_group_name_H-M "I 2 2 2"
_symmetry_group_IT_number 23
_symmetry_cell_setting 'orthorhombic'
loop_
_space_group_symop_operation_xyz
x,y,z
-x,-y,z
x,-y,-z
-x,y,-z
1/2+x,1/2+y,1/2+z
1/2-x,1/2-y,1/2+z
1/2+x,1/2-y,1/2-z
1/2-x,1/2+y,1/2-z
loop_
_atom_site_type_symbol
_atom_site_label
_atom_site_fract_x
_atom_site_fract_y
_atom_site_fract_z
Si Si1 0.296503 0.243166 0.603093
Si Si2 0.000000 0.000000 0.760732
Si Si3 0.430071 0.500000 0.500000
Si Si4 0.285125 0.614698 0.747150
Si Si5 0.000000 0.735687 0.500000
Si Si6 0.929427 0.500000 0.500000
Si Si7 0.616655 0.245991 0.256854
Si Si8 0.152457 0.000000 0.500000
O O1 0.290084 0.430794 0.669546
O O2 0.293907 0.243785 0.396958
O O3 0.260779 0.124915 0.677342
O O4 0.340397 0.172080 0.668150
O O5 0.038523 0.080200 0.862251
O O6 0.980331 0.150384 0.649077
O O7 0.405038 0.659034 0.418841
O O8 0.318895 0.634503 0.897369
O O9 0.961334 0.634980 0.581215
O O10 0.904382 0.413841 0.658222
O O11 0.622811 0.393966 0.120612
#
# Coordination Sequence:
#
# PCOD8163665 Si02
#       8
#     8   4   4   8   4   4   8   4
#     4  10  21  37  61  88 127 168 221 275 329 392
#     4  10  22  42  78  92 122 186 228 260 324 446
#     4  11  22  40  68  99 128 170 232 271 330 420
#     4  10  20  38  60  88 121 173 223 272 317 403
#     4  10  22  46  70  98 126 182 220 264 340 426
#     4  11  24  40  66  97 142 162 216 289 346 400
#     4  11  23  40  63  97 135 171 222 285 345 391
#     4  10  22  38  64  87 122 180 234 263 320 416
#
# _framework density 21.973566999999999
#
# number of rings (size 3 to 8) (size 9 to 14) (size 15 to 20)
#    0.000    1.636    1.818    4.364    2.545    2.909 
#    0.000    0.909    0.000    0.000    0.000    0.000 
#    0.000    0.000    0.000    0.000    0.000    0.000 
#
# Total GULP energy -272560.105782 kJ/mol
# GULP energy per Si atom -12389.095717 kJ/mol
# Density = 2.192355 g / cm^3
# Si number density = 21.973567 Si / 1000 Ang^3
#
#
#
# Elastic Constant Matrix: (Units=GPa)
#
#
# Indices 1 2 3 4 5 6 
#
# 1 145.9453 55.1242 67.5055 0.0000 0.0000 0.0000
# 2 55.1242 74.6823 47.6539 0.0000 0.0000 0.0000
# 3 67.5055 47.6539 133.9429 0.0000 0.0000 0.0000
# 4 0.0000 0.0000 0.0000 32.5089 0.0000 0.0000
# 5 0.0000 0.0000 0.0000 0.0000 33.3449 0.0000
# 6 0.0000 0.0000 0.0000 0.0000 0.0000 38.4872
#
#
#
# Elastic Compliance Matrix: (Units=1/GPa)
#
#
# Indices 1 2 3 4 5 6 
#
# 1 0.010509 -0.005663 -0.003282 0.000000 0.000000 0.000000
# 2 -0.005663 0.020374 -0.004395 0.000000 0.000000 0.000000
# 3 -0.003282 -0.004395 0.010683 0.000000 0.000000 0.000000
# 4 0.000000 0.000000 0.000000 0.030761 0.000000 0.000000
# 5 0.000000 0.000000 0.000000 0.000000 0.029990 0.000000
# 6 0.000000 0.000000 0.000000 0.000000 0.000000 0.025983
#
#
# Mechanical properties :
#
#
# Convention : Reuss Voigt Hill
#
# Bulk Modulus (GPa) = 67.16813 77.23754 72.20284
# Shear Modulus (GPa) = 31.26191 33.15401 32.20796
#
# Velocity S-wave (km/s) = 3.77597 3.88856 3.83268
# Velocity P-wave (km/s) = 7.04590 7.44229 7.24680
#
# Compressibility (1/GPa) = 0.01488801
#
# Stress axis : x y z
#
# Youngs Moduli (GPa) = 95.16100 49.08231 93.60442
#
# Poissons Ratio (x) = 0.27793 0.30716
# Poissons Ratio (y) = 0.53886 0.41137
# Poissons Ratio (z) = 0.31227 0.21570
#
# Static dielectric constant tensor:
#      x y z
#    x 4.136630 0.000000 0.000000 
#    y 0.000000 3.725910 0.000000 
#    z 0.000000 0.000000 4.458040 
# 
# 
# High freq. dielectric constant tensor:
#      x y z
#    x 1.877920 0.000000 0.000000 
#    y 0.000000 1.839560 0.000000 
#    z 0.000000 0.000000 1.873310 
# 
# From -- ./inp_files/13310.got.cif
#   From: 2010.03.12/outbox.cif.g09.slc.cpg/sg23_7_cif.got.tgz:13310.got - 2010.04.14 02:50:06.
