data_PCOD8163598
_publ_section_title
;
Structure prediction by ZEFSAII (Michael W. Deem and Ramdas Pophale) SiO2 
 PCOD8163598
Probable space group: I 2 2 2
;
_chemical_formula_sum "Si O2"
_cell_formula_units_Z 56
_cell_length_a 18.182776
_cell_length_b 9.082929
_cell_length_c 18.955363
_cell_angle_alpha 90.000000
_cell_angle_beta 90.000000
_cell_angle_gamma 90.000000
_cell_volume 3130.532477
_symmetry_space_group_name_H-M "I 2 2 2"
_symmetry_group_IT_number 23
_symmetry_cell_setting 'orthorhombic'
loop_
_space_group_symop_operation_xyz
x,y,z
-x,-y,z
x,-y,-z
-x,y,-z
1/2+x,1/2+y,1/2+z
1/2-x,1/2-y,1/2+z
1/2+x,1/2-y,1/2-z
1/2-x,1/2+y,1/2-z
loop_
_atom_site_type_symbol
_atom_site_label
_atom_site_fract_x
_atom_site_fract_y
_atom_site_fract_z
Si Si1 0.716493 0.635291 0.342101
Si Si2 0.980043 0.159136 0.695816
Si Si3 0.144488 0.356124 0.245130
Si Si4 0.267153 0.698038 0.362161
Si Si5 0.928979 0.844054 0.463211
Si Si6 0.627174 0.809944 0.232680
Si Si7 0.780881 0.329804 0.513017
O O1 0.793598 0.668313 0.304131
O O2 0.698703 0.461923 0.344892
O O3 0.649844 0.716843 0.302213
O O4 0.725623 0.696186 0.421591
O O5 0.920701 0.241011 0.743728
O O6 0.946465 0.134464 0.618705
O O7 0.053107 0.256507 0.695983
O O8 0.000000 0.000000 0.728627
O O9 0.179501 0.322492 0.168859
O O10 0.115056 0.521746 0.244579
O O11 0.187104 0.708010 0.327889
O O12 0.259674 0.735237 0.444601
O O13 0.858842 0.742963 0.472554
O O14 0.000000 0.768617 0.500000
O O15 0.913245 0.000000 0.500000
O O16 0.798256 0.500000 0.500000
#
# Coordination Sequence:
#
# PCOD8163598 Si02
#       7
#     8   8   8   8   8   8   8
#     4   9  18  36  55  79 109 145 187 230 276 330
#     4  12  22  36  55  76 114 151 185 227 274 329
#     4  10  20  36  55  80 108 145 191 233 273 328
#     4   9  19  34  56  80 110 143 186 230 279 328
#     4  11  22  36  48  78 117 151 183 216 272 334
#     4  10  21  35  56  79 109 147 190 233 276 325
#     4  10  20  36  57  82 111 148 184 227 276 332
#
# _framework density 17.888328999999999
#
# number of rings (size 3 to 8) (size 9 to 14) (size 15 to 20)
#    0.000    1.857    2.857    2.143    0.000    2.571 
#    2.571    0.000    0.000    0.857    0.000    6.000 
#    0.000    0.000    0.000    0.000    0.000    0.000 
#
# Total GULP energy -347201.219867 kJ/mol
# GULP energy per Si atom -12400.043567 kJ/mol
# Density = 1.784761 g / cm^3
# Si number density = 17.888329 Si / 1000 Ang^3
#
#
#
# Elastic Constant Matrix: (Units=GPa)
#
#
# Indices 1 2 3 4 5 6 
#
# 1 54.7028 38.0372 31.7980 0.0000 0.0000 0.0000
# 2 38.0372 85.4212 38.6537 0.0000 0.0000 0.0000
# 3 31.7980 38.6537 116.5745 0.0000 0.0000 0.0000
# 4 0.0000 0.0000 0.0000 19.6657 0.0000 0.0000
# 5 0.0000 0.0000 0.0000 0.0000 20.0653 0.0000
# 6 0.0000 0.0000 0.0000 0.0000 0.0000 35.0940
#
#
#
# Elastic Compliance Matrix: (Units=1/GPa)
#
#
# Indices 1 2 3 4 5 6 
#
# 1 0.028076 -0.010632 -0.004133 0.000000 0.000000 0.000000
# 2 -0.010632 0.017799 -0.003002 0.000000 0.000000 0.000000
# 3 -0.004133 -0.003002 0.010701 0.000000 0.000000 0.000000
# 4 0.000000 0.000000 0.000000 0.050850 0.000000 0.000000
# 5 0.000000 0.000000 0.000000 0.000000 0.049837 0.000000
# 6 0.000000 0.000000 0.000000 0.000000 0.000000 0.028495
#
#
# Mechanical properties :
#
#
# Convention : Reuss Voigt Hill
#
# Bulk Modulus (GPa) = 47.52199 52.63069 50.07634
# Shear Modulus (GPa) = 21.90054 24.84565 23.37309
#
# Velocity S-wave (km/s) = 3.50278 3.73088 3.61863
# Velocity P-wave (km/s) = 6.55614 6.93145 6.74640
#
# Compressibility (1/GPa) = 0.02104289
#
# Stress axis : x y z
#
# Youngs Moduli (GPa) = 35.61811 56.18230 93.44996
#
# Poissons Ratio (x) = 0.59731 0.38622
# Poissons Ratio (y) = 0.37868 0.28053
# Poissons Ratio (z) = 0.14721 0.16865
#
# Static dielectric constant tensor:
#      x y z
#    x 3.135910 0.000000 0.000000 
#    y 0.000000 3.431500 0.000000 
#    z 0.000000 0.000000 3.416180 
# 
# 
# High freq. dielectric constant tensor:
#      x y z
#    x 1.675200 0.000000 0.000000 
#    y 0.000000 1.697570 0.000000 
#    z 0.000000 0.000000 1.688970 
# 
# From -- ./inp_files/23962.got.cif
#   From: 2010.03.12/outbox.cif.g09.slc.cpg/sg23_12_cif.got.tgz:23962.got - 2010.04.14 02:50:06.
