data_PCOD8163204
_publ_section_title
;
Structure prediction by ZEFSAII (Michael W. Deem and Ramdas Pophale) SiO2 
 PCOD8163204
Probable space group: I 2 2 2
;
_chemical_formula_sum "Si O2"
_cell_formula_units_Z 40
_cell_length_a 29.405891
_cell_length_b 5.147720
_cell_length_c 12.869008
_cell_angle_alpha 90.000000
_cell_angle_beta 90.000000
_cell_angle_gamma 90.000000
_cell_volume 1948.024121
_symmetry_space_group_name_H-M "I 2 2 2"
_symmetry_group_IT_number 23
_symmetry_cell_setting 'orthorhombic'
loop_
_space_group_symop_operation_xyz
x,y,z
-x,-y,z
x,-y,-z
-x,y,-z
1/2+x,1/2+y,1/2+z
1/2-x,1/2-y,1/2+z
1/2+x,1/2-y,1/2-z
1/2-x,1/2+y,1/2-z
loop_
_atom_site_type_symbol
_atom_site_label
_atom_site_fract_x
_atom_site_fract_y
_atom_site_fract_z
Si Si1 0.758489 0.050042 0.885509
Si Si2 0.449103 0.747422 0.454250
Si Si3 0.297970 0.443205 0.828393
Si Si4 0.030252 0.750771 0.719033
Si Si5 0.611034 0.739973 0.934332
O O1 0.723572 0.293499 0.876954
O O2 0.798126 0.061380 0.798194
O O3 0.731419 0.791583 0.866355
O O4 0.779897 0.000000 0.000000
O O5 0.422453 0.500000 0.500000
O O6 0.500000 0.750161 0.500000
O O7 0.447671 0.718618 0.331527
O O8 0.423415 0.000000 0.500000
O O9 0.348170 0.391325 0.869750
O O10 0.070437 0.683874 0.640908
O O11 0.000000 0.500000 0.719302
O O12 0.000000 0.000000 0.688065
O O13 0.591747 0.500000 0.000000
O O14 0.624926 0.000000 0.000000
#
# Coordination Sequence:
#
# PCOD8163204 Si02
#       5
#     8   8   8   8   8
#     4  10  19  35  64  92 120 152 193 239 284 352
#     4  10  16  32  58  83 103 135 181 238 282 358
#     4  10  21  37  60  90 118 158 196 231 292 360
#     4  12  23  38  61  86 114 153 208 253 292 355
#     4  12  26  42  59  83 121 159 202 250 300 354
#
# _framework density 20.533626999999999
#
# number of rings (size 3 to 8) (size 9 to 14) (size 15 to 20)
#    0.000    1.200    4.000    4.800    0.000    2.400 
#    0.000    1.000    0.000    4.800    0.000    0.000 
#    0.000    0.000    0.000    0.000    0.000    0.000 
#
# Total GULP energy -247798.876774 kJ/mol
# GULP energy per Si atom -12389.943839 kJ/mol
# Density = 2.048689 g / cm^3
# Si number density = 20.533627 Si / 1000 Ang^3
#
#
#
# Elastic Constant Matrix: (Units=GPa)
#
#
# Indices 1 2 3 4 5 6 
#
# 1 43.4153 24.5989 38.4365 0.0000 0.0000 0.0000
# 2 24.5989 191.4505 33.8699 0.0000 0.0000 0.0000
# 3 38.4365 33.8699 171.4933 0.0000 0.0000 0.0000
# 4 0.0000 0.0000 0.0000 44.7423 0.0000 0.0000
# 5 0.0000 0.0000 0.0000 0.0000 22.7910 0.0000
# 6 0.0000 0.0000 0.0000 0.0000 0.0000 38.3096
#
#
#
# Elastic Compliance Matrix: (Units=1/GPa)
#
#
# Indices 1 2 3 4 5 6 
#
# 1 0.030089 -0.002770 -0.006197 0.000000 0.000000 0.000000
# 2 -0.002770 0.005667 -0.000499 0.000000 0.000000 0.000000
# 3 -0.006197 -0.000499 0.007318 0.000000 0.000000 0.000000
# 4 0.000000 0.000000 0.000000 0.022350 0.000000 0.000000
# 5 0.000000 0.000000 0.000000 0.000000 0.043877 0.000000
# 6 0.000000 0.000000 0.000000 0.000000 0.000000 0.026103
#
#
# Mechanical properties :
#
#
# Convention : Reuss Voigt Hill
#
# Bulk Modulus (GPa) = 41.41716 66.68551 54.05133
# Shear Modulus (GPa) = 30.79141 41.79884 36.29512
#
# Velocity S-wave (km/s) = 3.87662 4.51669 4.20884
# Velocity P-wave (km/s) = 6.34443 7.72964 7.07104
#
# Compressibility (1/GPa) = 0.02414458
#
# Stress axis : x y z
#
# Youngs Moduli (GPa) = 33.23505 176.44919 136.64099
#
# Poissons Ratio (x) = 0.48872 0.84672
# Poissons Ratio (y) = 0.09205 0.06812
# Poissons Ratio (z) = 0.20595 0.08796
#
# Static dielectric constant tensor:
#      x y z
#    x 3.272590 0.000000 0.000000 
#    y 0.000000 3.834040 0.000000 
#    z 0.000000 0.000000 7.038240 
# 
# 
# High freq. dielectric constant tensor:
#      x y z
#    x 1.749170 0.000000 0.000000 
#    y 0.000000 1.839460 0.000000 
#    z 0.000000 0.000000 1.821460 
# 
# From -- ./inp_files/18494.got.cif
#   From: 2010.03.12/outbox.cif.g09.slc.cpg/sg23_10_cif.got.tgz:18494.got - 2010.04.14 02:50:06.
