data_PCOD8163664
_publ_section_title
;
Structure prediction by ZEFSAII (Michael W. Deem and Ramdas Pophale) SiO2 
 PCOD8163664
Probable space group: I 2 2 2
;
_chemical_formula_sum "Si O2"
_cell_formula_units_Z 34
_cell_length_a 5.021348
_cell_length_b 10.673771
_cell_length_c 30.291089
_cell_angle_alpha 90.000000
_cell_angle_beta 90.000000
_cell_angle_gamma 90.000000
_cell_volume 1623.502975
_symmetry_space_group_name_H-M "I 2 2 2"
_symmetry_group_IT_number 23
_symmetry_cell_setting 'orthorhombic'
loop_
_space_group_symop_operation_xyz
x,y,z
-x,-y,z
x,-y,-z
-x,y,-z
1/2+x,1/2+y,1/2+z
1/2-x,1/2-y,1/2+z
1/2+x,1/2-y,1/2-z
1/2-x,1/2+y,1/2-z
loop_
_atom_site_type_symbol
_atom_site_label
_atom_site_fract_x
_atom_site_fract_y
_atom_site_fract_z
Si Si1 0.732000 0.080285 0.605908
Si Si2 0.397577 0.133516 0.209861
Si Si3 0.500000 0.500000 0.500000
Si Si4 0.109817 0.286626 0.807202
Si Si5 0.740645 0.259553 0.527567
O O1 0.587104 0.122865 0.651136
O O2 0.786007 0.201808 0.575847
O O3 0.500000 0.000000 0.582097
O O4 0.000000 0.000000 0.613676
O O5 0.102510 0.171249 0.193123
O O6 0.423202 0.132524 0.262872
O O7 0.592035 0.235678 0.189313
O O8 0.500000 0.000000 0.192206
O O9 0.682261 0.410006 0.531273
O O10 0.500000 0.195377 0.500000
O O11 0.000000 0.231246 0.500000
#
# Coordination Sequence:
#
# PCOD8163664 Si02
#       5
#     8   8   2   8   8
#     4  12  25  41  64  95 131 167 211 264 319 380
#     4  10  20  38  60  87 121 168 217 265 314 378
#     4   8  22  44  68  88 126 164 206 246 326 372
#     4  10  22  38  59  89 126 165 215 260 324 374
#     4  10  22  42  66  94 125 166 208 252 321 376
#
# _framework density 20.942368999999999
#
# number of rings (size 3 to 8) (size 9 to 14) (size 15 to 20)
#    0.706    0.941    0.000    4.588    0.000    6.588 
#    4.235    0.000    0.000    0.000    0.000    0.000 
#    0.000    0.000    0.000    0.000    0.000    0.000 
#
# Total GULP energy -210685.896446 kJ/mol
# GULP energy per Si atom -12393.288026 kJ/mol
# Density = 2.089470 g / cm^3
# Si number density = 20.942369 Si / 1000 Ang^3
#
#
#
# Elastic Constant Matrix: (Units=GPa)
#
#
# Indices 1 2 3 4 5 6 
#
# 1 131.2071 29.4989 40.0878 0.0000 0.0000 0.0000
# 2 29.4989 106.4626 52.4042 0.0000 0.0000 0.0000
# 3 40.0878 52.4042 90.3672 0.0000 0.0000 0.0000
# 4 0.0000 0.0000 0.0000 23.5376 0.0000 0.0000
# 5 0.0000 0.0000 0.0000 0.0000 26.8601 0.0000
# 6 0.0000 0.0000 0.0000 0.0000 0.0000 -84.5311
#
#
#
# Elastic Compliance Matrix: (Units=1/GPa)
#
#
# Indices 1 2 3 4 5 6 
#
# 1 0.008857 -0.000728 -0.003507 0.000000 0.000000 0.000000
# 2 -0.000728 0.013205 -0.007335 0.000000 0.000000 0.000000
# 3 -0.003507 -0.007335 0.016875 0.000000 0.000000 0.000000
# 4 0.000000 0.000000 0.000000 0.042485 0.000000 0.000000
# 5 0.000000 0.000000 0.000000 0.000000 0.037230 0.000000
# 6 0.000000 0.000000 0.000000 0.000000 0.000000 -0.011830
#
#
# Mechanical properties :
#
#
# Convention : Reuss Voigt Hill
#
# Bulk Modulus (GPa) = 63.29959 63.55765 63.42862
# Shear Modulus (GPa) = 36.97497 6.90973 21.94235
#
# Velocity S-wave (km/s) = 4.20641 1.81840 3.24041
# Velocity P-wave (km/s) = 7.34051 5.90114 6.65983
#
# Compressibility (1/GPa) = 0.01579789
#
# Stress axis : x y z
#
# Youngs Moduli (GPa) = 112.90997 75.72866 59.25904
#
# Poissons Ratio (x) = 0.05512 0.20781
# Poissons Ratio (y) = 0.08218 0.43465
# Poissons Ratio (z) = 0.39595 0.55545
#
# Static dielectric constant tensor:
#      x y z
#    x 3.851710 0.000000 0.000000 
#    y 0.000000 3.611270 0.000000 
#    z 0.000000 0.000000 4.153720 
# 
# 
# High freq. dielectric constant tensor:
#      x y z
#    x 1.838450 0.000000 0.000000 
#    y 0.000000 1.817700 0.000000 
#    z 0.000000 0.000000 1.792380 
# 
# From -- ./inp_files/27532.got.cif
#   From: 2010.03.12/outbox.cif.g09.slc.cpg/sg23_14_cif.got.tgz:27532.got - 2010.04.14 02:50:06.
