data_PCOD8163030
_publ_section_title
;
Structure prediction by ZEFSAII (Michael W. Deem and Ramdas Pophale) SiO2 
 PCOD8163030
Probable space group: F 2 2 2
;
_chemical_formula_sum "Si O2"
_cell_formula_units_Z 116
_cell_length_a 21.919383
_cell_length_b 9.025269
_cell_length_c 27.261533
_cell_angle_alpha 90.000000
_cell_angle_beta 90.000000
_cell_angle_gamma 90.000000
_cell_volume 5393.103489
_symmetry_space_group_name_H-M "F 2 2 2"
_symmetry_group_IT_number 22
_symmetry_cell_setting 'orthorhombic'
loop_
_space_group_symop_operation_xyz
x,y,z
-x,-y,z
x,-y,-z
-x,y,-z
x,1/2+y,1/2+z
-x,1/2-y,1/2+z
x,1/2-y,1/2-z
-x,1/2+y,1/2-z
1/2+x,y,1/2+z
1/2-x,-y,1/2+z
1/2+x,-y,1/2-z
1/2-x,y,1/2-z
1/2+x,1/2+y,z
1/2-x,1/2-y,z
1/2+x,1/2-y,-z
1/2-x,1/2+y,-z
loop_
_atom_site_type_symbol
_atom_site_label
_atom_site_fract_x
_atom_site_fract_y
_atom_site_fract_z
Si Si1 0.671729 0.169916 0.666832
Si Si2 0.750000 0.750000 0.250000
Si Si3 0.257417 0.914060 0.571205
Si Si4 0.068867 0.463794 0.646976
Si Si5 0.032746 0.805288 0.304889
Si Si6 0.416635 0.922134 0.849930
Si Si7 0.628125 0.062200 0.052896
Si Si8 0.124392 0.582883 0.454139
O O1 0.707516 0.148058 0.716924
O O2 0.719423 0.115022 0.626299
O O3 0.648161 0.338030 0.655945
O O4 0.612519 0.073411 0.675487
O O5 0.250000 0.750000 0.545958
O O6 0.195408 0.006527 0.567269
O O7 0.307519 0.016138 0.545671
O O8 0.081504 0.302737 0.669406
O O9 0.083457 0.475564 0.589984
O O10 0.000000 0.500000 0.660151
O O11 0.015782 0.750000 0.250000
O O12 0.973555 0.809384 0.341880
O O13 0.069536 0.960845 0.305808
O O14 0.416984 0.002241 0.903807
O O15 0.626148 0.239486 0.046628
O O16 0.607141 0.000000 0.000000
O O17 0.092160 0.500000 0.500000
#
# Coordination Sequence:
#
# PCOD8163030 Si02
#       8
#    16   4  16  16  16  16  16  16
#     4  11  24  40  70  95 146 180 235 297 363 432
#     4  12  24  40  64 106 132 192 228 284 376 432
#     4  11  21  42  62  96 135 185 238 294 346 426
#     4  11  24  44  68  97 137 178 230 297 353 424
#     4  11  26  44  71 104 134 181 240 293 367 434
#     4  11  24  45  70 105 142 175 240 303 350 445
#     4  12  24  42  70  98 140 190 235 295 366 425
#     4  11  25  42  65  98 135 186 237 290 355 431
#
# _framework density 21.508952000000001
#
# number of rings (size 3 to 8) (size 9 to 14) (size 15 to 20)
#    0.000    0.828    4.828    1.655    6.759    0.276 
#    0.000    1.379    0.000    0.828    0.000    0.000 
#    0.000    0.000    0.000    0.000    0.000    0.000 
#
# Total GULP energy -359294.384456 kJ/mol
# GULP energy per Si atom -12389.461533 kJ/mol
# Density = 2.146000 g / cm^3
# Si number density = 21.508952 Si / 1000 Ang^3
#
#
#
# Elastic Constant Matrix: (Units=GPa)
#
#
# Indices 1 2 3 4 5 6 
#
# 1 92.2742 47.2713 53.8312 0.0000 0.0000 0.0000
# 2 47.2713 128.4853 51.9858 0.0000 0.0000 0.0000
# 3 53.8312 51.9858 152.6849 0.0000 0.0000 0.0000
# 4 0.0000 0.0000 0.0000 35.7015 0.0000 0.0000
# 5 0.0000 0.0000 0.0000 0.0000 60.9254 0.0000
# 6 0.0000 0.0000 0.0000 0.0000 0.0000 22.5430
#
#
#
# Elastic Compliance Matrix: (Units=1/GPa)
#
#
# Indices 1 2 3 4 5 6 
#
# 1 0.015213 -0.003974 -0.004010 0.000000 0.000000 0.000000
# 2 -0.003974 0.010065 -0.002026 0.000000 0.000000 0.000000
# 3 -0.004010 -0.002026 0.008653 0.000000 0.000000 0.000000
# 4 0.000000 0.000000 0.000000 0.028010 0.000000 0.000000
# 5 0.000000 0.000000 0.000000 0.000000 0.016414 0.000000
# 6 0.000000 0.000000 0.000000 0.000000 0.000000 0.044360
#
#
# Mechanical properties :
#
#
# Convention : Reuss Voigt Hill
#
# Bulk Modulus (GPa) = 71.89066 75.51345 73.70205
# Shear Modulus (GPa) = 33.92793 38.52439 36.22616
#
# Velocity S-wave (km/s) = 3.97594 4.23671 4.10840
# Velocity P-wave (km/s) = 7.38740 7.68877 7.53959
#
# Compressibility (1/GPa) = 0.01391001
#
# Stress axis : x y z
#
# Youngs Moduli (GPa) = 65.73388 99.35627 115.56683
#
# Poissons Ratio (x) = 0.39488 0.46346
# Poissons Ratio (y) = 0.26125 0.23409
# Poissons Ratio (z) = 0.26361 0.20126
#
# Static dielectric constant tensor:
#      x y z
#    x 3.923210 0.000000 0.000000 
#    y 0.000000 4.136780 0.000000 
#    z 0.000000 0.000000 4.003740 
# 
# 
# High freq. dielectric constant tensor:
#      x y z
#    x 1.838130 0.000000 0.000000 
#    y 0.000000 1.858760 0.000000 
#    z 0.000000 0.000000 1.846690 
# 
# From -- ./inp_files/54197.got.cif
#   From: 2010.03.12/outbox.cif.g09.slc.cpg/sg22_28_cif.got.tgz:54197.got - 2010.04.14 02:24:06.
