data_PCOD8163973
_publ_section_title
;
Structure prediction by ZEFSAII (Michael W. Deem and Ramdas Pophale) SiO2 
 PCOD8163973
Probable space group: I 2 2 2
;
_chemical_formula_sum "Si O2"
_cell_formula_units_Z 38
_cell_length_a 8.937676
_cell_length_b 15.765736
_cell_length_c 13.477876
_cell_angle_alpha 90.000000
_cell_angle_beta 90.000000
_cell_angle_gamma 90.000000
_cell_volume 1899.154572
_symmetry_space_group_name_H-M "I 2 2 2"
_symmetry_group_IT_number 23
_symmetry_cell_setting 'orthorhombic'
loop_
_space_group_symop_operation_xyz
x,y,z
-x,-y,z
x,-y,-z
-x,y,-z
1/2+x,1/2+y,1/2+z
1/2-x,1/2-y,1/2+z
1/2+x,1/2-y,1/2-z
1/2-x,1/2+y,1/2-z
loop_
_atom_site_type_symbol
_atom_site_label
_atom_site_fract_x
_atom_site_fract_y
_atom_site_fract_z
Si Si1 0.329004 0.781818 0.483726
Si Si2 0.739041 0.389098 0.390106
Si Si3 0.874655 0.350800 0.782367
Si Si4 0.000000 0.000000 0.000000
Si Si5 0.000000 0.500000 0.668053
Si Si6 0.206050 0.702366 0.200193
O O1 0.500000 0.753589 0.500000
O O2 0.238988 0.696902 0.453246
O O3 0.318493 0.852767 0.397001
O O4 0.261447 0.821412 0.585059
O O5 0.599940 0.442947 0.427970
O O6 0.710042 0.362913 0.274575
O O7 0.893127 0.442480 0.400543
O O8 0.756551 0.299333 0.716060
O O9 0.891474 0.445127 0.739606
O O10 0.030615 0.300548 0.776109
#
# Coordination Sequence:
#
# PCOD8163973 Si02
#       6
#     8   8   8   2   4   8
#     4   9  17  36  61  81 106 154 198 223 272 356
#     4  10  22  37  56  86 115 149 190 236 290 338
#     4   9  19  35  57  82 116 151 190 235 287 338
#     4  12  24  38  60  80 114 156 188 232 292 354
#     4  10  22  37  53  92 124 142 182 258 298 314
#     4   9  19  37  56  82 112 149 193 231 276 345
#
# _framework density 20.008904000000001
#
# number of rings (size 3 to 8) (size 9 to 14) (size 15 to 20)
#    0.000    2.526    1.053    0.000    2.947    0.421 
#    3.789   16.316    0.000    0.000    0.000    7.368 
#    0.000    0.000    0.000    0.000    0.000    0.000 
#
# Total GULP energy -235512.863210 kJ/mol
# GULP energy per Si atom -12395.413853 kJ/mol
# Density = 1.996336 g / cm^3
# Si number density = 20.008904 Si / 1000 Ang^3
#
#
#
# Elastic Constant Matrix: (Units=GPa)
#
#
# Indices 1 2 3 4 5 6 
#
# 1 44.1332 27.4326 41.6362 0.0000 0.0000 0.0000
# 2 27.4326 68.0989 22.5676 0.0000 0.0000 0.0000
# 3 41.6362 22.5676 132.6625 0.0001 0.0000 0.0000
# 4 0.0000 0.0000 0.0001 19.7956 0.0000 0.0000
# 5 0.0000 0.0000 0.0000 0.0000 31.5823 0.0000
# 6 0.0000 0.0000 0.0000 0.0000 0.0000 36.9150
#
#
#
# Elastic Compliance Matrix: (Units=1/GPa)
#
#
# Indices 1 2 3 4 5 6 
#
# 1 0.040615 -0.012862 -0.010559 0.000000 0.000000 0.000000
# 2 -0.012862 0.019635 0.000697 0.000000 0.000000 0.000000
# 3 -0.010559 0.000697 0.010733 0.000000 0.000000 0.000000
# 4 0.000000 0.000000 0.000000 0.050516 0.000000 0.000000
# 5 0.000000 0.000000 0.000000 0.000000 0.031663 0.000000
# 6 0.000000 0.000000 0.000000 0.000000 0.000000 0.027089
#
#
# Mechanical properties :
#
#
# Convention : Reuss Voigt Hill
#
# Bulk Modulus (GPa) = 39.16268 47.57416 43.36842
# Shear Modulus (GPa) = 21.34811 27.87581 24.61196
#
# Velocity S-wave (km/s) = 3.26993 3.73657 3.51101
# Velocity P-wave (km/s) = 5.81994 6.51491 6.17721
#
# Compressibility (1/GPa) = 0.02553452
#
# Stress axis : x y z
#
# Youngs Moduli (GPa) = 24.62134 50.92968 93.16704
#
# Poissons Ratio (x) = 0.65506 0.98376
# Poissons Ratio (y) = 0.31668 -0.06490
# Poissons Ratio (z) = 0.25998 -0.03548
#
# Static dielectric constant tensor:
#      x y z
#    x 3.534200 0.000000 0.000000 
#    y 0.000000 3.544480 0.000000 
#    z 0.000000 0.000000 4.026030 
# 
# 
# High freq. dielectric constant tensor:
#      x y z
#    x 1.761190 0.000000 0.000000 
#    y 0.000000 1.760550 0.000000 
#    z 0.000000 0.000000 1.793790 
# 
# From -- ./inp_files/9792.got.cif
#   From: 2010.03.12/outbox.cif.g09.slc.cpg/sg23_5_cif.got.tgz:9792.got - 2010.04.14 02:50:06.
