data_PCOD8163785
_publ_section_title
;
Structure prediction by ZEFSAII (Michael W. Deem and Ramdas Pophale) SiO2 
 PCOD8163785
Probable space group: I 2 2 2
;
_chemical_formula_sum "Si O2"
_cell_formula_units_Z 48
_cell_length_a 13.283537
_cell_length_b 8.279167
_cell_length_c 21.178678
_cell_angle_alpha 90.000000
_cell_angle_beta 90.000000
_cell_angle_gamma 90.000000
_cell_volume 2329.159447
_symmetry_space_group_name_H-M "I 2 2 2"
_symmetry_group_IT_number 23
_symmetry_cell_setting 'orthorhombic'
loop_
_space_group_symop_operation_xyz
x,y,z
-x,-y,z
x,-y,-z
-x,y,-z
1/2+x,1/2+y,1/2+z
1/2-x,1/2-y,1/2+z
1/2+x,1/2-y,1/2-z
1/2-x,1/2+y,1/2-z
loop_
_atom_site_type_symbol
_atom_site_label
_atom_site_fract_x
_atom_site_fract_y
_atom_site_fract_z
Si Si1 0.417119 0.117197 0.179116
Si Si2 0.877859 0.181894 0.570379
Si Si3 0.225761 0.692508 0.174447
Si Si4 0.613332 0.691087 0.069229
Si Si5 0.172586 0.622869 0.780213
Si Si6 0.481538 0.311331 0.292342
O O1 0.342349 0.193912 0.125057
O O2 0.466827 0.265948 0.218574
O O3 0.500000 0.000000 0.146441
O O4 0.359187 0.008740 0.228648
O O5 0.803451 0.263862 0.622054
O O6 0.857095 0.255545 0.500443
O O7 0.994342 0.209242 0.585304
O O8 0.852935 0.992603 0.571874
O O9 0.229726 0.495099 0.170006
O O10 0.256379 0.748036 0.245598
O O11 0.112721 0.759696 0.163240
O O12 0.080266 0.712299 0.815175
O O13 0.500000 0.500000 0.299039
#
# Coordination Sequence:
#
# PCOD8163785 Si02
#       6
#     8   8   8   8   8   8
#     4   9  18  31  51  80 115 149 189 226 281 347
#     4   9  19  32  52  82 110 151 192 230 279 345
#     4  11  21  35  54  82 121 150 198 236 289 361
#     4   9  18  33  53  77 114 153 185 229 285 342
#     4  10  22  34  51  86 117 154 190 234 298 350
#     4  10  21  36  55  84 120 158 189 242 299 348
#
# _framework density 20.608291000000001
#
# number of rings (size 3 to 8) (size 9 to 14) (size 15 to 20)
#    0.000    2.333    0.000    5.500    9.333    0.000 
#    0.000    5.833    0.000    0.000    0.000    9.333 
#    0.000    0.000    0.000    0.000    0.000    0.000 
#
# Total GULP energy -297322.677824 kJ/mol
# GULP energy per Si atom -12388.444909 kJ/mol
# Density = 2.056139 g / cm^3
# Si number density = 20.608291 Si / 1000 Ang^3
#
#
#
# Elastic Constant Matrix: (Units=GPa)
#
#
# Indices 1 2 3 4 5 6 
#
# 1 78.5453 24.2842 7.6875 0.0000 0.0000 0.0000
# 2 24.2842 91.0411 13.7317 0.0000 0.0000 0.0000
# 3 7.6875 13.7317 66.8909 0.0000 0.0000 0.0000
# 4 0.0000 0.0000 0.0000 25.4825 0.0000 0.0000
# 5 0.0000 0.0000 0.0000 0.0000 26.5325 0.0000
# 6 0.0000 0.0000 0.0000 0.0000 0.0000 28.9080
#
#
#
# Elastic Compliance Matrix: (Units=1/GPa)
#
#
# Indices 1 2 3 4 5 6 
#
# 1 0.013924 -0.003584 -0.000865 0.000000 0.000000 0.000000
# 2 -0.003584 0.012257 -0.002104 0.000000 0.000000 0.000000
# 3 -0.000865 -0.002104 0.015481 0.000000 0.000000 0.000000
# 4 0.000000 0.000000 0.000000 0.039243 0.000000 0.000000
# 5 0.000000 0.000000 0.000000 0.000000 0.037690 0.000000
# 6 0.000000 0.000000 0.000000 0.000000 0.000000 0.034592
#
#
# Mechanical properties :
#
#
# Convention : Reuss Voigt Hill
#
# Bulk Modulus (GPa) = 35.01738 36.43157 35.72447
# Shear Modulus (GPa) = 28.43952 28.90287 28.67119
#
# Velocity S-wave (km/s) = 3.71887 3.74904 3.73399
# Velocity P-wave (km/s) = 5.95557 6.03796 5.99690
#
# Compressibility (1/GPa) = 0.02855725
#
# Stress axis : x y z
#
# Youngs Moduli (GPa) = 71.81789 81.58358 64.59495
#
# Poissons Ratio (x) = 0.29237 0.05585
# Poissons Ratio (y) = 0.25737 0.13593
# Poissons Ratio (z) = 0.06209 0.17168
#
# Static dielectric constant tensor:
#      x y z
#    x 3.692310 0.000000 0.000000 
#    y 0.000000 4.068440 0.000000 
#    z 0.000000 0.000000 3.705320 
# 
# 
# High freq. dielectric constant tensor:
#      x y z
#    x 1.785610 0.000000 0.000000 
#    y 0.000000 1.817830 0.000000 
#    z 0.000000 0.000000 1.768280 
# 
# From -- ./inp_files/26907.got.cif
#   From: 2010.03.12/outbox.cif.g09.slc.cpg/sg23_14_cif.got.tgz:26907.got - 2010.04.14 02:50:06.
