data_PCOD8163021
_publ_section_title
;
Structure prediction by ZEFSAII (Michael W. Deem and Ramdas Pophale) SiO2 
 PCOD8163021
Probable space group: F 2 2 2
;
_chemical_formula_sum "Si O2"
_cell_formula_units_Z 96
_cell_length_a 20.414530
_cell_length_b 11.552707
_cell_length_c 19.742629
_cell_angle_alpha 90.000000
_cell_angle_beta 90.000000
_cell_angle_gamma 90.000000
_cell_volume 4656.162502
_symmetry_space_group_name_H-M "F 2 2 2"
_symmetry_group_IT_number 22
_symmetry_cell_setting 'orthorhombic'
loop_
_space_group_symop_operation_xyz
x,y,z
-x,-y,z
x,-y,-z
-x,y,-z
x,1/2+y,1/2+z
-x,1/2-y,1/2+z
x,1/2-y,1/2-z
-x,1/2+y,1/2-z
1/2+x,y,1/2+z
1/2-x,-y,1/2+z
1/2+x,-y,1/2-z
1/2-x,y,1/2-z
1/2+x,1/2+y,z
1/2-x,1/2-y,z
1/2+x,1/2-y,-z
1/2-x,1/2+y,-z
loop_
_atom_site_type_symbol
_atom_site_label
_atom_site_fract_x
_atom_site_fract_y
_atom_site_fract_z
Si Si1 0.450590 0.373121 0.781903
Si Si2 0.574719 0.136000 0.508868
Si Si3 0.779833 0.398696 0.176335
Si Si4 0.654785 0.178875 0.382207
Si Si5 0.411860 0.811433 0.660146
Si Si6 0.618534 0.072460 0.783724
O O1 0.437564 0.250000 0.750000
O O2 0.399223 0.394394 0.842062
O O3 0.522168 0.377956 0.815314
O O4 0.436230 0.472062 0.725991
O O5 0.500000 0.182870 0.500000
O O6 0.625818 0.196860 0.457532
O O7 0.602790 0.166465 0.582427
O O8 0.576521 0.000000 0.500000
O O9 0.750000 0.367225 0.250000
O O10 0.721615 0.397944 0.120372
O O11 0.832134 0.301847 0.153678
O O12 0.816998 0.521696 0.179399
O O13 0.358909 0.870268 0.711127
O O14 0.415487 0.672794 0.671227
#
# Coordination Sequence:
#
# PCOD8163021 Si02
#       6
#    16  16  16  16  16  16
#     4  12  19  35  67 101 134 167 221 290 349 406
#     4  11  24  42  66  94 138 182 224 278 339 426
#     4  11  22  40  70 100 130 173 234 289 331 396
#     4  11  21  39  66 100 127 175 236 276 336 400
#     4  11  25  40  62 105 137 181 225 277 372 406
#     4  11  23  39  67  99 138 170 223 300 348 400
#
# _framework density 20.617837999999999
#
# number of rings (size 3 to 8) (size 9 to 14) (size 15 to 20)
#    0.000    0.833    6.667    2.500    2.333    0.000 
#    0.000    5.833    0.000    1.000    0.000    0.000 
#    0.000    0.000    0.000    0.000    0.000    0.000 
#
# Total GULP energy -297428.133408 kJ/mol
# GULP energy per Si atom -12392.838892 kJ/mol
# Density = 2.057091 g / cm^3
# Si number density = 20.617838 Si / 1000 Ang^3
#
#
#
# Elastic Constant Matrix: (Units=GPa)
#
#
# Indices 1 2 3 4 5 6 
#
# 1 110.8168 36.6776 46.5518 0.0000 0.0000 0.0000
# 2 36.6776 107.1136 37.4060 0.0000 0.0000 0.0000
# 3 46.5518 37.4060 128.5272 0.0000 0.0000 0.0000
# 4 0.0000 0.0000 0.0000 23.0114 0.0000 0.0000
# 5 0.0000 0.0000 0.0000 0.0000 42.8156 0.0000
# 6 0.0000 0.0000 0.0000 0.0000 0.0000 25.2793
#
#
#
# Elastic Compliance Matrix: (Units=1/GPa)
#
#
# Indices 1 2 3 4 5 6 
#
# 1 0.011313 -0.002719 -0.003306 0.000000 0.000000 0.000000
# 2 -0.002719 0.011046 -0.002230 0.000000 0.000000 0.000000
# 3 -0.003306 -0.002230 0.009627 0.000000 0.000000 0.000000
# 4 0.000000 0.000000 0.000000 0.043457 0.000000 0.000000
# 5 0.000000 0.000000 0.000000 0.000000 0.023356 0.000000
# 6 0.000000 0.000000 0.000000 0.000000 0.000000 0.039558
#
#
# Mechanical properties :
#
#
# Convention : Reuss Voigt Hill
#
# Bulk Modulus (GPa) = 64.61954 65.30317 64.96135
# Shear Modulus (GPa) = 31.24527 33.27607 32.26067
#
# Velocity S-wave (km/s) = 3.89710 4.02175 3.95992
# Velocity P-wave (km/s) = 7.18745 7.30123 7.24456
#
# Compressibility (1/GPa) = 0.01547520
#
# Stress axis : x y z
#
# Youngs Moduli (GPa) = 88.39650 90.53335 103.87635
#
# Poissons Ratio (x) = 0.24617 0.34342
# Poissons Ratio (y) = 0.24036 0.23163
# Poissons Ratio (z) = 0.29224 0.20187
#
# Static dielectric constant tensor:
#      x y z
#    x 3.919030 0.000000 0.000000 
#    y 0.000000 3.800590 0.000000 
#    z 0.000000 0.000000 3.730360 
# 
# 
# High freq. dielectric constant tensor:
#      x y z
#    x 1.802240 0.000000 0.000000 
#    y 0.000000 1.809650 0.000000 
#    z 0.000000 0.000000 1.780660 
# 
# From -- ./inp_files/44773.got.cif
#   From: 2010.03.12/outbox.cif.g09.slc.cpg/sg22_23_cif.got.tgz:44773.got - 2010.04.14 02:24:06.
