data_PCOD8163279
_publ_section_title
;
Structure prediction by ZEFSAII (Michael W. Deem and Ramdas Pophale) SiO2 
 PCOD8163279
Probable space group: I 2 2 2
;
_chemical_formula_sum "Si O2"
_cell_formula_units_Z 44
_cell_length_a 8.992213
_cell_length_b 22.739610
_cell_length_c 12.183853
_cell_angle_alpha 90.000000
_cell_angle_beta 90.000000
_cell_angle_gamma 90.000000
_cell_volume 2491.347154
_symmetry_space_group_name_H-M "I 2 2 2"
_symmetry_group_IT_number 23
_symmetry_cell_setting 'orthorhombic'
loop_
_space_group_symop_operation_xyz
x,y,z
-x,-y,z
x,-y,-z
-x,y,-z
1/2+x,1/2+y,1/2+z
1/2-x,1/2-y,1/2+z
1/2+x,1/2-y,1/2-z
1/2-x,1/2+y,1/2-z
loop_
_atom_site_type_symbol
_atom_site_label
_atom_site_fract_x
_atom_site_fract_y
_atom_site_fract_z
Si Si1 0.000000 0.000000 0.500000
Si Si2 0.748223 0.081220 0.438712
Si Si3 0.374170 0.304144 0.652513
Si Si4 0.000000 0.500000 0.000000
Si Si5 0.130577 0.327321 0.215782
Si Si6 0.297003 0.837412 0.643968
Si Si7 0.296128 0.295693 0.414104
O O1 0.103779 0.958063 0.425344
O O2 0.604254 0.039982 0.423022
O O3 0.746312 0.128982 0.342749
O O4 0.743261 0.111466 0.558884
O O5 0.329153 0.237006 0.672833
O O6 0.311569 0.343845 0.751297
O O7 0.297097 0.321505 0.536995
O O8 0.550724 0.311795 0.647491
O O9 0.162412 0.326877 0.346951
O O10 0.963859 0.345952 0.187961
O O11 0.278708 0.775014 0.582792
#
# Coordination Sequence:
#
# PCOD8163279 Si02
#       7
#     2   8   8   2   8   8   8
#     4  10  28  34  52  78 106 126 192 218 276 302
#     4  11  20  38  52  80 102 138 168 233 260 312
#     4   9  18  31  47  77 109 143 171 198 246 325
#     4  10  20  34  60  70  98 134 184 214 280 294
#     4  10  18  31  53  73 106 141 171 207 258 304
#     4  10  18  31  53  73 106 141 171 207 258 304
#     4   9  18  31  47  77 109 143 171 198 246 325
#
# _framework density 17.661127
#
# number of rings (size 3 to 8) (size 9 to 14) (size 15 to 20)
#    0.000    2.182    3.636    0.000    2.545    0.727 
#    0.000    0.000    0.000    0.000    0.000    7.636 
#    0.000    0.000    0.000    0.000    0.000    0.000 
#
# Total GULP energy -272731.144210 kJ/mol
# GULP energy per Si atom -12396.870191 kJ/mol
# Density = 1.762093 g / cm^3
# Si number density = 17.661127 Si / 1000 Ang^3
#
#
#
# Elastic Constant Matrix: (Units=GPa)
#
#
# Indices 1 2 3 4 5 6 
#
# 1 64.2144 28.2112 21.0707 0.0000 0.0000 0.0000
# 2 28.2112 60.0641 26.3134 0.0001 0.0000 0.0000
# 3 21.0707 26.3134 87.2162 0.0002 -0.0001 0.0000
# 4 0.0000 0.0001 0.0002 12.6663 0.0000 0.0000
# 5 0.0000 0.0000 -0.0001 0.0000 25.5692 0.0000
# 6 0.0000 0.0000 0.0000 0.0000 0.0000 25.8652
#
#
#
# Elastic Compliance Matrix: (Units=1/GPa)
#
#
# Indices 1 2 3 4 5 6 
#
# 1 0.020015 -0.008392 -0.002304 0.000000 0.000000 0.000000
# 2 -0.008392 0.022703 -0.004822 0.000000 0.000000 0.000000
# 3 -0.002304 -0.004822 0.013477 0.000000 0.000000 0.000000
# 4 0.000000 0.000000 0.000000 0.078950 0.000000 0.000000
# 5 0.000000 0.000000 0.000000 0.000000 0.039110 0.000000
# 6 0.000000 0.000000 0.000000 0.000000 0.000000 0.038662
#
#
# Mechanical properties :
#
#
# Convention : Reuss Voigt Hill
#
# Bulk Modulus (GPa) = 39.74520 40.29837 40.02179
# Shear Modulus (GPa) = 19.81461 21.88009 20.84735
#
# Velocity S-wave (km/s) = 3.35316 3.52360 3.43943
# Velocity P-wave (km/s) = 6.12738 6.27865 6.20347
#
# Compressibility (1/GPa) = 0.02516027
#
# Stress axis : x y z
#
# Youngs Moduli (GPa) = 49.96138 44.04729 74.19947
#
# Poissons Ratio (x) = 0.36963 0.17094
# Poissons Ratio (y) = 0.41926 0.35780
# Poissons Ratio (z) = 0.11510 0.21240
#
# Static dielectric constant tensor:
#      x y z
#    x 3.379250 0.000000 0.000000 
#    y 0.000000 3.092900 0.000000 
#    z 0.000000 0.000000 3.288200 
# 
# 
# High freq. dielectric constant tensor:
#      x y z
#    x 1.687670 0.000000 0.000000 
#    y 0.000000 1.650970 0.000000 
#    z 0.000000 0.000000 1.670060 
# 
# From -- ./inp_files/12555.got.cif
#   From: 2010.03.12/outbox.cif.g09.slc.cpg/sg23_7_cif.got.tgz:12555.got - 2010.04.14 02:50:06.
