data_PCOD8163163
_publ_section_title
;
Structure prediction by ZEFSAII (Michael W. Deem and Ramdas Pophale) SiO2 
 PCOD8163163
Probable space group: F 2 2 2
;
_chemical_formula_sum "Si O2"
_cell_formula_units_Z 88
_cell_length_a 19.130220
_cell_length_b 19.263629
_cell_length_c 11.712667
_cell_angle_alpha 90.000000
_cell_angle_beta 90.000000
_cell_angle_gamma 90.000000
_cell_volume 4316.322302
_symmetry_space_group_name_H-M "F 2 2 2"
_symmetry_group_IT_number 22
_symmetry_cell_setting 'orthorhombic'
loop_
_space_group_symop_operation_xyz
x,y,z
-x,-y,z
x,-y,-z
-x,y,-z
x,1/2+y,1/2+z
-x,1/2-y,1/2+z
x,1/2-y,1/2-z
-x,1/2+y,1/2-z
1/2+x,y,1/2+z
1/2-x,-y,1/2+z
1/2+x,-y,1/2-z
1/2-x,y,1/2-z
1/2+x,1/2+y,z
1/2-x,1/2-y,z
1/2+x,1/2-y,-z
1/2-x,1/2+y,-z
loop_
_atom_site_type_symbol
_atom_site_label
_atom_site_fract_x
_atom_site_fract_y
_atom_site_fract_z
Si Si1 0.750000 0.250000 0.963615
Si Si2 0.052628 0.110303 0.897989
Si Si3 0.874312 0.759252 0.882059
Si Si4 0.862603 0.500000 0.500000
Si Si5 0.804998 0.884964 0.159914
Si Si6 0.500000 0.688195 0.500000
Si Si7 0.446099 0.166958 0.228066
O O1 0.772003 0.186045 0.885943
O O2 0.813706 0.275618 0.043277
O O3 0.121205 0.159132 0.911956
O O4 0.014192 0.129010 0.780506
O O5 0.085046 0.033154 0.904590
O O6 0.000000 0.125808 0.000000
O O7 0.857025 0.750000 0.750000
O O8 0.950944 0.731351 0.914240
O O9 0.815364 0.442383 0.561508
O O10 0.750000 0.916733 0.250000
O O11 0.877962 0.868607 0.220813
O O12 0.450861 0.648254 0.591743
O O13 0.443583 0.250000 0.250000
#
# Coordination Sequence:
#
# PCOD8163163 Si02
#       7
#     8  16  16   8  16   8  16
#     4  12  24  44  68  96 136 176 234 292 342 414
#     4  12  20  41  68 100 131 173 231 281 340 405
#     4  12  22  38  64 102 138 173 223 288 347 402
#     4  12  27  44  70  94 134 185 232 286 340 441
#     4  12  26  46  67  98 132 184 232 284 354 420
#     4  12  20  36  62 102 136 168 212 292 348 386
#     4  12  22  38  70 104 136 171 226 291 344 408
#
# _framework density 20.387726000000001
#
# number of rings (size 3 to 8) (size 9 to 14) (size 15 to 20)
#    0.000    0.000    8.182    4.091    0.000    0.000 
#    3.273    0.000    0.000    1.091    0.000    0.000 
#    0.000    0.000    0.000    0.000    0.000    0.000 
#
# Total GULP energy -272692.719417 kJ/mol
# GULP energy per Si atom -12395.123610 kJ/mol
# Density = 2.034132 g / cm^3
# Si number density = 20.387726 Si / 1000 Ang^3
#
#
#
# Elastic Constant Matrix: (Units=GPa)
#
#
# Indices 1 2 3 4 5 6 
#
# 1 98.4065 37.8377 35.5862 0.0000 0.0000 0.0000
# 2 37.8377 102.0841 45.0433 0.0000 0.0000 0.0000
# 3 35.5862 45.0433 128.7293 0.0000 0.0000 0.0000
# 4 0.0000 0.0000 0.0000 28.2075 0.0000 0.0000
# 5 0.0000 0.0000 0.0000 0.0000 41.1755 0.0000
# 6 0.0000 0.0000 0.0000 0.0000 0.0000 59.1550
#
#
#
# Elastic Compliance Matrix: (Units=1/GPa)
#
#
# Indices 1 2 3 4 5 6 
#
# 1 0.012330 -0.003626 -0.002140 0.000000 0.000000 0.000000
# 2 -0.003626 0.012651 -0.003424 0.000000 0.000000 0.000000
# 3 -0.002140 -0.003424 0.009558 0.000000 0.000000 0.000000
# 4 0.000000 0.000000 0.000000 0.035452 0.000000 0.000000
# 5 0.000000 0.000000 0.000000 0.000000 0.024286 0.000000
# 6 0.000000 0.000000 0.000000 0.000000 0.000000 0.016905
#
#
# Mechanical properties :
#
#
# Convention : Reuss Voigt Hill
#
# Bulk Modulus (GPa) = 61.88627 62.90605 62.39616
# Shear Modulus (GPa) = 37.05150 39.75775 38.40463
#
# Velocity S-wave (km/s) = 4.26766 4.42076 4.34488
# Velocity P-wave (km/s) = 7.39624 7.54847 7.47274
#
# Compressibility (1/GPa) = 0.01615867
#
# Stress axis : x y z
#
# Youngs Moduli (GPa) = 81.10346 79.04690 104.62529
#
# Poissons Ratio (x) = 0.28662 0.22387
# Poissons Ratio (y) = 0.29408 0.35826
# Poissons Ratio (z) = 0.17354 0.27067
#
# Static dielectric constant tensor:
#      x y z
#    x 3.928720 0.000000 0.000000 
#    y 0.000000 3.512130 0.000000 
#    z 0.000000 0.000000 3.876900 
# 
# 
# High freq. dielectric constant tensor:
#      x y z
#    x 1.808240 0.000000 0.000000 
#    y 0.000000 1.763770 0.000000 
#    z 0.000000 0.000000 1.807410 
# 
# From -- ./inp_files/21444.got.cif
#   From: 2010.03.12/outbox.cif.g09.slc.cpg/sg22_11_cif.got.tgz:21444.got - 2010.04.14 02:24:06.
