data_PCOD8163851
_publ_section_title
;
Structure prediction by ZEFSAII (Michael W. Deem and Ramdas Pophale) SiO2 
 PCOD8163851
Probable space group: I 2 2 2
;
_chemical_formula_sum "Si O2"
_cell_formula_units_Z 64
_cell_length_a 19.079808
_cell_length_b 18.839496
_cell_length_c 8.384123
_cell_angle_alpha 90.000000
_cell_angle_beta 90.000000
_cell_angle_gamma 90.000000
_cell_volume 3013.706268
_symmetry_space_group_name_H-M "I 2 2 2"
_symmetry_group_IT_number 23
_symmetry_cell_setting 'orthorhombic'
loop_
_space_group_symop_operation_xyz
x,y,z
-x,-y,z
x,-y,-z
-x,y,-z
1/2+x,1/2+y,1/2+z
1/2-x,1/2-y,1/2+z
1/2+x,1/2-y,1/2-z
1/2-x,1/2+y,1/2-z
loop_
_atom_site_type_symbol
_atom_site_label
_atom_site_fract_x
_atom_site_fract_y
_atom_site_fract_z
Si Si1 0.409857 0.672229 0.825965
Si Si2 0.763317 0.820717 0.798992
Si Si3 0.837510 0.579714 0.459369
Si Si4 0.647990 0.575502 0.904672
Si Si5 0.094457 0.667818 0.264192
Si Si6 0.022875 0.074874 0.184799
Si Si7 0.773775 0.329298 0.063071
Si Si8 0.522771 0.074459 0.184215
O O1 0.346194 0.662192 0.700923
O O2 0.417802 0.756521 0.848634
O O3 0.482330 0.640511 0.762969
O O4 0.391189 0.635063 0.991329
O O5 0.733007 0.880961 0.911975
O O6 0.742886 0.743436 0.864695
O O7 0.729762 0.826597 0.625678
O O8 0.816780 0.500000 0.500000
O O9 0.868382 0.615472 0.614658
O O10 0.893247 0.583772 0.312379
O O11 0.605609 0.576055 0.734969
O O12 0.727340 0.603641 0.872706
O O13 0.649405 0.500000 0.000000
O O14 0.144259 0.666920 0.109456
O O15 0.017557 0.636913 0.219961
O O16 0.000000 0.000000 0.260944
O O17 0.000000 0.076287 0.000000
O O18 0.500000 0.000000 0.263056
O O19 0.500000 0.075549 0.000000
#
# Coordination Sequence:
#
# PCOD8163851 Si02
#       8
#     8   8   8   8   8   8   8   8
#     4  10  22  40  59  89 120 165 209 254 316 385
#     4  10  22  41  62  92 128 163 212 266 315 378
#     4  11  20  36  64  93 126 167 211 261 314 370
#     4  11  22  39  64  87 124 166 208 253 312 382
#     4  10  21  38  64  90 124 165 212 264 315 371
#     4  11  24  41  60  90 124 161 205 267 319 369
#     4  10  23  42  62  92 129 164 212 265 315 378
#     4   9  16  35  57  88 120 159 209 256 300 371
#
# _framework density 21.236312000000002
#
# number of rings (size 3 to 8) (size 9 to 14) (size 15 to 20)
#    0.000    1.750    3.750    2.625    0.000    9.000 
#    2.250    0.625    0.000    0.750    0.000    0.000 
#    0.000    0.000    0.000    0.000    0.000    0.000 
#
# Total GULP energy -396524.638434 kJ/mol
# GULP energy per Si atom -12391.394951 kJ/mol
# Density = 2.118798 g / cm^3
# Si number density = 21.236312 Si / 1000 Ang^3
#
#
#
# Elastic Constant Matrix: (Units=GPa)
#
#
# Indices 1 2 3 4 5 6 
#
# 1 77.2717 33.7654 3.5351 0.0000 0.0000 0.0000
# 2 33.7654 131.7539 11.5695 0.0000 0.0000 0.0000
# 3 3.5351 11.5695 37.0734 0.0000 0.0000 0.0000
# 4 0.0000 0.0000 0.0000 6.6482 0.0000 0.0000
# 5 0.0000 0.0000 0.0000 0.0000 25.8791 0.0000
# 6 0.0000 0.0000 0.0000 0.0000 0.0000 -147.2874
#
#
#
# Elastic Compliance Matrix: (Units=1/GPa)
#
#
# Indices 1 2 3 4 5 6 
#
# 1 0.014575 -0.003715 -0.000230 0.000000 0.000000 0.000000
# 2 -0.003715 0.008751 -0.002377 0.000000 0.000000 0.000000
# 3 -0.000230 -0.002377 0.027737 0.000000 0.000000 0.000000
# 4 0.000000 0.000000 0.000000 0.150416 0.000000 0.000000
# 5 0.000000 0.000000 0.000000 0.000000 0.038641 0.000000
# 6 0.000000 0.000000 0.000000 0.000000 0.000000 -0.006789
#
#
# Mechanical properties :
#
#
# Convention : Reuss Voigt Hill
#
# Bulk Modulus (GPa) = 26.02883 38.20433 32.11658
# Shear Modulus (GPa) = 19.32133 -9.80343 4.75895
#
# Velocity S-wave (km/s) = 3.01960 -2.15090 1.49860
# Velocity P-wave (km/s) = 4.94375 3.44393 4.26036
#
# Compressibility (1/GPa) = 0.03841894
#
# Stress axis : x y z
#
# Youngs Moduli (GPa) = 68.60941 114.27682 36.05271
#
# Poissons Ratio (x) = 0.42455 0.00831
# Poissons Ratio (y) = 0.25489 0.08568
# Poissons Ratio (z) = 0.01581 0.27159
#
# Static dielectric constant tensor:
#      x y z
#    x 5.036090 0.000000 0.000000 
#    y 0.000000 3.824760 0.000000 
#    z 0.000000 0.000000 3.630120 
# 
# 
# High freq. dielectric constant tensor:
#      x y z
#    x 1.834620 0.000000 0.000000 
#    y 0.000000 1.848010 0.000000 
#    z 0.000000 0.000000 1.799510 
# 
# From -- ./inp_files/12205.got.cif
#   From: 2010.03.12/outbox.cif.g09.slc.cpg/sg23_7_cif.got.tgz:12205.got - 2010.04.14 02:50:06.
