data_PCOD8163033
_publ_section_title
;
Structure prediction by ZEFSAII (Michael W. Deem and Ramdas Pophale) SiO2 
 PCOD8163033
Probable space group: F 2 2 2
;
_chemical_formula_sum "Si O2"
_cell_formula_units_Z 108
_cell_length_a 28.972641
_cell_length_b 6.349710
_cell_length_c 27.345705
_cell_angle_alpha 90.000000
_cell_angle_beta 90.000000
_cell_angle_gamma 90.000000
_cell_volume 5030.731056
_symmetry_space_group_name_H-M "F 2 2 2"
_symmetry_group_IT_number 22
_symmetry_cell_setting 'orthorhombic'
loop_
_space_group_symop_operation_xyz
x,y,z
-x,-y,z
x,-y,-z
-x,y,-z
x,1/2+y,1/2+z
-x,1/2-y,1/2+z
x,1/2-y,1/2-z
-x,1/2+y,1/2-z
1/2+x,y,1/2+z
1/2-x,-y,1/2+z
1/2+x,-y,1/2-z
1/2-x,y,1/2-z
1/2+x,1/2+y,z
1/2-x,1/2-y,z
1/2+x,1/2-y,-z
1/2-x,1/2+y,-z
loop_
_atom_site_type_symbol
_atom_site_label
_atom_site_fract_x
_atom_site_fract_y
_atom_site_fract_z
Si Si1 0.097210 0.750000 0.250000
Si Si2 0.697302 0.723137 0.634478
Si Si3 0.134364 0.120587 0.128735
Si Si4 0.163575 0.915970 0.712349
Si Si5 0.040323 0.849960 0.438214
Si Si6 0.358471 0.470398 0.445416
Si Si7 0.500000 0.000000 0.500000
Si Si8 0.954175 0.122859 0.155664
O O1 0.127826 0.540593 0.246444
O O2 0.065639 0.767395 0.203104
O O3 0.750000 0.750000 0.619147
O O4 0.696822 0.583649 0.684704
O O5 0.671088 0.616649 0.589897
O O6 0.673393 0.949036 0.642279
O O7 0.135394 0.298113 0.170193
O O8 0.143719 0.230676 0.075734
O O9 0.083388 0.023380 0.128392
O O10 0.188749 0.750000 0.750000
O O11 0.089036 0.955408 0.448339
O O12 0.033473 0.811280 0.380743
O O13 0.035274 0.631362 0.466753
O O14 0.000000 0.000000 0.457354
O O15 0.337467 0.500000 0.500000
O O16 0.000000 0.000000 0.170558
#
# Coordination Sequence:
#
# PCOD8163033 Si02
#       8
#     8  16  16  16  16  16   4  16
#     4  12  24  44  65 104 138 186 236 291 348 438
#     4  11  25  48  72 103 143 187 237 298 371 441
#     4  11  23  46  68  95 141 182 230 294 352 421
#     4  11  21  43  74  95 137 180 233 295 351 419
#     4  12  25  44  66 102 143 187 245 294 358 432
#     4  11  25  42  71 105 140 188 238 300 366 428
#     4  12  26  44  72  98 144 188 246 300 360 428
#     4  12  24  41  68  98 138 191 231 287 357 419
#
# _framework density 21.468050999999999
#
# number of rings (size 3 to 8) (size 9 to 14) (size 15 to 20)
#    0.000    0.593    5.185    2.889    2.074    4.741 
#    2.667    5.556    0.000    0.000    0.000    0.000 
#    0.000    0.000    0.000    0.000    0.000    0.000 
#
# Total GULP energy -334802.366656 kJ/mol
# GULP energy per Si atom -12400.087654 kJ/mol
# Density = 2.141919 g / cm^3
# Si number density = 21.468051 Si / 1000 Ang^3
#
#
#
# Elastic Constant Matrix: (Units=GPa)
#
#
# Indices 1 2 3 4 5 6 
#
# 1 122.9145 39.9934 18.7171 -0.0192 0.0046 0.0045
# 2 39.9934 119.7134 51.9610 -0.0593 0.0136 -0.0132
# 3 18.7171 51.9610 142.8958 -0.0159 0.0020 0.0015
# 4 -0.0192 -0.0593 -0.0159 -11.1370 0.0333 0.0046
# 5 0.0046 0.0136 0.0020 0.0333 41.3496 0.0063
# 6 0.0045 -0.0132 0.0015 0.0046 0.0063 2.2864
#
#
#
# Elastic Compliance Matrix: (Units=1/GPa)
#
#
# Indices 1 2 3 4 5 6 
#
# 1 0.009129 -0.003005 -0.000103 0.000000 0.000000 -0.000035
# 2 -0.003005 0.010908 -0.003573 -0.000048 -0.000003 0.000071
# 3 -0.000103 -0.003573 0.008311 0.000007 0.000001 -0.000026
# 4 0.000000 -0.000048 0.000007 -0.089791 0.000072 0.000180
# 5 0.000000 -0.000003 0.000001 0.000072 0.024184 -0.000067
# 6 -0.000035 0.000071 -0.000026 0.000180 -0.000067 0.437365
#
#
# Mechanical properties :
#
#
# Convention : Reuss Voigt Hill
#
# Bulk Modulus (GPa) = 66.72901 67.42964 67.07932
# Shear Modulus (GPa) = 11.94848 24.82330 18.38589
#
# Velocity S-wave (km/s) = 2.36173 3.40412 2.92966
# Velocity P-wave (km/s) = 6.21188 6.85041 6.53895
#
# Compressibility (1/GPa) = 0.01498599
#
# Stress axis : x y z
#
# Youngs Moduli (GPa) = 109.53832 91.67595 120.32554
#
# Poissons Ratio (x) = 0.27550 0.01240
# Poissons Ratio (y) = 0.32918 0.42990
# Poissons Ratio (z) = 0.01129 0.32754
#
# Static dielectric constant tensor:
#      x y z
#    x 3.625180 0.000000 0.000000 
#    y 0.000000 4.279980 0.000080 
#    z 0.000000 0.000080 4.140990 
# 
# 
# High freq. dielectric constant tensor:
#      x y z
#    x 1.818590 0.000000 0.000000 
#    y 0.000000 1.856020 0.000000 
#    z 0.000000 0.000000 1.862050 
# 
# From -- ./inp_files/57371.got.cif
#   From: 2010.03.12/outbox.cif.g09.slc.cpg/sg22_29_cif.got.tgz:57371.got - 2010.04.14 02:24:06.
