data_PCOD8163981
_publ_section_title
;
Structure prediction by ZEFSAII (Michael W. Deem and Ramdas Pophale) SiO2 
 PCOD8163981
Probable space group: I 2 2 2
;
_chemical_formula_sum "Si O2"
_cell_formula_units_Z 56
_cell_length_a 13.894924
_cell_length_b 8.891087
_cell_length_c 20.967994
_cell_angle_alpha 90.000000
_cell_angle_beta 90.000000
_cell_angle_gamma 90.000000
_cell_volume 2590.406488
_symmetry_space_group_name_H-M "I 2 2 2"
_symmetry_group_IT_number 23
_symmetry_cell_setting 'orthorhombic'
loop_
_space_group_symop_operation_xyz
x,y,z
-x,-y,z
x,-y,-z
-x,y,-z
1/2+x,1/2+y,1/2+z
1/2-x,1/2-y,1/2+z
1/2+x,1/2-y,1/2-z
1/2-x,1/2+y,1/2-z
loop_
_atom_site_type_symbol
_atom_site_label
_atom_site_fract_x
_atom_site_fract_y
_atom_site_fract_z
Si Si1 0.770022 0.538309 0.301493
Si Si2 0.099684 0.714973 0.971492
Si Si3 0.229441 0.023524 0.570673
Si Si4 0.016741 0.168224 0.147723
Si Si5 0.160178 0.204355 0.689720
Si Si6 0.036179 0.662275 0.733904
Si Si7 0.181086 0.772851 0.099724
O O1 0.783399 0.360006 0.299965
O O2 0.702454 0.588249 0.241966
O O3 0.869025 0.633042 0.307519
O O4 0.721304 0.575388 0.369026
O O5 0.161591 0.578941 0.942625
O O6 0.079509 0.836447 0.916471
O O7 0.160631 0.802795 0.025233
O O8 0.000000 0.649825 0.000000
O O9 0.172163 0.136600 0.617844
O O10 0.178897 0.000000 0.500000
O O11 0.244042 0.865385 0.607231
O O12 0.073940 0.252109 0.203383
O O13 0.918166 0.262297 0.137229
O O14 0.000000 0.000000 0.170634
O O15 0.045891 0.237159 0.698755
O O16 0.000000 0.500000 0.755829
#
# Coordination Sequence:
#
# PCOD8163981 Si02
#       7
#     8   8   8   8   8   8   8
#     4  11  23  40  64  94 129 174 213 274 325 389
#     4   9  21  37  58  85 127 172 212 260 319 396
#     4  10  22  40  61  90 123 172 218 265 323 387
#     4  11  23  35  56  94 131 166 213 258 322 385
#     4  11  23  41  66  94 130 170 223 265 331 392
#     4  10  24  41  63  93 128 171 216 268 326 390
#     4  10  22  38  56  87 129 165 214 258 323 379
#
# _framework density 21.618227999999998
#
# number of rings (size 3 to 8) (size 9 to 14) (size 15 to 20)
#    0.000    1.714    1.429    1.714    8.000    9.714 
#    2.571    0.000    0.000    6.000    0.000   12.000 
#    0.000    0.000    0.000    0.000    0.000    0.000 
#
# Total GULP energy -346984.804220 kJ/mol
# GULP energy per Si atom -12392.314436 kJ/mol
# Density = 2.156902 g / cm^3
# Si number density = 21.618228 Si / 1000 Ang^3
#
#
#
# Elastic Constant Matrix: (Units=GPa)
#
#
# Indices 1 2 3 4 5 6 
#
# 1 67.6813 10.2295 38.5416 0.0000 0.0000 0.0000
# 2 10.2295 68.0910 55.2621 0.0000 0.0000 0.0000
# 3 38.5416 55.2621 129.7192 0.0000 0.0000 0.0000
# 4 0.0000 0.0000 0.0000 43.1902 0.0000 0.0000
# 5 0.0000 0.0000 0.0000 0.0000 28.7142 0.0000
# 6 0.0000 0.0000 0.0000 0.0000 0.0000 29.8175
#
#
#
# Elastic Compliance Matrix: (Units=1/GPa)
#
#
# Indices 1 2 3 4 5 6 
#
# 1 0.018060 0.002509 -0.006435 0.000000 0.000000 0.000000
# 2 0.002509 0.022796 -0.010457 0.000000 0.000000 0.000000
# 3 -0.006435 -0.010457 0.014076 0.000000 0.000000 0.000000
# 4 0.000000 0.000000 0.000000 0.023153 0.000000 0.000000
# 5 0.000000 0.000000 0.000000 0.000000 0.034826 0.000000
# 6 0.000000 0.000000 0.000000 0.000000 0.000000 0.033537
#
#
# Mechanical properties :
#
#
# Convention : Reuss Voigt Hill
#
# Bulk Modulus (GPa) = 38.21640 52.61755 45.41697
# Shear Modulus (GPa) = 27.18332 31.10828 29.14580
#
# Velocity S-wave (km/s) = 3.54987 3.79751 3.67577
# Velocity P-wave (km/s) = 5.87523 6.60457 6.25055
#
# Compressibility (1/GPa) = 0.02616678
#
# Stress axis : x y z
#
# Youngs Moduli (GPa) = 55.36998 43.86726 71.04428
#
# Poissons Ratio (x) = -0.11008 0.45717
# Poissons Ratio (y) = -0.13894 0.74291
# Poissons Ratio (z) = 0.35631 0.45872
#
# Static dielectric constant tensor:
#      x y z
#    x 3.971760 0.000000 0.000000 
#    y 0.000000 3.804580 0.000000 
#    z 0.000000 0.000000 4.056270 
# 
# 
# High freq. dielectric constant tensor:
#      x y z
#    x 1.829870 0.000000 0.000000 
#    y 0.000000 1.849650 0.000000 
#    z 0.000000 0.000000 1.846910 
# 
# From -- ./inp_files/27004.got.cif
#   From: 2010.03.12/outbox.cif.g09.slc.cpg/sg23_14_cif.got.tgz:27004.got - 2010.04.14 02:50:06.
