data_PCOD8163145
_publ_section_title
;
Structure prediction by ZEFSAII (Michael W. Deem and Ramdas Pophale) SiO2 
 PCOD8163145
Probable space group: F 2 2 2
;
_chemical_formula_sum "Si O2"
_cell_formula_units_Z 88
_cell_length_a 28.605141
_cell_length_b 16.539872
_cell_length_c 8.605037
_cell_angle_alpha 90.000000
_cell_angle_beta 90.000000
_cell_angle_gamma 90.000000
_cell_volume 4071.261320
_symmetry_space_group_name_H-M "F 2 2 2"
_symmetry_group_IT_number 22
_symmetry_cell_setting 'orthorhombic'
loop_
_space_group_symop_operation_xyz
x,y,z
-x,-y,z
x,-y,-z
-x,y,-z
x,1/2+y,1/2+z
-x,1/2-y,1/2+z
x,1/2-y,1/2-z
-x,1/2+y,1/2-z
1/2+x,y,1/2+z
1/2-x,-y,1/2+z
1/2+x,-y,1/2-z
1/2-x,y,1/2-z
1/2+x,1/2+y,z
1/2-x,1/2-y,z
1/2+x,1/2-y,-z
1/2-x,1/2+y,-z
loop_
_atom_site_type_symbol
_atom_site_label
_atom_site_fract_x
_atom_site_fract_y
_atom_site_fract_z
Si Si1 0.310403 0.363727 0.404411
Si Si2 0.206759 0.092882 0.050907
Si Si3 0.875343 0.500000 0.000000
Si Si4 0.948433 0.138198 0.993592
Si Si5 0.355934 0.780339 0.425644
Si Si6 0.948703 0.505306 0.261400
O O1 0.257791 0.368220 0.468132
O O2 0.312099 0.391210 0.224950
O O3 0.343075 0.422169 0.501666
O O4 0.330714 0.275066 0.443043
O O5 0.171023 0.134356 0.931544
O O6 0.208444 0.000000 0.000000
O O7 0.907474 0.513430 0.853391
O O8 0.910234 0.207284 0.028100
O O9 0.946538 0.064124 0.111283
O O10 0.939858 0.095995 0.826837
O O11 0.000000 0.179454 0.000000
O O12 0.351871 0.750000 0.250000
O O13 0.000000 0.500000 0.181940
#
# Coordination Sequence:
#
# PCOD8163145 Si02
#       6
#    16  16   8  16  16  16
#     4  11  26  44  65 100 136 175 228 280 338 399
#     4  11  26  47  71  93 135 186 225 274 339 409
#     4  12  21  38  64  98 134 164 227 280 328 396
#     4   9  20  42  66  93 131 180 220 265 333 407
#     4  12  26  42  69 104 137 176 227 283 339 394
#     4   9  19  36  64  95 131 174 220 268 330 401
#
# _framework density 21.614923999999998
#
# number of rings (size 3 to 8) (size 9 to 14) (size 15 to 20)
#    0.000    1.455    0.909    4.636    7.636    2.909 
#    0.000    7.273    0.000    0.000    0.000    0.000 
#    0.000    0.000    0.000    0.000    0.000    0.000 
#
# Total GULP energy -272762.397198 kJ/mol
# GULP energy per Si atom -12398.290782 kJ/mol
# Density = 2.156573 g / cm^3
# Si number density = 21.614924 Si / 1000 Ang^3
#
#
#
# Elastic Constant Matrix: (Units=GPa)
#
#
# Indices 1 2 3 4 5 6 
#
# 1 174.4142 53.5884 59.5066 0.0000 0.0000 0.0000
# 2 53.5884 94.0882 26.5646 0.0000 0.0000 0.0000
# 3 59.5066 26.5646 94.1862 0.0000 0.0000 0.0000
# 4 0.0000 0.0000 0.0000 27.1006 0.0000 0.0000
# 5 0.0000 0.0000 0.0000 0.0000 33.5458 0.0000
# 6 0.0000 0.0000 0.0000 0.0000 0.0000 0.0849
#
#
#
# Elastic Compliance Matrix: (Units=1/GPa)
#
#
# Indices 1 2 3 4 5 6 
#
# 1 0.008253 -0.003507 -0.004225 0.000000 0.000000 0.000001
# 2 -0.003507 0.013039 -0.001461 0.000000 0.000000 -0.000001
# 3 -0.004225 -0.001461 0.013699 0.000000 0.000000 -0.000003
# 4 0.000000 0.000000 0.000000 0.036900 0.000000 -0.000005
# 5 0.000000 0.000000 0.000000 0.000000 0.029810 0.000000
# 6 0.000001 -0.000001 -0.000003 -0.000005 0.000000 11.772074
#
#
# Mechanical properties :
#
#
# Convention : Reuss Voigt Hill
#
# Bulk Modulus (GPa) = 60.23160 71.33421 65.78291
# Shear Modulus (GPa) = 0.42025 27.01487 13.71756
#
# Velocity S-wave (km/s) = 0.44142 3.53912 2.52193
# Velocity P-wave (km/s) = 5.30905 7.05510 6.24342
#
# Compressibility (1/GPa) = 0.01660258
#
# Stress axis : x y z
#
# Youngs Moduli (GPa) = 121.17523 76.69508 73.00029
#
# Poissons Ratio (x) = 0.26901 0.30840
# Poissons Ratio (y) = 0.42502 0.10669
# Poissons Ratio (z) = 0.51192 0.11209
#
# Static dielectric constant tensor:
#      x y z
#    x 4.406180 0.000000 0.000000 
#    y 0.000000 4.045160 0.000000 
#    z 0.000000 0.000000 3.751260 
# 
# 
# High freq. dielectric constant tensor:
#      x y z
#    x 1.874250 0.000000 0.000000 
#    y 0.000000 1.840030 0.000000 
#    z 0.000000 0.000000 1.842090 
# 
# From -- ./inp_files/15557.got.cif
#   From: 2010.03.12/outbox.cif.g09.slc.cpg/sg22_8_cif.got.tgz:15557.got - 2010.04.14 02:24:06.
