data_PCOD8163860
_publ_section_title
;
Structure prediction by ZEFSAII (Michael W. Deem and Ramdas Pophale) SiO2 
 PCOD8163860
Probable space group: I 2 2 2
;
_chemical_formula_sum "Si O2"
_cell_formula_units_Z 56
_cell_length_a 19.549059
_cell_length_b 14.603924
_cell_length_c 8.777637
_cell_angle_alpha 90.000000
_cell_angle_beta 90.000000
_cell_angle_gamma 90.000000
_cell_volume 2505.953673
_symmetry_space_group_name_H-M "I 2 2 2"
_symmetry_group_IT_number 23
_symmetry_cell_setting 'orthorhombic'
loop_
_space_group_symop_operation_xyz
x,y,z
-x,-y,z
x,-y,-z
-x,y,-z
1/2+x,1/2+y,1/2+z
1/2-x,1/2-y,1/2+z
1/2+x,1/2-y,1/2-z
1/2-x,1/2+y,1/2-z
loop_
_atom_site_type_symbol
_atom_site_label
_atom_site_fract_x
_atom_site_fract_y
_atom_site_fract_z
Si Si1 0.705775 0.134284 0.733531
Si Si2 0.000000 0.296887 0.000000
Si Si3 0.055115 0.584166 0.242157
Si Si4 0.590258 0.711924 0.748121
Si Si5 0.075326 0.988445 0.821760
Si Si6 0.000000 0.287753 0.500000
Si Si7 0.223200 0.708782 0.895032
Si Si8 0.200316 0.971139 0.332335
O O1 0.636906 0.071890 0.759985
O O2 0.721666 0.208593 0.868018
O O3 0.706846 0.192200 0.573962
O O4 0.763812 0.058051 0.745269
O O5 0.967462 0.230712 0.876730
O O6 0.053328 0.364472 0.919396
O O7 0.000000 0.500000 0.243381
O O8 0.035092 0.649410 0.377309
O O9 0.608486 0.606401 0.733251
O O10 0.559829 0.729395 0.917284
O O11 0.656287 0.771835 0.707876
O O12 0.130704 0.059801 0.755752
O O13 0.000000 0.000000 0.749291
O O14 0.070980 0.000000 0.000000
O O15 0.250471 0.615048 0.825698
O O16 0.178543 0.000000 0.500000
#
# Coordination Sequence:
#
# PCOD8163860 Si02
#       8
#     8   4   8   8   8   4   8   8
#     4  11  25  45  71 103 142 197 237 304 365 440
#     4  10  21  38  69  98 134 186 246 294 359 431
#     4  11  24  42  67 102 143 190 248 301 364 432
#     4  11  23  46  68 105 138 189 237 299 366 440
#     4  11  25  45  70  99 134 172 234 300 357 427
#     4  10  27  42  65 102 144 184 238 300 365 437
#     4  11  25  44  73 102 147 186 247 293 370 443
#     4  10  25  43  66 103 139 180 233 287 360 435
#
# _framework density 22.346782000000001
#
# number of rings (size 3 to 8) (size 9 to 14) (size 15 to 20)
#    0.000    1.286    2.857    1.286    8.000    4.857 
#    0.000    0.000    0.000    0.000    0.000    0.000 
#    0.000    0.000    0.000    0.000    0.000    0.000 
#
# Total GULP energy -346904.642170 kJ/mol
# GULP energy per Si atom -12389.451506 kJ/mol
# Density = 2.229592 g / cm^3
# Si number density = 22.346782 Si / 1000 Ang^3
#
#
#
# Elastic Constant Matrix: (Units=GPa)
#
#
# Indices 1 2 3 4 5 6 
#
# 1 154.2241 33.8712 34.4058 0.0000 0.0000 0.0000
# 2 33.8712 88.7993 29.0355 0.0000 0.0000 0.0000
# 3 34.4058 29.0355 69.7087 0.0000 0.0000 0.0000
# 4 0.0000 0.0000 0.0000 50.7018 0.0000 0.0000
# 5 0.0000 0.0000 0.0000 0.0000 29.3018 0.0000
# 6 0.0000 0.0000 0.0000 0.0000 0.0000 46.5869
#
#
#
# Elastic Compliance Matrix: (Units=1/GPa)
#
#
# Indices 1 2 3 4 5 6 
#
# 1 0.007561 -0.001926 -0.002929 0.000000 0.000000 0.000000
# 2 -0.001926 0.013528 -0.004684 0.000000 0.000000 0.000000
# 3 -0.002929 -0.004684 0.017742 0.000000 0.000000 0.000000
# 4 0.000000 0.000000 0.000000 0.019723 0.000000 0.000000
# 5 0.000000 0.000000 0.000000 0.000000 0.034128 0.000000
# 6 0.000000 0.000000 0.000000 0.000000 0.000000 0.021465
#
#
# Mechanical properties :
#
#
# Convention : Reuss Voigt Hill
#
# Bulk Modulus (GPa) = 50.62875 56.37301 53.50088
# Shear Modulus (GPa) = 35.76306 39.67941 37.72123
#
# Velocity S-wave (km/s) = 4.00480 4.21838 4.11298
# Velocity P-wave (km/s) = 6.64001 7.00054 6.82266
#
# Compressibility (1/GPa) = 0.01975162
#
# Stress axis : x y z
#
# Youngs Moduli (GPa) = 132.26481 73.92319 56.36265
#
# Poissons Ratio (x) = 0.14238 0.16511
# Poissons Ratio (y) = 0.25475 0.26400
# Poissons Ratio (z) = 0.38746 0.34625
#
# Static dielectric constant tensor:
#      x y z
#    x 4.316140 0.000000 0.000000 
#    y 0.000000 4.072360 0.000000 
#    z 0.000000 0.000000 3.895470 
# 
# 
# High freq. dielectric constant tensor:
#      x y z
#    x 1.899100 0.000000 0.000000 
#    y 0.000000 1.875790 0.000000 
#    z 0.000000 0.000000 1.878030 
# 
# From -- ./inp_files/12094.got.cif
#   From: 2010.03.12/outbox.cif.g09.slc.cpg/sg23_7_cif.got.tgz:12094.got - 2010.04.14 02:50:06.
