data_PCOD8163194
_publ_section_title
;
Structure prediction by ZEFSAII (Michael W. Deem and Ramdas Pophale) SiO2 
 PCOD8163194
Probable space group: I 2 2 2
;
_chemical_formula_sum "Si O2"
_cell_formula_units_Z 56
_cell_length_a 16.668092
_cell_length_b 24.093007
_cell_length_c 8.623272
_cell_angle_alpha 90.000000
_cell_angle_beta 90.000000
_cell_angle_gamma 90.000000
_cell_volume 3462.972006
_symmetry_space_group_name_H-M "I 2 2 2"
_symmetry_group_IT_number 23
_symmetry_cell_setting 'orthorhombic'
loop_
_space_group_symop_operation_xyz
x,y,z
-x,-y,z
x,-y,-z
-x,y,-z
1/2+x,1/2+y,1/2+z
1/2-x,1/2-y,1/2+z
1/2+x,1/2-y,1/2-z
1/2-x,1/2+y,1/2-z
loop_
_atom_site_type_symbol
_atom_site_label
_atom_site_fract_x
_atom_site_fract_y
_atom_site_fract_z
Si Si1 0.704906 0.314977 0.809728
Si Si2 0.848982 0.634542 0.322032
Si Si3 0.890434 0.655801 0.669827
Si Si4 0.012221 0.560221 0.681252
Si Si5 0.788323 0.284776 0.103508
Si Si6 0.069266 0.274939 0.110729
Si Si7 0.034918 0.222293 0.662696
O O1 0.756931 0.367109 0.743902
O O2 0.744017 0.262377 0.719006
O O3 0.608984 0.317980 0.786496
O O4 0.717428 0.306723 0.993937
O O5 0.848587 0.642203 0.506810
O O6 0.895942 0.577768 0.281540
O O7 0.899702 0.682123 0.237862
O O8 0.821579 0.662770 0.799324
O O9 0.936921 0.713812 0.649641
O O10 0.949027 0.607529 0.733863
O O11 0.000000 0.500000 0.762425
O O12 0.000000 0.553962 0.500000
O O13 0.858281 0.256392 0.999976
O O14 0.032833 0.221291 0.202583
O O15 0.000000 0.301348 0.000000
O O16 0.000000 0.200923 0.500000
#
# Coordination Sequence:
#
# PCOD8163194 Si02
#       7
#     8   8   8   8   8   8   8
#     4  10  20  28  40  61  82 116 154 186 228 268
#     4  10  18  29  43  59  89 115 149 191 223 263
#     4  10  16  29  44  61  85 118 150 193 222 267
#     4   9  16  27  47  69  86 116 158 188 223 265
#     4  10  20  27  42  60  84 113 158 185 224 266
#     4  11  17  27  42  58  79 116 148 191 210 264
#     4  11  18  29  42  59  84 119 159 182 225 264
#
# _framework density 16.171081000000001
#
# number of rings (size 3 to 8) (size 9 to 14) (size 15 to 20)
#    0.000    1.857    5.714    2.143    2.000    0.000 
#    0.000    0.000    0.000   10.714    0.000    0.000 
#    0.000    0.000    0.000    2.571   18.286    0.571 
#
# Total GULP energy -346880.909798 kJ/mol
# GULP energy per Si atom -12388.603921 kJ/mol
# Density = 1.613428 g / cm^3
# Si number density = 16.171081 Si / 1000 Ang^3
#
#
#
# Elastic Constant Matrix: (Units=GPa)
#
#
# Indices 1 2 3 4 5 6 
#
# 1 76.8313 31.1517 24.3148 0.0000 0.0000 0.0000
# 2 31.1517 54.3884 12.0368 0.0000 0.0000 0.0000
# 3 24.3148 12.0368 79.6578 0.0000 0.0000 0.0000
# 4 0.0000 0.0000 0.0000 7.0676 0.0000 0.0000
# 5 0.0000 0.0000 0.0000 0.0000 34.2779 0.0000
# 6 0.0000 0.0000 0.0000 0.0000 0.0000 15.9854
#
#
#
# Elastic Compliance Matrix: (Units=1/GPa)
#
#
# Indices 1 2 3 4 5 6 
#
# 1 0.018166 -0.009495 -0.004110 0.000000 0.000000 0.000000
# 2 -0.009495 0.023986 -0.000726 0.000000 0.000000 0.000000
# 3 -0.004110 -0.000726 0.013918 0.000000 0.000000 0.000000
# 4 0.000000 0.000000 0.000000 0.141491 0.000000 0.000000
# 5 0.000000 0.000000 0.000000 0.000000 0.029173 0.000000
# 6 0.000000 0.000000 0.000000 0.000000 0.000000 0.062557
#
#
# Mechanical properties :
#
#
# Convention : Reuss Voigt Hill
#
# Bulk Modulus (GPa) = 36.48757 38.43158 37.45958
# Shear Modulus (GPa) = 15.28633 21.02446 18.15539
#
# Velocity S-wave (km/s) = 3.07789 3.60964 3.35432
# Velocity P-wave (km/s) = 5.93664 6.41793 6.18197
#
# Compressibility (1/GPa) = 0.02740659
#
# Stress axis : x y z
#
# Youngs Moduli (GPa) = 55.04707 41.69181 71.84930
#
# Poissons Ratio (x) = 0.39588 0.29532
# Poissons Ratio (y) = 0.52269 0.05216
# Poissons Ratio (z) = 0.22626 0.03027
#
# Static dielectric constant tensor:
#      x y z
#    x 3.238080 0.000000 0.000000 
#    y 0.000000 2.897900 0.000000 
#    z 0.000000 0.000000 3.388690 
# 
# 
# High freq. dielectric constant tensor:
#      x y z
#    x 1.620880 0.000000 0.000000 
#    y 0.000000 1.539600 0.000000 
#    z 0.000000 0.000000 1.640910 
# 
# From -- ./inp_files/11447.got.cif
#   From: 2010.03.12/outbox.cif.g09.slc.cpg/sg23_6_cif.got.tgz:11447.got - 2010.04.14 02:50:06.
