data_PCOD8163376
_publ_section_title
;
Structure prediction by ZEFSAII (Michael W. Deem and Ramdas Pophale) SiO2 
 PCOD8163376
Probable space group: I 2 2 2
;
_chemical_formula_sum "Si O2"
_cell_formula_units_Z 40
_cell_length_a 17.584598
_cell_length_b 14.401831
_cell_length_c 9.526833
_cell_angle_alpha 90.000000
_cell_angle_beta 90.000000
_cell_angle_gamma 90.000000
_cell_volume 2412.674350
_symmetry_space_group_name_H-M "I 2 2 2"
_symmetry_group_IT_number 23
_symmetry_cell_setting 'orthorhombic'
loop_
_space_group_symop_operation_xyz
x,y,z
-x,-y,z
x,-y,-z
-x,y,-z
1/2+x,1/2+y,1/2+z
1/2-x,1/2-y,1/2+z
1/2+x,1/2-y,1/2-z
1/2-x,1/2+y,1/2-z
loop_
_atom_site_type_symbol
_atom_site_label
_atom_site_fract_x
_atom_site_fract_y
_atom_site_fract_z
Si Si1 0.778696 0.027608 0.842466
Si Si2 0.200351 0.652677 0.719275
Si Si3 0.421563 0.545245 0.146628
Si Si4 0.771430 0.719949 0.568495
Si Si5 0.578531 0.754845 0.939339
O O1 0.856607 0.024657 0.757855
O O2 0.740843 0.129068 0.835313
O O3 0.716715 0.957078 0.776054
O O4 0.799229 0.000000 0.000000
O O5 0.252317 0.699225 0.594182
O O6 0.221394 0.696588 0.869209
O O7 0.111939 0.674400 0.679938
O O8 0.500000 0.500000 0.200979
O O9 0.434918 0.654702 0.129169
O O10 0.396646 0.500000 0.000000
O O11 0.860512 0.750016 0.567865
O O12 0.500000 0.795150 0.000000
#
# Coordination Sequence:
#
# PCOD8163376 Si02
#       5
#     8   8   8   8   8
#     4  10  19  34  50  77 105 134 175 213 264 312
#     4   9  19  31  53  72 103 140 173 214 251 314
#     4  11  20  31  52  78 106 133 172 219 265 310
#     4   9  18  33  51  74 103 138 176 210 253 314
#     4  10  19  33  52  78 105 135 175 216 258 306
#
# _framework density 16.579113
#
# number of rings (size 3 to 8) (size 9 to 14) (size 15 to 20)
#    1.200    1.000    4.000    1.200    0.000    0.400 
#    0.000    2.000    0.000    1.200    0.000    0.000 
#    0.000    4.800    0.000    0.000    0.000    0.000 
#
# Total GULP energy -247801.919162 kJ/mol
# GULP energy per Si atom -12390.095958 kJ/mol
# Density = 1.654138 g / cm^3
# Si number density = 16.579113 Si / 1000 Ang^3
#
#
#
# Elastic Constant Matrix: (Units=GPa)
#
#
# Indices 1 2 3 4 5 6 
#
# 1 113.6641 32.0787 14.4612 0.0000 0.0000 0.0000
# 2 32.0787 75.6417 4.8674 0.0000 0.0000 0.0000
# 3 14.4612 4.8674 23.9047 0.0000 0.0000 0.0000
# 4 0.0000 0.0000 0.0000 18.7991 0.0000 0.0000
# 5 0.0000 0.0000 0.0000 0.0000 27.3177 0.0000
# 6 0.0000 0.0000 0.0000 0.0000 0.0000 24.5611
#
#
#
# Elastic Compliance Matrix: (Units=1/GPa)
#
#
# Indices 1 2 3 4 5 6 
#
# 1 0.010690 -0.004172 -0.005617 0.000000 0.000000 0.000000
# 2 -0.004172 0.015024 -0.000535 0.000000 0.000000 0.000000
# 3 -0.005617 -0.000535 0.045340 0.000000 0.000000 0.000000
# 4 0.000000 0.000000 0.000000 0.053194 0.000000 0.000000
# 5 0.000000 0.000000 0.000000 0.000000 0.036606 0.000000
# 6 0.000000 0.000000 0.000000 0.000000 0.000000 0.040715
#
#
# Mechanical properties :
#
#
# Convention : Reuss Voigt Hill
#
# Bulk Modulus (GPa) = 19.83944 35.11389 27.47667
# Shear Modulus (GPa) = 20.91873 24.92245 22.92059
#
# Velocity S-wave (km/s) = 3.55597 3.88138 3.72223
# Velocity P-wave (km/s) = 5.37144 6.42747 5.92304
#
# Compressibility (1/GPa) = 0.05040465
#
# Stress axis : x y z
#
# Youngs Moduli (GPa) = 93.54545 66.56033 22.05551
#
# Poissons Ratio (x) = 0.27769 0.12390
# Poissons Ratio (y) = 0.39027 0.01181
# Poissons Ratio (z) = 0.52549 0.03563
#
# Static dielectric constant tensor:
#      x y z
#    x 2.977790 0.000000 0.000000 
#    y 0.000000 3.200910 0.000000 
#    z 0.000000 0.000000 2.945500 
# 
# 
# High freq. dielectric constant tensor:
#      x y z
#    x 1.616950 0.000000 0.000000 
#    y 0.000000 1.643760 0.000000 
#    z 0.000000 0.000000 1.620210 
# 
# From -- ./inp_files/11883.got.cif
#   From: 2010.03.12/outbox.cif.g09.slc.cpg/sg23_6_cif.got.tgz:11883.got - 2010.04.14 02:50:06.
