data_PCOD8163381
_publ_section_title
;
Structure prediction by ZEFSAII (Michael W. Deem and Ramdas Pophale) SiO2 
 PCOD8163381
Probable space group: I 2 2 2
;
_chemical_formula_sum "Si O2"
_cell_formula_units_Z 40
_cell_length_a 19.806987
_cell_length_b 22.206450
_cell_length_c 4.903442
_cell_angle_alpha 90.000000
_cell_angle_beta 90.000000
_cell_angle_gamma 90.000000
_cell_volume 2156.743985
_symmetry_space_group_name_H-M "I 2 2 2"
_symmetry_group_IT_number 23
_symmetry_cell_setting 'orthorhombic'
loop_
_space_group_symop_operation_xyz
x,y,z
-x,-y,z
x,-y,-z
-x,y,-z
1/2+x,1/2+y,1/2+z
1/2-x,1/2-y,1/2+z
1/2+x,1/2-y,1/2-z
1/2-x,1/2+y,1/2-z
loop_
_atom_site_type_symbol
_atom_site_label
_atom_site_fract_x
_atom_site_fract_y
_atom_site_fract_z
Si Si1 0.542578 0.666264 0.743473
Si Si2 0.295688 0.181542 0.360953
Si Si3 0.840923 0.747962 0.355740
Si Si4 0.640361 0.433375 0.444720
Si Si5 0.233269 0.066237 0.546284
O O1 0.500000 0.697732 0.500000
O O2 0.589894 0.715809 0.889682
O O3 0.580771 0.615224 0.561684
O O4 0.500000 0.639403 0.000000
O O5 0.218879 0.203964 0.382977
O O6 0.343397 0.219023 0.559354
O O7 0.292546 0.111998 0.454334
O O8 0.329297 0.192920 0.067044
O O9 0.610510 0.500000 0.500000
O O10 0.703390 0.419781 0.651108
O O11 0.667919 0.429353 0.140973
O O12 0.265496 0.000000 0.500000
#
# Coordination Sequence:
#
# PCOD8163381 Si02
#       5
#     8   8   8   8   8
#     4  12  24  37  55  73 109 148 191 231 257 308
#     4  10  19  33  56  77 104 134 174 225 266 337
#     4  10  21  33  53  78 101 137 184 218 273 312
#     4  10  21  36  52  74 106 144 190 226 255 304
#     4  10  19  33  56  81 110 139 172 221 276 322
#
# _framework density 18.546475999999998
#
# number of rings (size 3 to 8) (size 9 to 14) (size 15 to 20)
#    0.000    1.600    2.000    3.600    5.600    0.400 
#    0.000    1.000    0.000    0.000    0.000    0.000 
#    0.000   12.000    0.000    0.000    0.000    0.000 
#
# Total GULP energy -247858.888850 kJ/mol
# GULP energy per Si atom -12392.944442 kJ/mol
# Density = 1.850426 g / cm^3
# Si number density = 18.546476 Si / 1000 Ang^3
#
#
#
# Elastic Constant Matrix: (Units=GPa)
#
#
# Indices 1 2 3 4 5 6 
#
# 1 50.2301 42.3947 18.3918 0.0000 0.0000 0.0000
# 2 42.3947 104.5188 19.1621 0.0000 0.0000 0.0000
# 3 18.3918 19.1621 77.0950 0.0000 0.0000 0.0000
# 4 0.0000 0.0000 0.0000 17.1753 0.0000 0.0000
# 5 0.0000 0.0000 0.0000 0.0000 14.8024 0.0000
# 6 0.0000 0.0000 0.0000 0.0000 0.0000 16.1167
#
#
#
# Elastic Compliance Matrix: (Units=1/GPa)
#
#
# Indices 1 2 3 4 5 6 
#
# 1 0.031745 -0.012036 -0.004581 0.000000 0.000000 0.000000
# 2 -0.012036 0.014588 -0.000755 0.000000 0.000000 0.000000
# 3 -0.004581 -0.000755 0.014251 0.000000 0.000000 0.000000
# 4 0.000000 0.000000 0.000000 0.058223 0.000000 0.000000
# 5 0.000000 0.000000 0.000000 0.000000 0.067557 0.000000
# 6 0.000000 0.000000 0.000000 0.000000 0.000000 0.062048
#
#
# Mechanical properties :
#
#
# Convention : Reuss Voigt Hill
#
# Bulk Modulus (GPa) = 38.69985 43.52678 41.11331
# Shear Modulus (GPa) = 17.13684 19.74522 18.44103
#
# Velocity S-wave (km/s) = 3.04303 3.26641 3.15670
# Velocity P-wave (km/s) = 5.76701 6.14377 5.95837
#
# Compressibility (1/GPa) = 0.02583990
#
# Stress axis : x y z
#
# Youngs Moduli (GPa) = 31.50151 68.54905 70.16821
#
# Poissons Ratio (x) = 0.82507 0.32146
# Poissons Ratio (y) = 0.37916 0.05295
# Poissons Ratio (z) = 0.14432 0.05172
#
# Static dielectric constant tensor:
#      x y z
#    x 2.993480 0.000000 0.000000 
#    y 0.000000 3.593440 0.000000 
#    z 0.000000 0.000000 3.622660 
# 
# 
# High freq. dielectric constant tensor:
#      x y z
#    x 1.665480 0.000000 0.000000 
#    y 0.000000 1.710350 0.000000 
#    z 0.000000 0.000000 1.746870 
# 
# From -- ./inp_files/3252.got.cif
#   From: 2010.03.12/outbox.cif.g09.slc.cpg/sg23_2_cif.got.tgz:3252.got - 2010.04.14 02:50:06.
