data_PCOD8163928
_publ_section_title
;
Structure prediction by ZEFSAII (Michael W. Deem and Ramdas Pophale) SiO2 
 PCOD8163928
Probable space group: I 2 2 2
;
_chemical_formula_sum "Si O2"
_cell_formula_units_Z 36
_cell_length_a 8.366493
_cell_length_b 21.970440
_cell_length_c 9.160487
_cell_angle_alpha 90.000000
_cell_angle_beta 90.000000
_cell_angle_gamma 90.000000
_cell_volume 1683.839796
_symmetry_space_group_name_H-M "I 2 2 2"
_symmetry_group_IT_number 23
_symmetry_cell_setting 'orthorhombic'
loop_
_space_group_symop_operation_xyz
x,y,z
-x,-y,z
x,-y,-z
-x,y,-z
1/2+x,1/2+y,1/2+z
1/2-x,1/2-y,1/2+z
1/2+x,1/2-y,1/2-z
1/2-x,1/2+y,1/2-z
loop_
_atom_site_type_symbol
_atom_site_label
_atom_site_fract_x
_atom_site_fract_y
_atom_site_fract_z
Si Si1 0.906683 0.932293 0.767521
Si Si2 0.726173 0.424718 0.424906
Si Si3 0.500000 0.000000 0.000000
Si Si4 0.355605 0.714922 0.389992
Si Si5 0.426173 0.692947 0.855163
Si Si6 0.000000 0.000000 0.500000
O O1 0.869433 0.860590 0.752453
O O2 0.880764 0.961997 0.607608
O O3 0.092474 0.948034 0.810010
O O4 0.802143 0.950712 0.908525
O O5 0.898387 0.454653 0.392080
O O6 0.720950 0.351661 0.417079
O O7 0.500000 0.728773 0.500000
O O8 0.429142 0.726332 0.229388
O O9 0.214222 0.762851 0.405452
O O10 0.500000 0.663046 0.000000
#
# Coordination Sequence:
#
# PCOD8163928 Si02
#       6
#     8   8   2   8   8   2
#     4  10  21  41  64  86 123 166 210 253 321 388
#     4  10  22  43  61  90 123 165 213 258 316 376
#     4  12  24  34  66  94 112 158 224 284 292 346
#     4  11  22  41  64  91 133 169 209 262 319 388
#     4  11  22  37  63  98 124 166 212 257 321 382
#     4  12  20  34  66  86 108 158 212 256 292 374
#
# _framework density 21.379705999999999
#
# number of rings (size 3 to 8) (size 9 to 14) (size 15 to 20)
#    0.000    1.333    5.556    2.667    1.556    1.778 
#    0.000    0.000    0.000    6.000    0.000    0.000 
#    0.000    0.000    0.000    0.000    0.000    0.000 
#
# Total GULP energy -222991.553705 kJ/mol
# GULP energy per Si atom -12388.419650 kJ/mol
# Density = 2.133104 g / cm^3
# Si number density = 21.379706 Si / 1000 Ang^3
#
#
#
# Elastic Constant Matrix: (Units=GPa)
#
#
# Indices 1 2 3 4 5 6 
#
# 1 108.3215 62.4353 29.7358 0.0005 0.0002 0.0000
# 2 62.4353 80.2654 34.6413 -0.0010 0.0008 0.0000
# 3 29.7358 34.6413 132.3071 -0.0137 0.0005 0.0013
# 4 0.0005 -0.0010 -0.0137 35.5138 -0.0008 0.0005
# 5 0.0002 0.0008 0.0005 -0.0008 26.2928 0.0002
# 6 0.0000 0.0000 0.0013 0.0005 0.0002 44.9473
#
#
#
# Elastic Compliance Matrix: (Units=1/GPa)
#
#
# Indices 1 2 3 4 5 6 
#
# 1 0.016753 -0.012860 -0.000398 -0.000001 0.000000 0.000000
# 2 -0.012860 0.023917 -0.003372 0.000000 -0.000001 0.000000
# 3 -0.000398 -0.003372 0.008531 0.000003 0.000000 0.000000
# 4 -0.000001 0.000000 0.000003 0.028158 0.000001 0.000000
# 5 0.000000 -0.000001 0.000000 0.000001 0.038033 0.000000
# 6 0.000000 0.000000 0.000000 0.000000 0.000000 0.022248
#
#
# Mechanical properties :
#
#
# Convention : Reuss Voigt Hill
#
# Bulk Modulus (GPa) = 62.73136 63.83542 63.28339
# Shear Modulus (GPa) = 28.37449 34.28955 31.33202
#
# Velocity S-wave (km/s) = 3.64699 4.00914 3.83234
# Velocity P-wave (km/s) = 6.86580 7.16615 7.01758
#
# Compressibility (1/GPa) = 0.01594099
#
# Stress axis : x y z
#
# Youngs Moduli (GPa) = 59.68920 41.81094 117.22624
#
# Poissons Ratio (x) = 0.53769 0.04668
# Poissons Ratio (y) = 0.76760 0.39527
# Poissons Ratio (z) = 0.02377 0.14098
#
# Static dielectric constant tensor:
#      x y z
#    x 3.588270 0.000000 0.000000 
#    y 0.000000 3.988740 0.000000 
#    z 0.000000 0.000000 4.007460 
# 
# 
# High freq. dielectric constant tensor:
#      x y z
#    x 1.801770 0.000000 0.000000 
#    y 0.000000 1.864780 0.000000 
#    z 0.000000 0.000000 1.844610 
# 
# From -- ./inp_files/7059.got.cif
#   From: 2010.03.12/outbox.cif.g09.slc.cpg/sg23_4_cif.got.tgz:7059.got - 2010.04.14 02:50:06.
