data_PCOD8163290
_publ_section_title
;
Structure prediction by ZEFSAII (Michael W. Deem and Ramdas Pophale) SiO2 
 PCOD8163290
Probable space group: I 2 2 2
;
_chemical_formula_sum "Si O2"
_cell_formula_units_Z 60
_cell_length_a 11.782162
_cell_length_b 9.437298
_cell_length_c 25.368942
_cell_angle_alpha 90.000000
_cell_angle_beta 90.000000
_cell_angle_gamma 90.000000
_cell_volume 2820.817662
_symmetry_space_group_name_H-M "I 2 2 2"
_symmetry_group_IT_number 23
_symmetry_cell_setting 'orthorhombic'
loop_
_space_group_symop_operation_xyz
x,y,z
-x,-y,z
x,-y,-z
-x,y,-z
1/2+x,1/2+y,1/2+z
1/2-x,1/2-y,1/2+z
1/2+x,1/2-y,1/2-z
1/2-x,1/2+y,1/2-z
loop_
_atom_site_type_symbol
_atom_site_label
_atom_site_fract_x
_atom_site_fract_y
_atom_site_fract_z
Si Si1 0.680740 0.607438 0.695567
Si Si2 0.191297 0.649910 0.719741
Si Si3 0.851640 0.354602 0.396388
Si Si4 0.491515 0.758321 0.637110
Si Si5 0.198988 0.333718 0.936818
Si Si6 0.176782 0.654377 0.944160
Si Si7 0.392956 0.825760 0.105178
Si Si8 0.500000 0.000000 0.719181
O O1 0.690434 0.441547 0.713585
O O2 0.698465 0.712529 0.744291
O O3 0.787747 0.647093 0.659330
O O4 0.559805 0.626998 0.664598
O O5 0.151913 0.704490 0.663567
O O6 0.104710 0.535563 0.743485
O O7 0.778640 0.265258 0.437439
O O8 0.868991 0.515520 0.414995
O O9 0.975208 0.283414 0.393277
O O10 0.372290 0.736752 0.605921
O O11 0.567862 0.815851 0.590328
O O12 0.464868 0.869198 0.682841
O O13 0.212225 0.499330 0.923442
O O14 0.326681 0.273939 0.935896
O O15 0.142890 0.329630 0.994690
#
# Coordination Sequence:
#
# PCOD8163290 Si02
#       8
#     8   8   8   8   8   8   8   4
#     4   9  20  35  60  85 116 155 198 249 287 364
#     4  10  20  35  57  86 116 155 201 237 300 349
#     4   9  20  42  59  81 114 156 207 244 303 363
#     4  10  19  36  60  86 119 155 194 240 305 367
#     4  11  22  36  61  90 119 153 195 251 310 363
#     4  10  21  38  61  89 116 150 200 254 303 366
#     4  10  22  39  61  81 117 162 197 254 300 366
#     4  10  18  32  63  82 112 163 198 238 288 366
#
# _framework density 21.270427999999999
#
# number of rings (size 3 to 8) (size 9 to 14) (size 15 to 20)
#    0.000    2.133    1.333    2.000    1.867    2.667 
#    0.000    8.667    0.000    4.800    0.000    0.000 
#    0.000    0.000    0.000    0.000    0.000    0.000 
#
# Total GULP energy -371746.922390 kJ/mol
# GULP energy per Si atom -12391.564080 kJ/mol
# Density = 2.122202 g / cm^3
# Si number density = 21.270428 Si / 1000 Ang^3
#
#
#
# Elastic Constant Matrix: (Units=GPa)
#
#
# Indices 1 2 3 4 5 6 
#
# 1 76.6163 9.8873 7.2361 0.0000 0.0000 0.0000
# 2 9.8873 29.3243 9.8140 0.0000 0.0000 0.0000
# 3 7.2361 9.8140 67.4061 0.0000 0.0000 0.0000
# 4 0.0000 0.0000 0.0000 14.3503 0.0000 0.0000
# 5 0.0000 0.0000 0.0000 0.0000 25.4303 0.0000
# 6 0.0000 0.0000 0.0000 0.0000 0.0000 24.7876
#
#
#
# Elastic Compliance Matrix: (Units=1/GPa)
#
#
# Indices 1 2 3 4 5 6 
#
# 1 0.013691 -0.004336 -0.000838 0.000000 0.000000 0.000000
# 2 -0.004336 0.037221 -0.004954 0.000000 0.000000 0.000000
# 3 -0.000838 -0.004954 0.015647 0.000000 0.000000 0.000000
# 4 0.000000 0.000000 0.000000 0.069685 0.000000 0.000000
# 5 0.000000 0.000000 0.000000 0.000000 0.039323 0.000000
# 6 0.000000 0.000000 0.000000 0.000000 0.000000 0.040343
#
#
# Mechanical properties :
#
#
# Convention : Reuss Voigt Hill
#
# Bulk Modulus (GPa) = 21.59686 25.24683 23.42185
# Shear Modulus (GPa) = 19.87284 22.67424 21.27354
#
# Velocity S-wave (km/s) = 3.05994 3.26851 3.16594
# Velocity P-wave (km/s) = 4.76023 5.11267 4.93960
#
# Compressibility (1/GPa) = 0.04630302
#
# Stress axis : x y z
#
# Youngs Moduli (GPa) = 73.04204 26.86643 63.91120
#
# Poissons Ratio (x) = 0.11648 0.05359
# Poissons Ratio (y) = 0.31667 0.31660
# Poissons Ratio (z) = 0.06124 0.13309
#
# Static dielectric constant tensor:
#      x y z
#    x 4.152760 0.000000 0.000000 
#    y 0.000000 3.764760 0.000000 
#    z 0.000000 0.000000 3.851980 
# 
# 
# High freq. dielectric constant tensor:
#      x y z
#    x 1.836870 0.000000 0.000000 
#    y 0.000000 1.821400 0.000000 
#    z 0.000000 0.000000 1.838570 
# 
# From -- ./inp_files/29466.got.cif
#   From: 2010.03.12/outbox.cif.g09.slc.cpg/sg23_15_cif.got.tgz:29466.got - 2010.04.14 02:50:06.
