data_PCOD8163546
_publ_section_title
;
Structure prediction by ZEFSAII (Michael W. Deem and Ramdas Pophale) SiO2 
 PCOD8163546
Probable space group: I 2 2 2
;
_chemical_formula_sum "Si O2"
_cell_formula_units_Z 56
_cell_length_a 13.818926
_cell_length_b 9.316894
_cell_length_c 22.652904
_cell_angle_alpha 90.000000
_cell_angle_beta 90.000000
_cell_angle_gamma 90.000000
_cell_volume 2916.549355
_symmetry_space_group_name_H-M "I 2 2 2"
_symmetry_group_IT_number 23
_symmetry_cell_setting 'orthorhombic'
loop_
_space_group_symop_operation_xyz
x,y,z
-x,-y,z
x,-y,-z
-x,y,-z
1/2+x,1/2+y,1/2+z
1/2-x,1/2-y,1/2+z
1/2+x,1/2-y,1/2-z
1/2-x,1/2+y,1/2-z
loop_
_atom_site_type_symbol
_atom_site_label
_atom_site_fract_x
_atom_site_fract_y
_atom_site_fract_z
Si Si1 0.983832 0.332199 0.568071
Si Si2 0.737113 0.365363 0.329866
Si Si3 0.107340 0.172979 0.936637
Si Si4 0.710465 0.174863 0.131261
Si Si5 0.084591 0.179095 0.673538
Si Si6 0.606356 0.331102 0.431759
Si Si7 0.383972 0.626929 0.216993
O O1 0.873452 0.294987 0.583730
O O2 0.000000 0.500000 0.580579
O O3 0.000000 0.292105 0.500000
O O4 0.055408 0.235130 0.608221
O O5 0.786114 0.507004 0.355296
O O6 0.823260 0.268798 0.303068
O O7 0.683206 0.277895 0.382777
O O8 0.654679 0.408009 0.282267
O O9 0.188861 0.236711 0.893897
O O10 0.001382 0.227521 0.916636
O O11 0.107814 0.002233 0.932497
O O12 0.133489 0.224372 0.002999
O O13 0.690280 0.257538 0.191562
O O14 0.992706 0.194813 0.718273
O O15 0.115081 0.012038 0.674198
#
# Coordination Sequence:
#
# PCOD8163546 Si02
#       7
#     8   8   8   8   8   8   8
#     4  10  20  34  59  88 112 143 188 245 296 335
#     4  11  20  34  60  81 107 149 193 234 289 333
#     4   8  15  29  48  78 114 130 169 237 284 346
#     4  10  20  34  56  83 109 148 191 231 290 345
#     4  10  22  40  54  81 119 144 193 240 275 348
#     4   8  16  27  49  82 107 133 175 232 292 327
#     4  10  23  38  53  78 116 154 188 233 283 341
#
# _framework density 19.200773000000002
#
# number of rings (size 3 to 8) (size 9 to 14) (size 15 to 20)
#    0.000    2.429    1.429    1.714    2.000    6.857 
#    0.000    5.714    0.000    2.571    0.000    2.000 
#    0.000    0.000    0.000    0.000    0.000    0.000 
#
# Total GULP energy -347041.602689 kJ/mol
# GULP energy per Si atom -12394.342953 kJ/mol
# Density = 1.915707 g / cm^3
# Si number density = 19.200773 Si / 1000 Ang^3
#
#
#
# Elastic Constant Matrix: (Units=GPa)
#
#
# Indices 1 2 3 4 5 6 
#
# 1 125.6286 32.3943 50.8945 0.0000 0.0000 0.0000
# 2 32.3943 43.0495 23.1925 0.0000 0.0000 0.0000
# 3 50.8945 23.1925 86.0774 0.0000 0.0000 0.0000
# 4 0.0000 0.0000 0.0000 14.6292 0.0000 0.0000
# 5 0.0000 0.0000 0.0000 0.0000 33.0350 0.0000
# 6 0.0000 0.0000 0.0000 0.0000 0.0000 13.5925
#
#
#
# Elastic Compliance Matrix: (Units=1/GPa)
#
#
# Indices 1 2 3 4 5 6 
#
# 1 0.011621 -0.005899 -0.005281 0.000000 0.000000 0.000000
# 2 -0.005899 0.030168 -0.004640 0.000000 0.000000 0.000000
# 3 -0.005281 -0.004640 0.015991 0.000000 0.000000 0.000000
# 4 0.000000 0.000000 0.000000 0.068356 0.000000 0.000000
# 5 0.000000 0.000000 0.000000 0.000000 0.030271 0.000000
# 6 0.000000 0.000000 0.000000 0.000000 0.000000 0.073570
#
#
# Mechanical properties :
#
#
# Convention : Reuss Voigt Hill
#
# Bulk Modulus (GPa) = 38.25967 51.96867 45.11417
# Shear Modulus (GPa) = 18.49581 22.13628 20.31605
#
# Velocity S-wave (km/s) = 3.10705 3.39910 3.25635
# Velocity P-wave (km/s) = 5.73071 6.52149 6.13885
#
# Compressibility (1/GPa) = 0.02613718
#
# Stress axis : x y z
#
# Youngs Moduli (GPa) = 86.05302 33.14759 62.53706
#
# Poissons Ratio (x) = 0.19554 0.33029
# Poissons Ratio (y) = 0.50764 0.29020
# Poissons Ratio (z) = 0.45449 0.15382
#
# Static dielectric constant tensor:
#      x y z
#    x 3.884860 0.000000 0.000000 
#    y 0.000000 3.106530 0.000000 
#    z 0.000000 0.000000 3.464140 
# 
# 
# High freq. dielectric constant tensor:
#      x y z
#    x 1.766310 0.000000 0.000000 
#    y 0.000000 1.700460 0.000000 
#    z 0.000000 0.000000 1.738550 
# 
# From -- ./inp_files/26992.got.cif
#   From: 2010.03.12/outbox.cif.g09.slc.cpg/sg23_14_cif.got.tgz:26992.got - 2010.04.14 02:50:06.
