data_PCOD8163384
_publ_section_title
;
Structure prediction by ZEFSAII (Michael W. Deem and Ramdas Pophale) SiO2 
 PCOD8163384
Probable space group: I 2 2 2
;
_chemical_formula_sum "Si O2"
_cell_formula_units_Z 52
_cell_length_a 29.506002
_cell_length_b 11.168709
_cell_length_c 8.487108
_cell_angle_alpha 90.000000
_cell_angle_beta 90.000000
_cell_angle_gamma 90.000000
_cell_volume 2796.875095
_symmetry_space_group_name_H-M "I 2 2 2"
_symmetry_group_IT_number 23
_symmetry_cell_setting 'orthorhombic'
loop_
_space_group_symop_operation_xyz
x,y,z
-x,-y,z
x,-y,-z
-x,y,-z
1/2+x,1/2+y,1/2+z
1/2-x,1/2-y,1/2+z
1/2+x,1/2-y,1/2-z
1/2-x,1/2+y,1/2-z
loop_
_atom_site_type_symbol
_atom_site_label
_atom_site_fract_x
_atom_site_fract_y
_atom_site_fract_z
Si Si1 0.830990 0.068094 0.851957
Si Si2 0.950007 0.505333 0.246158
Si Si3 0.628665 0.366543 0.044049
Si Si4 0.548859 0.804096 0.990601
Si Si5 0.871542 0.500000 0.000000
Si Si6 0.710070 0.654612 0.176089
Si Si7 0.296568 0.203177 0.487183
O O1 0.865766 0.134143 0.733961
O O2 0.800046 0.171204 0.923110
O O3 0.800020 0.973579 0.756433
O O4 0.855589 0.000000 0.000000
O O5 0.943834 0.636294 0.320542
O O6 0.949398 0.404846 0.377897
O O7 0.905618 0.484160 0.144024
O O8 0.000000 0.500000 0.160847
O O9 0.586607 0.293207 0.981579
O O10 0.617664 0.500000 0.000000
O O11 0.671837 0.313069 0.952279
O O12 0.500000 0.739561 0.000000
O O13 0.840680 0.619165 0.005722
O O14 0.712911 0.763052 0.303617
O O15 0.755466 0.636144 0.074115
#
# Coordination Sequence:
#
# PCOD8163384 Si02
#       7
#     8   8   8   8   4   8   8
#     4   9  20  38  54  76 106 151 188 223 290 342
#     4   9  19  36  55  78 114 145 173 223 287 341
#     4  10  19  33  57  77 107 145 181 229 274 335
#     4   9  18  35  57  81 108 143 183 223 275 339
#     4  12  23  32  56  88 108 138 189 238 276 336
#     4  10  22  37  55  75 108 149 186 228 294 336
#     4  11  23  35  55  78 109 140 190 243 273 347
#
# _framework density 18.592178000000001
#
# number of rings (size 3 to 8) (size 9 to 14) (size 15 to 20)
#    0.000    2.154    0.000    3.923    5.385    0.308 
#    0.000    0.000    0.000    0.000    0.000    8.615 
#    0.000    0.000    0.000    0.000    0.000    0.000 
#
# Total GULP energy -322156.513803 kJ/mol
# GULP energy per Si atom -12390.635146 kJ/mol
# Density = 1.854986 g / cm^3
# Si number density = 18.592178 Si / 1000 Ang^3
#
#
#
# Elastic Constant Matrix: (Units=GPa)
#
#
# Indices 1 2 3 4 5 6 
#
# 1 147.4947 38.5294 51.5208 0.0000 0.0000 0.0000
# 2 38.5294 48.4705 25.6093 0.0000 0.0000 0.0000
# 3 51.5208 25.6093 98.6953 0.0000 0.0000 0.0000
# 4 0.0000 0.0000 0.0000 15.1078 0.0000 0.0000
# 5 0.0000 0.0000 0.0000 0.0000 28.8454 0.0000
# 6 0.0000 0.0000 0.0000 0.0000 0.0000 25.8706
#
#
#
# Elastic Compliance Matrix: (Units=1/GPa)
#
#
# Indices 1 2 3 4 5 6 
#
# 1 0.009482 -0.005704 -0.003470 0.000000 0.000000 0.000000
# 2 -0.005704 0.027340 -0.004117 0.000000 0.000000 0.000000
# 3 -0.003470 -0.004117 0.013012 0.000000 0.000000 0.000000
# 4 0.000000 0.000000 0.000000 0.066191 0.000000 0.000000
# 5 0.000000 0.000000 0.000000 0.000000 0.034668 0.000000
# 6 0.000000 0.000000 0.000000 0.000000 0.000000 0.038654
#
#
# Mechanical properties :
#
#
# Convention : Reuss Voigt Hill
#
# Bulk Modulus (GPa) = 43.00484 58.44216 50.72350
# Shear Modulus (GPa) = 22.35360 25.89818 24.12589
#
# Velocity S-wave (km/s) = 3.47120 3.73629 3.60618
# Velocity P-wave (km/s) = 6.26470 7.07920 6.68437
#
# Compressibility (1/GPa) = 0.02325319
#
# Stress axis : x y z
#
# Youngs Moduli (GPa) = 105.46391 36.57611 76.85458
#
# Poissons Ratio (x) = 0.20863 0.26666
# Poissons Ratio (y) = 0.60157 0.31638
# Poissons Ratio (z) = 0.36592 0.15057
#
# Static dielectric constant tensor:
#      x y z
#    x 3.392940 0.000000 0.000000 
#    y 0.000000 3.257050 0.000000 
#    z 0.000000 0.000000 3.900600 
# 
# 
# High freq. dielectric constant tensor:
#      x y z
#    x 1.712580 0.000000 0.000000 
#    y 0.000000 1.718210 0.000000 
#    z 0.000000 0.000000 1.732450 
# 
# From -- ./inp_files/13007.got.cif
#   From: 2010.03.12/outbox.cif.g09.slc.cpg/sg23_7_cif.got.tgz:13007.got - 2010.04.14 02:50:06.
