data_PCOD8163442
_publ_section_title
;
Structure prediction by ZEFSAII (Michael W. Deem and Ramdas Pophale) SiO2 
 PCOD8163442
Probable space group: I 2 2 2
;
_chemical_formula_sum "Si O2"
_cell_formula_units_Z 54
_cell_length_a 7.868983
_cell_length_b 13.105306
_cell_length_c 23.664447
_cell_angle_alpha 90.000000
_cell_angle_beta 90.000000
_cell_angle_gamma 90.000000
_cell_volume 2440.406276
_symmetry_space_group_name_H-M "I 2 2 2"
_symmetry_group_IT_number 23
_symmetry_cell_setting 'orthorhombic'
loop_
_space_group_symop_operation_xyz
x,y,z
-x,-y,z
x,-y,-z
-x,y,-z
1/2+x,1/2+y,1/2+z
1/2-x,1/2-y,1/2+z
1/2+x,1/2-y,1/2-z
1/2-x,1/2+y,1/2-z
loop_
_atom_site_type_symbol
_atom_site_label
_atom_site_fract_x
_atom_site_fract_y
_atom_site_fract_z
Si Si1 0.190212 0.165235 0.430410
Si Si2 0.015123 0.772427 0.677407
Si Si3 0.813448 0.621912 0.606866
Si Si4 0.823598 0.658573 0.228309
Si Si5 0.500000 0.500000 0.000000
Si Si6 0.500000 0.169676 0.000000
Si Si7 0.510927 0.243866 0.629828
Si Si8 0.327459 0.554067 0.677010
O O1 0.131081 0.262088 0.465512
O O2 0.393268 0.179835 0.419582
O O3 0.106592 0.158166 0.368694
O O4 0.133298 0.063869 0.462770
O O5 0.955888 0.664469 0.649787
O O6 0.855607 0.834442 0.698506
O O7 0.137335 0.754970 0.731012
O O8 0.889839 0.603548 0.544307
O O9 0.658060 0.703214 0.604817
O O10 0.754581 0.510903 0.626650
O O11 0.804085 0.559657 0.269570
O O12 0.966156 0.660874 0.179151
O O13 0.637833 0.331248 0.654102
O O14 0.500000 0.500000 0.697645
#
# Coordination Sequence:
#
# PCOD8163442 Si02
#       8
#     8   8   8   8   2   4   8   8
#     4  10  20  42  66  93 124 168 223 279 325 387
#     4  10  19  35  61  91 130 172 210 252 330 403
#     4   9  21  37  62  97 126 168 224 268 318 390
#     4  11  19  36  63  94 130 179 206 249 329 395
#     4  10  24  44  70  94 122 174 234 292 324 358
#     4   9  20  41  66  88 124 178 207 273 355 381
#     4  10  20  38  67  96 128 175 216 260 330 404
#     4  10  20  37  60  97 136 165 212 270 309 393
#
# _framework density 22.127462000000001
#
# number of rings (size 3 to 8) (size 9 to 14) (size 15 to 20)
#    0.000    2.074    2.963    0.000    0.000    1.185 
#    1.333    3.704    0.000   30.222    0.000    0.000 
#    0.000    0.000    0.000    0.000    0.000    0.000 
#
# Total GULP energy -334567.545118 kJ/mol
# GULP energy per Si atom -12391.390560 kJ/mol
# Density = 2.207710 g / cm^3
# Si number density = 22.127462 Si / 1000 Ang^3
#
#
#
# Elastic Constant Matrix: (Units=GPa)
#
#
# Indices 1 2 3 4 5 6 
#
# 1 80.5662 38.2861 63.6738 0.0000 0.0000 0.0000
# 2 38.2861 79.1420 41.4745 0.0000 0.0000 0.0000
# 3 63.6738 41.4745 136.1149 0.0000 0.0000 0.0000
# 4 0.0000 0.0000 0.0000 27.6116 0.0000 0.0000
# 5 0.0000 0.0000 0.0000 0.0000 51.2544 0.0000
# 6 0.0000 0.0000 0.0000 0.0000 0.0000 22.5628
#
#
#
# Elastic Compliance Matrix: (Units=1/GPa)
#
#
# Indices 1 2 3 4 5 6 
#
# 1 0.022018 -0.006252 -0.008395 0.000000 0.000000 0.000000
# 2 -0.006252 0.016812 -0.002198 0.000000 0.000000 0.000000
# 3 -0.008395 -0.002198 0.011943 0.000000 0.000000 0.000000
# 4 0.000000 0.000000 0.000000 0.036217 0.000000 0.000000
# 5 0.000000 0.000000 0.000000 0.000000 0.019511 0.000000
# 6 0.000000 0.000000 0.000000 0.000000 0.000000 0.044321
#
#
# Mechanical properties :
#
#
# Convention : Reuss Voigt Hill
#
# Bulk Modulus (GPa) = 58.53584 64.74356 61.63970
# Shear Modulus (GPa) = 26.28734 30.44500 28.36617
#
# Velocity S-wave (km/s) = 3.45047 3.71333 3.58431
# Velocity P-wave (km/s) = 6.51043 6.90709 6.71169
#
# Compressibility (1/GPa) = 0.01708355
#
# Stress axis : x y z
#
# Youngs Moduli (GPa) = 45.41755 59.48162 83.72774
#
# Poissons Ratio (x) = 0.37189 0.70288
# Poissons Ratio (y) = 0.28396 0.18402
# Poissons Ratio (z) = 0.38127 0.13073
#
# Static dielectric constant tensor:
#      x y z
#    x 4.235010 0.000000 0.000000 
#    y 0.000000 3.608540 0.000000 
#    z 0.000000 0.000000 4.250200 
# 
# 
# High freq. dielectric constant tensor:
#      x y z
#    x 1.883050 0.000000 0.000000 
#    y 0.000000 1.830790 0.000000 
#    z 0.000000 0.000000 1.876500 
# 
# From -- ./inp_files/28061.got.cif
#   From: 2010.03.12/outbox.cif.g09.slc.cpg/sg23_15_cif.got.tgz:28061.got - 2010.04.14 02:50:06.
