data_PCOD8163417
_publ_section_title
;
Structure prediction by ZEFSAII (Michael W. Deem and Ramdas Pophale) SiO2 
 PCOD8163417
Probable space group: I 2 2 2
;
_chemical_formula_sum "Si O2"
_cell_formula_units_Z 58
_cell_length_a 25.483658
_cell_length_b 13.774201
_cell_length_c 8.721725
_cell_angle_alpha 90.000000
_cell_angle_beta 90.000000
_cell_angle_gamma 90.000000
_cell_volume 3061.473984
_symmetry_space_group_name_H-M "I 2 2 2"
_symmetry_group_IT_number 23
_symmetry_cell_setting 'orthorhombic'
loop_
_space_group_symop_operation_xyz
x,y,z
-x,-y,z
x,-y,-z
-x,y,-z
1/2+x,1/2+y,1/2+z
1/2-x,1/2-y,1/2+z
1/2+x,1/2-y,1/2-z
1/2-x,1/2+y,1/2-z
loop_
_atom_site_type_symbol
_atom_site_label
_atom_site_fract_x
_atom_site_fract_y
_atom_site_fract_z
Si Si1 0.636646 0.698665 0.452668
Si Si2 0.336305 0.546579 0.288452
Si Si3 0.582848 0.616720 0.192588
Si Si4 0.781042 0.484172 0.325634
Si Si5 0.719798 0.236785 0.782243
Si Si6 0.500000 0.500000 0.000000
Si Si7 0.169188 0.668246 0.798910
Si Si8 0.152119 0.792806 0.547347
O O1 0.643946 0.606004 0.563070
O O2 0.582696 0.683639 0.350179
O O3 0.687029 0.702031 0.340930
O O4 0.637037 0.800986 0.547704
O O5 0.377379 0.465613 0.243644
O O6 0.280909 0.494041 0.319173
O O7 0.332104 0.612362 0.140071
O O8 0.530968 0.567730 0.121937
O O9 0.602668 0.686844 0.059453
O O10 0.800908 0.500000 0.500000
O O11 0.792377 0.377263 0.262045
O O12 0.812869 0.556730 0.210828
O O13 0.781370 0.258242 0.775568
O O14 0.704028 0.266834 0.953097
O O15 0.134130 0.701279 0.653155
#
# Coordination Sequence:
#
# PCOD8163417 Si02
#       8
#     8   8   8   8   8   2   8   8
#     4  10  22  36  52  73 117 160 188 235 306 333
#     4  11  20  34  55  77 112 161 197 234 288 331
#     4  11  22  39  59  81 110 143 181 239 300 364
#     4  12  21  31  53  81 115 162 222 246 259 312
#     4  11  20  33  49  76 113 158 210 250 266 317
#     4  12  24  40  66  96 100 134 206 240 292 400
#     4  11  21  32  50  75 113 160 213 242 270 329
#     4  10  19  35  50  71 111 158 186 229 295 337
#
# _framework density 18.945122000000001
#
# number of rings (size 3 to 8) (size 9 to 14) (size 15 to 20)
#    0.000    1.103    5.517    4.552    0.000    0.552 
#    0.000    1.379    0.000    0.000    0.000    0.000 
#    0.000    8.828   10.483    0.000    0.000    0.000 
#
# Total GULP energy -359254.210144 kJ/mol
# GULP energy per Si atom -12388.076212 kJ/mol
# Density = 1.890200 g / cm^3
# Si number density = 18.945122 Si / 1000 Ang^3
#
#
#
# Elastic Constant Matrix: (Units=GPa)
#
#
# Indices 1 2 3 4 5 6 
#
# 1 53.8880 20.2220 33.6366 0.0000 0.0000 0.0000
# 2 20.2220 102.4905 37.8289 0.0000 0.0000 0.0000
# 3 33.6366 37.8289 116.2828 0.0000 0.0000 0.0000
# 4 0.0000 0.0000 0.0000 30.8389 0.0000 0.0000
# 5 0.0000 0.0000 0.0000 0.0000 21.4631 0.0000
# 6 0.0000 0.0000 0.0000 0.0000 0.0000 18.5884
#
#
#
# Elastic Compliance Matrix: (Units=1/GPa)
#
#
# Indices 1 2 3 4 5 6 
#
# 1 0.023146 -0.002382 -0.005921 0.000000 0.000000 0.000000
# 2 -0.002382 0.011333 -0.002998 0.000000 0.000000 0.000000
# 3 -0.005921 -0.002998 0.011288 0.000000 0.000000 0.000000
# 4 0.000000 0.000000 0.000000 0.032427 0.000000 0.000000
# 5 0.000000 0.000000 0.000000 0.000000 0.046592 0.000000
# 6 0.000000 0.000000 0.000000 0.000000 0.000000 0.053797
#
#
# Mechanical properties :
#
#
# Convention : Reuss Voigt Hill
#
# Bulk Modulus (GPa) = 43.16514 50.67070 46.91792
# Shear Modulus (GPa) = 23.93426 26.24302 25.08864
#
# Velocity S-wave (km/s) = 3.55822 3.72588 3.64301
# Velocity P-wave (km/s) = 6.30198 6.73155 6.52030
#
# Compressibility (1/GPa) = 0.02316684
#
# Stress axis : x y z
#
# Youngs Moduli (GPa) = 43.20333 88.23415 88.59207
#
# Poissons Ratio (x) = 0.21014 0.52452
# Poissons Ratio (y) = 0.10289 0.26560
# Poissons Ratio (z) = 0.25579 0.26453
#
# Static dielectric constant tensor:
#      x y z
#    x 2.980280 0.000000 0.000000 
#    y 0.000000 3.914560 0.000000 
#    z 0.000000 0.000000 4.221500 
# 
# 
# High freq. dielectric constant tensor:
#      x y z
#    x 1.655300 0.000000 0.000000 
#    y 0.000000 1.740180 0.000000 
#    z 0.000000 0.000000 1.768660 
# 
# From -- ./inp_files/12694.got.cif
#   From: 2010.03.12/outbox.cif.g09.slc.cpg/sg23_7_cif.got.tgz:12694.got - 2010.04.14 02:50:06.
