data_PCOD8163035
_publ_section_title
;
Structure prediction by ZEFSAII (Michael W. Deem and Ramdas Pophale) SiO2 
 PCOD8163035
Probable space group: F 2 2 2
;
_chemical_formula_sum "Si O2"
_cell_formula_units_Z 92
_cell_length_a 16.569010
_cell_length_b 11.361485
_cell_length_c 21.350508
_cell_angle_alpha 90.000000
_cell_angle_beta 90.000000
_cell_angle_gamma 90.000000
_cell_volume 4019.202356
_symmetry_space_group_name_H-M "F 2 2 2"
_symmetry_group_IT_number 22
_symmetry_cell_setting 'orthorhombic'
loop_
_space_group_symop_operation_xyz
x,y,z
-x,-y,z
x,-y,-z
-x,y,-z
x,1/2+y,1/2+z
-x,1/2-y,1/2+z
x,1/2-y,1/2-z
-x,1/2+y,1/2-z
1/2+x,y,1/2+z
1/2-x,-y,1/2+z
1/2+x,-y,1/2-z
1/2-x,y,1/2-z
1/2+x,1/2+y,z
1/2-x,1/2-y,z
1/2+x,1/2-y,-z
1/2-x,1/2+y,-z
loop_
_atom_site_type_symbol
_atom_site_label
_atom_site_fract_x
_atom_site_fract_y
_atom_site_fract_z
Si Si1 0.500000 0.000000 0.723340
Si Si2 0.845409 0.764805 0.557224
Si Si3 0.600334 0.842829 0.201560
Si Si4 0.844577 0.225406 0.918441
Si Si5 0.814254 0.072069 0.340141
Si Si6 0.634560 0.029507 0.379602
Si Si7 0.250000 0.750000 0.250000
O O1 0.514817 0.115243 0.767913
O O2 0.422586 0.020665 0.680215
O O3 0.750000 0.750000 0.564732
O O4 0.867315 0.785878 0.484619
O O5 0.865870 0.880855 0.599200
O O6 0.889628 0.645647 0.580818
O O7 0.641413 0.750000 0.250000
O O8 0.596326 0.783257 0.133263
O O9 0.648947 0.962751 0.195685
O O10 0.750000 0.250000 0.901986
O O11 0.867726 0.087727 0.922634
O O12 0.724891 0.034717 0.356536
O O13 0.812584 0.178253 0.291746
#
# Coordination Sequence:
#
# PCOD8163035 Si02
#       7
#     8  16  16  16  16  16   4
#     4  12  28  42  65  89 144 180 226 282 352 414
#     4   9  21  41  69 107 136 175 225 283 350 413
#     4  12  27  45  68 103 134 181 235 291 354 411
#     4  11  22  41  75 104 137 171 229 294 345 414
#     4  11  23  41  70 103 139 175 232 289 348 411
#     4  11  21  45  65 102 135 184 224 288 345 419
#     4  12  20  36  58 108 140 176 214 264 356 408
#
# _framework density 22.890112999999999
#
# number of rings (size 3 to 8) (size 9 to 14) (size 15 to 20)
#    0.000    1.043    6.087    1.565    0.000    3.826 
#    1.565    1.739    0.000    1.043    0.000    0.000 
#    0.000    0.000    0.000    0.000    0.000    0.000 
#
# Total GULP energy -285028.147161 kJ/mol
# GULP energy per Si atom -12392.528137 kJ/mol
# Density = 2.283801 g / cm^3
# Si number density = 22.890113 Si / 1000 Ang^3
#
#
#
# Elastic Constant Matrix: (Units=GPa)
#
#
# Indices 1 2 3 4 5 6 
#
# 1 36.2241 37.8965 35.6962 0.0000 0.0000 0.0000
# 2 37.8965 168.2717 89.0057 0.0000 0.0000 0.0000
# 3 35.6962 89.0057 182.4447 0.0000 0.0000 0.0000
# 4 0.0000 0.0000 0.0000 38.6200 0.0000 0.0000
# 5 0.0000 0.0000 0.0000 0.0000 20.3678 0.0000
# 6 0.0000 0.0000 0.0000 0.0000 0.0000 30.7201
#
#
#
# Elastic Compliance Matrix: (Units=1/GPa)
#
#
# Indices 1 2 3 4 5 6 
#
# 1 0.038640 -0.006339 -0.004468 0.000000 0.000000 0.000000
# 2 -0.006339 0.009050 -0.003175 0.000000 0.000000 0.000000
# 3 -0.004468 -0.003175 0.007904 0.000000 0.000000 0.000000
# 4 0.000000 0.000000 0.000000 0.025893 0.000000 0.000000
# 5 0.000000 0.000000 0.000000 0.000000 0.049097 0.000000
# 6 0.000000 0.000000 0.000000 0.000000 0.000000 0.032552
#
#
# Mechanical properties :
#
#
# Convention : Reuss Voigt Hill
#
# Bulk Modulus (GPa) = 36.19105 79.12636 57.65870
# Shear Modulus (GPa) = 24.96146 32.89774 28.92960
#
# Velocity S-wave (km/s) = 3.30584 3.79516 3.55892
# Velocity P-wave (km/s) = 5.51512 7.33807 6.49091
#
# Compressibility (1/GPa) = 0.02763114
#
# Stress axis : x y z
#
# Youngs Moduli (GPa) = 25.87986 110.50294 126.51930
#
# Poissons Ratio (x) = 0.70048 0.56524
# Poissons Ratio (y) = 0.16405 0.40164
# Poissons Ratio (z) = 0.11562 0.35080
#
# Static dielectric constant tensor:
#      x y z
#    x 3.576230 0.000000 0.000000 
#    y 0.000000 4.586200 0.000000 
#    z 0.000000 0.000000 4.482640 
# 
# 
# High freq. dielectric constant tensor:
#      x y z
#    x 1.854760 0.000000 0.000000 
#    y 0.000000 1.919060 0.000000 
#    z 0.000000 0.000000 1.918680 
# 
# From -- ./inp_files/42673.got.cif
#   From: 2010.03.12/outbox.cif.g09.slc.cpg/sg22_22_cif.got.tgz:42673.got - 2010.04.14 02:24:06.
