data_PCOD8163666
_publ_section_title
;
Structure prediction by ZEFSAII (Michael W. Deem and Ramdas Pophale) SiO2 
 PCOD8163666
Probable space group: I 2 2 2
;
_chemical_formula_sum "Si O2"
_cell_formula_units_Z 58
_cell_length_a 8.758814
_cell_length_b 11.565002
_cell_length_c 27.684063
_cell_angle_alpha 90.000000
_cell_angle_beta 90.000000
_cell_angle_gamma 90.000000
_cell_volume 2804.276580
_symmetry_space_group_name_H-M "I 2 2 2"
_symmetry_group_IT_number 23
_symmetry_cell_setting 'orthorhombic'
loop_
_space_group_symop_operation_xyz
x,y,z
-x,-y,z
x,-y,-z
-x,y,-z
1/2+x,1/2+y,1/2+z
1/2-x,1/2-y,1/2+z
1/2+x,1/2-y,1/2-z
1/2-x,1/2+y,1/2-z
loop_
_atom_site_type_symbol
_atom_site_label
_atom_site_fract_x
_atom_site_fract_y
_atom_site_fract_z
Si Si1 0.000000 0.500000 0.500000
Si Si2 0.321425 0.625783 0.011736
Si Si3 0.208398 0.757514 0.263769
Si Si4 0.141571 0.850984 0.847606
Si Si5 0.682101 0.187136 0.939255
Si Si6 0.612806 0.720500 0.889290
Si Si7 0.291215 0.397001 0.327417
Si Si8 0.579414 0.380996 0.208941
O O1 0.109986 0.577146 0.466563
O O2 0.291492 0.662645 0.067116
O O3 0.249274 0.500000 0.000000
O O4 0.500000 0.624408 0.000000
O O5 0.246952 0.723513 0.977925
O O6 0.293648 0.757206 0.315977
O O7 0.259769 0.858276 0.226380
O O8 0.259081 0.637267 0.236744
O O9 0.028627 0.773267 0.274197
O O10 0.175838 0.842137 0.904621
O O11 0.963322 0.858277 0.838483
O O12 0.229625 0.966207 0.830066
O O13 0.555413 0.247534 0.906319
O O14 0.689847 0.836194 0.868633
O O15 0.603889 0.621384 0.848359
O O16 0.500000 0.500000 0.225318
#
# Coordination Sequence:
#
# PCOD8163666 Si02
#       8
#     2   8   8   8   8   8   8   8
#     4  12  20  36  58  94 132 140 204 264 316 340
#     4   9  19  35  59  86 116 150 195 246 302 353
#     4  11  21  39  60  86 119 158 203 248 303 366
#     4  11  22  39  62  84 121 167 201 244 314 362
#     4  11  21  35  62  90 119 158 200 259 300 370
#     4  10  20  38  60  90 117 154 201 253 301 356
#     4  10  23  40  58  85 125 161 199 250 299 373
#     4  11  23  38  63  89 122 160 202 253 309 366
#
# _framework density 20.682697000000001
#
# number of rings (size 3 to 8) (size 9 to 14) (size 15 to 20)
#    0.000    1.517    4.828    1.655    3.862    0.000 
#    0.000    2.759    0.000    3.310    0.000    0.000 
#    0.000    0.000    0.000    0.000    0.000    0.000 
#
# Total GULP energy -359362.642680 kJ/mol
# GULP energy per Si atom -12391.815265 kJ/mol
# Density = 2.063562 g / cm^3
# Si number density = 20.682697 Si / 1000 Ang^3
#
#
#
# Elastic Constant Matrix: (Units=GPa)
#
#
# Indices 1 2 3 4 5 6 
#
# 1 49.2228 26.5951 29.4643 0.0000 0.0000 0.0000
# 2 26.5951 100.4841 49.5364 0.0000 0.0000 0.0000
# 3 29.4643 49.5364 156.0984 0.0000 0.0000 0.0000
# 4 0.0000 0.0000 0.0000 30.7159 0.0000 0.0000
# 5 0.0000 0.0000 0.0000 0.0000 29.1952 0.0000
# 6 0.0000 0.0000 0.0000 0.0000 0.0000 21.6771
#
#
#
# Elastic Compliance Matrix: (Units=1/GPa)
#
#
# Indices 1 2 3 4 5 6 
#
# 1 0.024905 -0.005067 -0.003093 0.000000 0.000000 0.000000
# 2 -0.005067 0.012828 -0.003115 0.000000 0.000000 0.000000
# 3 -0.003093 -0.003115 0.007978 0.000000 0.000000 0.000000
# 4 0.000000 0.000000 0.000000 0.032556 0.000000 0.000000
# 5 0.000000 0.000000 0.000000 0.000000 0.034252 0.000000
# 6 0.000000 0.000000 0.000000 0.000000 0.000000 0.046132
#
#
# Mechanical properties :
#
#
# Convention : Reuss Voigt Hill
#
# Bulk Modulus (GPa) = 43.17264 57.44409 50.30836
# Shear Modulus (GPa) = 26.46604 29.66494 28.06549
#
# Velocity S-wave (km/s) = 3.58106 3.79131 3.68768
# Velocity P-wave (km/s) = 6.16586 6.85563 6.51987
#
# Compressibility (1/GPa) = 0.02316282
#
# Stress axis : x y z
#
# Youngs Moduli (GPa) = 40.15286 77.95295 125.33830
#
# Poissons Ratio (x) = 0.39497 0.38767
# Poissons Ratio (y) = 0.20345 0.39037
# Poissons Ratio (z) = 0.12419 0.24279
#
# Static dielectric constant tensor:
#      x y z
#    x 3.409910 0.000000 0.000000 
#    y 0.000000 3.895260 0.000000 
#    z 0.000000 0.000000 4.156720 
# 
# 
# High freq. dielectric constant tensor:
#      x y z
#    x 1.770070 0.000000 0.000000 
#    y 0.000000 1.799280 0.000000 
#    z 0.000000 0.000000 1.834620 
# 
# From -- ./inp_files/8874.got.cif
#   From: 2010.03.12/outbox.cif.g09.slc.cpg/sg23_5_cif.got.tgz:8874.got - 2010.04.14 02:50:06.
