data_PCOD8163617
_publ_section_title
;
Structure prediction by ZEFSAII (Michael W. Deem and Ramdas Pophale) SiO2 
 PCOD8163617
Probable space group: I 2 2 2
;
_chemical_formula_sum "Si O2"
_cell_formula_units_Z 54
_cell_length_a 8.189768
_cell_length_b 16.681000
_cell_length_c 19.485899
_cell_angle_alpha 90.000000
_cell_angle_beta 90.000000
_cell_angle_gamma 90.000000
_cell_volume 2662.037253
_symmetry_space_group_name_H-M "I 2 2 2"
_symmetry_group_IT_number 23
_symmetry_cell_setting 'orthorhombic'
loop_
_space_group_symop_operation_xyz
x,y,z
-x,-y,z
x,-y,-z
-x,y,-z
1/2+x,1/2+y,1/2+z
1/2-x,1/2-y,1/2+z
1/2+x,1/2-y,1/2-z
1/2-x,1/2+y,1/2-z
loop_
_atom_site_type_symbol
_atom_site_label
_atom_site_fract_x
_atom_site_fract_y
_atom_site_fract_z
Si Si1 0.434766 0.081421 0.396418
Si Si2 0.604748 0.845146 0.725515
Si Si3 0.378296 0.360923 0.586824
Si Si4 0.462050 0.322637 0.281148
Si Si5 0.000000 0.000000 0.000000
Si Si6 0.500000 0.781778 0.500000
Si Si7 0.108722 0.431516 0.672144
Si Si8 0.341183 0.444545 0.792283
O O1 0.576214 0.095398 0.338695
O O2 0.410548 0.157384 0.447267
O O3 0.257820 0.065459 0.362653
O O4 0.500000 0.000000 0.433963
O O5 0.509615 0.766947 0.701154
O O6 0.793030 0.832169 0.741848
O O7 0.520956 0.873457 0.794062
O O8 0.525441 0.364374 0.643373
O O9 0.385948 0.441924 0.543599
O O10 0.378813 0.278952 0.541272
O O11 0.203099 0.370631 0.622472
O O12 0.599394 0.356648 0.229960
O O13 0.224495 0.475843 0.729798
O O14 0.000000 0.500000 0.634210
O O15 0.500000 0.500000 0.801509
#
# Coordination Sequence:
#
# PCOD8163617 Si02
#       8
#     8   8   8   8   2   4   8   8
#     4  11  22  39  64  93 122 168 213 262 317 383
#     4  11  21  36  62  98 127 153 204 260 328 373
#     4  10  23  41  64  88 123 170 213 251 299 377
#     4  11  21  35  64  93 124 164 197 266 317 372
#     4  10  24  40  64  84 122 172 220 226 296 378
#     4  11  23  43  65  84 124 174 223 249 309 383
#     4  10  21  36  62  97 125 158 199 260 320 369
#     4  10  20  36  60  98 127 155 202 261 330 374
#
# _framework density 20.285215000000001
#
# number of rings (size 3 to 8) (size 9 to 14) (size 15 to 20)
#    0.000    1.481    1.481    6.444    6.222    0.000 
#    0.000    0.370    0.000    9.778    0.000    0.000 
#    0.000    0.000    0.000    0.000    0.000    0.000 
#
# Total GULP energy -334515.275373 kJ/mol
# GULP energy per Si atom -12389.454643 kJ/mol
# Density = 2.023905 g / cm^3
# Si number density = 20.285215 Si / 1000 Ang^3
#
#
#
# Elastic Constant Matrix: (Units=GPa)
#
#
# Indices 1 2 3 4 5 6 
#
# 1 110.4878 38.5840 40.2967 0.0000 0.0000 0.0000
# 2 38.5840 126.0296 46.8002 0.0000 0.0000 0.0000
# 3 40.2967 46.8002 83.6112 0.0000 0.0000 0.0000
# 4 0.0000 0.0000 0.0000 27.1624 0.0000 0.0000
# 5 0.0000 0.0000 0.0000 0.0000 26.1299 0.0000
# 6 0.0000 0.0000 0.0000 0.0000 0.0000 114.4321
#
#
#
# Elastic Compliance Matrix: (Units=1/GPa)
#
#
# Indices 1 2 3 4 5 6 
#
# 1 0.011300 -0.001814 -0.004431 0.000000 0.000000 0.000000
# 2 -0.001814 0.010308 -0.004895 0.000000 0.000000 0.000000
# 3 -0.004431 -0.004895 0.016836 0.000000 0.000000 0.000000
# 4 0.000000 0.000000 0.000000 0.036816 0.000000 0.000000
# 5 0.000000 0.000000 0.000000 0.000000 0.038270 0.000000
# 6 0.000000 0.000000 0.000000 0.000000 0.000000 0.008739
#
#
# Mechanical properties :
#
#
# Convention : Reuss Voigt Hill
#
# Bulk Modulus (GPa) = 61.86883 63.49892 62.68387
# Shear Modulus (GPa) = 33.34738 46.50806 39.92772
#
# Velocity S-wave (km/s) = 4.05893 4.79342 4.44138
# Velocity P-wave (km/s) = 7.24791 7.87444 7.56766
#
# Compressibility (1/GPa) = 0.01616323
#
# Stress axis : x y z
#
# Youngs Moduli (GPa) = 88.49325 97.01266 59.39797
#
# Poissons Ratio (x) = 0.17601 0.26317
# Poissons Ratio (y) = 0.16055 0.29077
# Poissons Ratio (z) = 0.39209 0.47491
#
# Static dielectric constant tensor:
#      x y z
#    x 3.602910 0.000000 0.000000 
#    y 0.000000 3.911590 0.000000 
#    z 0.000000 0.000000 3.315440 
# 
# 
# High freq. dielectric constant tensor:
#      x y z
#    x 1.776000 0.000000 0.000000 
#    y 0.000000 1.816220 0.000000 
#    z 0.000000 0.000000 1.775160 
# 
# From -- ./inp_files/26340.got.cif
#   From: 2010.03.12/outbox.cif.g09.slc.cpg/sg23_14_cif.got.tgz:26340.got - 2010.04.14 02:50:06.
