data_PCOD8163987
_publ_section_title
;
Structure prediction by ZEFSAII (Michael W. Deem and Ramdas Pophale) SiO2 
 PCOD8163987
Probable space group: I 2 2 2
;
_chemical_formula_sum "Si O2"
_cell_formula_units_Z 40
_cell_length_a 18.944083
_cell_length_b 17.204173
_cell_length_c 5.281063
_cell_angle_alpha 90.000000
_cell_angle_beta 90.000000
_cell_angle_gamma 90.000000
_cell_volume 1721.189695
_symmetry_space_group_name_H-M "I 2 2 2"
_symmetry_group_IT_number 23
_symmetry_cell_setting 'orthorhombic'
loop_
_space_group_symop_operation_xyz
x,y,z
-x,-y,z
x,-y,-z
-x,y,-z
1/2+x,1/2+y,1/2+z
1/2-x,1/2-y,1/2+z
1/2+x,1/2-y,1/2-z
1/2-x,1/2+y,1/2-z
loop_
_atom_site_type_symbol
_atom_site_label
_atom_site_fract_x
_atom_site_fract_y
_atom_site_fract_z
Si Si1 0.681185 0.333116 0.081037
Si Si2 0.740125 0.548430 0.252906
Si Si3 0.188228 0.659173 0.416579
Si Si4 0.033831 0.670286 0.250614
Si Si5 0.526004 0.656095 0.750885
O O1 0.745584 0.365845 0.246267
O O2 0.609878 0.333753 0.244978
O O3 0.678506 0.390005 0.834372
O O4 0.698793 0.245813 0.010950
O O5 0.712458 0.500000 0.500000
O O6 0.808870 0.598652 0.346474
O O7 0.761044 0.500000 0.000000
O O8 0.116938 0.653100 0.254509
O O9 0.000000 0.631370 0.500000
O O10 0.017434 0.762355 0.251918
O O11 0.000000 0.631814 0.000000
O O12 0.500000 0.610599 0.500000
O O13 0.500000 0.609454 0.000000
#
# Coordination Sequence:
#
# PCOD8163987 Si02
#       5
#     8   8   8   8   8
#     4  12  25  41  77 115 143 189 260 312 356 437
#     4  12  28  48  68 110 158 200 234 310 384 442
#     4  12  25  41  77 115 143 189 260 312 356 437
#     4  10  22  38  61 104 154 176 220 308 383 406
#     4  10  22  38  61 104 154 176 220 308 383 406
#
# _framework density 23.239739
#
# number of rings (size 3 to 8) (size 9 to 14) (size 15 to 20)
#    0.000    0.800    8.000    0.000   11.200    0.000 
#    0.000    0.000    0.000    1.200   10.400    0.000 
#    0.000    0.000    0.000    0.000    0.000    0.000 
#
# Total GULP energy -247767.174730 kJ/mol
# GULP energy per Si atom -12388.358736 kJ/mol
# Density = 2.318684 g / cm^3
# Si number density = 23.239739 Si / 1000 Ang^3
#
#
#
# Elastic Constant Matrix: (Units=GPa)
#
#
# Indices 1 2 3 4 5 6 
#
# 1 145.1255 8.7665 62.6057 0.0000 0.0000 0.0000
# 2 8.7665 87.2854 40.5620 0.0000 0.0000 0.0000
# 3 62.6057 40.5620 212.6677 0.0000 0.0000 0.0000
# 4 0.0000 0.0000 0.0000 23.8951 0.0000 0.0000
# 5 0.0000 0.0000 0.0000 0.0000 43.9027 0.0000
# 6 0.0000 0.0000 0.0000 0.0000 0.0000 1.0121
#
#
#
# Elastic Compliance Matrix: (Units=1/GPa)
#
#
# Indices 1 2 3 4 5 6 
#
# 1 0.007901 0.000315 -0.002386 0.000000 0.000000 0.000000
# 2 0.000315 0.012583 -0.002493 0.000000 0.000000 0.000000
# 3 -0.002386 -0.002493 0.005880 0.000000 0.000000 0.000000
# 4 0.000000 0.000000 0.000000 0.041850 0.000000 0.000000
# 5 0.000000 0.000000 0.000000 0.000000 0.022778 0.000000
# 6 0.000000 0.000000 0.000000 0.000000 0.000000 0.988019
#
#
# Mechanical properties :
#
#
# Convention : Reuss Voigt Hill
#
# Bulk Modulus (GPa) = 58.01423 74.32744 66.17084
# Shear Modulus (GPa) = 4.57087 35.97161 20.27124
#
# Velocity S-wave (km/s) = 1.40396 3.93854 2.95662
# Velocity P-wave (km/s) = 5.25792 7.26190 6.33959
#
# Compressibility (1/GPa) = 0.01723715
#
# Stress axis : x y z
#
# Youngs Moduli (GPa) = 126.56877 79.46956 170.06731
#
# Poissons Ratio (x) = -0.02505 0.40578
# Poissons Ratio (y) = -0.03990 0.42395
# Poissons Ratio (z) = 0.30199 0.19810
#
# Static dielectric constant tensor:
#      x y z
#    x 3.999930 0.000000 0.000000 
#    y 0.000000 3.990430 0.000000 
#    z 0.000000 0.000000 5.947940 
# 
# 
# High freq. dielectric constant tensor:
#      x y z
#    x 1.899840 0.000000 0.000000 
#    y 0.000000 1.880690 0.000000 
#    z 0.000000 0.000000 1.950660 
# 
# From -- ./inp_files/3116.got.cif
#   From: 2010.03.12/outbox.cif.g09.slc.cpg/sg23_2_cif.got.tgz:3116.got - 2010.04.14 02:50:06.
