data_PCOD8163980
_publ_section_title
;
Structure prediction by ZEFSAII (Michael W. Deem and Ramdas Pophale) SiO2 
 PCOD8163980
Probable space group: I 2 2 2
;
_chemical_formula_sum "Si O2"
_cell_formula_units_Z 64
_cell_length_a 8.758670
_cell_length_b 14.386101
_cell_length_c 30.082857
_cell_angle_alpha 90.000000
_cell_angle_beta 90.000000
_cell_angle_gamma 90.000000
_cell_volume 3790.533577
_symmetry_space_group_name_H-M "I 2 2 2"
_symmetry_group_IT_number 23
_symmetry_cell_setting 'orthorhombic'
loop_
_space_group_symop_operation_xyz
x,y,z
-x,-y,z
x,-y,-z
-x,y,-z
1/2+x,1/2+y,1/2+z
1/2-x,1/2-y,1/2+z
1/2+x,1/2-y,1/2-z
1/2-x,1/2+y,1/2-z
loop_
_atom_site_type_symbol
_atom_site_label
_atom_site_fract_x
_atom_site_fract_y
_atom_site_fract_z
Si Si1 0.328167 0.503848 0.235068
Si Si2 0.683778 0.304737 0.795882
Si Si3 0.679264 0.893505 0.050020
Si Si4 0.321806 0.107770 0.949460
Si Si5 0.667567 0.710882 0.790356
Si Si6 0.177198 0.495305 0.675371
Si Si7 0.820663 0.183368 0.865959
Si Si8 0.680085 0.673638 0.365698
O O1 0.500000 0.500000 0.255745
O O2 0.309406 0.416683 0.202190
O O3 0.299251 0.600804 0.210175
O O4 0.200550 0.490277 0.272479
O O5 0.511467 0.267371 0.793016
O O6 0.771237 0.262571 0.753390
O O7 0.760029 0.276841 0.842707
O O8 0.500859 0.876034 0.056369
O O9 0.770600 0.824883 0.082717
O O10 0.718815 0.000433 0.061744
O O11 0.729372 0.870049 0.999807
O O12 0.233717 0.179590 0.917176
O O13 0.745307 0.747531 0.835260
O O14 0.245753 0.396809 0.663181
O O15 0.268987 0.572696 0.649458
O O16 0.000000 0.500000 0.662502
O O17 0.000683 0.182263 0.862312
#
# Coordination Sequence:
#
# PCOD8163980 Si02
#       8
#     8   8   8   8   8   8   8   8
#     4  10  22  38  54  73 102 135 178 224 260 301
#     4  11  22  36  54  76 103 138 177 219 261 305
#     4   9  18  33  53  76 103 136 174 214 257 307
#     4   9  18  33  53  76 103 136 174 214 257 307
#     4  11  22  36  54  76 103 138 177 219 261 305
#     4  12  22  32  51  73 102 141 179 217 258 303
#     4  12  23  34  50  76 108 141 177 214 256 314
#     4  12  23  34  50  76 108 141 177 214 256 314
#
# _framework density 16.884167999999999
#
# number of rings (size 3 to 8) (size 9 to 14) (size 15 to 20)
#    0.000    1.250    3.750    4.875    0.000    1.500 
#    0.000    1.250    0.000    0.000    0.000    0.875 
#    0.000    7.000    0.000    0.000    0.000    0.000 
#
# Total GULP energy -396802.481729 kJ/mol
# GULP energy per Si atom -12400.077554 kJ/mol
# Density = 1.684574 g / cm^3
# Si number density = 16.884168 Si / 1000 Ang^3
#
#
#
# Elastic Constant Matrix: (Units=GPa)
#
#
# Indices 1 2 3 4 5 6 
#
# 1 103.0750 26.9680 48.3848 0.0000 0.0000 0.0000
# 2 26.9680 72.0198 39.4355 0.0000 0.0000 0.0000
# 3 48.3848 39.4355 115.8177 0.0000 0.0000 0.0000
# 4 0.0000 0.0000 0.0000 17.2179 0.0000 0.0000
# 5 0.0000 0.0000 0.0000 0.0000 32.1932 0.0000
# 6 0.0000 0.0000 0.0000 0.0000 0.0000 16.8957
#
#
#
# Elastic Compliance Matrix: (Units=1/GPa)
#
#
# Indices 1 2 3 4 5 6 
#
# 1 0.012348 -0.002211 -0.004406 0.000000 0.000000 0.000000
# 2 -0.002211 0.017463 -0.005022 0.000000 0.000000 0.000000
# 3 -0.004406 -0.005022 0.012185 0.000000 0.000000 0.000000
# 4 0.000000 0.000000 0.000000 0.058079 0.000000 0.000000
# 5 0.000000 0.000000 0.000000 0.000000 0.031063 0.000000
# 6 0.000000 0.000000 0.000000 0.000000 0.000000 0.059187
#
#
# Mechanical properties :
#
#
# Convention : Reuss Voigt Hill
#
# Bulk Modulus (GPa) = 53.42592 57.83212 55.62902
# Shear Modulus (GPa) = 22.74353 25.00298 23.87326
#
# Velocity S-wave (km/s) = 3.67418 3.85236 3.76432
# Velocity P-wave (km/s) = 7.05058 7.35624 7.20503
#
# Compressibility (1/GPa) = 0.01871751
#
# Stress axis : x y z
#
# Youngs Moduli (GPa) = 80.98228 57.26337 82.06880
#
# Poissons Ratio (x) = 0.12663 0.36158
# Poissons Ratio (y) = 0.17909 0.41217
# Poissons Ratio (z) = 0.35679 0.28759
#
# Static dielectric constant tensor:
#      x y z
#    x 3.335750 0.000000 0.000000 
#    y 0.000000 3.069430 0.000000 
#    z 0.000000 0.000000 3.306710 
# 
# 
# High freq. dielectric constant tensor:
#      x y z
#    x 1.662490 0.000000 0.000000 
#    y 0.000000 1.623830 0.000000 
#    z 0.000000 0.000000 1.646020 
# 
# From -- ./inp_files/20416.got.cif
#   From: 2010.03.12/outbox.cif.g09.slc.cpg/sg23_11_cif.got.tgz:20416.got - 2010.04.14 02:50:06.
