data_PCOD8163131
_publ_section_title
;
Structure prediction by ZEFSAII (Michael W. Deem and Ramdas Pophale) SiO2 
 PCOD8163131
Probable space group: F 2 2 2
;
_chemical_formula_sum "Si O2"
_cell_formula_units_Z 68
_cell_length_a 7.951508
_cell_length_b 16.881210
_cell_length_c 22.379760
_cell_angle_alpha 90.000000
_cell_angle_beta 90.000000
_cell_angle_gamma 90.000000
_cell_volume 3004.059274
_symmetry_space_group_name_H-M "F 2 2 2"
_symmetry_group_IT_number 22
_symmetry_cell_setting 'orthorhombic'
loop_
_space_group_symop_operation_xyz
x,y,z
-x,-y,z
x,-y,-z
-x,y,-z
x,1/2+y,1/2+z
-x,1/2-y,1/2+z
x,1/2-y,1/2-z
-x,1/2+y,1/2-z
1/2+x,y,1/2+z
1/2-x,-y,1/2+z
1/2+x,-y,1/2-z
1/2-x,y,1/2-z
1/2+x,1/2+y,z
1/2-x,1/2-y,z
1/2+x,1/2-y,-z
1/2-x,1/2+y,-z
loop_
_atom_site_type_symbol
_atom_site_label
_atom_site_fract_x
_atom_site_fract_y
_atom_site_fract_z
Si Si1 0.500000 0.706811 0.000000
Si Si2 0.000000 0.000000 0.850590
Si Si3 0.247895 0.894643 0.425531
Si Si4 0.500000 0.000000 0.000000
Si Si5 0.527281 0.710008 0.380415
Si Si6 0.173533 0.649884 0.686741
O O1 0.651132 0.653706 0.975209
O O2 0.430490 0.762186 0.947396
O O3 0.871291 0.952692 0.891287
O O4 0.095800 0.937565 0.808441
O O5 0.108733 0.945392 0.457742
O O6 0.154304 0.833764 0.379595
O O7 0.675072 0.649514 0.361496
O O8 0.532878 0.786080 0.335252
O O9 0.250000 0.675181 0.750000
#
# Coordination Sequence:
#
# PCOD8163131 Si02
#       6
#     8   8  16   4  16  16
#     4  12  25  41  74 110 154 190 242 306 365 457
#     4  12  26  47  73 108 146 196 252 316 378 440
#     4  12  26  42  70 113 153 199 245 299 376 457
#     4  12  26  38  66 110 164 206 232 292 378 460
#     4  11  25  44  75 107 143 199 245 302 374 433
#     4  11  27  51  76 103 147 196 256 320 370 440
#
# _framework density 22.636039
#
# number of rings (size 3 to 8) (size 9 to 14) (size 15 to 20)
#    0.000    0.471    2.353    5.647   13.176    1.882 
#    0.000    0.000    5.176    0.000    0.000    0.000 
#    0.000    0.000    0.000    0.000    0.000    0.000 
#
# Total GULP energy -210781.965593 kJ/mol
# GULP energy per Si atom -12398.939153 kJ/mol
# Density = 2.258452 g / cm^3
# Si number density = 22.636039 Si / 1000 Ang^3
#
#
#
# Elastic Constant Matrix: (Units=GPa)
#
#
# Indices 1 2 3 4 5 6 
#
# 1 145.5101 79.0143 58.2539 0.0000 0.0000 0.0000
# 2 79.0143 157.5209 59.1676 0.0000 0.0000 0.0000
# 3 58.2539 59.1676 140.1697 0.0000 0.0000 0.0000
# 4 0.0000 0.0000 0.0000 21.1359 0.0000 0.0000
# 5 0.0000 0.0000 0.0000 0.0000 33.5359 0.0000
# 6 0.0000 0.0000 0.0000 0.0000 0.0000 115.3673
#
#
#
# Elastic Compliance Matrix: (Units=1/GPa)
#
#
# Indices 1 2 3 4 5 6 
#
# 1 0.010106 -0.004150 -0.002448 0.000000 0.000000 0.000000
# 2 -0.004150 0.009248 -0.002179 0.000000 0.000000 0.000000
# 3 -0.002448 -0.002179 0.009072 0.000000 0.000000 0.000000
# 4 0.000000 0.000000 0.000000 0.047313 0.000000 0.000000
# 5 0.000000 0.000000 0.000000 0.000000 0.029819 0.000000
# 6 0.000000 0.000000 0.000000 0.000000 0.000000 0.008668
#
#
# Mechanical properties :
#
#
# Convention : Reuss Voigt Hill
#
# Bulk Modulus (GPa) = 91.98444 92.89692 92.44068
# Shear Modulus (GPa) = 36.92660 50.45884 43.69272
#
# Velocity S-wave (km/s) = 4.04334 4.72650 4.39820
# Velocity P-wave (km/s) = 7.90713 8.42109 8.16815
#
# Compressibility (1/GPa) = 0.01087140
#
# Stress axis : x y z
#
# Youngs Moduli (GPa) = 98.95285 108.12644 110.23328
#
# Poissons Ratio (x) = 0.44868 0.26989
# Poissons Ratio (y) = 0.41061 0.24024
# Poissons Ratio (z) = 0.24227 0.23565
#
# Static dielectric constant tensor:
#      x y z
#    x 4.222030 0.000000 0.000000 
#    y 0.000000 4.501530 0.000000 
#    z 0.000000 0.000000 3.831020 
# 
# 
# High freq. dielectric constant tensor:
#      x y z
#    x 1.904670 0.000000 0.000000 
#    y 0.000000 1.913130 0.000000 
#    z 0.000000 0.000000 1.875820 
# 
# From -- ./inp_files/11301.got.cif
#   From: 2010.03.12/outbox.cif.g09.slc.cpg/sg22_6_cif.got.tgz:11301.got - 2010.04.14 02:24:06.
