data_PCOD8163525
_publ_section_title
;
Structure prediction by ZEFSAII (Michael W. Deem and Ramdas Pophale) SiO2 
 PCOD8163525
Probable space group: I 2 2 2
;
_chemical_formula_sum "Si O2"
_cell_formula_units_Z 64
_cell_length_a 20.815551
_cell_length_b 19.386113
_cell_length_c 8.898345
_cell_angle_alpha 90.000000
_cell_angle_beta 90.000000
_cell_angle_gamma 90.000000
_cell_volume 3590.772506
_symmetry_space_group_name_H-M "I 2 2 2"
_symmetry_group_IT_number 23
_symmetry_cell_setting 'orthorhombic'
loop_
_space_group_symop_operation_xyz
x,y,z
-x,-y,z
x,-y,-z
-x,y,-z
1/2+x,1/2+y,1/2+z
1/2-x,1/2-y,1/2+z
1/2+x,1/2-y,1/2-z
1/2-x,1/2+y,1/2-z
loop_
_atom_site_type_symbol
_atom_site_label
_atom_site_fract_x
_atom_site_fract_y
_atom_site_fract_z
Si Si1 0.232047 0.422012 0.676252
Si Si2 0.309259 0.209807 0.322966
Si Si3 0.866688 0.077838 0.327341
Si Si4 0.428378 0.301700 0.327022
Si Si5 0.267953 0.922012 0.176252
Si Si6 0.866688 0.077838 0.672659
Si Si7 0.809259 0.709807 0.177034
Si Si8 0.928378 0.801700 0.172978
O O1 0.186089 0.368334 0.761517
O O2 0.211072 0.500000 0.718503
O O3 0.227436 0.408662 0.500000
O O4 0.304623 0.407738 0.726329
O O5 0.376368 0.245037 0.276480
O O6 0.250000 0.250000 0.250000
O O7 0.298830 0.208914 0.500000
O O8 0.921839 0.129460 0.272751
O O9 0.804623 0.092262 0.226329
O O10 0.848418 0.092060 0.500000
O O11 0.892017 0.000000 0.305472
O O12 0.417820 0.322216 0.500000
O O13 0.500000 0.271682 0.300606
O O14 0.313911 0.868334 0.261517
O O15 0.921839 0.129460 0.727249
O O16 0.876368 0.745037 0.223520
#
# Coordination Sequence:
#
# PCOD8163525 Si02
#       8
#     8   8   8   8   8   8   8   8
#     4  10  20  34  54  80 109 140 176 220 269 320
#     4  11  21  34  56  82 108 139 178 224 268 316
#     4  10  20  33  51  77 108 142 180 220 263 314
#     4  10  22  38  54  75 106 145 183 218 263 320
#     4  10  20  34  54  80 109 140 176 220 269 320
#     4  10  20  33  51  77 108 142 180 220 263 314
#     4  11  21  34  56  82 108 139 178 224 268 316
#     4  10  22  38  54  75 106 145 183 218 263 320
#
# _framework density 17.823461999999999
#
# number of rings (size 3 to 8) (size 9 to 14) (size 15 to 20)
#    0.000    1.750    2.500    2.250    0.000    5.000 
#    0.000    2.500    0.000    0.750    0.000    5.250 
#    0.000    0.000    0.000    0.000    0.000    0.000 
#
# Total GULP energy -396861.942053 kJ/mol
# GULP energy per Si atom -12401.935689 kJ/mol
# Density = 1.778289 g / cm^3
# Si number density = 17.823462 Si / 1000 Ang^3
#
#
#
# Elastic Constant Matrix: (Units=GPa)
#
#
# Indices 1 2 3 4 5 6 
#
# 1 113.0529 69.4128 43.5266 0.0000 0.0000 0.0000
# 2 69.4128 128.1778 54.8457 0.0000 0.0000 0.0000
# 3 43.5266 54.8457 76.8503 0.0000 0.0000 0.0000
# 4 0.0000 0.0000 0.0000 34.7396 0.0000 0.0000
# 5 0.0000 0.0000 0.0000 0.0000 21.9817 0.0000
# 6 0.0000 0.0000 0.0000 0.0000 0.0000 24.6234
#
#
#
# Elastic Compliance Matrix: (Units=1/GPa)
#
#
# Indices 1 2 3 4 5 6 
#
# 1 0.013912 -0.005992 -0.003603 0.000000 0.000000 0.000000
# 2 -0.005992 0.013812 -0.006464 0.000000 0.000000 0.000000
# 3 -0.003603 -0.006464 0.019666 0.000000 0.000000 0.000000
# 4 0.000000 0.000000 0.000000 0.028786 0.000000 0.000000
# 5 0.000000 0.000000 0.000000 0.000000 0.045492 0.000000
# 6 0.000000 0.000000 0.000000 0.000000 0.000000 0.040612
#
#
# Mechanical properties :
#
#
# Convention : Reuss Voigt Hill
#
# Bulk Modulus (GPa) = 65.47700 72.62790 69.05245
# Shear Modulus (GPa) = 25.06424 26.28867 25.67646
#
# Velocity S-wave (km/s) = 3.75407 3.84467 3.79964
# Velocity P-wave (km/s) = 7.45700 7.78111 7.62078
#
# Compressibility (1/GPa) = 0.01527254
#
# Stress axis : x y z
#
# Youngs Moduli (GPa) = 71.88271 72.39977 50.84952
#
# Poissons Ratio (x) = 0.43381 0.18321
# Poissons Ratio (y) = 0.43072 0.32867
# Poissons Ratio (z) = 0.25899 0.46796
#
# Static dielectric constant tensor:
#      x y z
#    x 3.094810 0.000000 0.000000 
#    y 0.000000 3.565260 0.000000 
#    z 0.000000 0.000000 3.378060 
# 
# 
# High freq. dielectric constant tensor:
#      x y z
#    x 1.658360 0.000000 0.000000 
#    y 0.000000 1.694140 0.000000 
#    z 0.000000 0.000000 1.702780 
# 
# From -- ./inp_files/12194.got.cif
#   From: 2010.03.12/outbox.cif.g09.slc.cpg/sg23_7_cif.got.tgz:12194.got - 2010.04.14 02:50:06.
