data_PCOD8163757
_publ_section_title
;
Structure prediction by ZEFSAII (Michael W. Deem and Ramdas Pophale) SiO2 
 PCOD8163757
Probable space group: I 2 2 2
;
_chemical_formula_sum "Si O2"
_cell_formula_units_Z 36
_cell_length_a 15.325946
_cell_length_b 21.119645
_cell_length_c 4.952937
_cell_angle_alpha 90.000000
_cell_angle_beta 90.000000
_cell_angle_gamma 90.000000
_cell_volume 1603.159411
_symmetry_space_group_name_H-M "I 2 2 2"
_symmetry_group_IT_number 23
_symmetry_cell_setting 'orthorhombic'
loop_
_space_group_symop_operation_xyz
x,y,z
-x,-y,z
x,-y,-z
-x,y,-z
1/2+x,1/2+y,1/2+z
1/2-x,1/2-y,1/2+z
1/2+x,1/2-y,1/2-z
1/2-x,1/2+y,1/2-z
loop_
_atom_site_type_symbol
_atom_site_label
_atom_site_fract_x
_atom_site_fract_y
_atom_site_fract_z
Si Si1 0.500000 0.500000 0.500000
Si Si2 0.000000 0.295317 0.500000
Si Si3 0.741573 0.073705 0.568686
Si Si4 0.633886 0.100932 0.085883
Si Si5 0.500000 0.291765 0.500000
Si Si6 0.500000 0.000000 0.000000
Si Si7 0.581439 0.391706 0.820372
O O1 0.565660 0.459638 0.683421
O O2 0.914751 0.338978 0.456283
O O3 0.025624 0.253348 0.245135
O O4 0.709738 0.080539 0.876209
O O5 0.836388 0.104372 0.519223
O O6 0.741778 0.000000 0.500000
O O7 0.678688 0.114131 0.372025
O O8 0.564524 0.045656 0.166978
O O9 0.582810 0.336699 0.588934
O O10 0.500000 0.371145 0.000000
#
# Coordination Sequence:
#
# PCOD8163757 Si02
#       7
#     2   4   8   8   4   2   8
#     4  10  22  38  68 106 128 194 216 272 342 424
#     4  11  24  49  72  95 134 187 248 282 338 407
#     4  12  24  41  67 110 147 168 220 284 361 418
#     4  11  25  41  70 102 140 180 225 288 345 412
#     4  11  24  47  76  93 130 195 242 286 328 413
#     4  10  20  44  64 102 134 184 216 264 354 420
#     4  11  25  43  71 100 141 183 230 278 351 415
#
# _framework density 22.455656000000001
#
# number of rings (size 3 to 8) (size 9 to 14) (size 15 to 20)
#    0.000    0.889    3.333    3.000    9.333    3.556 
#    0.000    4.444    0.000    0.000    0.000    0.000 
#    0.000    0.000    0.000    0.000    0.000    0.000 
#
# Total GULP energy -223088.158588 kJ/mol
# GULP energy per Si atom -12393.786588 kJ/mol
# Density = 2.240455 g / cm^3
# Si number density = 22.455656 Si / 1000 Ang^3
#
#
#
# Elastic Constant Matrix: (Units=GPa)
#
#
# Indices 1 2 3 4 5 6 
#
# 1 130.2494 35.8308 35.2287 0.0000 0.0000 0.0000
# 2 35.8308 116.3686 31.4896 0.0000 0.0000 0.0000
# 3 35.2287 31.4896 106.8669 0.0000 0.0000 0.0000
# 4 0.0000 0.0000 0.0000 44.0086 0.0000 0.0000
# 5 0.0000 0.0000 0.0000 0.0000 29.2161 0.0000
# 6 0.0000 0.0000 0.0000 0.0000 0.0000 51.1108
#
#
#
# Elastic Compliance Matrix: (Units=1/GPa)
#
#
# Indices 1 2 3 4 5 6 
#
# 1 0.008882 -0.002111 -0.002306 0.000000 0.000000 0.000000
# 2 -0.002111 0.009840 -0.002204 0.000000 0.000000 0.000000
# 3 -0.002306 -0.002204 0.010767 0.000000 0.000000 0.000000
# 4 0.000000 0.000000 0.000000 0.022723 0.000000 0.000000
# 5 0.000000 0.000000 0.000000 0.000000 0.034228 0.000000
# 6 0.000000 0.000000 0.000000 0.000000 0.000000 0.019565
#
#
# Mechanical properties :
#
#
# Convention : Reuss Voigt Hill
#
# Bulk Modulus (GPa) = 61.54665 62.06477 61.80571
# Shear Modulus (GPa) = 40.10882 41.59617 40.85250
#
# Velocity S-wave (km/s) = 4.23085 4.30859 4.26990
# Velocity P-wave (km/s) = 7.16480 7.24228 7.20365
#
# Compressibility (1/GPa) = 0.01624784
#
# Stress axis : x y z
#
# Youngs Moduli (GPa) = 112.58796 101.63021 92.87736
#
# Poissons Ratio (x) = 0.21452 0.21417
# Poissons Ratio (y) = 0.23765 0.20466
# Poissons Ratio (z) = 0.25962 0.22394
#
# Static dielectric constant tensor:
#      x y z
#    x 4.106320 0.000000 0.000000 
#    y 0.000000 4.174830 0.000000 
#    z 0.000000 0.000000 2.740480 
# 
# 
# High freq. dielectric constant tensor:
#      x y z
#    x 1.873010 0.000000 0.000000 
#    y 0.000000 1.883370 0.000000 
#    z 0.000000 0.000000 1.891130 
# 
# From -- ./inp_files/2352.got.cif
#   From: 2010.03.12/outbox.cif.g09.slc.cpg/sg23_2_cif.got.tgz:2352.got - 2010.04.14 02:50:06.
