data_PCOD8163312
_publ_section_title
;
Structure prediction by ZEFSAII (Michael W. Deem and Ramdas Pophale) SiO2 
 PCOD8163312
Probable space group: I 2 2 2
;
_chemical_formula_sum "Si O2"
_cell_formula_units_Z 48
_cell_length_a 17.201344
_cell_length_b 20.809062
_cell_length_c 7.561347
_cell_angle_alpha 90.000000
_cell_angle_beta 90.000000
_cell_angle_gamma 90.000000
_cell_volume 2706.537534
_symmetry_space_group_name_H-M "I 2 2 2"
_symmetry_group_IT_number 23
_symmetry_cell_setting 'orthorhombic'
loop_
_space_group_symop_operation_xyz
x,y,z
-x,-y,z
x,-y,-z
-x,y,-z
1/2+x,1/2+y,1/2+z
1/2-x,1/2-y,1/2+z
1/2+x,1/2-y,1/2-z
1/2-x,1/2+y,1/2-z
loop_
_atom_site_type_symbol
_atom_site_label
_atom_site_fract_x
_atom_site_fract_y
_atom_site_fract_z
Si Si1 0.642006 0.356505 0.662117
Si Si2 0.080096 0.020618 0.696375
Si Si3 0.694673 0.172540 0.811598
Si Si4 0.588343 0.221879 0.531305
Si Si5 0.714949 0.445628 0.381395
Si Si6 0.294206 0.788083 0.213685
O O1 0.591414 0.401920 0.790815
O O2 0.593871 0.296012 0.589846
O O3 0.661136 0.397909 0.491192
O O4 0.721013 0.334107 0.761847
O O5 0.157237 0.983375 0.754014
O O6 0.066304 0.000000 0.500000
O O7 0.000000 0.000000 0.799372
O O8 0.616979 0.179375 0.696783
O O9 0.718977 0.097763 0.790548
O O10 0.763142 0.215074 0.722814
O O11 0.678280 0.194905 0.014145
O O12 0.500000 0.202776 0.500000
O O13 0.636663 0.204109 0.354261
O O14 0.757632 0.500000 0.500000
#
# Coordination Sequence:
#
# PCOD8163312 Si02
#       6
#     8   8   8   8   8   8
#     4   9  20  35  53  77 108 153 189 224 274 344
#     4  10  22  33  48  82 117 149 185 228 281 337
#     4  10  19  35  58  81 111 153 195 238 277 344
#     4  11  23  35  56  88 115 150 191 239 301 334
#     4   9  18  33  54  76 104 148 190 223 277 332
#     4  10  18  35  56  79 111 149 197 231 281 336
#
# _framework density 17.734835
#
# number of rings (size 3 to 8) (size 9 to 14) (size 15 to 20)
#    0.000    2.167    5.000    0.000    4.667    3.000 
#    0.000    0.000    0.000    0.000    0.000   30.333 
#    0.000    0.000    0.000    0.000    0.000    0.000 
#
# Total GULP energy -297358.480452 kJ/mol
# GULP energy per Si atom -12389.936686 kJ/mol
# Density = 1.769447 g / cm^3
# Si number density = 17.734835 Si / 1000 Ang^3
#
#
#
# Elastic Constant Matrix: (Units=GPa)
#
#
# Indices 1 2 3 4 5 6 
#
# 1 124.3610 51.6288 57.1890 0.0000 0.0000 0.0000
# 2 51.6288 110.3464 42.2517 0.0000 0.0000 0.0000
# 3 57.1890 42.2517 88.8828 0.0000 0.0000 0.0000
# 4 0.0000 0.0000 0.0000 25.2442 0.0000 0.0000
# 5 0.0000 0.0000 0.0000 0.0000 14.2297 0.0000
# 6 0.0000 0.0000 0.0000 0.0000 0.0000 18.4319
#
#
#
# Elastic Compliance Matrix: (Units=1/GPa)
#
#
# Indices 1 2 3 4 5 6 
#
# 1 0.012354 -0.003346 -0.006358 0.000000 0.000000 0.000000
# 2 -0.003346 0.011985 -0.003545 0.000000 0.000000 0.000000
# 3 -0.006358 -0.003545 0.017027 0.000000 0.000000 0.000000
# 4 0.000000 0.000000 0.000000 0.039613 0.000000 0.000000
# 5 0.000000 0.000000 0.000000 0.000000 0.070276 0.000000
# 6 0.000000 0.000000 0.000000 0.000000 0.000000 0.054254
#
#
# Mechanical properties :
#
#
# Convention : Reuss Voigt Hill
#
# Bulk Modulus (GPa) = 67.25578 69.52546 68.39062
# Shear Modulus (GPa) = 21.10046 23.08254 22.09150
#
# Velocity S-wave (km/s) = 3.45305 3.61160 3.53321
# Velocity P-wave (km/s) = 7.34189 7.52857 7.43582
#
# Compressibility (1/GPa) = 0.01486861
#
# Stress axis : x y z
#
# Youngs Moduli (GPa) = 80.94520 83.43828 58.73043
#
# Poissons Ratio (x) = 0.27914 0.37344
# Poissons Ratio (y) = 0.27080 0.20818
# Poissons Ratio (z) = 0.51469 0.29576
#
# Static dielectric constant tensor:
#      x y z
#    x 3.463870 0.000000 0.000000 
#    y 0.000000 4.006670 0.000000 
#    z 0.000000 0.000000 4.181450 
# 
# 
# High freq. dielectric constant tensor:
#      x y z
#    x 1.659820 0.000000 0.000000 
#    y 0.000000 1.684540 0.000000 
#    z 0.000000 0.000000 1.686030 
# 
# From -- ./inp_files/10103.got.cif
#   From: 2010.03.12/outbox.cif.g09.slc.cpg/sg23_6_cif.got.tgz:10103.got - 2010.04.14 02:50:06.
