data_PCOD8163011
_publ_section_title
;
Structure prediction by ZEFSAII (Michael W. Deem and Ramdas Pophale) SiO2 
 PCOD8163011
Probable space group: F 2 2 2
;
_chemical_formula_sum "Si O2"
_cell_formula_units_Z 116
_cell_length_a 12.154901
_cell_length_b 18.762487
_cell_length_c 25.239451
_cell_angle_alpha 90.000000
_cell_angle_beta 90.000000
_cell_angle_gamma 90.000000
_cell_volume 5756.012578
_symmetry_space_group_name_H-M "F 2 2 2"
_symmetry_group_IT_number 22
_symmetry_cell_setting 'orthorhombic'
loop_
_space_group_symop_operation_xyz
x,y,z
-x,-y,z
x,-y,-z
-x,y,-z
x,1/2+y,1/2+z
-x,1/2-y,1/2+z
x,1/2-y,1/2-z
-x,1/2+y,1/2-z
1/2+x,y,1/2+z
1/2-x,-y,1/2+z
1/2+x,-y,1/2-z
1/2-x,y,1/2-z
1/2+x,1/2+y,z
1/2-x,1/2-y,z
1/2+x,1/2-y,-z
1/2-x,1/2+y,-z
loop_
_atom_site_type_symbol
_atom_site_label
_atom_site_fract_x
_atom_site_fract_y
_atom_site_fract_z
Si Si1 0.022787 0.081252 0.792466
Si Si2 0.839263 0.414047 0.634883
Si Si3 0.843498 0.301813 0.451836
Si Si4 0.862458 0.820702 0.346796
Si Si5 0.910129 0.795795 0.068899
Si Si6 0.447943 0.422403 0.670241
Si Si7 0.297646 0.578139 0.127078
Si Si8 0.250000 0.750000 0.750000
O O1 0.056549 0.093023 0.732572
O O2 0.123428 0.112190 0.827706
O O3 0.903627 0.111797 0.810955
O O4 0.000000 0.000000 0.806003
O O5 0.717173 0.384467 0.636832
O O6 0.908263 0.377511 0.588006
O O7 0.832809 0.496637 0.620492
O O8 0.750000 0.250000 0.428278
O O9 0.839175 0.298251 0.515323
O O10 0.817340 0.380150 0.428072
O O11 0.963580 0.272435 0.436628
O O12 0.852564 0.755274 0.387772
O O13 0.832122 0.795759 0.287393
O O14 0.981709 0.856849 0.352365
O O15 0.500000 0.500000 0.658389
O O16 0.328217 0.416919 0.645177
#
# Coordination Sequence:
#
# PCOD8163011 Si02
#       8
#    16  16  16  16  16  16  16   4
#     4   9  20  35  59  90 130 167 207 257 321 380
#     4  11  20  40  64  92 129 164 216 277 316 385
#     4  11  24  43  67  93 123 173 221 265 335 392
#     4  12  23  39  62  95 134 167 220 266 329 386
#     4  11  24  43  66  92 130 169 214 277 329 382
#     4  11  22  38  60  95 133 176 208 262 332 389
#     4  11  22  40  64  93 128 170 220 267 322 395
#     4  12  24  36  68 100 126 180 222 280 306 398
#
# _framework density 20.152840000000001
#
# number of rings (size 3 to 8) (size 9 to 14) (size 15 to 20)
#    0.000    1.103    4.138    2.897    0.000    0.552 
#    0.000    1.379    0.000    0.828    0.000    0.000 
#    0.000    0.000    0.000    0.000    0.000    0.000 
#
# Total GULP energy -359359.447167 kJ/mol
# GULP energy per Si atom -12391.705075 kJ/mol
# Density = 2.010697 g / cm^3
# Si number density = 20.152840 Si / 1000 Ang^3
#
#
#
# Elastic Constant Matrix: (Units=GPa)
#
#
# Indices 1 2 3 4 5 6 
#
# 1 124.9497 35.0231 45.7475 0.0000 0.0000 0.0000
# 2 35.0231 97.4574 51.3106 0.0000 0.0000 0.0000
# 3 45.7475 51.3106 117.6843 0.0000 0.0000 0.0000
# 4 0.0000 0.0000 0.0000 27.4914 0.0000 0.0000
# 5 0.0000 0.0000 0.0000 0.0000 28.9242 0.0000
# 6 0.0000 0.0000 0.0000 0.0000 0.0000 32.7365
#
#
#
# Elastic Compliance Matrix: (Units=1/GPa)
#
#
# Indices 1 2 3 4 5 6 
#
# 1 0.009603 -0.001928 -0.002892 0.000000 0.000000 0.000000
# 2 -0.001928 0.013705 -0.005226 0.000000 0.000000 0.000000
# 3 -0.002892 -0.005226 0.011900 0.000000 0.000000 0.000000
# 4 0.000000 0.000000 0.000000 0.036375 0.000000 0.000000
# 5 0.000000 0.000000 0.000000 0.000000 0.034573 0.000000
# 6 0.000000 0.000000 0.000000 0.000000 0.000000 0.030547
#
#
# Mechanical properties :
#
#
# Convention : Reuss Voigt Hill
#
# Bulk Modulus (GPa) = 66.15783 67.13933 66.64858
# Shear Modulus (GPa) = 30.89583 31.69775 31.29679
#
# Velocity S-wave (km/s) = 3.91970 3.97024 3.94505
# Velocity P-wave (km/s) = 7.30648 7.37594 7.34129
#
# Compressibility (1/GPa) = 0.01511537
#
# Stress axis : x y z
#
# Youngs Moduli (GPa) = 104.13878 72.96468 84.03285
#
# Poissons Ratio (x) = 0.14069 0.24303
# Poissons Ratio (y) = 0.20080 0.43915
# Poissons Ratio (z) = 0.30118 0.38131
#
# Static dielectric constant tensor:
#      x y z
#    x 4.002510 0.000000 0.000000 
#    y 0.000000 3.640440 0.000000 
#    z 0.000000 0.000000 3.596530 
# 
# 
# High freq. dielectric constant tensor:
#      x y z
#    x 1.809320 0.000000 0.000000 
#    y 0.000000 1.778840 0.000000 
#    z 0.000000 0.000000 1.775520 
# 
# From -- ./inp_files/36419.got.cif
#   From: 2010.03.12/outbox.cif.g09.slc.cpg/sg22_19_cif.got.tgz:36419.got - 2010.04.14 02:24:06.
