data_PCOD8163000
_publ_section_title
;
Structure prediction by ZEFSAII (Michael W. Deem and Ramdas Pophale) SiO2 
 PCOD8163000
Probable space group: F 2 2 2
;
_chemical_formula_sum "Si O2"
_cell_formula_units_Z 120
_cell_length_a 13.779868
_cell_length_b 28.568686
_cell_length_c 14.658205
_cell_angle_alpha 90.000000
_cell_angle_beta 90.000000
_cell_angle_gamma 90.000000
_cell_volume 5770.535462
_symmetry_space_group_name_H-M "F 2 2 2"
_symmetry_group_IT_number 22
_symmetry_cell_setting 'orthorhombic'
loop_
_space_group_symop_operation_xyz
x,y,z
-x,-y,z
x,-y,-z
-x,y,-z
x,1/2+y,1/2+z
-x,1/2-y,1/2+z
x,1/2-y,1/2-z
-x,1/2+y,1/2-z
1/2+x,y,1/2+z
1/2-x,-y,1/2+z
1/2+x,-y,1/2-z
1/2-x,y,1/2-z
1/2+x,1/2+y,z
1/2-x,1/2-y,z
1/2+x,1/2-y,-z
1/2-x,1/2+y,-z
loop_
_atom_site_type_symbol
_atom_site_label
_atom_site_fract_x
_atom_site_fract_y
_atom_site_fract_z
Si Si1 0.495817 0.225088 0.152039
Si Si2 0.361818 0.740616 0.000320
Si Si3 0.723026 0.091803 0.871422
Si Si4 0.750000 0.506144 0.250000
Si Si5 0.431363 0.043618 0.784533
Si Si6 0.554060 0.366394 0.739379
Si Si7 0.888346 0.050377 0.478794
Si Si8 0.915324 0.358297 0.563089
O O1 0.495752 0.250000 0.250000
O O2 0.588005 0.238793 0.090816
O O3 0.495646 0.168912 0.167883
O O4 0.399398 0.236612 0.093724
O O5 0.250000 0.750000 0.010038
O O6 0.380255 0.685187 0.997426
O O7 0.728123 0.038633 0.836717
O O8 0.665747 0.122148 0.793117
O O9 0.828262 0.107860 0.905815
O O10 0.657983 0.091857 0.961940
O O11 0.656550 0.474496 0.220756
O O12 0.495139 0.085470 0.744289
O O13 0.374819 0.062690 0.873189
O O14 0.500000 0.000000 0.810563
O O15 0.547515 0.340709 0.837909
O O16 0.000000 0.049677 0.500000
O O17 0.840460 0.000000 0.500000
O O18 0.000000 0.382707 0.500000
#
# Coordination Sequence:
#
# PCOD8163000 Si02
#       8
#    16  16  16   8  16  16  16  16
#     4  11  23  45  70  97 137 176 227 288 344 413
#     4  11  24  44  70 101 133 177 224 285 353 409
#     4  12  23  39  70  99 135 176 231 279 339 414
#     4  12  22  40  64 100 138 186 224 284 338 412
#     4  12  22  39  64  95 140 174 225 287 340 399
#     4  12  23  42  72 101 129 184 233 284 342 411
#     4  11  18  36  62  92 126 171 217 284 341 373
#     4  12  24  45  65  97 141 177 220 280 348 415
#
# _framework density 20.795297999999999
#
# number of rings (size 3 to 8) (size 9 to 14) (size 15 to 20)
#    0.000    0.400    9.333    0.800    0.000    4.800 
#    0.000    1.333    0.000    0.000    0.000    0.000 
#    0.000    0.000    0.000    0.000    0.000    0.000 
#
# Total GULP energy -371747.274975 kJ/mol
# GULP energy per Si atom -12391.575833 kJ/mol
# Density = 2.074797 g / cm^3
# Si number density = 20.795298 Si / 1000 Ang^3
#
#
#
# Elastic Constant Matrix: (Units=GPa)
#
#
# Indices 1 2 3 4 5 6 
#
# 1 147.6548 48.8080 55.8080 0.0000 0.0000 0.0000
# 2 48.8080 82.9623 22.6318 0.0000 0.0000 0.0000
# 3 55.8080 22.6318 121.0606 0.0000 0.0000 0.0000
# 4 0.0000 0.0000 0.0000 28.2964 0.0000 0.0000
# 5 0.0000 0.0000 0.0000 0.0000 27.1078 0.0000
# 6 0.0000 0.0000 0.0000 0.0000 0.0000 27.6360
#
#
#
# Elastic Compliance Matrix: (Units=1/GPa)
#
#
# Indices 1 2 3 4 5 6 
#
# 1 0.009688 -0.004722 -0.003583 0.000000 0.000000 0.000000
# 2 -0.004722 0.015003 -0.000628 0.000000 0.000000 0.000000
# 3 -0.003583 -0.000628 0.010030 0.000000 0.000000 0.000000
# 4 0.000000 0.000000 0.000000 0.035340 0.000000 0.000000
# 5 0.000000 0.000000 0.000000 0.000000 0.036890 0.000000
# 6 0.000000 0.000000 0.000000 0.000000 0.000000 0.036185
#
#
# Mechanical properties :
#
#
# Convention : Reuss Voigt Hill
#
# Bulk Modulus (GPa) = 59.33316 67.35261 63.34288
# Shear Modulus (GPa) = 30.00856 31.57004 30.78930
#
# Velocity S-wave (km/s) = 3.80287 3.90055 3.85202
# Velocity P-wave (km/s) = 6.91927 7.26254 7.09298
#
# Compressibility (1/GPa) = 0.01685398
#
# Stress axis : x y z
#
# Youngs Moduli (GPa) = 103.22317 66.65346 99.70527
#
# Poissons Ratio (x) = 0.31473 0.35727
# Poissons Ratio (y) = 0.48742 0.06261
# Poissons Ratio (z) = 0.36987 0.04186
#
# Static dielectric constant tensor:
#      x y z
#    x 3.781020 0.000000 0.000000 
#    y 0.000000 3.772830 0.000000 
#    z 0.000000 0.000000 3.510810 
# 
# 
# High freq. dielectric constant tensor:
#      x y z
#    x 1.810490 0.000000 0.000000 
#    y 0.000000 1.803390 0.000000 
#    z 0.000000 0.000000 1.818230 
# 
# From -- ./inp_files/29858.got.cif
#   From: 2010.03.12/outbox.cif.g09.slc.cpg/sg22_15_cif.got.tgz:29858.got - 2010.04.14 02:24:06.
