data_PCOD8163952
_publ_section_title
;
Structure prediction by ZEFSAII (Michael W. Deem and Ramdas Pophale) SiO2 
 PCOD8163952
Probable space group: I 2 2 2
;
_chemical_formula_sum "Si O2"
_cell_formula_units_Z 40
_cell_length_a 9.165708
_cell_length_b 23.930662
_cell_length_c 8.708021
_cell_angle_alpha 90.000000
_cell_angle_beta 90.000000
_cell_angle_gamma 90.000000
_cell_volume 1910.030041
_symmetry_space_group_name_H-M "I 2 2 2"
_symmetry_group_IT_number 23
_symmetry_cell_setting 'orthorhombic'
loop_
_space_group_symop_operation_xyz
x,y,z
-x,-y,z
x,-y,-z
-x,y,-z
1/2+x,1/2+y,1/2+z
1/2-x,1/2-y,1/2+z
1/2+x,1/2-y,1/2-z
1/2-x,1/2+y,1/2-z
loop_
_atom_site_type_symbol
_atom_site_label
_atom_site_fract_x
_atom_site_fract_y
_atom_site_fract_z
Si Si1 0.649989 0.600964 0.314662
Si Si2 0.134352 0.222311 0.890269
Si Si3 0.337742 0.006744 0.679359
Si Si4 0.865423 0.299228 0.391829
Si Si5 0.823693 0.907729 0.159917
O O1 0.697499 0.665868 0.312759
O O2 0.762346 0.566760 0.209300
O O3 0.660523 0.574328 0.483651
O O4 0.481529 0.600521 0.259837
O O5 0.085651 0.266689 0.762272
O O6 0.263774 0.242314 0.004962
O O7 0.000000 0.205671 0.000000
O O8 0.500000 0.000000 0.750643
O O9 0.346801 0.000000 0.500000
O O10 0.243056 0.958156 0.748720
O O11 0.776464 0.352562 0.330224
O O12 0.000000 0.317640 0.500000
#
# Coordination Sequence:
#
# PCOD8163952 Si02
#       5
#     8   8   8   8   8
#     4  10  21  43  68  89 126 172 222 270 320 402
#     4  11  22  45  64 100 138 176 227 278 331 407
#     4  11  26  43  61  96 133 165 215 280 342 394
#     4  11  24  39  69 100 137 180 225 278 335 396
#     4  10  22  42  65  94 123 172 224 264 325 403
#
# _framework density 20.942077999999999
#
# number of rings (size 3 to 8) (size 9 to 14) (size 15 to 20)
#    0.000    1.400    4.000    2.400    5.600    5.600 
#    3.600    0.000    0.000    0.000    0.000    0.000 
#    0.000    0.000    0.000    0.000    0.000    0.000 
#
# Total GULP energy -247904.174749 kJ/mol
# GULP energy per Si atom -12395.208737 kJ/mol
# Density = 2.089441 g / cm^3
# Si number density = 20.942078 Si / 1000 Ang^3
#
#
#
# Elastic Constant Matrix: (Units=GPa)
#
#
# Indices 1 2 3 4 5 6 
#
# 1 120.6306 43.6038 27.1116 -0.0003 0.0000 0.0001
# 2 43.6038 106.0772 43.8892 -0.0002 0.0004 0.0001
# 3 27.1116 43.8892 58.5071 0.0013 -0.0004 0.0006
# 4 -0.0003 -0.0002 0.0013 33.3699 -0.0005 0.0000
# 5 0.0000 0.0004 -0.0004 -0.0005 32.4153 -0.0004
# 6 0.0001 0.0001 0.0006 0.0000 -0.0004 30.7189
#
#
#
# Elastic Compliance Matrix: (Units=1/GPa)
#
#
# Indices 1 2 3 4 5 6 
#
# 1 0.009934 -0.003159 -0.002233 0.000000 0.000000 0.000000
# 2 -0.003159 0.014675 -0.009544 0.000000 0.000000 0.000000
# 3 -0.002233 -0.009544 0.025286 -0.000001 0.000000 0.000000
# 4 0.000000 0.000000 -0.000001 0.029967 0.000000 0.000000
# 5 0.000000 0.000000 0.000000 0.000000 0.030850 0.000000
# 6 0.000000 0.000000 0.000000 0.000000 0.000000 0.032553
#
#
# Mechanical properties :
#
#
# Convention : Reuss Voigt Hill
#
# Bulk Modulus (GPa) = 49.94693 57.15824 53.55258
# Shear Modulus (GPa) = 27.80681 30.67484 29.24083
#
# Velocity S-wave (km/s) = 3.64785 3.83135 3.74073
# Velocity P-wave (km/s) = 6.45323 6.85019 6.65467
#
# Compressibility (1/GPa) = 0.02002125
#
# Stress axis : x y z
#
# Youngs Moduli (GPa) = 100.66776 68.14465 39.54688
#
# Poissons Ratio (x) = 0.21529 0.08832
# Poissons Ratio (y) = 0.31804 0.37745
# Poissons Ratio (z) = 0.22481 0.65039
#
# Static dielectric constant tensor:
#      x y z
#    x 4.164790 0.000000 0.000000 
#    y 0.000000 3.606410 0.000010 
#    z 0.000000 0.000010 3.737510 
# 
# 
# High freq. dielectric constant tensor:
#      x y z
#    x 1.839030 0.000000 0.000000 
#    y 0.000000 1.810620 0.000000 
#    z 0.000000 0.000000 1.806690 
# 
# From -- ./inp_files/6878.got.cif
#   From: 2010.03.12/outbox.cif.g09.slc.cpg/sg23_4_cif.got.tgz:6878.got - 2010.04.14 02:50:06.
