data_PCOD8163130
_publ_section_title
;
Structure prediction by ZEFSAII (Michael W. Deem and Ramdas Pophale) SiO2 
 PCOD8163130
Probable space group: F 2 2 2
;
_chemical_formula_sum "Si O2"
_cell_formula_units_Z 64
_cell_length_a 4.918509
_cell_length_b 26.275136
_cell_length_c 20.729414
_cell_angle_alpha 90.000000
_cell_angle_beta 90.000000
_cell_angle_gamma 90.000000
_cell_volume 2678.955306
_symmetry_space_group_name_H-M "F 2 2 2"
_symmetry_group_IT_number 22
_symmetry_cell_setting 'orthorhombic'
loop_
_space_group_symop_operation_xyz
x,y,z
-x,-y,z
x,-y,-z
-x,y,-z
x,1/2+y,1/2+z
-x,1/2-y,1/2+z
x,1/2-y,1/2-z
-x,1/2+y,1/2-z
1/2+x,y,1/2+z
1/2-x,-y,1/2+z
1/2+x,-y,1/2-z
1/2-x,y,1/2-z
1/2+x,1/2+y,z
1/2-x,1/2-y,z
1/2+x,1/2-y,-z
1/2-x,1/2+y,-z
loop_
_atom_site_type_symbol
_atom_site_label
_atom_site_fract_x
_atom_site_fract_y
_atom_site_fract_z
Si Si1 0.000000 0.500000 0.910370
Si Si2 0.750000 0.586603 0.250000
Si Si3 0.000000 0.345070 0.500000
Si Si4 0.505363 0.783982 0.628523
Si Si5 0.500000 0.000000 0.665092
Si Si6 0.750000 0.346371 0.250000
Si Si7 0.500000 0.412645 0.500000
O O1 0.750730 0.524242 0.872225
O O2 0.122525 0.548607 0.947269
O O3 0.614103 0.549431 0.199430
O O4 0.502952 0.620706 0.278629
O O5 0.911118 0.315102 0.564938
O O6 0.253456 0.378232 0.523980
O O7 0.750000 0.750000 0.602137
O O8 0.619644 0.814722 0.690668
O O9 0.250000 0.750000 0.652323
#
# Coordination Sequence:
#
# PCOD8163130 Si02
#       7
#     8   8   8  16   8   8   8
#     4  11  25  44  73 100 155 196 243 307 370 443
#     4  12  27  46  67 117 142 207 251 300 371 438
#     4  12  26  46  82 109 146 193 254 316 366 472
#     4  12  27  51  77 110 149 194 246 319 394 449
#     4  12  25  45  73  98 159 197 243 308 362 446
#     4  12  28  46  80 107 156 195 256 308 370 474
#     4  11  26  45  68 115 142 193 252 305 374 433
#
# _framework density 23.889907999999998
#
# number of rings (size 3 to 8) (size 9 to 14) (size 15 to 20)
#    0.000    0.250    0.000    8.625   10.500    3.000 
#    0.000    0.000    0.000    0.000    0.000    0.000 
#    0.000    0.000    0.000    0.000    0.000    0.000 
#
# Total GULP energy -198236.626466 kJ/mol
# GULP energy per Si atom -12389.789154 kJ/mol
# Density = 2.383553 g / cm^3
# Si number density = 23.889908 Si / 1000 Ang^3
#
#
#
# Elastic Constant Matrix: (Units=GPa)
#
#
# Indices 1 2 3 4 5 6 
#
# 1 189.4625 70.6827 46.8836 0.0000 0.0000 0.0000
# 2 70.6827 136.1269 60.7483 0.0000 0.0000 0.0000
# 3 46.8836 60.7483 140.2174 0.0000 0.0000 0.0000
# 4 0.0000 0.0000 0.0000 6.0431 0.0000 0.0000
# 5 0.0000 0.0000 0.0000 0.0000 42.0568 0.0000
# 6 0.0000 0.0000 0.0000 0.0000 0.0000 66.2232
#
#
#
# Elastic Compliance Matrix: (Units=1/GPa)
#
#
# Indices 1 2 3 4 5 6 
#
# 1 0.006637 -0.003044 -0.000900 0.000000 0.000000 0.000000
# 2 -0.003044 0.010503 -0.003533 0.000000 0.000000 0.000000
# 3 -0.000900 -0.003533 0.008963 0.000000 0.000000 0.000000
# 4 0.000000 0.000000 0.000000 0.165479 0.000000 0.000000
# 5 0.000000 0.000000 0.000000 0.000000 0.023777 0.000000
# 6 0.000000 0.000000 0.000000 0.000000 0.000000 0.015100
#
#
# Mechanical properties :
#
#
# Convention : Reuss Voigt Hill
#
# Bulk Modulus (GPa) = 89.69338 91.38177 90.53758
# Shear Modulus (GPa) = 20.06985 42.03077 31.05031
#
# Velocity S-wave (km/s) = 2.90159 4.19901 3.60908
# Velocity P-wave (km/s) = 6.98939 7.86404 7.43958
#
# Compressibility (1/GPa) = 0.01114909
#
# Stress axis : x y z
#
# Youngs Moduli (GPa) = 150.68054 95.20855 111.56715
#
# Poissons Ratio (x) = 0.28984 0.10042
# Poissons Ratio (y) = 0.45872 0.39412
# Poissons Ratio (z) = 0.13563 0.33633
#
# Static dielectric constant tensor:
#      x y z
#    x 4.596080 0.000000 0.000000 
#    y 0.000000 4.534380 0.000000 
#    z 0.000000 0.000000 4.220800 
# 
# 
# High freq. dielectric constant tensor:
#      x y z
#    x 1.974040 0.000000 0.000000 
#    y 0.000000 1.963380 0.000000 
#    z 0.000000 0.000000 1.940160 
# 
# From -- ./inp_files/40994.got.cif
#   From: 2010.03.12/outbox.cif.g09.slc.cpg/sg22_21_cif.got.tgz:40994.got - 2010.04.14 02:24:06.
