data_PCOD8163798
_publ_section_title
;
Structure prediction by ZEFSAII (Michael W. Deem and Ramdas Pophale) SiO2 
 PCOD8163798
Probable space group: I 2 2 2
;
_chemical_formula_sum "Si O2"
_cell_formula_units_Z 48
_cell_length_a 9.029571
_cell_length_b 13.829107
_cell_length_c 18.876830
_cell_angle_alpha 90.000000
_cell_angle_beta 90.000000
_cell_angle_gamma 90.000000
_cell_volume 2357.166818
_symmetry_space_group_name_H-M "I 2 2 2"
_symmetry_group_IT_number 23
_symmetry_cell_setting 'orthorhombic'
loop_
_space_group_symop_operation_xyz
x,y,z
-x,-y,z
x,-y,-z
-x,y,-z
1/2+x,1/2+y,1/2+z
1/2-x,1/2-y,1/2+z
1/2+x,1/2-y,1/2-z
1/2-x,1/2+y,1/2-z
loop_
_atom_site_type_symbol
_atom_site_label
_atom_site_fract_x
_atom_site_fract_y
_atom_site_fract_z
Si Si1 0.827904 0.812768 0.748742
Si Si2 0.171787 0.888008 0.986754
Si Si3 0.575162 0.597717 0.837136
Si Si4 0.661796 0.995767 0.724831
Si Si5 0.152536 0.371099 0.652291
Si Si6 0.345439 0.206146 0.889967
O O1 0.816299 0.711297 0.710066
O O2 0.784967 0.801255 0.831026
O O3 0.988412 0.863010 0.733728
O O4 0.709586 0.885443 0.714347
O O5 0.220893 0.863742 0.907064
O O6 0.272582 0.820808 0.036005
O O7 0.000000 0.863427 0.000000
O O8 0.205429 0.000000 0.000000
O O9 0.500000 0.500000 0.868550
O O10 0.741201 0.571961 0.817564
O O11 0.586482 0.684636 0.893961
O O12 0.665746 0.025800 0.808070
O O13 0.500000 0.000000 0.691461
O O14 0.984886 0.364180 0.623298
#
# Coordination Sequence:
#
# PCOD8163798 Si02
#       6
#     8   8   8   8   8   8
#     4  10  21  36  61  90 121 160 203 253 311 360
#     4  11  27  42  59  88 128 169 206 255 322 381
#     4   9  21  37  59  93 128 155 207 264 315 366
#     4  11  20  34  59  93 120 157 203 255 302 361
#     4  11  23  39  59  90 126 160 205 250 306 372
#     4  11  21  40  63  88 124 167 209 251 314 380
#
# _framework density 20.363429
#
# number of rings (size 3 to 8) (size 9 to 14) (size 15 to 20)
#    0.000    1.500    3.333    1.500    2.333    2.000 
#    0.000    0.000    0.000   17.000    0.000   11.667 
#    0.000    0.000    0.000    0.000    0.000    0.000 
#
# Total GULP energy -297469.220396 kJ/mol
# GULP energy per Si atom -12394.550850 kJ/mol
# Density = 2.031708 g / cm^3
# Si number density = 20.363429 Si / 1000 Ang^3
#
#
#
# Elastic Constant Matrix: (Units=GPa)
#
#
# Indices 1 2 3 4 5 6 
#
# 1 130.7908 29.0881 27.6199 0.0000 0.0000 0.0000
# 2 29.0881 78.9804 8.3059 0.0000 0.0000 0.0000
# 3 27.6199 8.3059 48.0519 0.0000 0.0000 0.0000
# 4 0.0000 0.0000 0.0000 21.0076 0.0000 0.0000
# 5 0.0000 0.0000 0.0000 0.0000 31.8293 0.0000
# 6 0.0000 0.0000 0.0000 0.0000 0.0000 29.9395
#
#
#
# Elastic Compliance Matrix: (Units=1/GPa)
#
#
# Indices 1 2 3 4 5 6 
#
# 1 0.009320 -0.002922 -0.004852 0.000000 0.000000 0.000000
# 2 -0.002922 0.013812 -0.000708 0.000000 0.000000 0.000000
# 3 -0.004852 -0.000708 0.023722 0.000000 0.000000 0.000000
# 4 0.000000 0.000000 0.000000 0.047602 0.000000 0.000000
# 5 0.000000 0.000000 0.000000 0.000000 0.031418 0.000000
# 6 0.000000 0.000000 0.000000 0.000000 0.000000 0.033401
#
#
# Mechanical properties :
#
#
# Convention : Reuss Voigt Hill
#
# Bulk Modulus (GPa) = 33.45582 43.09457 38.27519
# Shear Modulus (GPa) = 26.85246 29.40922 28.13084
#
# Velocity S-wave (km/s) = 3.63528 3.80441 3.72080
# Velocity P-wave (km/s) = 5.83827 6.36449 6.10705
#
# Compressibility (1/GPa) = 0.02989017
#
# Stress axis : x y z
#
# Youngs Moduli (GPa) = 107.29144 72.40029 42.15463
#
# Poissons Ratio (x) = 0.21158 0.20454
# Poissons Ratio (y) = 0.31355 0.02983
# Poissons Ratio (z) = 0.52060 0.05124
#
# Static dielectric constant tensor:
#      x y z
#    x 3.958220 0.000000 0.000000 
#    y 0.000000 3.908580 0.000000 
#    z 0.000000 0.000000 3.289910 
# 
# 
# High freq. dielectric constant tensor:
#      x y z
#    x 1.812090 0.000000 0.000000 
#    y 0.000000 1.815190 0.000000 
#    z 0.000000 0.000000 1.746200 
# 
# From -- ./inp_files/11061.got.cif
#   From: 2010.03.12/outbox.cif.g09.slc.cpg/sg23_6_cif.got.tgz:11061.got - 2010.04.14 02:50:06.
