data_PCOD8163840
_publ_section_title
;
Structure prediction by ZEFSAII (Michael W. Deem and Ramdas Pophale) SiO2 
 PCOD8163840
Probable space group: I 2 2 2
;
_chemical_formula_sum "Si O2"
_cell_formula_units_Z 48
_cell_length_a 7.623484
_cell_length_b 22.518078
_cell_length_c 12.571771
_cell_angle_alpha 90.000000
_cell_angle_beta 90.000000
_cell_angle_gamma 90.000000
_cell_volume 2158.148247
_symmetry_space_group_name_H-M "I 2 2 2"
_symmetry_group_IT_number 23
_symmetry_cell_setting 'orthorhombic'
loop_
_space_group_symop_operation_xyz
x,y,z
-x,-y,z
x,-y,-z
-x,y,-z
1/2+x,1/2+y,1/2+z
1/2-x,1/2-y,1/2+z
1/2+x,1/2-y,1/2-z
1/2-x,1/2+y,1/2-z
loop_
_atom_site_type_symbol
_atom_site_label
_atom_site_fract_x
_atom_site_fract_y
_atom_site_fract_z
Si Si1 0.330276 0.431463 0.755991
Si Si2 0.227643 0.936759 0.270875
Si Si3 0.340852 0.314770 0.874030
Si Si4 0.668015 0.165825 0.423502
Si Si5 0.026041 0.609485 0.375957
Si Si6 0.969370 0.271704 0.250898
O O1 0.533659 0.424675 0.723469
O O2 0.274796 0.494361 0.807369
O O3 0.287907 0.381899 0.844854
O O4 0.212510 0.420437 0.651865
O O5 0.271674 0.896654 0.373045
O O6 0.368706 0.926477 0.178968
O O7 0.518301 0.291218 0.816196
O O8 0.204135 0.268524 0.820496
O O9 0.330132 0.310577 0.002516
O O10 0.500000 0.154930 0.500000
O O11 0.627343 0.214972 0.333486
O O12 0.031322 0.677331 0.339319
O O13 0.000000 0.605879 0.500000
#
# Coordination Sequence:
#
# PCOD8163840 Si02
#       6
#     8   8   8   8   8   8
#     4  10  23  40  61  95 123 163 209 259 306 381
#     4  10  22  42  64  87 131 161 203 263 317 364
#     4  10  21  38  61  87 122 159 207 249 309 372
#     4   9  20  40  63  92 120 164 207 252 318 378
#     4  10  22  41  63  93 123 164 212 258 316 372
#     4   9  21  38  59  87 124 156 204 258 304 371
#
# _framework density 22.241289999999999
#
# number of rings (size 3 to 8) (size 9 to 14) (size 15 to 20)
#    0.000    2.333    0.000    1.500    4.667    6.000 
#    0.000    7.500    0.000    0.000    0.000    0.000 
#    0.000    0.000    0.000    0.000    0.000    0.000 
#
# Total GULP energy -297496.472105 kJ/mol
# GULP energy per Si atom -12395.686338 kJ/mol
# Density = 2.219067 g / cm^3
# Si number density = 22.241290 Si / 1000 Ang^3
#
#
#
# Elastic Constant Matrix: (Units=GPa)
#
#
# Indices 1 2 3 4 5 6 
#
# 1 73.1562 -2.9989 33.5730 -0.0001 0.0000 0.0000
# 2 -2.9989 97.1644 51.6247 0.0000 0.0000 0.0000
# 3 33.5730 51.6247 145.8861 0.0001 0.0001 0.0000
# 4 -0.0001 0.0000 0.0001 17.2100 0.0000 0.0000
# 5 0.0000 0.0000 0.0001 0.0000 21.0989 0.0000
# 6 0.0000 0.0000 0.0000 0.0000 0.0000 33.1804
#
#
#
# Elastic Compliance Matrix: (Units=1/GPa)
#
#
# Indices 1 2 3 4 5 6 
#
# 1 0.015968 0.003012 -0.004741 0.000000 0.000000 0.000000
# 2 0.003012 0.013243 -0.005379 0.000000 0.000000 0.000000
# 3 -0.004741 -0.005379 0.009849 0.000000 0.000000 0.000000
# 4 0.000000 0.000000 0.000000 0.058106 0.000000 0.000000
# 5 0.000000 0.000000 0.000000 0.000000 0.047396 0.000000
# 6 0.000000 0.000000 0.000000 0.000000 0.000000 0.030138
#
#
# Mechanical properties :
#
#
# Convention : Reuss Voigt Hill
#
# Bulk Modulus (GPa) = 40.25137 53.40045 46.82591
# Shear Modulus (GPa) = 25.35524 29.89841 27.62682
#
# Velocity S-wave (km/s) = 3.38006 3.67041 3.52823
# Velocity P-wave (km/s) = 5.77667 6.48262 6.13980
#
# Compressibility (1/GPa) = 0.02484388
#
# Stress axis : x y z
#
# Youngs Moduli (GPa) = 62.62381 75.51230 101.53134
#
# Poissons Ratio (x) = -0.22741 0.48131
# Poissons Ratio (y) = -0.18859 0.54617
# Poissons Ratio (z) = 0.29687 0.40620
#
# Static dielectric constant tensor:
#      x y z
#    x 4.441560 0.000000 0.000000 
#    y 0.000000 4.035020 0.000000 
#    z 0.000000 0.000000 3.863830 
# 
# 
# High freq. dielectric constant tensor:
#      x y z
#    x 1.903420 0.000000 0.000000 
#    y 0.000000 1.871650 0.000000 
#    z 0.000000 0.000000 1.862340 
# 
# From -- ./inp_files/14750.got.cif
#   From: 2010.03.12/outbox.cif.g09.slc.cpg/sg23_8_cif.got.tgz:14750.got - 2010.04.14 02:50:06.
