data_PCOD8163605
_publ_section_title
;
Structure prediction by ZEFSAII (Michael W. Deem and Ramdas Pophale) SiO2 
 PCOD8163605
Probable space group: I 2 2 2
;
_chemical_formula_sum "Si O2"
_cell_formula_units_Z 52
_cell_length_a 22.029910
_cell_length_b 14.077062
_cell_length_c 9.417054
_cell_angle_alpha 90.000000
_cell_angle_beta 90.000000
_cell_angle_gamma 90.000000
_cell_volume 2920.382969
_symmetry_space_group_name_H-M "I 2 2 2"
_symmetry_group_IT_number 23
_symmetry_cell_setting 'orthorhombic'
loop_
_space_group_symop_operation_xyz
x,y,z
-x,-y,z
x,-y,-z
-x,y,-z
1/2+x,1/2+y,1/2+z
1/2-x,1/2-y,1/2+z
1/2+x,1/2-y,1/2-z
1/2-x,1/2+y,1/2-z
loop_
_atom_site_type_symbol
_atom_site_label
_atom_site_fract_x
_atom_site_fract_y
_atom_site_fract_z
Si Si1 0.000000 0.500000 0.000000
Si Si2 0.384344 0.062550 0.373120
Si Si3 0.689731 0.751174 0.959404
Si Si4 0.000000 0.000000 0.500000
Si Si5 0.182663 0.548021 0.647912
Si Si6 0.316802 0.461082 0.342569
Si Si7 0.383083 0.429170 0.886487
Si Si8 0.686422 0.753497 0.297754
O O1 0.042892 0.566241 0.099529
O O2 0.361617 0.170084 0.357015
O O3 0.353208 0.000000 0.500000
O O4 0.370698 0.003414 0.231614
O O5 0.664536 0.843723 0.880081
O O6 0.638386 0.675509 0.923173
O O7 0.753245 0.723283 0.887255
O O8 0.697950 0.766251 0.128855
O O9 0.043254 0.934109 0.599477
O O10 0.191769 0.500000 0.500000
O O11 0.248698 0.538511 0.725009
O O12 0.315859 0.500000 0.500000
O O13 0.361878 0.533915 0.265867
O O14 0.339646 0.351558 0.332473
O O15 0.351981 0.500000 0.000000
#
# Coordination Sequence:
#
# PCOD8163605 Si02
#       8
#     2   8   8   2   8   8   8   8
#     4   8  24  44  60  80 110 168 218 242 284 348
#     4  10  22  40  63  78 120 161 199 247 291 348
#     4  11  23  34  60  95 122 151 194 234 308 370
#     4   8  20  40  60  76 110 152 218 242 256 336
#     4  10  20  36  57  91 123 149 185 245 303 359
#     4  10  22  36  59  91 126 148 186 243 304 363
#     4  10  20  39  61  78 113 159 199 238 284 339
#     4  11  22  36  58  91 124 151 190 242 306 363
#
# _framework density 17.805885
#
# number of rings (size 3 to 8) (size 9 to 14) (size 15 to 20)
#    0.923    0.923    3.077    0.923    8.615    1.231 
#    0.000    3.846    0.000    0.000    0.000    0.000 
#    0.000    0.000    0.000    0.000    0.000    0.000 
#
# Total GULP energy -322141.581183 kJ/mol
# GULP energy per Si atom -12390.060815 kJ/mol
# Density = 1.776536 g / cm^3
# Si number density = 17.805885 Si / 1000 Ang^3
#
#
#
# Elastic Constant Matrix: (Units=GPa)
#
#
# Indices 1 2 3 4 5 6 
#
# 1 115.3867 59.6656 43.7973 0.0000 0.0000 0.0000
# 2 59.6656 113.6340 29.9406 0.0000 0.0000 0.0000
# 3 43.7973 29.9406 77.4806 0.0000 0.0000 0.0000
# 4 0.0000 0.0000 0.0000 28.0201 0.0000 0.0000
# 5 0.0000 0.0000 0.0000 0.0000 29.3227 0.0000
# 6 0.0000 0.0000 0.0000 0.0000 0.0000 16.1047
#
#
#
# Elastic Compliance Matrix: (Units=1/GPa)
#
#
# Indices 1 2 3 4 5 6 
#
# 1 0.013749 -0.005758 -0.005547 0.000000 0.000000 0.000000
# 2 -0.005758 0.012209 -0.001463 0.000000 0.000000 0.000000
# 3 -0.005547 -0.001463 0.016607 0.000000 0.000000 0.000000
# 4 0.000000 0.000000 0.000000 0.035689 0.000000 0.000000
# 5 0.000000 0.000000 0.000000 0.000000 0.034103 0.000000
# 6 0.000000 0.000000 0.000000 0.000000 0.000000 0.062094
#
#
# Mechanical properties :
#
#
# Convention : Reuss Voigt Hill
#
# Bulk Modulus (GPa) = 58.72120 63.70094 61.21107
# Shear Modulus (GPa) = 24.31148 26.22934 25.27041
#
# Velocity S-wave (km/s) = 3.69909 3.84222 3.77134
# Velocity P-wave (km/s) = 7.16202 7.45228 7.30859
#
# Compressibility (1/GPa) = 0.01702963
#
# Stress axis : x y z
#
# Youngs Moduli (GPa) = 72.73085 81.90722 60.21388
#
# Poissons Ratio (x) = 0.47160 0.33401
# Poissons Ratio (y) = 0.41877 0.08810
# Poissons Ratio (z) = 0.40344 0.11985
#
# Static dielectric constant tensor:
#      x y z
#    x 3.033760 0.000000 0.000000 
#    y 0.000000 3.399710 0.000000 
#    z 0.000000 0.000000 3.305980 
# 
# 
# High freq. dielectric constant tensor:
#      x y z
#    x 1.657750 0.000000 0.000000 
#    y 0.000000 1.699720 0.000000 
#    z 0.000000 0.000000 1.692010 
# 
# From -- ./inp_files/13103.got.cif
#   From: 2010.03.12/outbox.cif.g09.slc.cpg/sg23_7_cif.got.tgz:13103.got - 2010.04.14 02:50:06.
