data_PCOD8163495
_publ_section_title
;
Structure prediction by ZEFSAII (Michael W. Deem and Ramdas Pophale) SiO2 
 PCOD8163495
Probable space group: I 2 2 2
;
_chemical_formula_sum "Si O2"
_cell_formula_units_Z 48
_cell_length_a 18.060653
_cell_length_b 14.158536
_cell_length_c 8.968808
_cell_angle_alpha 90.000000
_cell_angle_beta 90.000000
_cell_angle_gamma 90.000000
_cell_volume 2293.435470
_symmetry_space_group_name_H-M "I 2 2 2"
_symmetry_group_IT_number 23
_symmetry_cell_setting 'orthorhombic'
loop_
_space_group_symop_operation_xyz
x,y,z
-x,-y,z
x,-y,-z
-x,y,-z
1/2+x,1/2+y,1/2+z
1/2-x,1/2-y,1/2+z
1/2+x,1/2-y,1/2-z
1/2-x,1/2+y,1/2-z
loop_
_atom_site_type_symbol
_atom_site_label
_atom_site_fract_x
_atom_site_fract_y
_atom_site_fract_z
Si Si1 0.500000 0.000000 0.260648
Si Si2 0.454935 0.804071 0.133491
Si Si3 0.834347 0.483062 0.164742
Si Si4 0.709539 0.154344 0.137876
Si Si5 0.500000 0.500000 0.000000
Si Si6 0.740727 0.664760 0.689988
Si Si7 0.000000 0.000000 0.000000
Si Si8 0.421684 0.615779 0.253137
O O1 0.504833 0.097016 0.168686
O O2 0.423423 0.006189 0.352004
O O3 0.371504 0.818999 0.079413
O O4 0.453102 0.724094 0.262853
O O5 0.500000 0.756735 0.000000
O O6 0.795877 0.553783 0.281580
O O7 0.811878 0.380967 0.227999
O O8 0.801671 0.500000 0.000000
O O9 0.741749 0.225797 0.261568
O O10 0.759365 0.153584 0.989371
O O11 0.447902 0.564217 0.103298
O O12 0.667048 0.614397 0.750581
O O13 0.947722 0.064818 0.901298
#
# Coordination Sequence:
#
# PCOD8163495 Si02
#       8
#     4   8   8   8   2   8   2   8
#     4  10  22  40  64  96 137 165 214 266 323 387
#     4  10  19  39  64  96 122 172 210 263 322 396
#     4  11  23  41  65  95 129 173 215 265 328 385
#     4  10  23  41  61  93 134 162 220 264 325 388
#     4  10  20  46  68  92 124 168 212 290 312 412
#     4  11  23  42  63  95 126 176 210 274 322 399
#     4  10  24  46  56 100 120 172 212 282 320 392
#     4  10  23  41  67  92 129 163 224 264 343 382
#
# _framework density 20.929300000000001
#
# number of rings (size 3 to 8) (size 9 to 14) (size 15 to 20)
#    0.000    1.667    0.833    3.000    3.500    2.667 
#   15.000    0.000    0.000    0.000    0.000    0.000 
#    0.000    0.000    0.000    0.000    0.000    0.000 
#
# Total GULP energy -297488.584470 kJ/mol
# GULP energy per Si atom -12395.357686 kJ/mol
# Density = 2.088166 g / cm^3
# Si number density = 20.929300 Si / 1000 Ang^3
#
#
#
# Elastic Constant Matrix: (Units=GPa)
#
#
# Indices 1 2 3 4 5 6 
#
# 1 66.9030 42.2176 39.2783 0.0000 0.0000 0.0000
# 2 42.2176 116.0484 38.9420 0.0000 0.0000 0.0000
# 3 39.2783 38.9420 129.8469 0.0000 0.0000 0.0000
# 4 0.0000 0.0000 0.0000 25.8922 0.0000 0.0000
# 5 0.0000 0.0000 0.0000 0.0000 27.1427 0.0000
# 6 0.0000 0.0000 0.0000 0.0000 0.0000 34.2288
#
#
#
# Elastic Compliance Matrix: (Units=1/GPa)
#
#
# Indices 1 2 3 4 5 6 
#
# 1 0.021671 -0.006320 -0.004660 0.000000 0.000000 0.000000
# 2 -0.006320 0.011424 -0.001514 0.000000 0.000000 0.000000
# 3 -0.004660 -0.001514 0.009565 0.000000 0.000000 0.000000
# 4 0.000000 0.000000 0.000000 0.038622 0.000000 0.000000
# 5 0.000000 0.000000 0.000000 0.000000 0.036842 0.000000
# 6 0.000000 0.000000 0.000000 0.000000 0.000000 0.029215
#
#
# Mechanical properties :
#
#
# Convention : Reuss Voigt Hill
#
# Bulk Modulus (GPa) = 56.58775 61.51935 59.05355
# Shear Modulus (GPa) = 28.05530 30.27676 29.16603
#
# Velocity S-wave (km/s) = 3.66523 3.80757 3.73708
# Velocity P-wave (km/s) = 6.70881 6.98483 6.84821
#
# Compressibility (1/GPa) = 0.01767167
#
# Stress axis : x y z
#
# Youngs Moduli (GPa) = 46.14468 87.53130 104.54540
#
# Poissons Ratio (x) = 0.55320 0.48718
# Poissons Ratio (y) = 0.29164 0.15833
# Poissons Ratio (z) = 0.21503 0.13257
#
# Static dielectric constant tensor:
#      x y z
#    x 3.746230 0.000000 0.000000 
#    y 0.000000 3.935460 0.000000 
#    z 0.000000 0.000000 3.619340 
# 
# 
# High freq. dielectric constant tensor:
#      x y z
#    x 1.818620 0.000000 0.000000 
#    y 0.000000 1.831340 0.000000 
#    z 0.000000 0.000000 1.814920 
# 
# From -- ./inp_files/11105.got.cif
#   From: 2010.03.12/outbox.cif.g09.slc.cpg/sg23_6_cif.got.tgz:11105.got - 2010.04.14 02:50:06.
