data_PCOD8163654
_publ_section_title
;
Structure prediction by ZEFSAII (Michael W. Deem and Ramdas Pophale) SiO2 
 PCOD8163654
Probable space group: I 2 2 2
;
_chemical_formula_sum "Si O2"
_cell_formula_units_Z 48
_cell_length_a 12.794409
_cell_length_b 10.540203
_cell_length_c 17.903189
_cell_angle_alpha 90.000000
_cell_angle_beta 90.000000
_cell_angle_gamma 90.000000
_cell_volume 2414.346514
_symmetry_space_group_name_H-M "I 2 2 2"
_symmetry_group_IT_number 23
_symmetry_cell_setting 'orthorhombic'
loop_
_space_group_symop_operation_xyz
x,y,z
-x,-y,z
x,-y,-z
-x,y,-z
1/2+x,1/2+y,1/2+z
1/2-x,1/2-y,1/2+z
1/2+x,1/2-y,1/2-z
1/2-x,1/2+y,1/2-z
loop_
_atom_site_type_symbol
_atom_site_label
_atom_site_fract_x
_atom_site_fract_y
_atom_site_fract_z
Si Si1 0.764787 0.992932 0.583940
Si Si2 0.732575 0.725709 0.422957
Si Si3 0.944917 0.872341 0.665514
Si Si4 0.095164 0.690153 0.945746
Si Si5 0.960003 0.635257 0.417682
Si Si6 0.966689 0.137671 0.158815
O O1 0.826128 0.895950 0.638516
O O2 0.645532 0.941294 0.582420
O O3 0.813492 0.000000 0.500000
O O4 0.760719 0.137060 0.613379
O O5 0.686395 0.736704 0.507360
O O6 0.834315 0.637081 0.420461
O O7 0.648618 0.661052 0.370437
O O8 0.959709 0.853360 0.752819
O O9 0.993941 0.747311 0.631369
O O10 0.000000 0.000000 0.636055
O O11 0.054027 0.767633 0.874323
O O12 0.000000 0.658295 0.000000
O O13 0.000000 0.500000 0.385705
O O14 0.000000 0.657562 0.500000
O O15 0.000000 0.000000 0.130958
#
# Coordination Sequence:
#
# PCOD8163654 Si02
#       6
#     8   8   8   8   8   8
#     4  10  20  37  67  96 116 166 222 270 312 372
#     4  10  21  40  63  93 120 166 217 262 314 383
#     4  11  23  42  63  89 125 170 213 258 315 385
#     4   9  20  38  64  95 126 161 212 266 317 372
#     4  11  24  41  62  94 127 157 207 271 321 384
#     4  10  24  41  59  89 130 168 208 258 321 395
#
# _framework density 19.881156000000001
#
# number of rings (size 3 to 8) (size 9 to 14) (size 15 to 20)
#    0.000    1.833    1.667    2.000    0.000   16.000 
#    6.000    0.000    0.000    0.000    0.000    0.000 
#    0.000    0.000    0.000    0.000    0.000    0.000 
#
# Total GULP energy -297540.342366 kJ/mol
# GULP energy per Si atom -12397.514265 kJ/mol
# Density = 1.983591 g / cm^3
# Si number density = 19.881156 Si / 1000 Ang^3
#
#
#
# Elastic Constant Matrix: (Units=GPa)
#
#
# Indices 1 2 3 4 5 6 
#
# 1 139.1841 73.0301 35.0891 0.0000 0.0000 0.0000
# 2 73.0301 128.6318 57.9685 0.0000 0.0000 0.0000
# 3 35.0891 57.9685 73.9658 0.0000 0.0000 0.0000
# 4 0.0000 0.0000 0.0000 33.0277 0.0000 0.0000
# 5 0.0000 0.0000 0.0000 0.0000 1.9873 0.0000
# 6 0.0000 0.0000 0.0000 0.0000 0.0000 40.8975
#
#
#
# Elastic Compliance Matrix: (Units=1/GPa)
#
#
# Indices 1 2 3 4 5 6 
#
# 1 0.010244 -0.005606 -0.000466 0.000000 0.000000 0.000000
# 2 -0.005606 0.015087 -0.009164 0.000000 0.000000 0.000000
# 3 -0.000466 -0.009164 0.020923 0.000000 0.000000 0.000000
# 4 0.000000 0.000000 0.000000 0.030278 0.000000 0.000000
# 5 0.000000 0.000000 0.000000 0.000000 0.503204 0.000000
# 6 0.000000 0.000000 0.000000 0.000000 0.000000 0.024451
#
#
# Mechanical properties :
#
#
# Convention : Reuss Voigt Hill
#
# Bulk Modulus (GPa) = 63.36779 74.88412 69.12595
# Shear Modulus (GPa) = 7.81348 26.89544 17.35446
#
# Velocity S-wave (km/s) = 1.98460 3.68205 2.95771
# Velocity P-wave (km/s) = 6.09869 7.47156 6.81976
#
# Compressibility (1/GPa) = 0.01578089
#
# Stress axis : x y z
#
# Youngs Moduli (GPa) = 97.62248 66.28360 47.79353
#
# Poissons Ratio (x) = 0.37156 0.02228
# Poissons Ratio (y) = 0.54723 0.43800
# Poissons Ratio (z) = 0.04552 0.60745
#
# Static dielectric constant tensor:
#      x y z
#    x 3.794410 0.000000 0.000000 
#    y 0.000000 3.836630 0.000000 
#    z 0.000000 0.000000 3.451900 
# 
# 
# High freq. dielectric constant tensor:
#      x y z
#    x 1.787490 0.000000 0.000000 
#    y 0.000000 1.782010 0.000000 
#    z 0.000000 0.000000 1.756640 
# 
# From -- ./inp_files/24729.got.cif
#   From: 2010.03.12/outbox.cif.g09.slc.cpg/sg23_13_cif.got.tgz:24729.got - 2010.04.14 02:50:06.
