data_PCOD8163511
_publ_section_title
;
Structure prediction by ZEFSAII (Michael W. Deem and Ramdas Pophale) SiO2 
 PCOD8163511
Probable space group: I 2 2 2
;
_chemical_formula_sum "Si O2"
_cell_formula_units_Z 64
_cell_length_a 19.410738
_cell_length_b 9.175216
_cell_length_c 23.305148
_cell_angle_alpha 90.000000
_cell_angle_beta 90.000000
_cell_angle_gamma 90.000000
_cell_volume 4150.593580
_symmetry_space_group_name_H-M "I 2 2 2"
_symmetry_group_IT_number 23
_symmetry_cell_setting 'orthorhombic'
loop_
_space_group_symop_operation_xyz
x,y,z
-x,-y,z
x,-y,-z
-x,y,-z
1/2+x,1/2+y,1/2+z
1/2-x,1/2-y,1/2+z
1/2+x,1/2-y,1/2-z
1/2-x,1/2+y,1/2-z
loop_
_atom_site_type_symbol
_atom_site_label
_atom_site_fract_x
_atom_site_fract_y
_atom_site_fract_z
Si Si1 0.500007 0.827498 0.747254
Si Si2 0.852598 0.671222 0.730727
Si Si3 0.129487 0.832053 0.065128
Si Si4 0.629489 0.332036 0.434881
Si Si5 0.779205 0.831627 0.831528
Si Si6 0.500003 0.173160 0.383586
Si Si7 0.147419 0.328841 0.269257
Si Si8 0.279190 0.331557 0.668456
O O1 0.430970 0.772188 0.780418
O O2 0.500008 0.769413 0.681844
O O3 0.569056 0.772208 0.780406
O O4 0.500000 0.000000 0.745656
O O5 0.827010 0.739940 0.789708
O O6 0.853641 0.500035 0.741515
O O7 0.801506 0.712394 0.677984
O O8 0.197590 0.799588 0.103382
O O9 0.066988 0.731407 0.084194
O O10 0.106451 0.000010 0.071771
O O11 0.150142 0.795292 0.000006
O O12 0.566989 0.231391 0.415817
O O13 0.697598 0.299554 0.396636
O O14 0.698515 0.787647 0.821994
O O15 0.789520 0.000042 0.815320
O O16 0.500000 0.000000 0.387244
O O17 0.173017 0.260186 0.210267
#
# Coordination Sequence:
#
# PCOD8163511 Si02
#       8
#     8   8   8   8   8   8   8   8
#     4   9  16  26  42  63  85 108 129 163 210 249
#     4   9  16  28  44  61  82 105 133 169 210 249
#     4  10  20  32  43  58  84 116 146 174 204 240
#     4  10  20  32  43  58  84 116 146 174 204 240
#     4   9  17  28  43  61  79 106 140 171 203 242
#     4  11  20  30  43  62  86 113 146 175 201 240
#     4   9  16  28  44  61  82 105 133 169 210 249
#     4   9  17  28  43  61  79 106 140 171 203 242
#
# _framework density 15.41948
#
# number of rings (size 3 to 8) (size 9 to 14) (size 15 to 20)
#    0.000    2.500    2.500    0.750    0.000    2.000 
#    0.000    0.625    0.000    0.000    0.000    0.875 
#    0.000    7.000    0.000    0.000    0.000   25.375 
#
# Total GULP energy -396544.804877 kJ/mol
# GULP energy per Si atom -12392.025152 kJ/mol
# Density = 1.538438 g / cm^3
# Si number density = 15.419480 Si / 1000 Ang^3
#
#
#
# Elastic Constant Matrix: (Units=GPa)
#
#
# Indices 1 2 3 4 5 6 
#
# 1 160.7396 29.1001 72.6798 0.0000 0.0000 0.0000
# 2 29.1001 30.1087 23.8795 0.0000 0.0000 0.0000
# 3 72.6798 23.8795 89.9042 0.0000 0.0000 0.0000
# 4 0.0000 0.0000 0.0000 15.5970 0.0000 0.0000
# 5 0.0000 0.0000 0.0000 0.0000 22.3006 0.0000
# 6 0.0000 0.0000 0.0000 0.0000 0.0000 14.1841
#
#
#
# Elastic Compliance Matrix: (Units=1/GPa)
#
#
# Indices 1 2 3 4 5 6 
#
# 1 0.010210 -0.004208 -0.007136 0.000000 0.000000 0.000000
# 2 -0.004208 0.043811 -0.008235 0.000000 0.000000 0.000000
# 3 -0.007136 -0.008235 0.019079 0.000000 0.000000 0.000000
# 4 0.000000 0.000000 0.000000 0.064115 0.000000 0.000000
# 5 0.000000 0.000000 0.000000 0.000000 0.044842 0.000000
# 6 0.000000 0.000000 0.000000 0.000000 0.000000 0.070501
#
#
# Mechanical properties :
#
#
# Convention : Reuss Voigt Hill
#
# Bulk Modulus (GPa) = 29.46182 59.11903 44.29042
# Shear Modulus (GPa) = 16.50003 20.75588 18.62795
#
# Velocity S-wave (km/s) = 3.27475 3.67288 3.47951
# Velocity P-wave (km/s) = 5.78334 7.51069 6.70289
#
# Compressibility (1/GPa) = 0.03394224
#
# Stress axis : x y z
#
# Youngs Moduli (GPa) = 97.94669 22.82516 52.41373
#
# Poissons Ratio (x) = 0.09605 0.37402
# Poissons Ratio (y) = 0.41217 0.43162
# Poissons Ratio (z) = 0.69894 0.18796
#
# Static dielectric constant tensor:
#      x y z
#    x 3.514270 0.000000 0.000000 
#    y 0.000000 2.903390 0.000000 
#    z 0.000000 0.000000 2.918620 
# 
# 
# High freq. dielectric constant tensor:
#      x y z
#    x 1.595640 0.000000 0.000000 
#    y 0.000000 1.584000 0.000000 
#    z 0.000000 0.000000 1.561510 
# 
# From -- ./inp_files/11486.got.cif
#   From: 2010.03.12/outbox.cif.g09.slc.cpg/sg23_6_cif.got.tgz:11486.got - 2010.04.14 02:50:06.
