data_PCOD8163808
_publ_section_title
;
Structure prediction by ZEFSAII (Michael W. Deem and Ramdas Pophale) SiO2 
 PCOD8163808
Probable space group: I 2 2 2
;
_chemical_formula_sum "Si O2"
_cell_formula_units_Z 60
_cell_length_a 11.903048
_cell_length_b 31.777949
_cell_length_c 8.122628
_cell_angle_alpha 90.000000
_cell_angle_beta 90.000000
_cell_angle_gamma 90.000000
_cell_volume 3072.420205
_symmetry_space_group_name_H-M "I 2 2 2"
_symmetry_group_IT_number 23
_symmetry_cell_setting 'orthorhombic'
loop_
_space_group_symop_operation_xyz
x,y,z
-x,-y,z
x,-y,-z
-x,y,-z
1/2+x,1/2+y,1/2+z
1/2-x,1/2-y,1/2+z
1/2+x,1/2-y,1/2-z
1/2-x,1/2+y,1/2-z
loop_
_atom_site_type_symbol
_atom_site_label
_atom_site_fract_x
_atom_site_fract_y
_atom_site_fract_z
Si Si1 0.872742 0.949946 0.686373
Si Si2 0.997152 0.776890 0.749634
Si Si3 0.629042 0.169538 0.947528
Si Si4 0.132041 0.950743 0.686946
Si Si5 0.500000 0.347568 0.500000
Si Si6 0.711216 0.596078 0.503726
Si Si7 0.903129 0.695500 0.902480
Si Si8 0.182397 0.761393 0.521679
O O1 0.835893 0.935465 0.500216
O O2 0.002522 0.937732 0.719987
O O3 0.856070 0.999453 0.698276
O O4 0.798050 0.928981 0.830803
O O5 0.974178 0.736159 0.854561
O O6 0.906804 0.778184 0.606322
O O7 0.128052 0.773226 0.697503
O O8 0.975085 0.819873 0.841777
O O9 0.678945 0.125693 0.014015
O O10 0.637835 0.167685 0.749976
O O11 0.698710 0.210599 0.010273
O O12 0.500000 0.174942 0.000000
O O13 0.214178 0.932873 0.830609
O O14 0.393637 0.375089 0.538593
O O15 0.796566 0.712560 0.005315
O O16 0.000000 0.668882 0.000000
#
# Coordination Sequence:
#
# PCOD8163808 Si02
#       8
#     8   8   8   8   4   8   8   8
#     4   9  18  37  65  92 129 166 186 232 289 379
#     4  10  21  37  56  76 110 153 202 254 294 363
#     4  11  24  42  56  78 118 158 203 258 305 361
#     4   9  18  37  63  96 128 160 198 221 292 383
#     4  12  22  34  53  96 118 148 192 252 317 348
#     4  12  22  36  58  92 133 154 190 251 313 358
#     4  11  22  36  62  80 103 150 214 257 305 366
#     4  10  21  42  58  76 105 157 210 256 308 355
#
# _framework density 19.528578
#
# number of rings (size 3 to 8) (size 9 to 14) (size 15 to 20)
#    0.000    1.600    4.667    2.800    3.733    2.133 
#    9.600    0.000    0.000    1.600    0.000    1.867 
#    0.000    0.000    0.000    0.000    0.000    0.000 
#
# Total GULP energy -371726.406420 kJ/mol
# GULP energy per Si atom -12390.880214 kJ/mol
# Density = 1.948413 g / cm^3
# Si number density = 19.528578 Si / 1000 Ang^3
#
#
#
# Elastic Constant Matrix: (Units=GPa)
#
#
# Indices 1 2 3 4 5 6 
#
# 1 74.9556 18.4201 29.0753 0.0021 0.0014 -0.0049
# 2 18.4201 62.8552 39.2751 0.0040 -0.0016 -0.0014
# 3 29.0753 39.2751 120.5798 -0.0240 0.0626 -0.0359
# 4 0.0021 0.0040 -0.0240 30.4034 0.0058 0.0016
# 5 0.0014 -0.0016 0.0626 0.0058 20.8336 0.0087
# 6 -0.0049 -0.0014 -0.0359 0.0016 0.0087 43.2867
#
#
#
# Elastic Compliance Matrix: (Units=1/GPa)
#
#
# Indices 1 2 3 4 5 6 
#
# 1 0.015073 -0.002695 -0.002757 -0.000003 0.000007 -0.000001
# 2 -0.002695 0.020457 -0.006013 -0.000007 0.000020 -0.000005
# 3 -0.002757 -0.006013 0.010917 0.000010 -0.000033 0.000009
# 4 -0.000003 -0.000007 0.000010 0.032891 -0.000009 -0.000001
# 5 0.000007 0.000020 -0.000033 -0.000009 0.048000 -0.000010
# 6 -0.000001 -0.000005 0.000009 -0.000001 -0.000010 0.023102
#
#
# Mechanical properties :
#
#
# Convention : Reuss Voigt Hill
#
# Bulk Modulus (GPa) = 42.52312 47.99240 45.25776
# Shear Modulus (GPa) = 27.59273 30.34607 28.96940
#
# Velocity S-wave (km/s) = 3.76299 3.94627 3.85572
# Velocity P-wave (km/s) = 6.37983 6.73742 6.56106
#
# Compressibility (1/GPa) = 0.02351662
#
# Stress axis : x y z
#
# Youngs Moduli (GPa) = 66.34475 48.88368 91.60268
#
# Poissons Ratio (x) = 0.13172 0.25253
# Poissons Ratio (y) = 0.17877 0.55084
# Poissons Ratio (z) = 0.18290 0.29396
#
# Static dielectric constant tensor:
#      x y z
#    x 3.295140 -0.000010 -0.000210 
#    y -0.000010 3.388970 0.000010 
#    z -0.000210 0.000010 4.343300 
# 
# 
# High freq. dielectric constant tensor:
#      x y z
#    x 1.738840 0.000000 0.000000 
#    y 0.000000 1.734390 0.000000 
#    z 0.000000 0.000000 1.781920 
# 
# From -- ./inp_files/8926.got.cif
#   From: 2010.03.12/outbox.cif.g09.slc.cpg/sg23_5_cif.got.tgz:8926.got - 2010.04.14 02:50:06.
