data_PCOD8163624
_publ_section_title
;
Structure prediction by ZEFSAII (Michael W. Deem and Ramdas Pophale) SiO2 
 PCOD8163624
Probable space group: I 2 2 2
;
_chemical_formula_sum "Si O2"
_cell_formula_units_Z 58
_cell_length_a 10.665422
_cell_length_b 9.356208
_cell_length_c 27.688763
_cell_angle_alpha 90.000000
_cell_angle_beta 90.000000
_cell_angle_gamma 90.000000
_cell_volume 2763.003697
_symmetry_space_group_name_H-M "I 2 2 2"
_symmetry_group_IT_number 23
_symmetry_cell_setting 'orthorhombic'
loop_
_space_group_symop_operation_xyz
x,y,z
-x,-y,z
x,-y,-z
-x,y,-z
1/2+x,1/2+y,1/2+z
1/2-x,1/2-y,1/2+z
1/2+x,1/2-y,1/2-z
1/2-x,1/2+y,1/2-z
loop_
_atom_site_type_symbol
_atom_site_label
_atom_site_fract_x
_atom_site_fract_y
_atom_site_fract_z
Si Si1 0.766403 0.892543 0.895631
Si Si2 0.422980 0.216460 0.332197
Si Si3 0.312584 0.090371 0.665972
Si Si4 0.025198 0.656117 0.658836
Si Si5 0.000000 0.000000 0.500000
Si Si6 0.087366 0.867160 0.264985
Si Si7 0.869578 0.730664 0.486379
Si Si8 0.198373 0.294951 0.592232
O O1 0.897389 0.821333 0.878403
O O2 0.669260 0.830929 0.856150
O O3 0.719989 0.847655 0.948792
O O4 0.779426 0.063873 0.894542
O O5 0.569864 0.192537 0.322961
O O6 0.371051 0.285240 0.283116
O O7 0.354103 0.069544 0.345037
O O8 0.218281 0.088106 0.710996
O O9 0.247522 0.154114 0.618670
O O10 0.000000 0.500000 0.681464
O O11 0.993639 0.770599 0.699110
O O12 0.944188 0.676089 0.609711
O O13 0.089289 0.892263 0.531445
O O14 0.000000 0.000000 0.251013
O O15 0.791260 0.739865 0.535892
O O16 0.000000 0.646351 0.500000
#
# Coordination Sequence:
#
# PCOD8163624 Si02
#       8
#     8   8   8   8   2   8   8   8
#     4  11  22  37  65  97 135 174 219 278 347 403
#     4  11  27  43  64  90 129 178 217 275 341 409
#     4  10  26  46  63  92 132 171 222 272 336 417
#     4   9  19  36  59  96 130 165 214 270 339 394
#     4   8  20  32  58 100 130 180 206 288 338 404
#     4  11  25  41  69  94 123 171 222 280 331 408
#     4  10  20  36  63  99 137 172 227 279 345 396
#     4  10  21  39  64  94 133 175 215 287 334 400
#
# _framework density 20.991648000000001
#
# number of rings (size 3 to 8) (size 9 to 14) (size 15 to 20)
#    0.414    1.379    1.379    1.241    9.655    1.655 
#    6.207    0.690    0.000    3.310    0.000    0.000 
#    0.000    0.000    0.000    0.000    0.000    0.000 
#
# Total GULP energy -359465.285764 kJ/mol
# GULP energy per Si atom -12395.354682 kJ/mol
# Density = 2.094387 g / cm^3
# Si number density = 20.991648 Si / 1000 Ang^3
#
#
#
# Elastic Constant Matrix: (Units=GPa)
#
#
# Indices 1 2 3 4 5 6 
#
# 1 79.3228 27.3236 21.6752 0.0000 0.0000 0.0000
# 2 27.3236 101.6657 27.5781 0.0000 0.0000 0.0000
# 3 21.6752 27.5781 104.9667 0.0000 0.0000 0.0000
# 4 0.0000 0.0000 0.0000 27.0440 0.0000 0.0000
# 5 0.0000 0.0000 0.0000 0.0000 14.0447 0.0000
# 6 0.0000 0.0000 0.0000 0.0000 0.0000 28.2076
#
#
#
# Elastic Compliance Matrix: (Units=1/GPa)
#
#
# Indices 1 2 3 4 5 6 
#
# 1 0.014308 -0.003277 -0.002093 0.000000 0.000000 0.000000
# 2 -0.003277 0.011342 -0.002303 0.000000 0.000000 0.000000
# 3 -0.002093 -0.002303 0.010564 0.000000 0.000000 0.000000
# 4 0.000000 0.000000 0.000000 0.036977 0.000000 0.000000
# 5 0.000000 0.000000 0.000000 0.000000 0.071201 0.000000
# 6 0.000000 0.000000 0.000000 0.000000 0.000000 0.035451
#
#
# Mechanical properties :
#
#
# Convention : Reuss Voigt Hill
#
# Bulk Modulus (GPa) = 47.92528 48.78988 48.35758
# Shear Modulus (GPa) = 24.73457 27.81782 26.27620
#
# Velocity S-wave (km/s) = 3.43637 3.64426 3.54184
# Velocity P-wave (km/s) = 6.21491 6.40316 6.30974
#
# Compressibility (1/GPa) = 0.02086582
#
# Stress axis : x y z
#
# Youngs Moduli (GPa) = 69.89246 88.16990 94.65941
#
# Poissons Ratio (x) = 0.28897 0.19816
# Poissons Ratio (y) = 0.22907 0.21801
# Poissons Ratio (z) = 0.14631 0.20306
#
# Static dielectric constant tensor:
#      x y z
#    x 3.684340 0.000000 0.000000 
#    y 0.000000 3.879730 0.000000 
#    z 0.000000 0.000000 3.542330 
# 
# 
# High freq. dielectric constant tensor:
#      x y z
#    x 1.804650 0.000000 0.000000 
#    y 0.000000 1.833900 0.000000 
#    z 0.000000 0.000000 1.811210 
# 
# From -- ./inp_files/29452.got.cif
#   From: 2010.03.12/outbox.cif.g09.slc.cpg/sg23_15_cif.got.tgz:29452.got - 2010.04.14 02:50:06.
