data_PCOD8163439
_publ_section_title
;
Structure prediction by ZEFSAII (Michael W. Deem and Ramdas Pophale) SiO2 
 PCOD8163439
Probable space group: I 2 2 2
;
_chemical_formula_sum "Si O2"
_cell_formula_units_Z 50
_cell_length_a 20.672390
_cell_length_b 5.144308
_cell_length_c 23.940394
_cell_angle_alpha 90.000000
_cell_angle_beta 90.000000
_cell_angle_gamma 90.000000
_cell_volume 2545.944582
_symmetry_space_group_name_H-M "I 2 2 2"
_symmetry_group_IT_number 23
_symmetry_cell_setting 'orthorhombic'
loop_
_space_group_symop_operation_xyz
x,y,z
-x,-y,z
x,-y,-z
-x,y,-z
1/2+x,1/2+y,1/2+z
1/2-x,1/2-y,1/2+z
1/2+x,1/2-y,1/2-z
1/2-x,1/2+y,1/2-z
loop_
_atom_site_type_symbol
_atom_site_label
_atom_site_fract_x
_atom_site_fract_y
_atom_site_fract_z
Si Si1 0.099922 0.394760 0.590330
Si Si2 0.923643 0.995491 0.219719
Si Si3 0.423553 0.998701 0.652484
Si Si4 0.744824 0.005910 0.936415
Si Si5 0.073501 0.088530 0.343280
Si Si6 0.500000 0.000000 0.000000
Si Si7 0.816660 0.506794 0.933322
O O1 0.167713 0.490921 0.566698
O O2 0.112315 0.117172 0.618963
O O3 0.047903 0.338114 0.540647
O O4 0.075746 0.617535 0.633306
O O5 0.900135 0.768492 0.178972
O O6 0.901185 0.271877 0.195105
O O7 0.895638 0.933360 0.281392
O O8 0.000000 0.000000 0.224358
O O9 0.500000 0.000000 0.640638
O O10 0.387948 0.969014 0.593206
O O11 0.773220 0.743691 0.909804
O O12 0.779316 0.255254 0.909215
O O13 0.766249 0.000000 0.000000
O O14 0.000000 0.000000 0.342643
O O15 0.824560 0.500000 0.000000
#
# Coordination Sequence:
#
# PCOD8163439 Si02
#       7
#     8   8   8   8   8   2   8
#     4  12  23  37  57  82 120 145 187 235 286 319
#     4   9  19  34  56  82 113 144 185 224 282 336
#     4  10  19  35  60  88 111 140 177 237 281 320
#     4  10  21  38  55  77 110 158 188 216 262 349
#     4  11  21  36  55  83 111 149 185 235 284 330
#     4  12  24  38  56  94 116 150 178 254 282 322
#     4  10  21  37  59  83 112 147 187 216 274 343
#
# _framework density 19.639074999999998
#
# number of rings (size 3 to 8) (size 9 to 14) (size 15 to 20)
#    0.000    1.600    2.400    2.880    0.000    4.160 
#    0.000    0.000    0.000   24.960    0.000    0.000 
#    0.000    0.000    0.000    0.000    0.000    0.000 
#
# Total GULP energy -309890.181996 kJ/mol
# GULP energy per Si atom -12395.607280 kJ/mol
# Density = 1.959438 g / cm^3
# Si number density = 19.639075 Si / 1000 Ang^3
#
#
#
# Elastic Constant Matrix: (Units=GPa)
#
#
# Indices 1 2 3 4 5 6 
#
# 1 86.3623 32.6949 40.9167 0.0000 0.0000 0.0000
# 2 32.6949 131.4187 33.5338 0.0000 0.0000 0.0000
# 3 40.9167 33.5338 85.1932 0.0000 0.0000 0.0000
# 4 0.0000 0.0000 0.0000 16.6202 0.0000 0.0000
# 5 0.0000 0.0000 0.0000 0.0000 18.0310 0.0000
# 6 0.0000 0.0000 0.0000 0.0000 0.0000 24.8428
#
#
#
# Elastic Compliance Matrix: (Units=1/GPa)
#
#
# Indices 1 2 3 4 5 6 
#
# 1 0.015532 -0.002180 -0.006602 0.000000 0.000000 0.000000
# 2 -0.002180 0.008765 -0.002403 0.000000 0.000000 0.000000
# 3 -0.006602 -0.002403 0.015855 0.000000 0.000000 0.000000
# 4 0.000000 0.000000 0.000000 0.060168 0.000000 0.000000
# 5 0.000000 0.000000 0.000000 0.000000 0.055460 0.000000
# 6 0.000000 0.000000 0.000000 0.000000 0.000000 0.040253
#
#
# Mechanical properties :
#
#
# Convention : Reuss Voigt Hill
#
# Bulk Modulus (GPa) = 56.23554 57.47389 56.85472
# Shear Modulus (GPa) = 22.28871 24.95407 23.62139
#
# Velocity S-wave (km/s) = 3.37251 3.56846 3.47187
# Velocity P-wave (km/s) = 6.62282 6.80494 6.71450
#
# Compressibility (1/GPa) = 0.01778235
#
# Stress axis : x y z
#
# Youngs Moduli (GPa) = 64.38293 114.09378 63.07280
#
# Poissons Ratio (x) = 0.24867 0.41640
# Poissons Ratio (y) = 0.14033 0.15157
# Poissons Ratio (z) = 0.42505 0.27419
#
# Static dielectric constant tensor:
#      x y z
#    x 3.282860 0.000000 0.000000 
#    y 0.000000 3.971270 0.000000 
#    z 0.000000 0.000000 3.604820 
# 
# 
# High freq. dielectric constant tensor:
#      x y z
#    x 1.740810 0.000000 0.000000 
#    y 0.000000 1.781870 0.000000 
#    z 0.000000 0.000000 1.754060 
# 
# From -- ./inp_files/27292.got.cif
#   From: 2010.03.12/outbox.cif.g09.slc.cpg/sg23_14_cif.got.tgz:27292.got - 2010.04.14 02:50:06.
