data_PCOD8163753
_publ_section_title
;
Structure prediction by ZEFSAII (Michael W. Deem and Ramdas Pophale) SiO2 
 PCOD8163753
Probable space group: I 2 2 2
;
_chemical_formula_sum "Si O2"
_cell_formula_units_Z 28
_cell_length_a 8.996539
_cell_length_b 7.268785
_cell_length_c 20.849144
_cell_angle_alpha 90.000000
_cell_angle_beta 90.000000
_cell_angle_gamma 90.000000
_cell_volume 1363.406999
_symmetry_space_group_name_H-M "I 2 2 2"
_symmetry_group_IT_number 23
_symmetry_cell_setting 'orthorhombic'
loop_
_space_group_symop_operation_xyz
x,y,z
-x,-y,z
x,-y,-z
-x,y,-z
1/2+x,1/2+y,1/2+z
1/2-x,1/2-y,1/2+z
1/2+x,1/2-y,1/2-z
1/2-x,1/2+y,1/2-z
loop_
_atom_site_type_symbol
_atom_site_label
_atom_site_fract_x
_atom_site_fract_y
_atom_site_fract_z
Si Si1 0.246174 0.567872 0.910291
Si Si2 0.000000 0.500000 0.000000
Si Si3 0.171944 0.823071 0.804361
Si Si4 0.000000 0.000000 0.500000
Si Si5 0.833876 0.758123 0.824083
O O1 0.271269 0.692641 0.848469
O O2 0.392197 0.610372 0.952274
O O3 0.216101 0.355362 0.887600
O O4 0.105420 0.626339 0.954627
O O5 0.232777 0.822798 0.732665
O O6 0.007183 0.734740 0.806082
O O7 0.189257 0.025303 0.834399
#
# Coordination Sequence:
#
# PCOD8163753 Si02
#       5
#     8   2   8   2   8
#     4  11  22  46  62  94 126 167 212 258 312 370
#     4  10  20  42  70  74 124 180 204 240 314 366
#     4  11  23  38  64  97 127 161 205 261 320 373
#     4  10  28  42  70  86 128 180 208 260 298 382
#     4  11  23  38  64  97 127 161 205 261 320 373
#
# _framework density 20.536787
#
# number of rings (size 3 to 8) (size 9 to 14) (size 15 to 20)
#    0.000    1.143    5.714    0.000    4.000    0.000 
#    0.000    8.571    0.000    0.000    0.000    0.000 
#    0.000    0.000    0.000    0.000    0.000    0.000 
#
# Total GULP energy -173480.885732 kJ/mol
# GULP energy per Si atom -12391.491838 kJ/mol
# Density = 2.049004 g / cm^3
# Si number density = 20.536787 Si / 1000 Ang^3
#
#
#
# Elastic Constant Matrix: (Units=GPa)
#
#
# Indices 1 2 3 4 5 6 
#
# 1 122.5457 28.4404 49.8054 0.0000 0.0000 0.0000
# 2 28.4404 96.8111 32.2547 0.0000 0.0000 0.0000
# 3 49.8054 32.2547 100.9393 0.0000 0.0000 0.0000
# 4 0.0000 0.0000 0.0000 2.6900 0.0000 0.0000
# 5 0.0000 0.0000 0.0000 0.0000 35.9855 0.0000
# 6 0.0000 0.0000 0.0000 0.0000 0.0000 17.8726
#
#
#
# Elastic Compliance Matrix: (Units=1/GPa)
#
#
# Indices 1 2 3 4 5 6 
#
# 1 0.010400 -0.001506 -0.004650 0.000000 0.000000 0.000000
# 2 -0.001506 0.011778 -0.003021 0.000000 0.000000 0.000000
# 3 -0.004650 -0.003021 0.013167 0.000000 0.000000 0.000000
# 4 0.000000 0.000000 0.000000 0.371747 0.000000 0.000000
# 5 0.000000 0.000000 0.000000 0.000000 0.027789 0.000000
# 6 0.000000 0.000000 0.000000 0.000000 0.000000 0.055952
#
#
# Mechanical properties :
#
#
# Convention : Reuss Voigt Hill
#
# Bulk Modulus (GPa) = 58.85425 60.14412 59.49918
# Shear Modulus (GPa) = 9.71158 25.29600 17.50379
#
# Velocity S-wave (km/s) = 2.17696 3.51342 2.92261
# Velocity P-wave (km/s) = 5.91938 6.76820 6.35797
#
# Compressibility (1/GPa) = 0.01699113
#
# Stress axis : x y z
#
# Youngs Moduli (GPa) = 96.15726 84.90298 75.94935
#
# Poissons Ratio (x) = 0.12785 0.35318
# Poissons Ratio (y) = 0.14479 0.22942
# Poissons Ratio (z) = 0.44715 0.25646
#
# Static dielectric constant tensor:
#      x y z
#    x 3.965720 0.000000 0.000000 
#    y 0.000000 3.579680 0.000000 
#    z 0.000000 0.000000 3.908060 
# 
# 
# High freq. dielectric constant tensor:
#      x y z
#    x 1.811880 0.000000 0.000000 
#    y 0.000000 1.774730 0.000000 
#    z 0.000000 0.000000 1.815680 
# 
# From -- ./inp_files/6464.got.cif
#   From: 2010.03.12/outbox.cif.g09.slc.cpg/sg23_4_cif.got.tgz:6464.got - 2010.04.14 02:50:06.
