data_PCOD8163446
_publ_section_title
;
Structure prediction by ZEFSAII (Michael W. Deem and Ramdas Pophale) SiO2 
 PCOD8163446
Probable space group: I 2 2 2
;
_chemical_formula_sum "Si O2"
_cell_formula_units_Z 56
_cell_length_a 23.239658
_cell_length_b 8.630724
_cell_length_c 13.400748
_cell_angle_alpha 90.000000
_cell_angle_beta 90.000000
_cell_angle_gamma 90.000000
_cell_volume 2687.856022
_symmetry_space_group_name_H-M "I 2 2 2"
_symmetry_group_IT_number 23
_symmetry_cell_setting 'orthorhombic'
loop_
_space_group_symop_operation_xyz
x,y,z
-x,-y,z
x,-y,-z
-x,y,-z
1/2+x,1/2+y,1/2+z
1/2-x,1/2-y,1/2+z
1/2+x,1/2-y,1/2-z
1/2-x,1/2+y,1/2-z
loop_
_atom_site_type_symbol
_atom_site_label
_atom_site_fract_x
_atom_site_fract_y
_atom_site_fract_z
Si Si1 0.870345 0.215010 0.136921
Si Si2 0.447445 0.413191 0.105699
Si Si3 0.159068 0.974577 0.714213
Si Si4 0.435952 0.826914 0.467219
Si Si5 0.445316 0.108807 0.207740
Si Si6 0.782083 0.520819 0.883339
Si Si7 0.875794 0.347734 0.772558
O O1 0.849968 0.046176 0.174950
O O2 0.925228 0.284849 0.198767
O O3 0.813094 0.318834 0.143161
O O4 0.893116 0.206936 0.023347
O O5 0.500000 0.500000 0.166175
O O6 0.383219 0.428415 0.144797
O O7 0.457545 0.224540 0.112910
O O8 0.448660 0.500000 0.000000
O O9 0.223284 0.991367 0.677028
O O10 0.138905 0.798644 0.705947
O O11 0.500000 0.788380 0.500000
O O12 0.429211 0.811789 0.347834
O O13 0.416794 0.000000 0.500000
O O14 0.500000 0.000000 0.230946
O O15 0.392589 0.985418 0.194887
O O16 0.821621 0.382105 0.843451
O O17 0.769692 0.500000 0.000000
#
# Coordination Sequence:
#
# PCOD8163446 Si02
#       7
#     8   8   8   8   8   8   8
#     4  10  20  37  57  89 123 156 204 254 308 379
#     4  10  22  42  61  84 120 156 200 259 318 364
#     4  11  24  37  60  86 122 160 205 261 322 367
#     4  11  19  35  62  90 123 165 201 244 312 382
#     4  10  19  35  63  90 116 156 203 245 302 382
#     4  11  20  40  62  81 112 162 213 254 315 376
#     4  11  21  37  59  91 123 158 208 258 305 385
#
# _framework density 20.834447999999998
#
# number of rings (size 3 to 8) (size 9 to 14) (size 15 to 20)
#    0.000    1.429    4.286    3.000    0.000    1.714 
#    0.000    5.714    0.000    0.000    0.000    0.000 
#    0.000    0.000    0.000    0.000    0.000    0.000 
#
# Total GULP energy -346874.922193 kJ/mol
# GULP energy per Si atom -12388.390078 kJ/mol
# Density = 2.078703 g / cm^3
# Si number density = 20.834448 Si / 1000 Ang^3
#
#
#
# Elastic Constant Matrix: (Units=GPa)
#
#
# Indices 1 2 3 4 5 6 
#
# 1 125.3744 38.7484 29.5367 0.0000 0.0000 0.0000
# 2 38.7484 118.4938 38.7976 0.0000 0.0000 0.0000
# 3 29.5367 38.7976 66.0268 0.0000 0.0000 0.0000
# 4 0.0000 0.0000 0.0000 30.8459 0.0000 0.0000
# 5 0.0000 0.0000 0.0000 0.0000 26.1207 0.0000
# 6 0.0000 0.0000 0.0000 0.0000 0.0000 14.9016
#
#
#
# Elastic Compliance Matrix: (Units=1/GPa)
#
#
# Indices 1 2 3 4 5 6 
#
# 1 0.009313 -0.002082 -0.002943 0.000000 0.000000 0.000000
# 2 -0.002082 0.010915 -0.005482 0.000000 0.000000 0.000000
# 3 -0.002943 -0.005482 0.019683 0.000000 0.000000 0.000000
# 4 0.000000 0.000000 0.000000 0.032419 0.000000 0.000000
# 5 0.000000 0.000000 0.000000 0.000000 0.038284 0.000000
# 6 0.000000 0.000000 0.000000 0.000000 0.000000 0.067107
#
#
# Mechanical properties :
#
#
# Convention : Reuss Voigt Hill
#
# Bulk Modulus (GPa) = 52.91804 58.22893 55.57348
# Shear Modulus (GPa) = 24.38619 27.89446 26.14032
#
# Velocity S-wave (km/s) = 3.42493 3.66302 3.54597
# Velocity P-wave (km/s) = 6.41051 6.77490 6.59522
#
# Compressibility (1/GPa) = 0.01889715
#
# Stress axis : x y z
#
# Youngs Moduli (GPa) = 107.37906 91.61599 50.80446
#
# Poissons Ratio (x) = 0.19073 0.14950
# Poissons Ratio (y) = 0.22355 0.27853
# Poissons Ratio (z) = 0.31599 0.50228
#
# Static dielectric constant tensor:
#      x y z
#    x 4.009590 0.000000 0.000000 
#    y 0.000000 3.997030 0.000000 
#    z 0.000000 0.000000 3.616820 
# 
# 
# High freq. dielectric constant tensor:
#      x y z
#    x 1.827150 0.000000 0.000000 
#    y 0.000000 1.807200 0.000000 
#    z 0.000000 0.000000 1.784600 
# 
# From -- ./inp_files/22412.got.cif
#   From: 2010.03.12/outbox.cif.g09.slc.cpg/sg23_12_cif.got.tgz:22412.got - 2010.04.14 02:50:06.
