data_PCOD8163270
_publ_section_title
;
Structure prediction by ZEFSAII (Michael W. Deem and Ramdas Pophale) SiO2 
 PCOD8163270
Probable space group: I 2 2 2
;
_chemical_formula_sum "Si O2"
_cell_formula_units_Z 56
_cell_length_a 12.828544
_cell_length_b 9.311593
_cell_length_c 28.729496
_cell_angle_alpha 90.000000
_cell_angle_beta 90.000000
_cell_angle_gamma 90.000000
_cell_volume 3431.858401
_symmetry_space_group_name_H-M "I 2 2 2"
_symmetry_group_IT_number 23
_symmetry_cell_setting 'orthorhombic'
loop_
_space_group_symop_operation_xyz
x,y,z
-x,-y,z
x,-y,-z
-x,y,-z
1/2+x,1/2+y,1/2+z
1/2-x,1/2-y,1/2+z
1/2+x,1/2-y,1/2-z
1/2-x,1/2+y,1/2-z
loop_
_atom_site_type_symbol
_atom_site_label
_atom_site_fract_x
_atom_site_fract_y
_atom_site_fract_z
Si Si1 0.645973 0.207734 0.125853
Si Si2 0.900122 0.422238 0.788000
Si Si3 0.100684 0.094008 0.239259
Si Si4 0.376307 0.985994 0.947952
Si Si5 0.800069 0.009474 0.662471
Si Si6 0.402228 0.755350 0.876462
Si Si7 0.186113 0.467878 0.696693
O O1 0.718131 0.348602 0.130935
O O2 0.525883 0.249985 0.121293
O O3 0.678232 0.114607 0.080788
O O4 0.663800 0.116989 0.172007
O O5 0.922940 0.262312 0.769081
O O6 0.806752 0.427318 0.825391
O O7 0.869003 0.528632 0.746381
O O8 0.000000 0.500000 0.811184
O O9 0.190348 0.050838 0.202901
O O10 0.134247 0.057811 0.292106
O O11 0.000000 0.000000 0.226483
O O12 0.352871 0.833899 0.922267
O O13 0.500000 0.000000 0.947883
O O14 0.330702 0.000000 0.000000
O O15 0.864268 0.906691 0.628066
O O16 0.365536 0.836290 0.830093
#
# Coordination Sequence:
#
# PCOD8163270 Si02
#       7
#     8   8   8   8   8   8   8
#     4  10  18  30  51  72  95 133 161 195 239 291
#     4  11  23  34  48  65  97 134 171 210 247 276
#     4  11  23  33  47  67  97 133 173 212 241 271
#     4   8  16  31  51  73  98 127 158 192 240 297
#     4  11  22  33  46  71 101 128 172 206 238 284
#     4  10  18  32  49  70  99 130 162 197 239 288
#     4  10  20  33  46  66  94 132 171 202 235 284
#
# _framework density 16.317689999999999
#
# number of rings (size 3 to 8) (size 9 to 14) (size 15 to 20)
#    0.000    1.857    2.857    3.429    4.000    0.000 
#    0.000    0.714    0.000    3.429    0.000    0.000 
#    0.000   21.714    0.000    0.000    0.000    0.000 
#
# Total GULP energy -347070.204746 kJ/mol
# GULP energy per Si atom -12395.364455 kJ/mol
# Density = 1.628055 g / cm^3
# Si number density = 16.317690 Si / 1000 Ang^3
#
#
#
# Elastic Constant Matrix: (Units=GPa)
#
#
# Indices 1 2 3 4 5 6 
#
# 1 54.2998 17.5270 6.1048 0.0000 0.0000 0.0000
# 2 17.5270 95.1531 21.8162 0.0000 0.0000 0.0000
# 3 6.1048 21.8162 67.3712 0.0000 0.0000 0.0000
# 4 0.0000 0.0000 0.0000 2.1925 0.0000 0.0000
# 5 0.0000 0.0000 0.0000 0.0000 12.7206 0.0000
# 6 0.0000 0.0000 0.0000 0.0000 0.0000 26.7393
#
#
#
# Elastic Compliance Matrix: (Units=1/GPa)
#
#
# Indices 1 2 3 4 5 6 
#
# 1 0.019607 -0.003461 -0.000656 0.000000 0.000000 0.000000
# 2 -0.003461 0.011963 -0.003560 0.000000 0.000000 0.000000
# 3 -0.000656 -0.003560 0.016055 0.000000 0.000000 0.000000
# 4 0.000000 0.000000 0.000000 0.456091 0.000000 0.000000
# 5 0.000000 0.000000 0.000000 0.000000 0.078613 0.000000
# 6 0.000000 0.000000 0.000000 0.000000 0.000000 0.037398
#
#
# Mechanical properties :
#
#
# Convention : Reuss Voigt Hill
#
# Bulk Modulus (GPa) = 30.98749 34.19114 32.58931
# Shear Modulus (GPa) = 7.74186 19.75555 13.74870
#
# Velocity S-wave (km/s) = 2.18054 3.48326 2.90584
# Velocity P-wave (km/s) = 5.03697 6.09724 5.59229
#
# Compressibility (1/GPa) = 0.03227109
#
# Stress axis : x y z
#
# Youngs Moduli (GPa) = 51.00155 83.58954 62.28402
#
# Poissons Ratio (x) = 0.28932 0.04085
# Poissons Ratio (y) = 0.17653 0.22175
# Poissons Ratio (z) = 0.03345 0.29760
#
# Static dielectric constant tensor:
#      x y z
#    x 2.974710 0.000000 0.000000 
#    y 0.000000 3.270340 0.000000 
#    z 0.000000 0.000000 3.051710 
# 
# 
# High freq. dielectric constant tensor:
#      x y z
#    x 1.603420 0.000000 0.000000 
#    y 0.000000 1.644630 0.000000 
#    z 0.000000 0.000000 1.592410 
# 
# From -- ./inp_files/30372.got.cif
#   From: 2010.03.12/outbox.cif.g09.slc.cpg/sg23_16_cif.got.tgz:30372.got - 2010.04.14 02:50:06.
