data_PCOD8163249
_publ_section_title
;
Structure prediction by ZEFSAII (Michael W. Deem and Ramdas Pophale) SiO2 
 PCOD8163249
Probable space group: I 2 2 2
;
_chemical_formula_sum "Si O2"
_cell_formula_units_Z 52
_cell_length_a 13.874477
_cell_length_b 10.581776
_cell_length_c 19.970571
_cell_angle_alpha 90.000000
_cell_angle_beta 90.000000
_cell_angle_gamma 90.000000
_cell_volume 2932.011489
_symmetry_space_group_name_H-M "I 2 2 2"
_symmetry_group_IT_number 23
_symmetry_cell_setting 'orthorhombic'
loop_
_space_group_symop_operation_xyz
x,y,z
-x,-y,z
x,-y,-z
-x,y,-z
1/2+x,1/2+y,1/2+z
1/2-x,1/2-y,1/2+z
1/2+x,1/2-y,1/2-z
1/2-x,1/2+y,1/2-z
loop_
_atom_site_type_symbol
_atom_site_label
_atom_site_fract_x
_atom_site_fract_y
_atom_site_fract_z
Si Si1 0.395992 0.956068 0.719762
Si Si2 0.794830 0.608118 0.644892
Si Si3 0.216804 0.898607 0.055935
Si Si4 0.398159 0.145884 0.016858
Si Si5 0.138346 0.500000 0.000000
Si Si6 0.844317 0.333710 0.882769
Si Si7 0.060741 0.299717 0.902580
O O1 0.330447 0.911698 0.780444
O O2 0.405343 0.834591 0.672006
O O3 0.500000 0.000000 0.746983
O O4 0.347570 0.070296 0.679223
O O5 0.751459 0.473850 0.621493
O O6 0.880423 0.657090 0.596277
O O7 0.716575 0.717361 0.642982
O O8 0.122667 0.818025 0.072009
O O9 0.304564 0.808885 0.026981
O O10 0.186608 0.000000 0.000000
O O11 0.500000 0.216360 0.000000
O O12 0.408994 0.000000 0.000000
O O13 0.198479 0.405807 0.050232
O O14 0.071623 0.580282 0.049478
O O15 0.947161 0.271911 0.902596
#
# Coordination Sequence:
#
# PCOD8163249 Si02
#       7
#     8   8   8   8   4   8   8
#     4   9  21  35  53  76 101 144 187 219 258 313
#     4  10  20  32  53  76 108 136 175 220 271 316
#     4   9  19  31  50  80 106 139 173 217 280 312
#     4   8  16  30  47  75  99 126 172 216 257 296
#     4  10  17  32  58  76 107 140 175 218 252 314
#     4  10  20  34  52  81 105 139 177 217 266 320
#     4  10  19  34  52  79 110 138 180 215 265 324
#
# _framework density 17.735264999999998
#
# number of rings (size 3 to 8) (size 9 to 14) (size 15 to 20)
#    0.000    2.923    0.000    4.154    6.462    0.615 
#    0.000    3.077    0.000    0.000    0.000   20.462 
#    0.000    0.000    0.000    0.000    0.000    0.000 
#
# Total GULP energy -322114.715646 kJ/mol
# GULP energy per Si atom -12389.027525 kJ/mol
# Density = 1.769490 g / cm^3
# Si number density = 17.735265 Si / 1000 Ang^3
#
#
#
# Elastic Constant Matrix: (Units=GPa)
#
#
# Indices 1 2 3 4 5 6 
#
# 1 84.9778 48.8469 49.0919 0.0000 0.0000 0.0000
# 2 48.8469 61.7892 41.4601 0.0000 0.0000 0.0000
# 3 49.0919 41.4601 126.6708 0.0000 0.0000 0.0000
# 4 0.0000 0.0000 0.0000 23.0636 0.0000 0.0000
# 5 0.0000 0.0000 0.0000 0.0000 24.8545 0.0000
# 6 0.0000 0.0000 0.0000 0.0000 0.0000 20.6739
#
#
#
# Elastic Compliance Matrix: (Units=1/GPa)
#
#
# Indices 1 2 3 4 5 6 
#
# 1 0.022899 -0.015567 -0.003780 0.000000 0.000000 0.000000
# 2 -0.015567 0.031321 -0.004218 0.000000 0.000000 0.000000
# 3 -0.003780 -0.004218 0.010740 0.000000 0.000000 0.000000
# 4 0.000000 0.000000 0.000000 0.043358 0.000000 0.000000
# 5 0.000000 0.000000 0.000000 0.000000 0.040234 0.000000
# 6 0.000000 0.000000 0.000000 0.000000 0.000000 0.048370
#
#
# Mechanical properties :
#
#
# Convention : Reuss Voigt Hill
#
# Bulk Modulus (GPa) = 56.08414 61.35950 58.72182
# Shear Modulus (GPa) = 20.00028 22.65433 21.32731
#
# Velocity S-wave (km/s) = 3.36179 3.57790 3.47152
# Velocity P-wave (km/s) = 6.83816 7.19312 7.01789
#
# Compressibility (1/GPa) = 0.01783035
#
# Stress axis : x y z
#
# Youngs Moduli (GPa) = 43.66923 31.92759 93.10951
#
# Poissons Ratio (x) = 0.49701 0.35192
# Poissons Ratio (y) = 0.67979 0.39278
# Poissons Ratio (z) = 0.16506 0.13469
#
# Static dielectric constant tensor:
#      x y z
#    x 3.764320 0.000000 0.000000 
#    y 0.000000 3.098820 0.000000 
#    z 0.000000 0.000000 3.374680 
# 
# 
# High freq. dielectric constant tensor:
#      x y z
#    x 1.673290 0.000000 0.000000 
#    y 0.000000 1.661110 0.000000 
#    z 0.000000 0.000000 1.692890 
# 
# From -- ./inp_files/24823.got.cif
#   From: 2010.03.12/outbox.cif.g09.slc.cpg/sg23_13_cif.got.tgz:24823.got - 2010.04.14 02:50:06.
