data_PCOD8163607
_publ_section_title
;
Structure prediction by ZEFSAII (Michael W. Deem and Ramdas Pophale) SiO2 
 PCOD8163607
Probable space group: I 2 2 2
;
_chemical_formula_sum "Si O2"
_cell_formula_units_Z 64
_cell_length_a 10.359783
_cell_length_b 9.175243
_cell_length_c 33.025032
_cell_angle_alpha 90.000000
_cell_angle_beta 90.000000
_cell_angle_gamma 90.000000
_cell_volume 3139.145753
_symmetry_space_group_name_H-M "I 2 2 2"
_symmetry_group_IT_number 23
_symmetry_cell_setting 'orthorhombic'
loop_
_space_group_symop_operation_xyz
x,y,z
-x,-y,z
x,-y,-z
-x,y,-z
1/2+x,1/2+y,1/2+z
1/2-x,1/2-y,1/2+z
1/2+x,1/2-y,1/2-z
1/2-x,1/2+y,1/2-z
loop_
_atom_site_type_symbol
_atom_site_label
_atom_site_fract_x
_atom_site_fract_y
_atom_site_fract_z
Si Si1 0.354452 0.986800 0.849861
Si Si2 0.766129 0.752710 0.900555
Si Si3 0.317042 0.907504 0.762483
Si Si4 0.239891 0.760677 0.904072
Si Si5 0.646565 0.517884 0.457492
Si Si6 0.011694 0.336710 0.149346
Si Si7 0.651325 0.494835 0.953837
Si Si8 0.583432 0.202699 0.264528
O O1 0.281926 0.971960 0.806931
O O2 0.338331 0.831153 0.872170
O O3 0.500000 0.000000 0.836942
O O4 0.320981 0.129565 0.876663
O O5 0.827676 0.822905 0.940325
O O6 0.692736 0.615177 0.920337
O O7 0.876165 0.711004 0.869049
O O8 0.449309 0.806770 0.761603
O O9 0.189312 0.818944 0.747229
O O10 0.343729 0.045755 0.733538
O O11 0.124543 0.672517 0.883505
O O12 0.311585 0.661597 0.936314
O O13 0.180783 0.899644 0.924990
O O14 0.500000 0.500000 0.468050
O O15 0.724451 0.500000 0.500000
O O16 0.046039 0.246247 0.189812
O O17 0.000000 0.500000 0.164276
O O18 0.500000 0.500000 0.957953
O O19 0.710442 0.500000 0.000000
#
# Coordination Sequence:
#
# PCOD8163607 Si02
#       8
#     8   8   8   8   8   8   8   8
#     4  11  23  42  65  91 127 165 217 266 310 380
#     4  11  24  39  66  96 125 170 217 258 321 379
#     4  11  24  44  65  95 127 169 216 270 329 390
#     4  11  22  40  63  90 128 165 210 258 321 372
#     4  10  20  36  58  91 126 159 203 258 314 372
#     4  12  22  41  64  93 129 166 206 261 325 385
#     4  11  24  43  64  93 131 172 217 262 314 383
#     4  11  25  44  67  93 134 169 211 273 329 394
#
# _framework density 20.387712000000001
#
# number of rings (size 3 to 8) (size 9 to 14) (size 15 to 20)
#    0.000    1.000    6.250    1.500    1.750    0.500 
#    0.000    0.625    0.000    6.000    0.000    0.000 
#    0.000    0.000    0.000    0.000    0.000    0.000 
#
# Total GULP energy -396459.234302 kJ/mol
# GULP energy per Si atom -12389.351072 kJ/mol
# Density = 2.034131 g / cm^3
# Si number density = 20.387712 Si / 1000 Ang^3
#
#
#
# Elastic Constant Matrix: (Units=GPa)
#
#
# Indices 1 2 3 4 5 6 
#
# 1 73.2199 22.5154 20.3557 0.0000 0.0000 0.0000
# 2 22.5154 74.4702 19.9630 0.0000 0.0000 0.0000
# 3 20.3557 19.9630 106.1074 0.0000 0.0000 0.0000
# 4 0.0000 0.0000 0.0000 -3.7031 0.0000 0.0000
# 5 0.0000 0.0000 0.0000 0.0000 33.4445 0.0000
# 6 0.0000 0.0000 0.0000 0.0000 0.0000 42.0508
#
#
#
# Elastic Compliance Matrix: (Units=1/GPa)
#
#
# Indices 1 2 3 4 5 6 
#
# 1 0.015533 -0.004105 -0.002208 0.000000 0.000000 0.000000
# 2 -0.004105 0.015226 -0.002077 0.000000 0.000000 0.000000
# 3 -0.002208 -0.002077 0.010239 0.000000 0.000000 0.000000
# 4 0.000000 0.000000 0.000000 -0.270046 0.000000 0.000000
# 5 0.000000 0.000000 0.000000 0.000000 0.029900 0.000000
# 6 0.000000 0.000000 0.000000 0.000000 0.000000 0.023781
#
#
# Mechanical properties :
#
#
# Convention : Reuss Voigt Hill
#
# Bulk Modulus (GPa) = 41.28951 42.16284 41.72617
# Shear Modulus (GPa) = -33.21937 27.08933 -3.06502
#
# Velocity S-wave (km/s) = -4.04094 3.64910 -1.22745
# Velocity P-wave (km/s) = 1.21496 6.20322 4.30139
#
# Compressibility (1/GPa) = 0.02421923
#
# Stress axis : x y z
#
# Youngs Moduli (GPa) = 64.37733 65.67715 97.66822
#
# Poissons Ratio (x) = 0.26958 0.21562
# Poissons Ratio (y) = 0.26424 0.20288
# Poissons Ratio (z) = 0.14213 0.13642
#
# Static dielectric constant tensor:
#      x y z
#    x 3.976600 0.000000 0.000000 
#    y 0.000000 3.810800 0.000000 
#    z 0.000000 0.000000 3.737640 
# 
# 
# High freq. dielectric constant tensor:
#      x y z
#    x 1.790010 0.000000 0.000000 
#    y 0.000000 1.793580 0.000000 
#    z 0.000000 0.000000 1.812290 
# 
# From -- ./inp_files/30480.got.cif
#   From: 2010.03.12/outbox.cif.g09.slc.cpg/sg23_16_cif.got.tgz:30480.got - 2010.04.14 02:50:06.
