data_PCOD8163796
_publ_section_title
;
Structure prediction by ZEFSAII (Michael W. Deem and Ramdas Pophale) SiO2 
 PCOD8163796
Probable space group: I 2 2 2
;
_chemical_formula_sum "Si O2"
_cell_formula_units_Z 36
_cell_length_a 13.805073
_cell_length_b 7.828144
_cell_length_c 15.009795
_cell_angle_alpha 90.000000
_cell_angle_beta 90.000000
_cell_angle_gamma 90.000000
_cell_volume 1622.080018
_symmetry_space_group_name_H-M "I 2 2 2"
_symmetry_group_IT_number 23
_symmetry_cell_setting 'orthorhombic'
loop_
_space_group_symop_operation_xyz
x,y,z
-x,-y,z
x,-y,-z
-x,y,-z
1/2+x,1/2+y,1/2+z
1/2-x,1/2-y,1/2+z
1/2+x,1/2-y,1/2-z
1/2-x,1/2+y,1/2-z
loop_
_atom_site_type_symbol
_atom_site_label
_atom_site_fract_x
_atom_site_fract_y
_atom_site_fract_z
Si Si1 0.524068 0.308640 0.601797
Si Si2 0.608877 0.204683 0.995097
Si Si3 0.259465 0.299129 0.359953
Si Si4 0.000000 0.500000 0.781601
Si Si5 0.814691 0.641842 0.682801
O O1 0.500000 0.500000 0.638192
O O2 0.500000 0.292805 0.500000
O O3 0.635644 0.252194 0.604368
O O4 0.468225 0.165483 0.659785
O O5 0.653468 0.264527 0.899430
O O6 0.500000 0.279675 0.000000
O O7 0.674993 0.278601 0.076235
O O8 0.606614 0.000000 0.000000
O O9 0.256119 0.503346 0.360395
O O10 0.251906 0.237339 0.257560
O O11 0.090064 0.453926 0.719243
#
# Coordination Sequence:
#
# PCOD8163796 Si02
#       5
#     8   8   8   4   8
#     4  10  23  37  60  90 123 166 204 261 319 379
#     4   9  18  36  62  86 117 160 209 255 310 391
#     4  10  22  37  59  91 118 158 211 258 320 378
#     4  10  21  40  59  92 122 162 210 256 316 376
#     4  10  21  36  61  87 120 158 205 261 311 376
#
# _framework density 22.193726999999999
#
# number of rings (size 3 to 8) (size 9 to 14) (size 15 to 20)
#    0.000    2.222    0.000    3.000   12.444    0.000 
#    0.000    3.333    0.000    1.333    0.000    0.000 
#    0.000    0.000    0.000    0.000    0.000    0.000 
#
# Total GULP energy -223084.328444 kJ/mol
# GULP energy per Si atom -12393.573802 kJ/mol
# Density = 2.214321 g / cm^3
# Si number density = 22.193727 Si / 1000 Ang^3
#
#
#
# Elastic Constant Matrix: (Units=GPa)
#
#
# Indices 1 2 3 4 5 6 
#
# 1 92.8458 -0.0434 52.7156 0.0000 0.0000 0.0000
# 2 -0.0434 56.2572 28.0966 0.0000 0.0000 0.0000
# 3 52.7156 28.0966 178.3416 0.0000 0.0000 0.0000
# 4 0.0000 0.0000 0.0000 34.9521 0.0000 0.0000
# 5 0.0000 0.0000 0.0000 0.0000 42.1983 0.0000
# 6 0.0000 0.0000 0.0000 0.0000 0.0000 20.4995
#
#
#
# Elastic Compliance Matrix: (Units=1/GPa)
#
#
# Indices 1 2 3 4 5 6 
#
# 1 0.013172 0.002122 -0.004228 0.000000 0.000000 0.000000
# 2 0.002122 0.019635 -0.003721 0.000000 0.000000 0.000000
# 3 -0.004228 -0.003721 0.007443 0.000000 0.000000 0.000000
# 4 0.000000 0.000000 0.000000 0.028611 0.000000 0.000000
# 5 0.000000 0.000000 0.000000 0.000000 0.023698 0.000000
# 6 0.000000 0.000000 0.000000 0.000000 0.000000 0.048782
#
#
# Mechanical properties :
#
#
# Convention : Reuss Voigt Hill
#
# Bulk Modulus (GPa) = 34.96875 54.33137 44.65006
# Shear Modulus (GPa) = 30.76434 35.97503 33.36969
#
# Velocity S-wave (km/s) = 3.72717 4.03048 3.88179
# Velocity P-wave (km/s) = 5.85771 6.79657 6.34453
#
# Compressibility (1/GPa) = 0.02859696
#
# Stress axis : x y z
#
# Youngs Moduli (GPa) = 75.91901 50.92869 134.35401
#
# Poissons Ratio (x) = -0.10805 0.56801
# Poissons Ratio (y) = -0.16107 0.49987
# Poissons Ratio (z) = 0.32096 0.18948
#
# Static dielectric constant tensor:
#      x y z
#    x 4.045640 0.000000 0.000000 
#    y 0.000000 3.788500 0.000000 
#    z 0.000000 0.000000 4.436740 
# 
# 
# High freq. dielectric constant tensor:
#      x y z
#    x 1.877390 0.000000 0.000000 
#    y 0.000000 1.832600 0.000000 
#    z 0.000000 0.000000 1.891100 
# 
# From -- ./inp_files/9489.got.cif
#   From: 2010.03.12/outbox.cif.g09.slc.cpg/sg23_5_cif.got.tgz:9489.got - 2010.04.14 02:50:06.
