data_PCOD8163657
_publ_section_title
;
Structure prediction by ZEFSAII (Michael W. Deem and Ramdas Pophale) SiO2 
 PCOD8163657
Probable space group: I 2 2 2
;
_chemical_formula_sum "Si O2"
_cell_formula_units_Z 38
_cell_length_a 15.613765
_cell_length_b 22.562492
_cell_length_c 4.980929
_cell_angle_alpha 90.000000
_cell_angle_beta 90.000000
_cell_angle_gamma 90.000000
_cell_volume 1754.708804
_symmetry_space_group_name_H-M "I 2 2 2"
_symmetry_group_IT_number 23
_symmetry_cell_setting 'orthorhombic'
loop_
_space_group_symop_operation_xyz
x,y,z
-x,-y,z
x,-y,-z
-x,y,-z
1/2+x,1/2+y,1/2+z
1/2-x,1/2-y,1/2+z
1/2+x,1/2-y,1/2-z
1/2-x,1/2+y,1/2-z
loop_
_atom_site_type_symbol
_atom_site_label
_atom_site_fract_x
_atom_site_fract_y
_atom_site_fract_z
Si Si1 0.625133 0.908807 0.108168
Si Si2 0.365343 0.746749 0.326620
Si Si3 0.695525 0.681677 0.168889
Si Si4 0.767980 0.565410 0.095547
Si Si5 0.000000 0.693228 0.500000
Si Si6 0.000000 0.500000 0.500000
O O1 0.697529 0.902164 0.329637
O O2 0.554981 0.957427 0.196785
O O3 0.660293 0.935637 0.826657
O O4 0.580420 0.844840 0.102818
O O5 0.364650 0.716554 0.619924
O O6 0.295237 0.799318 0.296910
O O7 0.339738 0.695018 0.123273
O O8 0.461040 0.768970 0.248526
O O9 0.692604 0.609545 0.201884
O O10 0.736428 0.500000 0.000000
#
# Coordination Sequence:
#
# PCOD8163657 Si02
#       6
#     8   8   8   8   4   2
#     4  11  24  34  56  84 126 164 215 252 303 375
#     4  10  22  38  60  81 120 161 211 259 316 365
#     4  10  22  39  57  83 117 167 207 261 307 369
#     4  12  22  40  58  86 122 172 215 255 308 375
#     4  11  24  39  60  92 121 170 213 262 316 384
#     4  10  20  38  44  82 124 170 202 256 290 354
#
# _framework density 21.656016999999999
#
# number of rings (size 3 to 8) (size 9 to 14) (size 15 to 20)
#    0.000    1.263    4.211    1.263    5.895    6.737 
#    0.000    0.000    0.000    0.000    0.000    0.737 
#    0.000    3.368    0.000    0.211    0.000    0.000 
#
# Total GULP energy -235458.666303 kJ/mol
# GULP energy per Si atom -12392.561384 kJ/mol
# Density = 2.160673 g / cm^3
# Si number density = 21.656017 Si / 1000 Ang^3
#
#
#
# Elastic Constant Matrix: (Units=GPa)
#
#
# Indices 1 2 3 4 5 6 
#
# 1 25.3393 30.2464 5.4925 0.0000 0.0000 0.0000
# 2 30.2464 141.4611 25.6070 0.0000 0.0000 0.0000
# 3 5.4925 25.6070 84.1424 0.0000 0.0000 0.0000
# 4 0.0000 0.0000 0.0000 25.9480 0.0000 0.0000
# 5 0.0000 0.0000 0.0000 0.0000 20.7625 0.0000
# 6 0.0000 0.0000 0.0000 0.0000 0.0000 31.3649
#
#
#
# Elastic Compliance Matrix: (Units=1/GPa)
#
#
# Indices 1 2 3 4 5 6 
#
# 1 0.052988 -0.011328 -0.000012 0.000000 0.000000 0.000000
# 2 -0.011328 0.009903 -0.002274 0.000000 0.000000 0.000000
# 3 -0.000012 -0.002274 0.012577 0.000000 0.000000 0.000000
# 4 0.000000 0.000000 0.000000 0.038539 0.000000 0.000000
# 5 0.000000 0.000000 0.000000 0.000000 0.048164 0.000000
# 6 0.000000 0.000000 0.000000 0.000000 0.000000 0.031883
#
#
# Mechanical properties :
#
#
# Convention : Reuss Voigt Hill
#
# Bulk Modulus (GPa) = 20.72900 41.51495 31.12198
# Shear Modulus (GPa) = 21.06500 28.25489 24.65994
#
# Velocity S-wave (km/s) = 3.12221 3.61600 3.37814
# Velocity P-wave (km/s) = 4.75293 6.05357 5.44224
#
# Compressibility (1/GPa) = 0.04824160
#
# Stress axis : x y z
#
# Youngs Moduli (GPa) = 18.87218 100.98201 79.50711
#
# Poissons Ratio (x) = 1.14388 0.00092
# Poissons Ratio (y) = 0.21378 0.18082
# Poissons Ratio (z) = 0.00022 0.22966
#
# Static dielectric constant tensor:
#      x y z
#    x 3.473600 0.000000 0.000000 
#    y 0.000000 4.091900 0.000000 
#    z 0.000000 0.000000 3.926160 
# 
# 
# High freq. dielectric constant tensor:
#      x y z
#    x 1.794230 0.000000 0.000000 
#    y 0.000000 1.855860 0.000000 
#    z 0.000000 0.000000 1.859130 
# 
# From -- ./inp_files/2430.got.cif
#   From: 2010.03.12/outbox.cif.g09.slc.cpg/sg23_2_cif.got.tgz:2430.got - 2010.04.14 02:50:06.
