data_PCOD8163905
_publ_section_title
;
Structure prediction by ZEFSAII (Michael W. Deem and Ramdas Pophale) SiO2 
 PCOD8163905
Probable space group: I 2 2 2
;
_chemical_formula_sum "Si O2"
_cell_formula_units_Z 64
_cell_length_a 12.421988
_cell_length_b 9.396457
_cell_length_c 25.891683
_cell_angle_alpha 90.000000
_cell_angle_beta 90.000000
_cell_angle_gamma 90.000000
_cell_volume 3022.146528
_symmetry_space_group_name_H-M "I 2 2 2"
_symmetry_group_IT_number 23
_symmetry_cell_setting 'orthorhombic'
loop_
_space_group_symop_operation_xyz
x,y,z
-x,-y,z
x,-y,-z
-x,y,-z
1/2+x,1/2+y,1/2+z
1/2-x,1/2-y,1/2+z
1/2+x,1/2-y,1/2-z
1/2-x,1/2+y,1/2-z
loop_
_atom_site_type_symbol
_atom_site_label
_atom_site_fract_x
_atom_site_fract_y
_atom_site_fract_z
Si Si1 0.887263 0.790805 0.850917
Si Si2 0.715241 0.002184 0.676579
Si Si3 0.229031 0.304194 0.549956
Si Si4 0.255907 0.983633 0.206619
Si Si5 0.082499 0.117230 0.616771
Si Si6 0.234709 0.367138 0.436789
Si Si7 0.439684 0.861869 0.141297
Si Si8 0.634315 0.717809 0.644308
O O1 0.853305 0.625814 0.850965
O O2 0.835111 0.862811 0.800149
O O3 0.844460 0.861979 0.903797
O O4 0.012316 0.830654 0.849929
O O5 0.740495 0.042488 0.735633
O O6 0.826855 0.967580 0.648198
O O7 0.639370 0.865356 0.674920
O O8 0.129982 0.205810 0.568482
O O9 0.250762 0.276385 0.489212
O O10 0.201493 0.469988 0.554471
O O11 0.334165 0.263482 0.583939
O O12 0.370815 0.913856 0.191021
O O13 0.223382 0.112632 0.168665
O O14 0.022201 0.232844 0.654358
O O15 0.000000 0.000000 0.595265
O O16 0.139386 0.298343 0.402706
O O17 0.500000 0.000000 0.119436
#
# Coordination Sequence:
#
# PCOD8163905 Si02
#       8
#     8   8   8   8   8   8   8   8
#     4  11  23  41  65  92 125 164 210 257 313 368
#     4  11  25  43  60  89 131 169 205 258 313 372
#     4  10  21  41  64  94 124 160 202 259 313 367
#     4  11  23  40  63  91 125 161 212 262 306 362
#     4  11  23  41  63  92 130 165 207 257 313 375
#     4  10  21  40  65  93 124 156 207 260 308 370
#     4  11  20  39  62  91 125 163 209 255 308 370
#     4  11  22  42  64  93 126 161 209 261 311 372
#
# _framework density 21.177002000000002
#
# number of rings (size 3 to 8) (size 9 to 14) (size 15 to 20)
#    0.000    1.250    3.750    3.750    0.000    4.000 
#    0.000    8.750    0.000    3.000    0.000    0.000 
#    0.000    0.000    0.000    0.000    0.000    0.000 
#
# Total GULP energy -396692.087250 kJ/mol
# GULP energy per Si atom -12396.627727 kJ/mol
# Density = 2.112880 g / cm^3
# Si number density = 21.177002 Si / 1000 Ang^3
#
#
#
# Elastic Constant Matrix: (Units=GPa)
#
#
# Indices 1 2 3 4 5 6 
#
# 1 98.9702 14.6502 24.4212 0.0000 0.0000 0.0000
# 2 14.6502 88.1330 9.5241 0.0000 0.0000 0.0000
# 3 24.4212 9.5241 117.9270 0.0000 0.0000 0.0000
# 4 0.0000 0.0000 0.0000 21.6465 0.0000 0.0000
# 5 0.0000 0.0000 0.0000 0.0000 12.4187 0.0000
# 6 0.0000 0.0000 0.0000 0.0000 0.0000 34.7715
#
#
#
# Elastic Compliance Matrix: (Units=1/GPa)
#
#
# Indices 1 2 3 4 5 6 
#
# 1 0.010861 -0.001576 -0.002122 0.000000 0.000000 0.000000
# 2 -0.001576 0.011675 -0.000617 0.000000 0.000000 0.000000
# 3 -0.002122 -0.000617 0.008969 0.000000 0.000000 0.000000
# 4 0.000000 0.000000 0.000000 0.046197 0.000000 0.000000
# 5 0.000000 0.000000 0.000000 0.000000 0.080523 0.000000
# 6 0.000000 0.000000 0.000000 0.000000 0.000000 0.028759
#
#
# Mechanical properties :
#
#
# Convention : Reuss Voigt Hill
#
# Bulk Modulus (GPa) = 43.71378 44.69125 44.20252
# Shear Modulus (GPa) = 24.60158 30.86298 27.73228
#
# Velocity S-wave (km/s) = 3.41209 3.82171 3.62269
# Velocity P-wave (km/s) = 6.01748 6.37365 6.19812
#
# Compressibility (1/GPa) = 0.02287608
#
# Stress axis : x y z
#
# Youngs Moduli (GPa) = 92.07313 85.65229 111.49476
#
# Poissons Ratio (x) = 0.13500 0.23658
# Poissons Ratio (y) = 0.14512 0.06874
# Poissons Ratio (z) = 0.19537 0.05281
#
# Static dielectric constant tensor:
#      x y z
#    x 3.833230 0.000000 0.000000 
#    y 0.000000 4.002850 0.000000 
#    z 0.000000 0.000000 3.703450 
# 
# 
# High freq. dielectric constant tensor:
#      x y z
#    x 1.831100 0.000000 0.000000 
#    y 0.000000 1.839410 0.000000 
#    z 0.000000 0.000000 1.807710 
# 
# From -- ./inp_files/30506.got.cif
#   From: 2010.03.12/outbox.cif.g09.slc.cpg/sg23_16_cif.got.tgz:30506.got - 2010.04.14 02:50:06.
