data_PCOD8163768
_publ_section_title
;
Structure prediction by ZEFSAII (Michael W. Deem and Ramdas Pophale) SiO2 
 PCOD8163768
Probable space group: I 2 2 2
;
_chemical_formula_sum "Si O2"
_cell_formula_units_Z 56
_cell_length_a 24.444227
_cell_length_b 9.156717
_cell_length_c 14.197324
_cell_angle_alpha 90.000000
_cell_angle_beta 90.000000
_cell_angle_gamma 90.000000
_cell_volume 3177.770973
_symmetry_space_group_name_H-M "I 2 2 2"
_symmetry_group_IT_number 23
_symmetry_cell_setting 'orthorhombic'
loop_
_space_group_symop_operation_xyz
x,y,z
-x,-y,z
x,-y,-z
-x,y,-z
1/2+x,1/2+y,1/2+z
1/2-x,1/2-y,1/2+z
1/2+x,1/2-y,1/2-z
1/2-x,1/2+y,1/2-z
loop_
_atom_site_type_symbol
_atom_site_label
_atom_site_fract_x
_atom_site_fract_y
_atom_site_fract_z
Si Si1 0.645767 0.333854 0.720184
Si Si2 0.243041 0.662417 0.498757
Si Si3 0.667603 0.642261 0.645668
Si Si4 0.441863 0.165931 0.385698
Si Si5 0.433236 0.169320 0.602568
Si Si6 0.313450 0.420093 0.093365
Si Si7 0.748024 0.671156 0.814692
O O1 0.660730 0.467445 0.650943
O O2 0.588584 0.267805 0.688635
O O3 0.640431 0.401406 0.825979
O O4 0.690133 0.201514 0.719335
O O5 0.219555 0.500000 0.500000
O O6 0.304550 0.673340 0.455798
O O7 0.205094 0.758975 0.432312
O O8 0.238080 0.709271 0.605915
O O9 0.610029 0.727195 0.655772
O O10 0.706585 0.698987 0.729370
O O11 0.428910 0.209324 0.492709
O O12 0.505148 0.195677 0.362109
O O13 0.421428 0.999635 0.374664
O O14 0.261902 0.511373 0.138090
O O15 0.337099 0.500000 0.000000
#
# Coordination Sequence:
#
# PCOD8163768 Si02
#       7
#     8   8   8   8   8   8   8
#     4  11  20  34  53  79 106 142 185 221 266 325
#     4  11  20  33  50  75 109 138 179 218 262 312
#     4  11  22  33  50  77 111 140 175 225 259 317
#     4   9  20  36  55  75 104 145 182 219 261 339
#     4   9  20  37  52  76 108 142 180 217 276 319
#     4   9  21  36  50  72 112 150 173 223 274 326
#     4  10  21  34  49  76 108 143 177 212 269 326
#
# _framework density 17.622415
#
# number of rings (size 3 to 8) (size 9 to 14) (size 15 to 20)
#    0.000    2.000    2.857    1.714    2.000    1.714 
#    0.000    1.429    0.000    0.000    0.000   17.000 
#    0.000   21.714    0.000    0.000    0.000    0.000 
#
# Total GULP energy -347001.991076 kJ/mol
# GULP energy per Si atom -12392.928253 kJ/mol
# Density = 1.758231 g / cm^3
# Si number density = 17.622415 Si / 1000 Ang^3
#
#
#
# Elastic Constant Matrix: (Units=GPa)
#
#
# Indices 1 2 3 4 5 6 
#
# 1 86.7058 45.8820 39.8964 0.0000 0.0000 0.0000
# 2 45.8820 98.7734 41.1719 0.0000 0.0000 0.0000
# 3 39.8964 41.1719 84.6783 0.0000 0.0000 0.0000
# 4 0.0000 0.0000 0.0000 26.3683 0.0000 0.0000
# 5 0.0000 0.0000 0.0000 0.0000 26.1527 0.0000
# 6 0.0000 0.0000 0.0000 0.0000 0.0000 28.7210
#
#
#
# Elastic Compliance Matrix: (Units=1/GPa)
#
#
# Indices 1 2 3 4 5 6 
#
# 1 0.016948 -0.005699 -0.005214 0.000000 0.000000 0.000000
# 2 -0.005699 0.014614 -0.004420 0.000000 0.000000 0.000000
# 3 -0.005214 -0.004420 0.016415 0.000000 0.000000 0.000000
# 4 0.000000 0.000000 0.000000 0.037924 0.000000 0.000000
# 5 0.000000 0.000000 0.000000 0.000000 0.038237 0.000000
# 6 0.000000 0.000000 0.000000 0.000000 0.000000 0.034818
#
#
# Mechanical properties :
#
#
# Convention : Reuss Voigt Hill
#
# Bulk Modulus (GPa) = 57.76980 58.22869 57.99924
# Shear Modulus (GPa) = 25.58922 25.79556 25.69239
#
# Velocity S-wave (km/s) = 3.81476 3.83010 3.82244
# Velocity P-wave (km/s) = 7.22885 7.25767 7.24327
#
# Compressibility (1/GPa) = 0.01731008
#
# Stress axis : x y z
#
# Youngs Moduli (GPa) = 59.00259 68.42660 60.91873
#
# Poissons Ratio (x) = 0.38999 0.31764
# Poissons Ratio (y) = 0.33628 0.26928
# Poissons Ratio (z) = 0.30765 0.30247
#
# Static dielectric constant tensor:
#      x y z
#    x 2.982360 0.000000 0.000000 
#    y 0.000000 3.403280 0.000000 
#    z 0.000000 0.000000 3.364200 
# 
# 
# High freq. dielectric constant tensor:
#      x y z
#    x 1.642810 0.000000 0.000000 
#    y 0.000000 1.692890 0.000000 
#    z 0.000000 0.000000 1.682320 
# 
# From -- ./inp_files/10216.got.cif
#   From: 2010.03.12/outbox.cif.g09.slc.cpg/sg23_6_cif.got.tgz:10216.got - 2010.04.14 02:50:06.
