data_PCOD8163246
_publ_section_title
;
Structure prediction by ZEFSAII (Michael W. Deem and Ramdas Pophale) SiO2 
 PCOD8163246
Probable space group: I 2 2 2
;
_chemical_formula_sum "Si O2"
_cell_formula_units_Z 40
_cell_length_a 15.625950
_cell_length_b 14.801919
_cell_length_c 8.262019
_cell_angle_alpha 90.000000
_cell_angle_beta 90.000000
_cell_angle_gamma 90.000000
_cell_volume 1910.955804
_symmetry_space_group_name_H-M "I 2 2 2"
_symmetry_group_IT_number 23
_symmetry_cell_setting 'orthorhombic'
loop_
_space_group_symop_operation_xyz
x,y,z
-x,-y,z
x,-y,-z
-x,y,-z
1/2+x,1/2+y,1/2+z
1/2-x,1/2-y,1/2+z
1/2+x,1/2-y,1/2-z
1/2-x,1/2+y,1/2-z
loop_
_atom_site_type_symbol
_atom_site_label
_atom_site_fract_x
_atom_site_fract_y
_atom_site_fract_z
Si Si1 0.015200 0.751777 0.324361
Si Si2 0.682205 0.663985 0.181211
Si Si3 0.235551 0.021937 0.188686
Si Si4 0.829221 0.793048 0.303572
Si Si5 0.076790 0.450873 0.672405
O O1 0.090547 0.809164 0.236377
O O2 0.053089 0.652556 0.347666
O O3 0.000000 0.795769 0.500000
O O4 0.921849 0.755641 0.240156
O O5 0.694156 0.557365 0.205445
O O6 0.759818 0.717005 0.263715
O O7 0.677685 0.690229 0.994005
O O8 0.183373 0.113817 0.209141
O O9 0.331575 0.038286 0.257969
O O10 0.235136 0.000000 0.000000
O O11 0.083235 0.500000 0.500000
O O12 0.000000 0.500000 0.773078
#
# Coordination Sequence:
#
# PCOD8163246 Si02
#       5
#     8   8   8   8   8
#     4  10  20  37  61  93 123 169 214 258 305 391
#     4  11  23  40  64  93 130 166 218 262 319 383
#     4  11  23  40  64  92 127 174 212 264 322 378
#     4  11  23  41  64  94 130 168 214 266 319 381
#     4  10  17  31  62  91 117 150 219 260 303 364
#
# _framework density 20.931933000000001
#
# number of rings (size 3 to 8) (size 9 to 14) (size 15 to 20)
#    0.000    1.400    4.000    3.000    5.600    0.800 
#    0.000    8.000    0.000    1.200    0.000    0.000 
#    0.000    0.000    0.000    0.000    0.000    0.000 
#
# Total GULP energy -247855.973839 kJ/mol
# GULP energy per Si atom -12392.798692 kJ/mol
# Density = 2.088429 g / cm^3
# Si number density = 20.931933 Si / 1000 Ang^3
#
#
#
# Elastic Constant Matrix: (Units=GPa)
#
#
# Indices 1 2 3 4 5 6 
#
# 1 195.0328 56.7622 13.3276 0.0000 0.0000 0.0000
# 2 56.7622 119.9117 0.9672 0.0000 0.0000 0.0000
# 3 13.3276 0.9672 34.3179 0.0000 0.0000 0.0000
# 4 0.0000 0.0000 0.0000 33.2422 0.0000 0.0000
# 5 0.0000 0.0000 0.0000 0.0000 15.6589 0.0000
# 6 0.0000 0.0000 0.0000 0.0000 0.0000 45.6342
#
#
#
# Elastic Compliance Matrix: (Units=1/GPa)
#
#
# Indices 1 2 3 4 5 6 
#
# 1 0.006122 -0.002880 -0.002296 0.000000 0.000000 0.000000
# 2 -0.002880 0.009696 0.000845 0.000000 0.000000 0.000000
# 3 -0.002296 0.000845 0.030007 0.000000 0.000000 0.000000
# 4 0.000000 0.000000 0.000000 0.030082 0.000000 0.000000
# 5 0.000000 0.000000 0.000000 0.000000 0.063861 0.000000
# 6 0.000000 0.000000 0.000000 0.000000 0.000000 0.021913
#
#
# Mechanical properties :
#
#
# Convention : Reuss Voigt Hill
#
# Bulk Modulus (GPa) = 26.90820 54.59736 40.75278
# Shear Modulus (GPa) = 27.36241 37.45408 32.40825
#
# Velocity S-wave (km/s) = 3.61946 4.23463 3.93907
# Velocity P-wave (km/s) = 5.50911 7.07456 6.34033
#
# Compressibility (1/GPa) = 0.03716340
#
# Stress axis : x y z
#
# Youngs Moduli (GPa) = 163.33604 103.13787 33.32516
#
# Poissons Ratio (x) = 0.29699 0.07653
# Poissons Ratio (y) = 0.47034 -0.02816
# Poissons Ratio (z) = 0.37510 -0.08716
#
# Static dielectric constant tensor:
#      x y z
#    x 4.905100 0.000000 0.000000 
#    y 0.000000 3.889130 0.000000 
#    z 0.000000 0.000000 3.371070 
# 
# 
# High freq. dielectric constant tensor:
#      x y z
#    x 1.849100 0.000000 0.000000 
#    y 0.000000 1.829550 0.000000 
#    z 0.000000 0.000000 1.772940 
# 
# From -- ./inp_files/9560.got.cif
#   From: 2010.03.12/outbox.cif.g09.slc.cpg/sg23_5_cif.got.tgz:9560.got - 2010.04.14 02:50:06.
