data_PCOD8163801
_publ_section_title
;
Structure prediction by ZEFSAII (Michael W. Deem and Ramdas Pophale) SiO2 
 PCOD8163801
Probable space group: I 2 2 2
;
_chemical_formula_sum "Si O2"
_cell_formula_units_Z 64
_cell_length_a 8.627407
_cell_length_b 31.840806
_cell_length_c 11.711204
_cell_angle_alpha 90.000000
_cell_angle_beta 90.000000
_cell_angle_gamma 90.000000
_cell_volume 3217.109812
_symmetry_space_group_name_H-M "I 2 2 2"
_symmetry_group_IT_number 23
_symmetry_cell_setting 'orthorhombic'
loop_
_space_group_symop_operation_xyz
x,y,z
-x,-y,z
x,-y,-z
-x,y,-z
1/2+x,1/2+y,1/2+z
1/2-x,1/2-y,1/2+z
1/2+x,1/2-y,1/2-z
1/2-x,1/2+y,1/2-z
loop_
_atom_site_type_symbol
_atom_site_label
_atom_site_fract_x
_atom_site_fract_y
_atom_site_fract_z
Si Si1 0.837565 0.629126 0.042500
Si Si2 0.685936 0.595034 0.835189
Si Si3 0.695758 0.652509 0.623952
Si Si4 0.824321 0.492564 0.132676
Si Si5 0.308578 0.201423 0.705956
Si Si6 0.153939 0.929183 0.295514
Si Si7 0.152629 0.139119 0.874854
Si Si8 0.071886 0.270472 0.629075
O O1 0.863949 0.675795 0.093880
O O2 0.782686 0.596018 0.135398
O O3 0.718476 0.628888 0.935694
O O4 0.000000 0.611188 0.000000
O O5 0.728093 0.616994 0.716484
O O6 0.797893 0.555626 0.839591
O O7 0.512702 0.577868 0.852954
O O8 0.730869 0.634848 0.498183
O O9 0.512768 0.663310 0.627175
O O10 0.806334 0.691967 0.644409
O O11 0.706568 0.522205 0.205854
O O12 0.000000 0.500000 0.169406
O O13 0.791918 0.500000 0.000000
O O14 0.260923 0.167018 0.797388
O O15 0.166921 0.228794 0.658765
O O16 0.442150 0.227552 0.770937
O O17 0.141900 0.908952 0.169237
O O18 0.000000 0.268577 0.500000
#
# Coordination Sequence:
#
# PCOD8163801 Si02
#       8
#     8   8   8   8   8   8   8   8
#     4  11  22  38  58  89 125 163 203 255 316 368
#     4  11  22  37  64  93 123 165 208 257 314 374
#     4  10  21  42  65  90 121 163 214 255 320 380
#     4  11  22  37  57  89 129 168 204 254 313 373
#     4  11  25  42  63  92 124 162 211 262 317 379
#     4  10  21  36  62  91 123 163 210 253 311 378
#     4   9  20  42  66  88 122 163 205 264 313 375
#     4  12  25  43  65  94 128 169 216 267 328 388
#
# _framework density 19.893633999999999
#
# number of rings (size 3 to 8) (size 9 to 14) (size 15 to 20)
#    0.000    1.375    2.500    3.000    0.000    6.500 
#    2.250    0.625    0.000    3.750    0.000    0.000 
#    0.000    0.000    0.000    0.000    0.000    0.000 
#
# Total GULP energy -396640.699779 kJ/mol
# GULP energy per Si atom -12395.021868 kJ/mol
# Density = 1.984836 g / cm^3
# Si number density = 19.893634 Si / 1000 Ang^3
#
#
#
# Elastic Constant Matrix: (Units=GPa)
#
#
# Indices 1 2 3 4 5 6 
#
# 1 73.6194 18.8482 34.7199 0.0026 0.0001 -0.0004
# 2 18.8482 73.1796 47.9145 0.0018 0.0004 -0.0003
# 3 34.7199 47.9145 108.7360 0.0021 0.0008 0.0000
# 4 0.0026 0.0018 0.0021 25.4104 0.0004 0.0001
# 5 0.0001 0.0004 0.0008 0.0004 27.6647 -0.0001
# 6 -0.0004 -0.0003 0.0000 0.0001 -0.0001 34.6972
#
#
#
# Elastic Compliance Matrix: (Units=1/GPa)
#
#
# Indices 1 2 3 4 5 6 
#
# 1 0.016054 -0.001094 -0.004644 -0.000001 0.000000 0.000000
# 2 -0.001094 0.019281 -0.008147 -0.000001 0.000000 0.000000
# 3 -0.004644 -0.008147 0.014269 0.000000 0.000000 0.000000
# 4 -0.000001 -0.000001 0.000000 0.039354 -0.000001 0.000000
# 5 0.000000 0.000000 0.000000 -0.000001 0.036147 0.000000
# 6 0.000000 0.000000 0.000000 0.000000 0.000000 0.028821
#
#
# Mechanical properties :
#
#
# Convention : Reuss Voigt Hill
#
# Bulk Modulus (GPa) = 45.79974 50.94447 48.37211
# Shear Modulus (GPa) = 26.45877 27.82462 27.14169
#
# Velocity S-wave (km/s) = 3.65089 3.74394 3.69771
# Velocity P-wave (km/s) = 6.39095 6.65984 6.52678
#
# Compressibility (1/GPa) = 0.02183419
#
# Stress axis : x y z
#
# Youngs Moduli (GPa) = 62.29129 51.86475 70.08092
#
# Poissons Ratio (x) = 0.05675 0.32544
# Poissons Ratio (y) = 0.06816 0.57093
# Poissons Ratio (z) = 0.28927 0.42253
#
# Static dielectric constant tensor:
#      x y z
#    x 3.742690 0.000000 0.000000 
#    y 0.000000 3.664380 0.000000 
#    z 0.000000 0.000000 3.906930 
# 
# 
# High freq. dielectric constant tensor:
#      x y z
#    x 1.788380 0.000000 0.000000 
#    y 0.000000 1.768610 0.000000 
#    z 0.000000 0.000000 1.774630 
# 
# From -- ./inp_files/8946.got.cif
#   From: 2010.03.12/outbox.cif.g09.slc.cpg/sg23_5_cif.got.tgz:8946.got - 2010.04.14 02:50:06.
