data_PCOD8163969
_publ_section_title
;
Structure prediction by ZEFSAII (Michael W. Deem and Ramdas Pophale) SiO2 
 PCOD8163969
Probable space group: I 2 2 2
;
_chemical_formula_sum "Si O2"
_cell_formula_units_Z 38
_cell_length_a 5.258607
_cell_length_b 12.454940
_cell_length_c 24.961990
_cell_angle_alpha 90.000000
_cell_angle_beta 90.000000
_cell_angle_gamma 90.000000
_cell_volume 1634.901378
_symmetry_space_group_name_H-M "I 2 2 2"
_symmetry_group_IT_number 23
_symmetry_cell_setting 'orthorhombic'
loop_
_space_group_symop_operation_xyz
x,y,z
-x,-y,z
x,-y,-z
-x,y,-z
1/2+x,1/2+y,1/2+z
1/2-x,1/2-y,1/2+z
1/2+x,1/2-y,1/2-z
1/2-x,1/2+y,1/2-z
loop_
_atom_site_type_symbol
_atom_site_label
_atom_site_fract_x
_atom_site_fract_y
_atom_site_fract_z
Si Si1 0.177667 0.093228 0.415232
Si Si2 0.457444 0.383271 0.621617
Si Si3 0.459427 0.823969 0.063201
Si Si4 0.500000 0.000000 0.676316
Si Si5 0.000000 0.500000 0.000000
Si Si6 0.589874 0.222186 0.281501
O O1 0.021279 0.202940 0.414186
O O2 0.289581 0.064382 0.357373
O O3 0.382274 0.091989 0.462197
O O4 0.000000 0.000000 0.435729
O O5 0.500000 0.500000 0.649309
O O6 0.680906 0.368171 0.578012
O O7 0.472165 0.287240 0.664346
O O8 0.185328 0.387783 0.592218
O O9 0.500000 0.831741 0.000000
O O10 0.366371 0.094166 0.710361
O O11 0.352533 0.233410 0.241725
#
# Coordination Sequence:
#
# PCOD8163969 Si02
#       6
#     8   8   8   4   2   8
#     4  11  23  40  69 102 152 189 244 298 374 438
#     4  12  28  51  73 107 151 195 253 307 365 442
#     4  12  26  45  76 109 150 199 248 300 365 442
#     4  11  26  47  76 104 148 186 241 314 381 444
#     4  10  22  36  60 110 142 204 230 304 360 458
#     4  12  29  49  78 110 143 193 248 309 381 441
#
# _framework density 23.242993999999999
#
# number of rings (size 3 to 8) (size 9 to 14) (size 15 to 20)
#    0.000    0.421    2.105    5.368   11.789    2.526 
#    0.000    0.000    0.000    0.000    0.000    0.000 
#    0.000    0.000    0.000    0.000    0.000    0.000 
#
# Total GULP energy -235547.989286 kJ/mol
# GULP energy per Si atom -12397.262594 kJ/mol
# Density = 2.319009 g / cm^3
# Si number density = 23.242994 Si / 1000 Ang^3
#
#
#
# Elastic Constant Matrix: (Units=GPa)
#
#
# Indices 1 2 3 4 5 6 
#
# 1 111.9707 6.1405 24.3172 0.0000 0.0000 0.0000
# 2 6.1405 132.5436 20.2113 0.0000 0.0000 0.0000
# 3 24.3172 20.2113 88.6331 0.0000 0.0000 0.0000
# 4 0.0000 0.0000 0.0000 27.0598 0.0000 0.0000
# 5 0.0000 0.0000 0.0000 0.0000 -95.7895 0.0000
# 6 0.0000 0.0000 0.0000 0.0000 0.0000 33.3011
#
#
#
# Elastic Compliance Matrix: (Units=1/GPa)
#
#
# Indices 1 2 3 4 5 6 
#
# 1 0.009497 -0.000044 -0.002595 0.000000 0.000000 0.000000
# 2 -0.000044 0.007817 -0.001770 0.000000 0.000000 0.000000
# 3 -0.002595 -0.001770 0.012398 0.000000 0.000000 0.000000
# 4 0.000000 0.000000 0.000000 0.036955 0.000000 0.000000
# 5 0.000000 0.000000 0.000000 0.000000 -0.010440 0.000000
# 6 0.000000 0.000000 0.000000 0.000000 0.000000 0.030029
#
#
# Mechanical properties :
#
#
# Convention : Reuss Voigt Hill
#
# Bulk Modulus (GPa) = 47.86548 48.27616 48.07082
# Shear Modulus (GPa) = 49.00008 11.74617 30.37313
#
# Velocity S-wave (km/s) = 4.59646 2.25047 3.61884
# Velocity P-wave (km/s) = 6.98628 5.25053 6.17965
#
# Compressibility (1/GPa) = 0.02089188
#
# Stress axis : x y z
#
# Youngs Moduli (GPa) = 105.29628 127.93141 80.65651
#
# Poissons Ratio (x) = 0.00565 0.20934
# Poissons Ratio (y) = 0.00465 0.14279
# Poissons Ratio (z) = 0.27330 0.22648
#
# Static dielectric constant tensor:
#      x y z
#    x 4.077880 0.000000 0.000000 
#    y 0.000000 4.617060 0.000000 
#    z 0.000000 0.000000 4.085540 
# 
# 
# High freq. dielectric constant tensor:
#      x y z
#    x 1.930350 0.000000 0.000000 
#    y 0.000000 1.933480 0.000000 
#    z 0.000000 0.000000 1.914920 
# 
# From -- ./inp_files/28875.got.cif
#   From: 2010.03.12/outbox.cif.g09.slc.cpg/sg23_15_cif.got.tgz:28875.got - 2010.04.14 02:50:06.
