data_PCOD8163161
_publ_section_title
;
Structure prediction by ZEFSAII (Michael W. Deem and Ramdas Pophale) SiO2 
 PCOD8163161
Probable space group: F 2 2 2
;
_chemical_formula_sum "Si O2"
_cell_formula_units_Z 40
_cell_length_a 12.342812
_cell_length_b 8.430992
_cell_length_c 12.342804
_cell_angle_alpha 90.000000
_cell_angle_beta 90.000000
_cell_angle_gamma 90.000000
_cell_volume 1284.418712
_symmetry_space_group_name_H-M "F 2 2 2"
_symmetry_group_IT_number 22
_symmetry_cell_setting 'orthorhombic'
loop_
_space_group_symop_operation_xyz
x,y,z
-x,-y,z
x,-y,-z
-x,y,-z
x,1/2+y,1/2+z
-x,1/2-y,1/2+z
x,1/2-y,1/2-z
-x,1/2+y,1/2-z
1/2+x,y,1/2+z
1/2-x,-y,1/2+z
1/2+x,-y,1/2-z
1/2-x,y,1/2-z
1/2+x,1/2+y,z
1/2-x,1/2-y,z
1/2+x,1/2-y,-z
1/2-x,1/2+y,-z
loop_
_atom_site_type_symbol
_atom_site_label
_atom_site_fract_x
_atom_site_fract_y
_atom_site_fract_z
Si Si1 0.750000 1.000000 0.750000
Si Si2 0.620757 0.348443 0.570480
Si Si3 0.929520 0.348442 0.379243
O O1 0.722165 0.113885 0.851212
O O2 0.851212 0.886115 0.777835
O O3 0.591193 0.500000 0.500000
O O4 0.643148 0.203546 0.484757
O O5 0.515243 0.296454 0.643148
O O6 0.000000 0.500000 0.408807
#
# Coordination Sequence:
#
# PCOD8163161 Si02
#       3
#     8  16  16
#     4  12  32  58  96 130 168 238 300 354 436 522
#     4  11  28  56  90 130 179 230 289 363 439 519
#     4  11  28  56  90 130 179 230 289 363 439 519
#
# _framework density 31.142495
#
# number of rings (size 3 to 8) (size 9 to 14) (size 15 to 20)
#    0.000    0.800    0.000    4.800    0.000   28.800 
#    0.000   16.000    0.000    4.800    0.000    0.000 
#    0.000    0.000    0.000    0.000    0.000    0.000 
#
# Total GULP energy -123903.079680 kJ/mol
# GULP energy per Si atom -12390.307968 kJ/mol
# Density = 3.107161 g / cm^3
# Si number density = 31.142495 Si / 1000 Ang^3
#
#
#
# Elastic Constant Matrix: (Units=GPa)
#
#
# Indices 1 2 3 4 5 6 
#
# 1 126.7756 64.6136 43.6130 0.0000 0.0000 0.0000
# 2 64.6136 213.0109 64.6140 0.0000 0.0000 0.0000
# 3 43.6130 64.6140 126.7764 0.0000 0.0000 0.0000
# 4 0.0000 0.0000 0.0000 58.8111 0.0000 0.0000
# 5 0.0000 0.0000 0.0000 0.0000 58.3698 0.0000
# 6 0.0000 0.0000 0.0000 0.0000 0.0000 58.8109
#
#
#
# Elastic Compliance Matrix: (Units=1/GPa)
#
#
# Indices 1 2 3 4 5 6 
#
# 1 0.009824 -0.002312 -0.002201 0.000000 0.000000 0.000000
# 2 -0.002312 0.006097 -0.002312 0.000000 0.000000 0.000000
# 3 -0.002201 -0.002312 0.009824 0.000000 0.000000 0.000000
# 4 0.000000 0.000000 0.000000 0.017004 0.000000 0.000000
# 5 0.000000 0.000000 0.000000 0.000000 0.017132 0.000000
# 6 0.000000 0.000000 0.000000 0.000000 0.000000 0.017004
#
#
# Mechanical properties :
#
#
# Convention : Reuss Voigt Hill
#
# Bulk Modulus (GPa) = 82.68788 90.24936 86.46862
# Shear Modulus (GPa) = 52.87320 54.77984 53.82652
#
# Velocity S-wave (km/s) = 4.12489 4.19860 4.16191
# Velocity P-wave (km/s) = 7.02106 7.24891 7.13590
#
# Compressibility (1/GPa) = 0.01209367
#
# Stress axis : x y z
#
# Youngs Moduli (GPa) = 101.79580 164.00601 101.79631
#
# Poissons Ratio (x) = 0.37921 0.22405
# Poissons Ratio (y) = 0.23537 0.23537
# Poissons Ratio (z) = 0.22405 0.37921
#
# Static dielectric constant tensor:
#      x y z
#    x 5.820500 0.000000 0.000000 
#    y 0.000000 6.383380 0.000000 
#    z 0.000000 0.000000 5.820530 
# 
# 
# High freq. dielectric constant tensor:
#      x y z
#    x 2.278640 0.000000 0.000000 
#    y 0.000000 2.312800 0.000000 
#    z 0.000000 0.000000 2.278650 
# 
# From -- ./inp_files/28585.got.cif
#   From: 2010.03.12/outbox.cif.g09.slc.cpg/sg22_15_cif.got.tgz:28585.got - 2010.04.14 02:24:06.
