data_PCOD8163355
_publ_section_title
;
Structure prediction by ZEFSAII (Michael W. Deem and Ramdas Pophale) SiO2 
 PCOD8163355
Probable space group: I 2 2 2
;
_chemical_formula_sum "Si O2"
_cell_formula_units_Z 64
_cell_length_a 23.088732
_cell_length_b 8.897192
_cell_length_c 18.879085
_cell_angle_alpha 90.000000
_cell_angle_beta 90.000000
_cell_angle_gamma 90.000000
_cell_volume 3878.233802
_symmetry_space_group_name_H-M "I 2 2 2"
_symmetry_group_IT_number 23
_symmetry_cell_setting 'orthorhombic'
loop_
_space_group_symop_operation_xyz
x,y,z
-x,-y,z
x,-y,-z
-x,y,-z
1/2+x,1/2+y,1/2+z
1/2-x,1/2-y,1/2+z
1/2+x,1/2-y,1/2-z
1/2-x,1/2+y,1/2-z
loop_
_atom_site_type_symbol
_atom_site_label
_atom_site_fract_x
_atom_site_fract_y
_atom_site_fract_z
Si Si1 0.834468 0.325121 0.219369
Si Si2 0.752743 0.177079 0.500000
Si Si3 0.334468 0.174879 0.719369
Si Si4 0.066310 0.824649 0.854847
Si Si5 0.433690 0.675351 0.645153
Si Si6 0.269372 0.825302 0.858996
Si Si7 0.871210 0.174182 0.000000
Si Si8 0.730628 0.825302 0.858996
O O1 0.827150 0.500000 0.201277
O O2 0.899436 0.269249 0.204933
O O3 0.819231 0.293078 0.301352
O O4 0.792441 0.232087 0.168384
O O5 0.785964 0.239952 0.431002
O O6 0.686094 0.226470 0.500000
O O7 0.785964 0.239952 0.568998
O O8 0.756861 0.000000 0.500000
O O9 0.399436 0.230751 0.704933
O O10 0.292441 0.267912 0.668383
O O11 0.319231 0.206922 0.801352
O O12 0.090285 0.784793 0.932262
O O13 0.000000 0.773072 0.851163
O O14 0.073012 0.000000 0.838119
O O15 0.409715 0.715207 0.567738
O O16 0.262505 1.000000 0.875677
O O17 0.852784 0.000000 0.000000
#
# Coordination Sequence:
#
# PCOD8163355 Si02
#       8
#     8   8   8   8   8   8   8   8
#     4  10  20  33  50  73  98 128 167 210 249 289
#     4  12  22  31  49  77 102 128 166 207 250 295
#     4  10  20  33  50  73  98 128 167 210 249 289
#     4  10  20  33  50  71  99 138 176 206 243 292
#     4  10  20  33  50  71  99 138 176 206 243 292
#     4  10  20  34  51  70  98 133 164 200 253 305
#     4  10  19  32  48  68  99 138 173 203 238 285
#     4  10  20  34  51  70  98 133 164 200 253 305
#
# _framework density 16.502355999999999
#
# number of rings (size 3 to 8) (size 9 to 14) (size 15 to 20)
#    0.000    1.750    2.500    3.000    0.000    5.000 
#    0.000    0.000    0.000    2.250    0.000    0.875 
#    0.000    7.000    0.000    0.000    0.000    0.000 
#
# Total GULP energy -396916.396220 kJ/mol
# GULP energy per Si atom -12403.637382 kJ/mol
# Density = 1.646480 g / cm^3
# Si number density = 16.502356 Si / 1000 Ang^3
#
#
#
# Elastic Constant Matrix: (Units=GPa)
#
#
# Indices 1 2 3 4 5 6 
#
# 1 83.0440 36.1362 52.3933 0.0000 0.0000 0.0000
# 2 36.1362 97.1274 63.8474 0.0000 0.0000 0.0000
# 3 52.3933 63.8474 126.0316 0.0000 0.0000 0.0000
# 4 0.0000 0.0000 0.0000 28.6972 0.0000 0.0000
# 5 0.0000 0.0000 0.0000 0.0000 23.0969 0.0000
# 6 0.0000 0.0000 0.0000 0.0000 0.0000 24.7332
#
#
#
# Elastic Compliance Matrix: (Units=1/GPa)
#
#
# Indices 1 2 3 4 5 6 
#
# 1 0.016711 -0.002475 -0.005693 0.000000 0.000000 0.000000
# 2 -0.002475 0.015803 -0.006977 0.000000 0.000000 0.000000
# 3 -0.005693 -0.006977 0.013836 0.000000 0.000000 0.000000
# 4 0.000000 0.000000 0.000000 0.034847 0.000000 0.000000
# 5 0.000000 0.000000 0.000000 0.000000 0.043296 0.000000
# 6 0.000000 0.000000 0.000000 0.000000 0.000000 0.040431
#
#
# Mechanical properties :
#
#
# Convention : Reuss Voigt Hill
#
# Bulk Modulus (GPa) = 62.26826 67.88410 65.07618
# Shear Modulus (GPa) = 24.92949 25.56053 25.24501
#
# Velocity S-wave (km/s) = 3.89094 3.93988 3.91549
# Velocity P-wave (km/s) = 7.61582 7.86906 7.74348
#
# Compressibility (1/GPa) = 0.01605955
#
# Stress axis : x y z
#
# Youngs Moduli (GPa) = 59.84250 63.28001 72.27666
#
# Poissons Ratio (x) = 0.15660 0.41148
# Poissons Ratio (y) = 0.14809 0.50427
# Poissons Ratio (z) = 0.34069 0.44150
#
# Static dielectric constant tensor:
#      x y z
#    x 2.944200 0.000000 0.000000 
#    y 0.000000 3.130210 0.000000 
#    z 0.000000 0.000000 3.312880 
# 
# 
# High freq. dielectric constant tensor:
#      x y z
#    x 1.604000 0.000000 0.000000 
#    y 0.000000 1.645020 0.000000 
#    z 0.000000 0.000000 1.636710 
# 
# From -- ./inp_files/12761.got.cif
#   From: 2010.03.12/outbox.cif.g09.slc.cpg/sg23_7_cif.got.tgz:12761.got - 2010.04.14 02:50:06.
