data_PCOD8163018
_publ_section_title
;
Structure prediction by ZEFSAII (Michael W. Deem and Ramdas Pophale) SiO2 
 PCOD8163018
Probable space group: F 2 2 2
;
_chemical_formula_sum "Si O2"
_cell_formula_units_Z 120
_cell_length_a 11.705469
_cell_length_b 25.935349
_cell_length_c 20.565735
_cell_angle_alpha 90.000000
_cell_angle_beta 90.000000
_cell_angle_gamma 90.000000
_cell_volume 6243.457374
_symmetry_space_group_name_H-M "F 2 2 2"
_symmetry_group_IT_number 22
_symmetry_cell_setting 'orthorhombic'
loop_
_space_group_symop_operation_xyz
x,y,z
-x,-y,z
x,-y,-z
-x,y,-z
x,1/2+y,1/2+z
-x,1/2-y,1/2+z
x,1/2-y,1/2-z
-x,1/2+y,1/2-z
1/2+x,y,1/2+z
1/2-x,-y,1/2+z
1/2+x,-y,1/2-z
1/2-x,y,1/2-z
1/2+x,1/2+y,z
1/2-x,1/2-y,z
1/2+x,1/2-y,-z
1/2-x,1/2+y,-z
loop_
_atom_site_type_symbol
_atom_site_label
_atom_site_fract_x
_atom_site_fract_y
_atom_site_fract_z
Si Si1 0.102096 0.359908 0.642869
Si Si2 0.305270 0.961613 0.938842
Si Si3 0.649443 0.530151 0.291538
Si Si4 0.856564 0.146078 0.387940
Si Si5 0.613889 0.750326 0.822167
Si Si6 0.577673 0.919631 0.771701
Si Si7 0.500000 0.894815 0.000000
Si Si8 0.955737 0.444241 0.571631
O O1 0.219789 0.355876 0.602107
O O2 0.059803 0.300451 0.643758
O O3 0.121226 0.379853 0.716696
O O4 0.008672 0.397631 0.612503
O O5 0.331497 0.984745 0.867535
O O6 0.180817 0.935903 0.929536
O O7 0.414425 0.926485 0.953867
O O8 0.294654 0.000000 0.000000
O O9 0.750000 0.555338 0.250000
O O10 0.622997 0.476538 0.255271
O O11 0.557679 0.575031 0.280302
O O12 0.916248 0.197747 0.360380
O O13 0.876642 0.098583 0.340605
O O14 0.916749 0.139610 0.456846
O O15 0.561669 0.750000 0.750000
O O16 0.750000 0.750000 0.818816
O O17 0.000000 0.500000 0.599522
O O18 0.000000 0.438225 0.500000
#
# Coordination Sequence:
#
# PCOD8163018 Si02
#       8
#    16  16  16  16  16  16   8  16
#     4  11  22  38  66  90 122 163 203 266 326 376
#     4  12  24  41  61  86 128 175 218 253 309 389
#     4  11  24  37  53  87 129 167 206 257 315 382
#     4  11  21  39  62  93 123 162 212 265 321 377
#     4   9  18  36  62  93 121 153 205 269 327 379
#     4  11  22  35  56  91 121 156 207 256 316 373
#     4  12  25  40  64  90 128 170 215 262 314 382
#     4  11  24  41  58  87 121 163 212 253 303 376
#
# _framework density 19.220120000000001
#
# number of rings (size 3 to 8) (size 9 to 14) (size 15 to 20)
#    0.000    1.067    4.000    3.800    7.467    0.000 
#    1.200    0.000    0.000    0.000    0.000    1.867 
#    0.000    0.000    0.000    0.000    0.000    0.000 
#
# Total GULP energy -371680.791510 kJ/mol
# GULP energy per Si atom -12389.359717 kJ/mol
# Density = 1.917637 g / cm^3
# Si number density = 19.220120 Si / 1000 Ang^3
#
#
#
# Elastic Constant Matrix: (Units=GPa)
#
#
# Indices 1 2 3 4 5 6 
#
# 1 109.3625 27.4993 32.9609 0.0000 0.0000 0.0000
# 2 27.4993 93.2797 26.9598 0.0000 0.0000 0.0000
# 3 32.9609 26.9598 99.0695 0.0000 0.0000 0.0000
# 4 0.0000 0.0000 0.0000 20.1649 0.0000 0.0000
# 5 0.0000 0.0000 0.0000 0.0000 30.1073 0.0000
# 6 0.0000 0.0000 0.0000 0.0000 0.0000 17.0369
#
#
#
# Elastic Compliance Matrix: (Units=1/GPa)
#
#
# Indices 1 2 3 4 5 6 
#
# 1 0.010593 -0.002284 -0.002903 0.000000 0.000000 0.000000
# 2 -0.002284 0.012128 -0.002541 0.000000 0.000000 0.000000
# 3 -0.002903 -0.002541 0.011751 0.000000 0.000000 0.000000
# 4 0.000000 0.000000 0.000000 0.049591 0.000000 0.000000
# 5 0.000000 0.000000 0.000000 0.000000 0.033215 0.000000
# 6 0.000000 0.000000 0.000000 0.000000 0.000000 0.058696
#
#
# Mechanical properties :
#
#
# Convention : Reuss Voigt Hill
#
# Bulk Modulus (GPa) = 52.58288 52.95019 52.76654
# Shear Modulus (GPa) = 25.28217 27.74792 26.51505
#
# Velocity S-wave (km/s) = 3.63078 3.80372 3.71825
# Velocity P-wave (km/s) = 6.70779 6.84837 6.77844
#
# Compressibility (1/GPa) = 0.01901760
#
# Stress axis : x y z
#
# Youngs Moduli (GPa) = 94.40118 82.45373 85.09857
#
# Poissons Ratio (x) = 0.18832 0.24703
# Poissons Ratio (y) = 0.21560 0.21620
# Poissons Ratio (z) = 0.27403 0.20948
#
# Static dielectric constant tensor:
#      x y z
#    x 3.888750 0.000000 0.000000 
#    y 0.000000 3.524750 0.000000 
#    z 0.000000 0.000000 3.654360 
# 
# 
# High freq. dielectric constant tensor:
#      x y z
#    x 1.743880 0.000000 0.000000 
#    y 0.000000 1.730690 0.000000 
#    z 0.000000 0.000000 1.753570 
# 
# From -- ./inp_files/42948.got.cif
#   From: 2010.03.12/outbox.cif.g09.slc.cpg/sg22_22_cif.got.tgz:42948.got - 2010.04.14 02:24:06.
