data_PCOD8163660
_publ_section_title
;
Structure prediction by ZEFSAII (Michael W. Deem and Ramdas Pophale) SiO2 
 PCOD8163660
Probable space group: I 2 2 2
;
_chemical_formula_sum "Si O2"
_cell_formula_units_Z 56
_cell_length_a 7.988514
_cell_length_b 20.345214
_cell_length_c 17.134487
_cell_angle_alpha 90.000000
_cell_angle_beta 90.000000
_cell_angle_gamma 90.000000
_cell_volume 2784.834364
_symmetry_space_group_name_H-M "I 2 2 2"
_symmetry_group_IT_number 23
_symmetry_cell_setting 'orthorhombic'
loop_
_space_group_symop_operation_xyz
x,y,z
-x,-y,z
x,-y,-z
-x,y,-z
1/2+x,1/2+y,1/2+z
1/2-x,1/2-y,1/2+z
1/2+x,1/2-y,1/2-z
1/2-x,1/2+y,1/2-z
loop_
_atom_site_type_symbol
_atom_site_label
_atom_site_fract_x
_atom_site_fract_y
_atom_site_fract_z
Si Si1 0.968984 0.689101 0.683038
Si Si2 0.671237 0.678561 0.466362
Si Si3 0.311826 0.505659 0.310788
Si Si4 0.585569 0.705439 0.923811
Si Si5 0.619960 0.917967 0.066424
Si Si6 0.809724 0.138944 0.206112
Si Si7 0.164619 0.861943 0.722973
O O1 0.955086 0.756034 0.632959
O O2 0.150229 0.685667 0.728293
O O3 0.987101 0.627553 0.624318
O O4 0.808425 0.683930 0.738956
O O5 0.500000 0.706894 0.500000
O O6 0.786839 0.741626 0.457251
O O7 0.735763 0.626879 0.530127
O O8 0.644880 0.641670 0.384987
O O9 0.500000 0.500000 0.342462
O O10 0.196196 0.521106 0.385468
O O11 0.260042 0.436470 0.271880
O O12 0.299174 0.562461 0.244769
O O13 0.672749 0.648695 0.870944
O O14 0.500000 0.672448 0.000000
O O15 0.500000 0.946945 0.000000
O O16 0.979548 0.161624 0.249705
#
# Coordination Sequence:
#
# PCOD8163660 Si02
#       7
#     8   8   8   8   8   8   8
#     4  10  20  38  56  85 116 155 197 234 291 352
#     4  11  20  35  54  82 119 156 191 234 294 353
#     4   9  20  38  58  81 116 154 204 242 286 355
#     4  11  22  39  57  86 123 153 196 248 296 350
#     4  11  18  36  52  80 121 155 188 239 289 349
#     4  10  21  38  58  85 115 153 201 242 286 352
#     4  10  23  38  59  83 115 155 200 243 291 343
#
# _framework density 20.108917000000002
#
# number of rings (size 3 to 8) (size 9 to 14) (size 15 to 20)
#    0.000    1.714    4.286    2.571    4.000    2.857 
#    5.143    2.857    0.000    3.857    0.000    0.000 
#    0.000    0.000    0.000    0.000    0.000    0.000 
#
# Total GULP energy -347060.641805 kJ/mol
# GULP energy per Si atom -12395.022922 kJ/mol
# Density = 2.006315 g / cm^3
# Si number density = 20.108917 Si / 1000 Ang^3
#
#
#
# Elastic Constant Matrix: (Units=GPa)
#
#
# Indices 1 2 3 4 5 6 
#
# 1 96.7589 25.3045 47.0214 0.0000 0.0000 0.0000
# 2 25.3045 39.5621 41.5049 0.0000 0.0000 0.0000
# 3 47.0214 41.5049 102.5873 0.0000 0.0000 0.0000
# 4 0.0000 0.0000 0.0000 -2.5294 0.0000 0.0000
# 5 0.0000 0.0000 0.0000 0.0000 22.7224 0.0000
# 6 0.0000 0.0000 0.0000 0.0000 0.0000 14.2652
#
#
#
# Elastic Compliance Matrix: (Units=1/GPa)
#
#
# Indices 1 2 3 4 5 6 
#
# 1 0.013610 -0.003754 -0.004720 0.000000 0.000000 0.000000
# 2 -0.003754 0.044953 -0.016466 0.000000 0.000000 0.000000
# 3 -0.004720 -0.016466 0.018573 0.000000 0.000000 0.000000
# 4 0.000000 0.000000 0.000000 -0.395354 0.000000 0.000000
# 5 0.000000 0.000000 0.000000 0.000000 0.044009 0.000000
# 6 0.000000 0.000000 0.000000 0.000000 0.000000 0.070100
#
#
# Mechanical properties :
#
#
# Convention : Reuss Voigt Hill
#
# Bulk Modulus (GPa) = 36.68888 51.84111 44.26500
# Shear Modulus (GPa) = -34.44895 15.23015 -9.60940
#
# Velocity S-wave (km/s) = -4.14347 2.75505 -2.18839
# Velocity P-wave (km/s) = 2.14627 5.99637 3.95917
#
# Compressibility (1/GPa) = 0.02725621
#
# Stress axis : x y z
#
# Youngs Moduli (GPa) = 73.47407 22.24551 53.84155
#
# Poissons Ratio (x) = 0.08351 0.25411
# Poissons Ratio (y) = 0.27582 0.88658
# Poissons Ratio (z) = 0.34676 0.36630
#
# Static dielectric constant tensor:
#      x y z
#    x 3.811910 0.000000 0.000000 
#    y 0.000000 3.520340 0.000000 
#    z 0.000000 0.000000 3.574290 
# 
# 
# High freq. dielectric constant tensor:
#      x y z
#    x 1.795920 0.000000 0.000000 
#    y 0.000000 1.770180 0.000000 
#    z 0.000000 0.000000 1.756100 
# 
# From -- ./inp_files/23964.got.cif
#   From: 2010.03.12/outbox.cif.g09.slc.cpg/sg23_12_cif.got.tgz:23964.got - 2010.04.14 02:50:06.
