data_PCOD8163431
_publ_section_title
;
Structure prediction by ZEFSAII (Michael W. Deem and Ramdas Pophale) SiO2 
 PCOD8163431
Probable space group: I 2 2 2
;
_chemical_formula_sum "Si O2"
_cell_formula_units_Z 64
_cell_length_a 14.327065
_cell_length_b 8.542579
_cell_length_c 24.921630
_cell_angle_alpha 90.000000
_cell_angle_beta 90.000000
_cell_angle_gamma 90.000000
_cell_volume 3050.160404
_symmetry_space_group_name_H-M "I 2 2 2"
_symmetry_group_IT_number 23
_symmetry_cell_setting 'orthorhombic'
loop_
_space_group_symop_operation_xyz
x,y,z
-x,-y,z
x,-y,-z
-x,y,-z
1/2+x,1/2+y,1/2+z
1/2-x,1/2-y,1/2+z
1/2+x,1/2-y,1/2-z
1/2-x,1/2+y,1/2-z
loop_
_atom_site_type_symbol
_atom_site_label
_atom_site_fract_x
_atom_site_fract_y
_atom_site_fract_z
Si Si1 0.801569 0.675007 0.295846
Si Si2 0.793456 0.306116 0.307472
Si Si3 0.296284 0.673315 0.998146
Si Si4 0.502841 0.813586 0.168041
Si Si5 0.175059 0.669002 0.901550
Si Si6 0.696124 0.811482 0.394913
Si Si7 0.540322 0.824978 0.051424
Si Si8 0.506511 0.684438 0.439170
O O1 0.795226 0.490532 0.300310
O O2 0.768185 0.723664 0.237320
O O3 0.907539 0.742495 0.303533
O O4 0.733568 0.744819 0.339679
O O5 0.748363 0.264828 0.364853
O O6 0.902643 0.251628 0.303135
O O7 0.200908 0.663795 0.964497
O O8 0.350575 0.806016 0.962979
O O9 0.343478 0.500000 0.000000
O O10 0.274081 0.722758 0.059208
O O11 0.509874 0.745986 0.107163
O O12 0.500000 0.000000 0.164964
O O13 0.173371 0.490909 0.881828
O O14 0.072810 0.745047 0.899995
O O15 0.603244 0.724652 0.411676
O O16 0.500000 0.000000 0.050521
O O17 0.500000 0.729696 0.000000
O O18 0.500000 0.500000 0.440628
O O19 0.500000 0.751641 0.500000
#
# Coordination Sequence:
#
# PCOD8163431 Si02
#       8
#     8   8   8   8   8   8   8   8
#     4  11  24  43  66  96 126 169 224 276 327 387
#     4  11  23  44  68  93 128 170 221 275 328 388
#     4  10  21  37  61  93 133 169 208 258 325 392
#     4   9  20  39  64  91 122 160 211 263 318 380
#     4  11  22  41  66  93 129 173 211 264 331 389
#     4  11  23  41  64  96 133 171 214 264 328 395
#     4  10  19  35  57  93 124 164 212 254 317 381
#     4  11  23  40  61  97 131 172 221 272 321 384
#
# _framework density 20.982503999999999
#
# number of rings (size 3 to 8) (size 9 to 14) (size 15 to 20)
#    0.000    1.500    2.500    2.625    0.000    2.750 
#    4.500    6.250    0.000    0.000    0.000    0.000 
#    0.000    0.000    0.000    0.000    0.000    0.000 
#
# Total GULP energy -396510.381853 kJ/mol
# GULP energy per Si atom -12390.949433 kJ/mol
# Density = 2.093475 g / cm^3
# Si number density = 20.982504 Si / 1000 Ang^3
#
#
#
# Elastic Constant Matrix: (Units=GPa)
#
#
# Indices 1 2 3 4 5 6 
#
# 1 141.8415 41.6550 45.2322 0.0000 0.0000 0.0000
# 2 41.6550 75.9091 22.2339 0.0000 0.0000 0.0000
# 3 45.2322 22.2339 107.8999 0.0000 0.0000 0.0000
# 4 0.0000 0.0000 0.0000 30.5242 0.0000 0.0000
# 5 0.0000 0.0000 0.0000 0.0000 35.5661 0.0000
# 6 0.0000 0.0000 0.0000 0.0000 0.0000 31.6795
#
#
#
# Elastic Compliance Matrix: (Units=1/GPa)
#
#
# Indices 1 2 3 4 5 6 
#
# 1 0.009240 -0.004189 -0.003010 0.000000 0.000000 0.000000
# 2 -0.004189 0.015919 -0.001524 0.000000 0.000000 0.000000
# 3 -0.003010 -0.001524 0.010844 0.000000 0.000000 0.000000
# 4 0.000000 0.000000 0.000000 0.032761 0.000000 0.000000
# 5 0.000000 0.000000 0.000000 0.000000 0.028117 0.000000
# 6 0.000000 0.000000 0.000000 0.000000 0.000000 0.031566
#
#
# Mechanical properties :
#
#
# Convention : Reuss Voigt Hill
#
# Bulk Modulus (GPa) = 53.89109 60.43251 57.16180
# Shear Modulus (GPa) = 32.87767 33.98924 33.43346
#
# Velocity S-wave (km/s) = 3.96271 4.02915 3.99607
# Velocity P-wave (km/s) = 6.83206 7.10699 6.97088
#
# Compressibility (1/GPa) = 0.01855594
#
# Stress axis : x y z
#
# Youngs Moduli (GPa) = 108.22197 62.81914 92.21755
#
# Poissons Ratio (x) = 0.26314 0.27761
# Poissons Ratio (y) = 0.45332 0.14056
# Poissons Ratio (z) = 0.32579 0.09575
#
# Static dielectric constant tensor:
#      x y z
#    x 4.092160 0.000000 0.000000 
#    y 0.000000 3.639300 0.000000 
#    z 0.000000 0.000000 3.507810 
# 
# 
# High freq. dielectric constant tensor:
#      x y z
#    x 1.831290 0.000000 0.000000 
#    y 0.000000 1.806790 0.000000 
#    z 0.000000 0.000000 1.824050 
# 
# From -- ./inp_files/28563.got.cif
#   From: 2010.03.12/outbox.cif.g09.slc.cpg/sg23_15_cif.got.tgz:28563.got - 2010.04.14 02:50:06.
