data_PCOD8163734
_publ_section_title
;
Structure prediction by ZEFSAII (Michael W. Deem and Ramdas Pophale) SiO2 
 PCOD8163734
Probable space group: I 2 2 2
;
_chemical_formula_sum "Si O2"
_cell_formula_units_Z 56
_cell_length_a 22.277369
_cell_length_b 14.141059
_cell_length_c 8.934063
_cell_angle_alpha 90.000000
_cell_angle_beta 90.000000
_cell_angle_gamma 90.000000
_cell_volume 2814.458462
_symmetry_space_group_name_H-M "I 2 2 2"
_symmetry_group_IT_number 23
_symmetry_cell_setting 'orthorhombic'
loop_
_space_group_symop_operation_xyz
x,y,z
-x,-y,z
x,-y,-z
-x,y,-z
1/2+x,1/2+y,1/2+z
1/2-x,1/2-y,1/2+z
1/2+x,1/2-y,1/2-z
1/2-x,1/2+y,1/2-z
loop_
_atom_site_type_symbol
_atom_site_label
_atom_site_fract_x
_atom_site_fract_y
_atom_site_fract_z
Si Si1 0.237882 0.982059 0.168179
Si Si2 0.795154 0.191448 0.808424
Si Si3 0.316120 0.289353 0.346634
Si Si4 0.083653 0.350941 0.749383
Si Si5 0.916538 0.730156 0.241339
Si Si6 0.142731 0.533087 0.828538
Si Si7 0.500000 0.797250 0.500000
Si Si8 0.000000 0.701446 0.500000
O O1 0.185174 0.903022 0.174974
O O2 0.290363 0.941201 0.274438
O O3 0.210916 0.080499 0.222457
O O4 0.262337 0.000000 0.000000
O O5 0.737943 0.242732 0.743052
O O6 0.855436 0.217054 0.719222
O O7 0.806243 0.229404 0.977019
O O8 0.377865 0.244636 0.283619
O O9 0.126185 0.440522 0.734939
O O10 0.034038 0.363408 0.879471
O O11 0.050662 0.355435 0.589915
O O12 0.902735 0.618444 0.209706
O O13 0.961463 0.757631 0.376419
O O14 0.951090 0.766336 0.090675
O O15 0.142067 0.500000 0.000000
#
# Coordination Sequence:
#
# PCOD8163734 Si02
#       8
#     8   8   8   8   8   8   4   4
#     4  10  24  38  59  94 129 158 196 247 314 367
#     4  11  22  39  64  91 123 161 199 253 310 359
#     4  11  22  39  64  91 123 161 199 253 310 359
#     4  11  23  40  62  86 124 159 207 251 302 362
#     4  11  23  40  62  86 124 159 207 251 302 362
#     4  12  22  35  59  93 123 159 202 248 298 371
#     4  10  20  41  58  83 114 164 202 251 292 363
#     4  10  28  41  60  89 120 170 206 247 302 361
#
# _framework density 19.897255999999999
#
# number of rings (size 3 to 8) (size 9 to 14) (size 15 to 20)
#    0.000    1.143    5.714    0.000    4.000    3.429 
#    0.000    0.000    0.000    5.143    0.000    0.000 
#    0.000    0.000    0.000    0.000    0.000    0.000 
#
# Total GULP energy -346935.572962 kJ/mol
# GULP energy per Si atom -12390.556177 kJ/mol
# Density = 1.985197 g / cm^3
# Si number density = 19.897256 Si / 1000 Ang^3
#
#
#
# Elastic Constant Matrix: (Units=GPa)
#
#
# Indices 1 2 3 4 5 6 
#
# 1 103.0228 37.6363 41.1346 0.0000 0.0000 0.0000
# 2 37.6363 90.7299 23.8623 0.0000 0.0000 0.0000
# 3 41.1346 23.8623 95.2977 0.0000 0.0000 0.0000
# 4 0.0000 0.0000 0.0000 14.7505 0.0000 0.0000
# 5 0.0000 0.0000 0.0000 0.0000 40.2807 0.0000
# 6 0.0000 0.0000 0.0000 0.0000 0.0000 -2.1002
#
#
#
# Elastic Compliance Matrix: (Units=1/GPa)
#
#
# Indices 1 2 3 4 5 6 
#
# 1 0.013080 -0.004219 -0.004590 0.000000 0.000000 0.000000
# 2 -0.004219 0.013159 -0.001474 0.000000 0.000000 0.000000
# 3 -0.004590 -0.001474 0.012844 0.000000 0.000000 0.000000
# 4 0.000000 0.000000 0.000000 0.067794 0.000000 0.000000
# 5 0.000000 0.000000 0.000000 0.000000 0.024826 0.000000
# 6 0.000000 0.000000 0.000000 0.000000 0.000000 -0.476149
#
#
# Mechanical properties :
#
#
# Convention : Reuss Voigt Hill
#
# Bulk Modulus (GPa) = 54.00061 54.92410 54.46235
# Shear Modulus (GPa) = -15.73773 23.01403 3.63815
#
# Velocity S-wave (km/s) = -2.81543 3.40464 1.35368
# Velocity P-wave (km/s) = 4.07796 6.56652 5.46575
#
# Compressibility (1/GPa) = 0.01851831
#
# Stress axis : x y z
#
# Youngs Moduli (GPa) = 76.45044 75.99095 77.85967
#
# Poissons Ratio (x) = 0.32060 0.35735
# Poissons Ratio (y) = 0.32253 0.11477
# Poissons Ratio (z) = 0.35088 0.11201
#
# Static dielectric constant tensor:
#      x y z
#    x 3.825960 0.000000 0.000000 
#    y 0.000000 3.526630 0.000000 
#    z 0.000000 0.000000 3.841540 
# 
# 
# High freq. dielectric constant tensor:
#      x y z
#    x 1.788100 0.000000 0.000000 
#    y 0.000000 1.741740 0.000000 
#    z 0.000000 0.000000 1.786880 
# 
# From -- ./inp_files/12078.got.cif
#   From: 2010.03.12/outbox.cif.g09.slc.cpg/sg23_7_cif.got.tgz:12078.got - 2010.04.14 02:50:06.
