data_PCOD8163357
_publ_section_title
;
Structure prediction by ZEFSAII (Michael W. Deem and Ramdas Pophale) SiO2 
 PCOD8163357
Probable space group: I 2 2 2
;
_chemical_formula_sum "Si O2"
_cell_formula_units_Z 64
_cell_length_a 9.782332
_cell_length_b 13.161237
_cell_length_c 27.151434
_cell_angle_alpha 90.000000
_cell_angle_beta 90.000000
_cell_angle_gamma 90.000000
_cell_volume 3495.681689
_symmetry_space_group_name_H-M "I 2 2 2"
_symmetry_group_IT_number 23
_symmetry_cell_setting 'orthorhombic'
loop_
_space_group_symop_operation_xyz
x,y,z
-x,-y,z
x,-y,-z
-x,y,-z
1/2+x,1/2+y,1/2+z
1/2-x,1/2-y,1/2+z
1/2+x,1/2-y,1/2-z
1/2-x,1/2+y,1/2-z
loop_
_atom_site_type_symbol
_atom_site_label
_atom_site_fract_x
_atom_site_fract_y
_atom_site_fract_z
Si Si1 0.338127 0.502243 0.891278
Si Si2 0.354269 0.019885 0.698172
Si Si3 0.130698 0.307186 0.269624
Si Si4 0.653956 0.884517 0.875313
Si Si5 0.170607 0.390317 0.620268
Si Si6 0.660129 0.703367 0.943578
Si Si7 0.672717 0.154860 0.771613
Si Si8 0.165062 0.207321 0.554280
O O1 0.500000 0.500000 0.883246
O O2 0.269809 0.496413 0.837911
O O3 0.290434 0.404038 0.921867
O O4 0.286480 0.603631 0.919165
O O5 0.358452 0.953231 0.747730
O O6 0.500000 0.000000 0.670730
O O7 0.338547 0.133145 0.718974
O O8 0.189036 0.362730 0.318325
O O9 0.214317 0.203899 0.263629
O O10 0.969505 0.281661 0.274418
O O11 0.491966 0.886939 0.880031
O O12 0.716365 0.796593 0.910408
O O13 0.716832 0.993733 0.891991
O O14 0.230193 0.360128 0.673486
O O15 0.226219 0.307412 0.581237
O O16 0.497591 0.708237 0.945227
O O17 0.720930 0.711128 0.998566
#
# Coordination Sequence:
#
# PCOD8163357 Si02
#       8
#     8   8   8   8   8   8   8   8
#     4  10  19  32  50  74 102 129 163 207 251 296
#     4  10  20  33  49  71 101 134 166 198 243 296
#     4  10  19  32  49  71  99 132 165 200 243 291
#     4   9  16  28  45  65  94 130 164 197 240 296
#     4   9  16  28  45  65  94 130 164 197 240 296
#     4   9  17  28  45  70  97 126 161 205 253 295
#     4  10  19  32  49  71  99 132 165 200 243 291
#     4   9  17  28  45  70  97 126 161 205 253 295
#
# _framework density 18.308302999999999
#
# number of rings (size 3 to 8) (size 9 to 14) (size 15 to 20)
#    0.000    2.500    1.250    1.875    0.000    5.000 
#    0.000    2.500    0.000    1.500    0.000    0.000 
#    0.000    0.000    0.000   10.500    0.000   10.000 
#
# Total GULP energy -396666.919188 kJ/mol
# GULP energy per Si atom -12395.841225 kJ/mol
# Density = 1.826663 g / cm^3
# Si number density = 18.308303 Si / 1000 Ang^3
#
#
#
# Elastic Constant Matrix: (Units=GPa)
#
#
# Indices 1 2 3 4 5 6 
#
# 1 26.5060 17.0329 21.0494 0.0000 0.0000 0.0000
# 2 17.0329 132.7631 57.4327 0.0000 0.0000 0.0000
# 3 21.0494 57.4327 127.4751 0.0000 0.0000 0.0000
# 4 0.0000 0.0000 0.0000 28.9405 0.0000 0.0000
# 5 0.0000 0.0000 0.0000 0.0000 17.5431 0.0000
# 6 0.0000 0.0000 0.0000 0.0000 0.0000 15.9440
#
#
#
# Elastic Compliance Matrix: (Units=1/GPa)
#
#
# Indices 1 2 3 4 5 6 
#
# 1 0.044450 -0.003139 -0.005925 0.000000 0.000000 0.000000
# 2 -0.003139 0.009577 -0.003797 0.000000 0.000000 0.000000
# 3 -0.005925 -0.003797 0.010534 0.000000 0.000000 0.000000
# 4 0.000000 0.000000 0.000000 0.034554 0.000000 0.000000
# 5 0.000000 0.000000 0.000000 0.000000 0.057002 0.000000
# 6 0.000000 0.000000 0.000000 0.000000 0.000000 0.062719
#
#
# Mechanical properties :
#
#
# Convention : Reuss Voigt Hill
#
# Bulk Modulus (GPa) = 25.74769 53.08601 39.41685
# Shear Modulus (GPa) = 19.41701 25.23413 22.32557
#
# Velocity S-wave (km/s) = 3.26015 3.71656 3.49581
# Velocity P-wave (km/s) = 5.31652 6.89026 6.15390
#
# Compressibility (1/GPa) = 0.03883843
#
# Stress axis : x y z
#
# Youngs Moduli (GPa) = 22.49698 104.41269 94.93404
#
# Poissons Ratio (x) = 0.32780 0.56253
# Poissons Ratio (y) = 0.07063 0.36043
# Poissons Ratio (z) = 0.13330 0.39641
#
# Static dielectric constant tensor:
#      x y z
#    x 2.821890 0.000000 0.000000 
#    y 0.000000 3.605060 0.000000 
#    z 0.000000 0.000000 3.417780 
# 
# 
# High freq. dielectric constant tensor:
#      x y z
#    x 1.641700 0.000000 0.000000 
#    y 0.000000 1.723410 0.000000 
#    z 0.000000 0.000000 1.713110 
# 
# From -- ./inp_files/18438.got.cif
#   From: 2010.03.12/outbox.cif.g09.slc.cpg/sg23_10_cif.got.tgz:18438.got - 2010.04.14 02:50:06.
