data_PCOD8163272
_publ_section_title
;
Structure prediction by ZEFSAII (Michael W. Deem and Ramdas Pophale) SiO2 
 PCOD8163272
Probable space group: I 2 2 2
;
_chemical_formula_sum "Si O2"
_cell_formula_units_Z 56
_cell_length_a 14.800096
_cell_length_b 21.243007
_cell_length_c 8.567600
_cell_angle_alpha 90.000000
_cell_angle_beta 90.000000
_cell_angle_gamma 90.000000
_cell_volume 2693.640956
_symmetry_space_group_name_H-M "I 2 2 2"
_symmetry_group_IT_number 23
_symmetry_cell_setting 'orthorhombic'
loop_
_space_group_symop_operation_xyz
x,y,z
-x,-y,z
x,-y,-z
-x,y,-z
1/2+x,1/2+y,1/2+z
1/2-x,1/2-y,1/2+z
1/2+x,1/2-y,1/2-z
1/2-x,1/2+y,1/2-z
loop_
_atom_site_type_symbol
_atom_site_label
_atom_site_fract_x
_atom_site_fract_y
_atom_site_fract_z
Si Si1 0.641734 0.743056 0.720662
Si Si2 0.600149 0.107998 0.797063
Si Si3 0.166223 0.272060 0.862888
Si Si4 0.028516 0.825888 0.172456
Si Si5 0.397897 0.877708 0.152682
Si Si6 0.085163 0.969970 0.172401
Si Si7 0.782856 0.508589 0.314739
O O1 0.731099 0.722534 0.809555
O O2 0.666261 0.750122 0.540418
O O3 0.565529 0.689621 0.763651
O O4 0.603481 0.809464 0.774428
O O5 0.618014 0.161307 0.667940
O O6 0.494626 0.090653 0.809919
O O7 0.659237 0.048037 0.740799
O O8 0.627830 0.130358 0.970439
O O9 0.109545 0.219121 0.767270
O O10 0.067220 0.895855 0.175157
O O11 0.000000 0.805316 0.000000
O O12 0.325786 0.924415 0.231510
O O13 0.180223 0.988925 0.251739
O O14 0.000000 0.000000 0.265513
O O15 0.086117 0.000000 0.000000
O O16 0.783966 0.500000 0.500000
#
# Coordination Sequence:
#
# PCOD8163272 Si02
#       7
#     8   8   8   8   8   8   8
#     4  11  23  38  60  84 122 161 199 253 308 366
#     4  10  20  35  59  89 119 155 203 247 302 366
#     4  11  23  38  58  85 121 158 206 248 304 367
#     4  10  20  36  56  84 118 154 192 244 300 360
#     4  10  19  37  58  86 122 157 197 248 309 355
#     4  10  18  30  52  82 113 145 193 242 296 343
#     4   9  19  32  56  86 120 158 196 252 298 355
#
# _framework density 20.789704
#
# number of rings (size 3 to 8) (size 9 to 14) (size 15 to 20)
#    0.000    1.857    2.857    2.143    2.000    4.000 
#    0.000    0.714    0.000    1.714    0.000    0.000 
#    0.000    0.000    0.000    0.000    0.000    0.000 
#
# Total GULP energy -346955.841285 kJ/mol
# GULP energy per Si atom -12391.280046 kJ/mol
# Density = 2.074239 g / cm^3
# Si number density = 20.789704 Si / 1000 Ang^3
#
#
#
# Elastic Constant Matrix: (Units=GPa)
#
#
# Indices 1 2 3 4 5 6 
#
# 1 143.8385 42.9746 8.9237 0.0000 0.0000 0.0000
# 2 42.9746 112.5387 2.6222 0.0000 0.0000 0.0000
# 3 8.9237 2.6222 23.5215 0.0000 0.0000 0.0000
# 4 0.0000 0.0000 0.0000 25.6420 0.0000 0.0000
# 5 0.0000 0.0000 0.0000 0.0000 16.2786 0.0000
# 6 0.0000 0.0000 0.0000 0.0000 0.0000 38.2969
#
#
#
# Elastic Compliance Matrix: (Units=1/GPa)
#
#
# Indices 1 2 3 4 5 6 
#
# 1 0.008016 -0.002998 -0.002707 0.000000 0.000000 0.000000
# 2 -0.002998 0.010030 0.000019 0.000000 0.000000 0.000000
# 3 -0.002707 0.000019 0.043539 0.000000 0.000000 0.000000
# 4 0.000000 0.000000 0.000000 0.038998 0.000000 0.000000
# 5 0.000000 0.000000 0.000000 0.000000 0.061430 0.000000
# 6 0.000000 0.000000 0.000000 0.000000 0.000000 0.026112
#
#
# Mechanical properties :
#
#
# Convention : Reuss Voigt Hill
#
# Bulk Modulus (GPa) = 19.91479 43.21555 31.56517
# Shear Modulus (GPa) = 23.12300 31.06872 27.09586
#
# Velocity S-wave (km/s) = 3.33863 3.86998 3.61408
# Velocity P-wave (km/s) = 4.94590 6.38757 5.71240
#
# Compressibility (1/GPa) = 0.05021393
#
# Stress axis : x y z
#
# Youngs Moduli (GPa) = 124.75268 99.69911 22.96785
#
# Poissons Ratio (x) = 0.29889 0.06217
# Poissons Ratio (y) = 0.37400 -0.00044
# Poissons Ratio (z) = 0.33769 -0.00191
#
# Static dielectric constant tensor:
#      x y z
#    x 4.442540 0.000000 0.000000 
#    y 0.000000 3.725840 0.000000 
#    z 0.000000 0.000000 3.274510 
# 
# 
# High freq. dielectric constant tensor:
#      x y z
#    x 1.843370 0.000000 0.000000 
#    y 0.000000 1.819260 0.000000 
#    z 0.000000 0.000000 1.751610 
# 
# From -- ./inp_files/10206.got.cif
#   From: 2010.03.12/outbox.cif.g09.slc.cpg/sg23_6_cif.got.tgz:10206.got - 2010.04.14 02:50:06.
