data_PCOD8163222
_publ_section_title
;
Structure prediction by ZEFSAII (Michael W. Deem and Ramdas Pophale) SiO2 
 PCOD8163222
Probable space group: I 2 2 2
;
_chemical_formula_sum "Si O2"
_cell_formula_units_Z 36
_cell_length_a 15.137138
_cell_length_b 13.533344
_cell_length_c 8.601669
_cell_angle_alpha 90.000000
_cell_angle_beta 90.000000
_cell_angle_gamma 90.000000
_cell_volume 1762.104328
_symmetry_space_group_name_H-M "I 2 2 2"
_symmetry_group_IT_number 23
_symmetry_cell_setting 'orthorhombic'
loop_
_space_group_symop_operation_xyz
x,y,z
-x,-y,z
x,-y,-z
-x,y,-z
1/2+x,1/2+y,1/2+z
1/2-x,1/2-y,1/2+z
1/2+x,1/2-y,1/2-z
1/2-x,1/2+y,1/2-z
loop_
_atom_site_type_symbol
_atom_site_label
_atom_site_fract_x
_atom_site_fract_y
_atom_site_fract_z
Si Si1 0.623636 0.938132 0.255731
Si Si2 0.500000 0.000000 0.000000
Si Si3 0.282209 0.675076 0.171032
Si Si4 0.000000 0.500000 0.000000
Si Si5 0.102608 0.006857 0.184085
Si Si6 0.250939 0.123310 0.687662
O O1 0.677391 0.038038 0.290968
O O2 0.691429 0.849131 0.238219
O O3 0.557262 0.923955 0.398680
O O4 0.564906 0.933169 0.101660
O O5 0.361407 0.609400 0.242228
O O6 0.294607 0.789992 0.208684
O O7 0.265150 0.653585 0.990265
O O8 0.155731 0.913454 0.252123
O O9 0.000000 0.000000 0.230851
O O10 0.115837 0.000000 0.000000
#
# Coordination Sequence:
#
# PCOD8163222 Si02
#       6
#     8   2   8   2   8   8
#     4  10  21  40  60  87 122 157 194 250 302 350
#     4  10  24  34  64  90 118 156 196 246 300 358
#     4  11  23  40  64  89 122 161 202 248 305 355
#     4  10  16  42  60  82 118 156 200 238 308 354
#     4  10  22  43  65  89 123 162 202 251 302 364
#     4  11  23  40  64  89 122 161 202 248 305 355
#
# _framework density 20.430118
#
# number of rings (size 3 to 8) (size 9 to 14) (size 15 to 20)
#    0.000    1.556    2.222    3.333    9.333    1.778 
#    8.000    0.000    0.000    0.000    0.000    0.000 
#    0.000    0.000    0.000    0.000    0.000    0.000 
#
# Total GULP energy -223101.161605 kJ/mol
# GULP energy per Si atom -12394.508978 kJ/mol
# Density = 2.038362 g / cm^3
# Si number density = 20.430118 Si / 1000 Ang^3
#
#
#
# Elastic Constant Matrix: (Units=GPa)
#
#
# Indices 1 2 3 4 5 6 
#
# 1 139.9001 28.7644 51.7334 0.0000 0.0000 0.0000
# 2 28.7644 89.5010 24.5161 0.0000 0.0000 0.0000
# 3 51.7334 24.5161 122.3319 0.0000 0.0000 0.0000
# 4 0.0000 0.0000 0.0000 26.4161 0.0000 0.0000
# 5 0.0000 0.0000 0.0000 0.0000 50.6891 0.0000
# 6 0.0000 0.0000 0.0000 0.0000 0.0000 13.8923
#
#
#
# Elastic Compliance Matrix: (Units=1/GPa)
#
#
# Indices 1 2 3 4 5 6 
#
# 1 0.008770 -0.001907 -0.003327 0.000000 0.000000 0.000000
# 2 -0.001907 0.012237 -0.001646 0.000000 0.000000 0.000000
# 3 -0.003327 -0.001646 0.009911 0.000000 0.000000 0.000000
# 4 0.000000 0.000000 0.000000 0.037856 0.000000 0.000000
# 5 0.000000 0.000000 0.000000 0.000000 0.019728 0.000000
# 6 0.000000 0.000000 0.000000 0.000000 0.000000 0.071982
#
#
# Mechanical properties :
#
#
# Convention : Reuss Voigt Hill
#
# Bulk Modulus (GPa) = 58.27937 62.41785 60.34861
# Shear Modulus (GPa) = 27.78340 34.64745 31.21542
#
# Velocity S-wave (km/s) = 3.69171 4.12260 3.91309
# Velocity P-wave (km/s) = 6.83811 7.29927 7.07245
#
# Compressibility (1/GPa) = 0.01715873
#
# Stress axis : x y z
#
# Youngs Moduli (GPa) = 114.02132 81.72023 100.89686
#
# Poissons Ratio (x) = 0.15587 0.33565
# Poissons Ratio (y) = 0.21749 0.16605
# Poissons Ratio (z) = 0.37931 0.13449
#
# Static dielectric constant tensor:
#      x y z
#    x 4.045470 0.000000 0.000000 
#    y 0.000000 3.648590 0.000000 
#    z 0.000000 0.000000 3.956890 
# 
# 
# High freq. dielectric constant tensor:
#      x y z
#    x 1.812900 0.000000 0.000000 
#    y 0.000000 1.774910 0.000000 
#    z 0.000000 0.000000 1.818810 
# 
# From -- ./inp_files/9504.got.cif
#   From: 2010.03.12/outbox.cif.g09.slc.cpg/sg23_5_cif.got.tgz:9504.got - 2010.04.14 02:50:06.
