data_PCOD8163892
_publ_section_title
;
Structure prediction by ZEFSAII (Michael W. Deem and Ramdas Pophale) SiO2 
 PCOD8163892
Probable space group: I 2 2 2
;
_chemical_formula_sum "Si O2"
_cell_formula_units_Z 48
_cell_length_a 9.416469
_cell_length_b 28.993525
_cell_length_c 8.959622
_cell_angle_alpha 90.000000
_cell_angle_beta 90.000000
_cell_angle_gamma 90.000000
_cell_volume 2446.125799
_symmetry_space_group_name_H-M "I 2 2 2"
_symmetry_group_IT_number 23
_symmetry_cell_setting 'orthorhombic'
loop_
_space_group_symop_operation_xyz
x,y,z
-x,-y,z
x,-y,-z
-x,y,-z
1/2+x,1/2+y,1/2+z
1/2-x,1/2-y,1/2+z
1/2+x,1/2-y,1/2-z
1/2-x,1/2+y,1/2-z
loop_
_atom_site_type_symbol
_atom_site_label
_atom_site_fract_x
_atom_site_fract_y
_atom_site_fract_z
Si Si1 0.677070 0.123720 0.651610
Si Si2 0.654272 0.548592 0.681354
Si Si3 0.162374 0.054323 0.830031
Si Si4 0.363857 0.286859 0.898692
Si Si5 0.133461 0.728157 0.891067
Si Si6 0.139095 0.372329 0.179576
O O1 0.738243 0.082176 0.742812
O O2 0.779493 0.167922 0.654504
O O3 0.524996 0.132851 0.729507
O O4 0.654078 0.105988 0.484163
O O5 0.658468 0.555221 0.506253
O O6 0.705676 0.496916 0.724702
O O7 0.495538 0.561771 0.736524
O O8 0.270053 0.094785 0.785660
O O9 0.407780 0.261976 0.743819
O O10 0.500000 0.299412 0.000000
O O11 0.260824 0.254062 0.000191
O O12 0.194939 0.680399 0.822134
O O13 0.000000 0.718123 0.000000
#
# Coordination Sequence:
#
# PCOD8163892 Si02
#       6
#     8   8   8   8   8   8
#     4  10  22  39  57  87 120 155 203 250 302 371
#     4   9  20  39  60  89 121 152 206 250 300 369
#     4   9  20  39  61  86 122 160 193 255 307 360
#     4  11  24  39  66  91 122 171 210 263 316 370
#     4  11  22  45  61  89 130 163 210 262 314 379
#     4  10  21  40  60  81 123 161 194 251 312 362
#
# _framework density 19.622865999999998
#
# number of rings (size 3 to 8) (size 9 to 14) (size 15 to 20)
#    0.000    2.000    3.333    2.000    4.667    3.333 
#    3.000    5.000    0.000    0.000    0.000    0.000 
#    0.000    0.000    0.000    0.000    0.000    0.000 
#
# Total GULP energy -297377.582305 kJ/mol
# GULP energy per Si atom -12390.732596 kJ/mol
# Density = 1.957820 g / cm^3
# Si number density = 19.622866 Si / 1000 Ang^3
#
#
#
# Elastic Constant Matrix: (Units=GPa)
#
#
# Indices 1 2 3 4 5 6 
#
# 1 99.0185 46.3258 30.2466 0.0021 -0.0034 -0.0014
# 2 46.3258 96.0797 41.6858 0.0097 -0.0006 0.0006
# 3 30.2466 41.6858 52.1370 -0.0504 -0.0166 -0.0143
# 4 0.0021 0.0097 -0.0504 38.5894 -0.0041 -0.0046
# 5 -0.0034 -0.0006 -0.0166 -0.0041 38.4865 0.0008
# 6 -0.0014 0.0006 -0.0143 -0.0046 0.0008 32.8627
#
#
#
# Elastic Compliance Matrix: (Units=1/GPa)
#
#
# Indices 1 2 3 4 5 6 
#
# 1 0.013576 -0.004791 -0.004046 -0.000005 -0.000001 -0.000001
# 2 -0.004791 0.017627 -0.011314 -0.000019 -0.000005 -0.000005
# 3 -0.004046 -0.011314 0.030574 0.000043 0.000013 0.000013
# 4 -0.000005 -0.000019 0.000043 0.025914 0.000003 0.000004
# 5 -0.000001 -0.000005 0.000013 0.000003 0.025983 -0.000001
# 6 -0.000001 -0.000005 0.000013 0.000004 -0.000001 0.030430
#
#
# Mechanical properties :
#
#
# Convention : Reuss Voigt Hill
#
# Bulk Modulus (GPa) = 46.56484 53.75019 50.15751
# Shear Modulus (GPa) = 26.10111 30.58619 28.34365
#
# Velocity S-wave (km/s) = 3.65106 3.95232 3.80467
# Velocity P-wave (km/s) = 6.44632 6.94830 6.70201
#
# Compressibility (1/GPa) = 0.02147543
#
# Stress axis : x y z
#
# Youngs Moduli (GPa) = 73.65809 56.73215 32.70799
#
# Poissons Ratio (x) = 0.27178 0.13233
# Poissons Ratio (y) = 0.35286 0.37006
# Poissons Ratio (z) = 0.29801 0.64188
#
# Static dielectric constant tensor:
#      x y z
#    x 3.847980 -0.000030 0.000010 
#    y -0.000030 3.451500 -0.000020 
#    z 0.000010 -0.000020 3.518170 
# 
# 
# High freq. dielectric constant tensor:
#      x y z
#    x 1.774500 0.000000 0.000000 
#    y 0.000000 1.755830 0.000000 
#    z 0.000000 0.000000 1.756690 
# 
# From -- ./inp_files/7353.got.cif
#   From: 2010.03.12/outbox.cif.g09.slc.cpg/sg23_4_cif.got.tgz:7353.got - 2010.04.14 02:50:06.
