data_PCOD8163236
_publ_section_title
;
Structure prediction by ZEFSAII (Michael W. Deem and Ramdas Pophale) SiO2 
 PCOD8163236
Probable space group: I 2 2 2
;
_chemical_formula_sum "Si O2"
_cell_formula_units_Z 56
_cell_length_a 9.002950
_cell_length_b 18.083865
_cell_length_c 17.563424
_cell_angle_alpha 90.000000
_cell_angle_beta 90.000000
_cell_angle_gamma 90.000000
_cell_volume 2859.468260
_symmetry_space_group_name_H-M "I 2 2 2"
_symmetry_group_IT_number 23
_symmetry_cell_setting 'orthorhombic'
loop_
_space_group_symop_operation_xyz
x,y,z
-x,-y,z
x,-y,-z
-x,y,-z
1/2+x,1/2+y,1/2+z
1/2-x,1/2-y,1/2+z
1/2+x,1/2-y,1/2-z
1/2-x,1/2+y,1/2-z
loop_
_atom_site_type_symbol
_atom_site_label
_atom_site_fract_x
_atom_site_fract_y
_atom_site_fract_z
Si Si1 0.825294 0.294376 0.494418
Si Si2 0.844654 0.651216 0.202404
Si Si3 0.889164 0.932191 0.412543
Si Si4 0.840296 0.819948 0.152482
Si Si5 0.180057 0.810080 0.151593
Si Si6 0.328468 0.366290 0.060836
Si Si7 0.183035 0.359058 0.798446
O O1 0.751537 0.338622 0.424041
O O2 0.757300 0.326047 0.571611
O O3 0.778598 0.209222 0.479721
O O4 0.000000 0.307328 0.500000
O O5 0.827373 0.735183 0.176266
O O6 0.758180 0.641841 0.282067
O O7 0.771840 0.606579 0.131930
O O8 0.010683 0.621821 0.213533
O O9 0.821104 0.933224 0.498699
O O10 0.756450 0.920383 0.353320
O O11 0.999529 0.859640 0.409953
O O12 0.000000 0.000000 0.393059
O O13 0.766992 0.868524 0.218750
O O14 0.012787 0.839613 0.144002
O O15 0.194467 0.723037 0.167772
#
# Coordination Sequence:
#
# PCOD8163236 Si02
#       7
#     8   8   8   8   8   8   8
#     4  11  17  27  46  72 104 139 167 205 256 320
#     4   9  19  29  50  70  97 134 169 218 270 321
#     4  11  21  34  52  69  94 137 188 226 260 308
#     4   9  19  28  46  71 102 136 171 207 261 334
#     4  10  17  30  45  72 103 134 173 204 261 333
#     4  10  18  33  47  69  94 133 174 217 266 301
#     4  10  18  33  46  70  98 130 175 225 266 312
#
# _framework density 19.584061999999999
#
# number of rings (size 3 to 8) (size 9 to 14) (size 15 to 20)
#    0.000    2.000    2.857    3.000    0.000    5.143 
#    0.000    0.714    0.000    3.429    0.000    0.000 
#    0.000   10.286    0.000   13.857    0.000    1.571 
#
# Total GULP energy -347000.604847 kJ/mol
# GULP energy per Si atom -12392.878745 kJ/mol
# Density = 1.953949 g / cm^3
# Si number density = 19.584062 Si / 1000 Ang^3
#
#
#
# Elastic Constant Matrix: (Units=GPa)
#
#
# Indices 1 2 3 4 5 6 
#
# 1 165.4979 18.4394 104.2687 0.0000 0.0000 0.0000
# 2 18.4394 24.2406 21.5076 0.0000 0.0000 0.0000
# 3 104.2687 21.5076 178.8649 0.0000 0.0000 0.0000
# 4 0.0000 0.0000 0.0000 6.2870 0.0000 0.0000
# 5 0.0000 0.0000 0.0000 0.0000 48.5286 0.0000
# 6 0.0000 0.0000 0.0000 0.0000 0.0000 18.8573
#
#
#
# Elastic Compliance Matrix: (Units=1/GPa)
#
#
# Indices 1 2 3 4 5 6 
#
# 1 0.009699 -0.002643 -0.005336 0.000000 0.000000 0.000000
# 2 -0.002643 0.046900 -0.004099 0.000000 0.000000 0.000000
# 3 -0.005336 -0.004099 0.009194 0.000000 0.000000 0.000000
# 4 0.000000 0.000000 0.000000 0.159059 0.000000 0.000000
# 5 0.000000 0.000000 0.000000 0.000000 0.020606 0.000000
# 6 0.000000 0.000000 0.000000 0.000000 0.000000 0.053030
#
#
# Mechanical properties :
#
#
# Convention : Reuss Voigt Hill
#
# Bulk Modulus (GPa) = 24.01679 73.00384 48.51032
# Shear Modulus (GPa) = 14.85779 29.69375 22.27577
#
# Velocity S-wave (km/s) = 2.75738 3.89809 3.37626
# Velocity P-wave (km/s) = 4.73578 7.59067 6.32637
#
# Compressibility (1/GPa) = 0.04163754
#
# Stress axis : x y z
#
# Youngs Moduli (GPa) = 103.10637 21.32179 108.76355
#
# Poissons Ratio (x) = 0.05636 0.58036
# Poissons Ratio (y) = 0.27254 0.44578
# Poissons Ratio (z) = 0.55018 0.08739
#
# Static dielectric constant tensor:
#      x y z
#    x 3.747620 0.000000 0.000000 
#    y 0.000000 2.945440 0.000000 
#    z 0.000000 0.000000 3.802300 
# 
# 
# High freq. dielectric constant tensor:
#      x y z
#    x 1.772430 0.000000 0.000000 
#    y 0.000000 1.687240 0.000000 
#    z 0.000000 0.000000 1.777280 
# 
# From -- ./inp_files/11370.got.cif
#   From: 2010.03.12/outbox.cif.g09.slc.cpg/sg23_6_cif.got.tgz:11370.got - 2010.04.14 02:50:06.
