data_PCOD8163230
_publ_section_title
;
Structure prediction by ZEFSAII (Michael W. Deem and Ramdas Pophale) SiO2 
 PCOD8163230
Probable space group: I 2 2 2
;
_chemical_formula_sum "Si O2"
_cell_formula_units_Z 48
_cell_length_a 28.971409
_cell_length_b 9.009145
_cell_length_c 8.762914
_cell_angle_alpha 90.000000
_cell_angle_beta 90.000000
_cell_angle_gamma 90.000000
_cell_volume 2287.187367
_symmetry_space_group_name_H-M "I 2 2 2"
_symmetry_group_IT_number 23
_symmetry_cell_setting 'orthorhombic'
loop_
_space_group_symop_operation_xyz
x,y,z
-x,-y,z
x,-y,-z
-x,y,-z
1/2+x,1/2+y,1/2+z
1/2-x,1/2-y,1/2+z
1/2+x,1/2-y,1/2-z
1/2-x,1/2+y,1/2-z
loop_
_atom_site_type_symbol
_atom_site_label
_atom_site_fract_x
_atom_site_fract_y
_atom_site_fract_z
Si Si1 0.094878 0.658047 0.312983
Si Si2 0.247105 0.172037 0.506587
Si Si3 0.084867 0.672910 0.674643
Si Si4 0.311956 0.309464 0.288686
Si Si5 0.005377 0.833849 0.318659
Si Si6 0.659278 0.595700 0.849457
O O1 0.091035 0.660852 0.494115
O O2 0.091133 0.489323 0.251553
O O3 0.143659 0.712272 0.251644
O O4 0.053109 0.763620 0.255727
O O5 0.291160 0.269163 0.454476
O O6 0.230525 0.224203 0.673004
O O7 0.202733 0.195672 0.397189
O O8 0.261815 0.000000 0.500000
O O9 0.035708 0.727756 0.737019
O O10 0.121699 0.796878 0.726300
O O11 0.326260 0.481389 0.283194
O O12 0.000000 0.840206 0.500000
O O13 0.000000 0.000000 0.251342
O O14 0.641864 0.500000 0.000000
#
# Coordination Sequence:
#
# PCOD8163230 Si02
#       6
#     8   8   8   8   8   8
#     4  10  18  28  45  72 104 145 179 226 283 331
#     4   9  20  36  53  80 107 143 188 238 277 334
#     4  10  17  27  44  70 108 139 182 224 279 344
#     4  10  19  36  56  73 108 148 188 227 283 337
#     4   9  17  25  42  67 102 147 179 215 274 348
#     4   9  17  32  48  68 102 141 180 221 276 330
#
# _framework density 20.986474000000001
#
# number of rings (size 3 to 8) (size 9 to 14) (size 15 to 20)
#    0.000    2.833    3.333    1.500    2.333    4.667 
#    0.000    0.000    0.000    0.000    0.000    0.000 
#    0.000    9.333    0.000   41.833    0.000    0.000 
#
# Total GULP energy -297387.202606 kJ/mol
# GULP energy per Si atom -12391.133442 kJ/mol
# Density = 2.093871 g / cm^3
# Si number density = 20.986474 Si / 1000 Ang^3
#
#
#
# Elastic Constant Matrix: (Units=GPa)
#
#
# Indices 1 2 3 4 5 6 
#
# 1 109.1568 69.5250 31.8098 0.0000 0.0000 0.0000
# 2 69.5250 128.1852 20.5099 0.0000 0.0000 0.0000
# 3 31.8098 20.5099 13.8596 0.0000 0.0000 0.0000
# 4 0.0000 0.0000 0.0000 16.1371 0.0000 0.0000
# 5 0.0000 0.0000 0.0000 0.0000 14.3393 0.0000
# 6 0.0000 0.0000 0.0000 0.0000 0.0000 35.9212
#
#
#
# Elastic Compliance Matrix: (Units=1/GPa)
#
#
# Indices 1 2 3 4 5 6 
#
# 1 0.032262 -0.007404 -0.063091 0.000000 0.000000 0.000000
# 2 -0.007404 0.011920 -0.000648 0.000000 0.000000 0.000000
# 3 -0.063091 -0.000648 0.217914 0.000000 0.000000 0.000000
# 4 0.000000 0.000000 0.000000 0.061969 0.000000 0.000000
# 5 0.000000 0.000000 0.000000 0.000000 0.069738 0.000000
# 6 0.000000 0.000000 0.000000 0.000000 0.000000 0.027839
#
#
# Mechanical properties :
#
#
# Convention : Reuss Voigt Hill
#
# Bulk Modulus (GPa) = 8.34638 54.98787 31.66712
# Shear Modulus (GPa) = 8.28000 21.90330 15.09165
#
# Velocity S-wave (km/s) = 1.98846 3.23412 2.68454
# Velocity P-wave (km/s) = 3.04263 6.34070 4.97303
#
# Compressibility (1/GPa) = 0.11981249
#
# Stress axis : x y z
#
# Youngs Moduli (GPa) = 30.99589 83.88928 4.58897
#
# Poissons Ratio (x) = 0.62110 0.28952
# Poissons Ratio (y) = 0.22949 0.00297
# Poissons Ratio (z) = 1.95555 0.05432
#
# Static dielectric constant tensor:
#      x y z
#    x 3.857370 0.000000 0.000000 
#    y 0.000000 4.024340 0.000000 
#    z 0.000000 0.000000 3.126390 
# 
# 
# High freq. dielectric constant tensor:
#      x y z
#    x 1.829390 0.000000 0.000000 
#    y 0.000000 1.831820 0.000000 
#    z 0.000000 0.000000 1.744990 
# 
# From -- ./inp_files/13349.got.cif
#   From: 2010.03.12/outbox.cif.g09.slc.cpg/sg23_7_cif.got.tgz:13349.got - 2010.04.14 02:50:06.
