data_PCOD8163766
_publ_section_title
;
Structure prediction by ZEFSAII (Michael W. Deem and Ramdas Pophale) SiO2 
 PCOD8163766
Probable space group: I 2 2 2
;
_chemical_formula_sum "Si O2"
_cell_formula_units_Z 36
_cell_length_a 14.645424
_cell_length_b 8.605916
_cell_length_c 13.950225
_cell_angle_alpha 90.000000
_cell_angle_beta 90.000000
_cell_angle_gamma 90.000000
_cell_volume 1758.248536
_symmetry_space_group_name_H-M "I 2 2 2"
_symmetry_group_IT_number 23
_symmetry_cell_setting 'orthorhombic'
loop_
_space_group_symop_operation_xyz
x,y,z
-x,-y,z
x,-y,-z
-x,y,-z
1/2+x,1/2+y,1/2+z
1/2-x,1/2-y,1/2+z
1/2+x,1/2-y,1/2-z
1/2-x,1/2+y,1/2-z
loop_
_atom_site_type_symbol
_atom_site_label
_atom_site_fract_x
_atom_site_fract_y
_atom_site_fract_z
Si Si1 0.064320 0.623832 0.625566
Si Si2 0.623607 0.248876 0.589079
Si Si3 0.000000 0.000000 0.000000
Si Si4 0.000000 0.500000 0.000000
Si Si5 0.881737 0.321717 0.300330
Si Si6 0.692011 0.683816 0.010501
O O1 0.133010 0.510732 0.687120
O O2 0.114054 0.741468 0.555566
O O3 0.000000 0.500000 0.566604
O O4 0.991371 0.718313 0.692530
O O5 0.563837 0.400779 0.570060
O O6 0.656319 0.238632 0.699086
O O7 0.710838 0.251883 0.520178
O O8 0.562589 0.098751 0.570291
O O9 0.823802 0.229906 0.379863
O O10 0.688156 0.500000 0.000000
#
# Coordination Sequence:
#
# PCOD8163766 Si02
#       6
#     8   8   2   2   8   8
#     4   8  21  42  68  92 128 177 208 268 333 396
#     4  11  24  46  65  95 131 174 226 272 333 394
#     4  10  28  42  72  86 132 190 216 286 324 410
#     4  10  20  50  64  82 136 170 216 270 336 378
#     4   9  22  42  66  94 127 177 214 264 335 401
#     4  12  24  39  65 106 134 164 219 286 327 394
#
# _framework density 20.474920000000001
#
# number of rings (size 3 to 8) (size 9 to 14) (size 15 to 20)
#    1.333    0.444    1.111    2.667    6.222    5.333 
#    8.000    0.000    0.000    0.000    0.000    0.000 
#    0.000    0.000    0.000    0.000    0.000    0.000 
#
# Total GULP energy -222993.162218 kJ/mol
# GULP energy per Si atom -12388.509012 kJ/mol
# Density = 2.042832 g / cm^3
# Si number density = 20.474920 Si / 1000 Ang^3
#
#
#
# Elastic Constant Matrix: (Units=GPa)
#
#
# Indices 1 2 3 4 5 6 
#
# 1 98.8373 50.0135 44.4627 0.0000 0.0000 0.0000
# 2 50.0135 110.7382 53.8426 0.0000 0.0000 0.0000
# 3 44.4627 53.8426 151.2595 0.0000 0.0000 0.0000
# 4 0.0000 0.0000 0.0000 18.1811 0.0000 0.0000
# 5 0.0000 0.0000 0.0000 0.0000 31.3536 0.0000
# 6 0.0000 0.0000 0.0000 0.0000 0.0000 63.5328
#
#
#
# Elastic Compliance Matrix: (Units=1/GPa)
#
#
# Indices 1 2 3 4 5 6 
#
# 1 0.013698 -0.005114 -0.002206 0.000000 0.000000 0.000000
# 2 -0.005114 0.012829 -0.003064 0.000000 0.000000 0.000000
# 3 -0.002206 -0.003064 0.008350 0.000000 0.000000 0.000000
# 4 0.000000 0.000000 0.000000 0.055002 0.000000 0.000000
# 5 0.000000 0.000000 0.000000 0.000000 0.031894 0.000000
# 6 0.000000 0.000000 0.000000 0.000000 0.000000 0.015740
#
#
# Mechanical properties :
#
#
# Convention : Reuss Voigt Hill
#
# Bulk Modulus (GPa) = 70.86996 73.05252 71.96124
# Shear Modulus (GPa) = 30.67785 36.78125 33.72955
#
# Velocity S-wave (km/s) = 3.87500 4.24300 4.06317
# Velocity P-wave (km/s) = 7.39656 7.73049 7.56537
#
# Compressibility (1/GPa) = 0.01411035
#
# Stress axis : x y z
#
# Youngs Moduli (GPa) = 73.00477 77.94581 119.75791
#
# Poissons Ratio (x) = 0.39859 0.26420
# Poissons Ratio (y) = 0.37333 0.36689
# Poissons Ratio (z) = 0.16106 0.23879
#
# Static dielectric constant tensor:
#      x y z
#    x 3.746020 0.000000 0.000000 
#    y 0.000000 3.686370 0.000000 
#    z 0.000000 0.000000 3.448280 
# 
# 
# High freq. dielectric constant tensor:
#      x y z
#    x 1.795910 0.000000 0.000000 
#    y 0.000000 1.794360 0.000000 
#    z 0.000000 0.000000 1.794080 
# 
# From -- ./inp_files/21321.got.cif
#   From: 2010.03.12/outbox.cif.g09.slc.cpg/sg23_11_cif.got.tgz:21321.got - 2010.04.14 02:50:06.
