data_PCOD8163908
_publ_section_title
;
Structure prediction by ZEFSAII (Michael W. Deem and Ramdas Pophale) SiO2 
 PCOD8163908
Probable space group: I 2 2 2
;
_chemical_formula_sum "Si O2"
_cell_formula_units_Z 48
_cell_length_a 8.521743
_cell_length_b 29.086157
_cell_length_c 8.953350
_cell_angle_alpha 90.000000
_cell_angle_beta 90.000000
_cell_angle_gamma 90.000000
_cell_volume 2219.219902
_symmetry_space_group_name_H-M "I 2 2 2"
_symmetry_group_IT_number 23
_symmetry_cell_setting 'orthorhombic'
loop_
_space_group_symop_operation_xyz
x,y,z
-x,-y,z
x,-y,-z
-x,y,-z
1/2+x,1/2+y,1/2+z
1/2-x,1/2-y,1/2+z
1/2+x,1/2-y,1/2-z
1/2-x,1/2+y,1/2-z
loop_
_atom_site_type_symbol
_atom_site_label
_atom_site_fract_x
_atom_site_fract_y
_atom_site_fract_z
Si Si1 0.318966 0.769796 0.004252
Si Si2 0.310670 0.308000 0.209809
Si Si3 0.896027 0.156388 0.856255
Si Si4 0.835860 0.596116 0.168285
Si Si5 0.206241 0.583042 0.167327
Si Si6 0.314917 0.993534 0.165081
O O1 0.290244 0.717518 0.948098
O O2 0.232927 0.807033 0.902745
O O3 0.500000 0.783212 0.000000
O O4 0.249294 0.771130 0.169490
O O5 0.492852 0.319451 0.234275
O O6 0.209069 0.353865 0.226761
O O7 0.808647 0.114563 0.776050
O O8 0.000000 0.140079 0.000000
O O9 0.766049 0.556916 0.276792
O O10 0.022372 0.593835 0.176888
O O11 0.753977 0.588885 0.007113
O O12 0.247769 0.531307 0.217912
O O13 0.500000 0.000000 0.155377
O O14 0.241114 0.000000 0.000000
#
# Coordination Sequence:
#
# PCOD8163908 Si02
#       6
#     8   8   8   8   8   8
#     4  11  24  43  65  89 125 173 215 268 320 381
#     4  11  25  42  65  95 130 167 217 267 326 386
#     4  10  24  42  64  96 131 172 218 271 328 390
#     4  10  22  39  66 100 127 174 219 267 327 384
#     4  10  21  40  66  94 136 169 218 267 321 393
#     4   9  19  36  65  99 131 165 215 270 320 382
#
# _framework density 21.629221000000001
#
# number of rings (size 3 to 8) (size 9 to 14) (size 15 to 20)
#    0.000    1.833    0.000    2.500    9.333    2.000 
#    6.000    0.833    0.000    2.000    0.000    0.000 
#    0.000    0.000    0.000    0.000    0.000    0.000 
#
# Total GULP energy -297572.781698 kJ/mol
# GULP energy per Si atom -12398.865904 kJ/mol
# Density = 2.157999 g / cm^3
# Si number density = 21.629221 Si / 1000 Ang^3
#
#
#
# Elastic Constant Matrix: (Units=GPa)
#
#
# Indices 1 2 3 4 5 6 
#
# 1 57.9637 43.3750 20.8750 -0.0009 -0.0001 0.0017
# 2 43.3750 155.0864 78.5460 -0.0054 0.0005 0.0038
# 3 20.8750 78.5460 124.6687 -0.0200 0.0039 0.0179
# 4 -0.0009 -0.0054 -0.0200 -0.8462 0.0024 0.0065
# 5 -0.0001 0.0005 0.0039 0.0024 27.7699 -0.0050
# 6 0.0017 0.0038 0.0179 0.0065 -0.0050 8.8141
#
#
#
# Elastic Compliance Matrix: (Units=1/GPa)
#
#
# Indices 1 2 3 4 5 6 
#
# 1 0.021825 -0.006246 0.000281 0.000010 0.000000 -0.000002
# 2 -0.006246 0.011258 -0.006047 0.000077 0.000001 0.000009
# 3 0.000281 -0.006047 0.011784 -0.000240 -0.000002 -0.000021
# 4 0.000010 0.000077 -0.000240 -1.181811 0.000101 0.000872
# 5 0.000000 0.000001 -0.000002 0.000101 0.036010 0.000020
# 6 -0.000002 0.000009 -0.000021 0.000872 0.000020 0.113454
#
#
# Mechanical properties :
#
#
# Convention : Reuss Voigt Hill
#
# Bulk Modulus (GPa) = 47.97941 69.25676 58.61808
# Shear Modulus (GPa) = -5.22735 20.14243 7.45754
#
# Velocity S-wave (km/s) = -1.55629 3.05497 1.85887
# Velocity P-wave (km/s) = 4.35906 6.67333 5.63625
#
# Compressibility (1/GPa) = 0.02084228
#
# Stress axis : x y z
#
# Youngs Moduli (GPa) = 45.81839 88.82963 84.86211
#
# Poissons Ratio (x) = 0.55487 -0.02385
# Poissons Ratio (y) = 0.28620 0.51314
# Poissons Ratio (z) = -0.01288 0.53713
#
# Static dielectric constant tensor:
#      x y z
#    x 3.765210 0.000000 0.000000 
#    y 0.000000 3.868420 0.000000 
#    z 0.000000 0.000000 4.155650 
# 
# 
# High freq. dielectric constant tensor:
#      x y z
#    x 1.832800 0.000000 0.000000 
#    y 0.000000 1.855120 0.000000 
#    z 0.000000 0.000000 1.861630 
# 
# From -- ./inp_files/7329.got.cif
#   From: 2010.03.12/outbox.cif.g09.slc.cpg/sg23_4_cif.got.tgz:7329.got - 2010.04.14 02:50:06.
