data_PCOD8163350
_publ_section_title
;
Structure prediction by ZEFSAII (Michael W. Deem and Ramdas Pophale) SiO2 
 PCOD8163350
Probable space group: I 2 2 2
;
_chemical_formula_sum "Si O2"
_cell_formula_units_Z 40
_cell_length_a 8.865660
_cell_length_b 8.776129
_cell_length_c 23.639264
_cell_angle_alpha 90.000000
_cell_angle_beta 90.000000
_cell_angle_gamma 90.000000
_cell_volume 1839.280731
_symmetry_space_group_name_H-M "I 2 2 2"
_symmetry_group_IT_number 23
_symmetry_cell_setting 'orthorhombic'
loop_
_space_group_symop_operation_xyz
x,y,z
-x,-y,z
x,-y,-z
-x,y,-z
1/2+x,1/2+y,1/2+z
1/2-x,1/2-y,1/2+z
1/2+x,1/2-y,1/2-z
1/2-x,1/2+y,1/2-z
loop_
_atom_site_type_symbol
_atom_site_label
_atom_site_fract_x
_atom_site_fract_y
_atom_site_fract_z
Si Si1 0.188602 0.697503 0.676977
Si Si2 0.180306 0.671946 0.939736
Si Si3 0.341750 0.811654 0.567235
Si Si4 0.899918 0.856670 0.650283
Si Si5 0.172723 0.478533 0.768952
O O1 0.246571 0.714372 0.612643
O O2 0.203085 0.527610 0.703155
O O3 0.010774 0.736835 0.680451
O O4 0.279642 0.805760 0.720227
O O5 0.177774 0.491687 0.926155
O O6 0.317217 0.732967 0.901322
O O7 0.015768 0.737428 0.924113
O O8 0.215610 0.722892 0.003855
O O9 0.771949 0.910395 0.692709
O O10 0.000000 0.000000 0.628097
O O11 0.000000 0.500000 0.787370
#
# Coordination Sequence:
#
# PCOD8163350 Si02
#       5
#     8   8   8   8   8
#     4  11  22  36  55  86 115 147 193 230 282 339
#     4   9  16  30  51  79 115 145 178 233 298 322
#     4   9  17  30  53  79 113 146 182 232 290 335
#     4  10  19  31  49  79 110 142 189 229 277 332
#     4  11  22  38  56  77 116 156 185 234 277 334
#
# _framework density 21.747633
#
# number of rings (size 3 to 8) (size 9 to 14) (size 15 to 20)
#    0.000    2.000    4.000    3.600    0.000    0.800 
#    0.000    2.000    0.000    0.000    0.000    9.800 
#    0.000   23.200    0.000    0.000    0.000    0.000 
#
# Total GULP energy -247844.084901 kJ/mol
# GULP energy per Si atom -12392.204245 kJ/mol
# Density = 2.169813 g / cm^3
# Si number density = 21.747633 Si / 1000 Ang^3
#
#
#
# Elastic Constant Matrix: (Units=GPa)
#
#
# Indices 1 2 3 4 5 6 
#
# 1 130.4470 6.2294 49.7617 0.0000 0.0000 0.0000
# 2 6.2294 15.3893 17.6851 0.0000 0.0000 0.0000
# 3 49.7617 17.6851 109.8869 0.0000 0.0000 0.0000
# 4 0.0000 0.0000 0.0000 21.4077 0.0000 0.0000
# 5 0.0000 0.0000 0.0000 0.0000 28.8503 0.0000
# 6 0.0000 0.0000 0.0000 0.0000 0.0000 8.5981
#
#
#
# Elastic Compliance Matrix: (Units=1/GPa)
#
#
# Indices 1 2 3 4 5 6 
#
# 1 0.009288 0.001318 -0.004418 0.000000 0.000000 0.000000
# 2 0.001318 0.079912 -0.013458 0.000000 0.000000 0.000000
# 3 -0.004418 -0.013458 0.013267 0.000000 0.000000 0.000000
# 4 0.000000 0.000000 0.000000 0.046712 0.000000 0.000000
# 5 0.000000 0.000000 0.000000 0.000000 0.034662 0.000000
# 6 0.000000 0.000000 0.000000 0.000000 0.000000 0.116304
#
#
# Mechanical properties :
#
#
# Convention : Reuss Voigt Hill
#
# Bulk Modulus (GPa) = 14.41942 44.78617 29.60279
# Shear Modulus (GPa) = 14.02997 23.90768 18.96882
#
# Velocity S-wave (km/s) = 2.54269 3.31920 2.95655
# Velocity P-wave (km/s) = 3.90706 5.94372 5.02955
#
# Compressibility (1/GPa) = 0.06935093
#
# Stress axis : x y z
#
# Youngs Moduli (GPa) = 107.66028 12.51371 75.37540
#
# Poissons Ratio (x) = -0.01649 0.33303
# Poissons Ratio (y) = -0.14184 1.01438
# Poissons Ratio (z) = 0.47567 0.16841
#
# Static dielectric constant tensor:
#      x y z
#    x 4.312590 0.000000 0.000000 
#    y 0.000000 3.399350 0.000000 
#    z 0.000000 0.000000 4.061540 
# 
# 
# High freq. dielectric constant tensor:
#      x y z
#    x 1.870540 0.000000 0.000000 
#    y 0.000000 1.792800 0.000000 
#    z 0.000000 0.000000 1.859870 
# 
# From -- ./inp_files/6894.got.cif
#   From: 2010.03.12/outbox.cif.g09.slc.cpg/sg23_4_cif.got.tgz:6894.got - 2010.04.14 02:50:06.
