data_PCOD8163893
_publ_section_title
;
Structure prediction by ZEFSAII (Michael W. Deem and Ramdas Pophale) SiO2 
 PCOD8163893
Probable space group: I 2 2 2
;
_chemical_formula_sum "Si O2"
_cell_formula_units_Z 64
_cell_length_a 8.597007
_cell_length_b 17.544582
_cell_length_c 19.935785
_cell_angle_alpha 90.000000
_cell_angle_beta 90.000000
_cell_angle_gamma 90.000000
_cell_volume 3006.932279
_symmetry_space_group_name_H-M "I 2 2 2"
_symmetry_group_IT_number 23
_symmetry_cell_setting 'orthorhombic'
loop_
_space_group_symop_operation_xyz
x,y,z
-x,-y,z
x,-y,-z
-x,y,-z
1/2+x,1/2+y,1/2+z
1/2-x,1/2-y,1/2+z
1/2+x,1/2-y,1/2-z
1/2-x,1/2+y,1/2-z
loop_
_atom_site_type_symbol
_atom_site_label
_atom_site_fract_x
_atom_site_fract_y
_atom_site_fract_z
Si Si1 0.672955 0.480371 0.122177
Si Si2 0.158496 0.329438 0.857744
Si Si3 0.610738 0.102083 0.434346
Si Si4 0.174208 0.665752 0.294043
Si Si5 0.661743 0.737646 0.080522
Si Si6 0.677788 0.212370 0.059902
Si Si7 0.830997 0.012183 0.775362
Si Si8 0.909953 0.573181 0.362029
O O1 0.500000 0.500000 0.093159
O O2 0.704326 0.389779 0.123916
O O3 0.812783 0.518816 0.078389
O O4 0.683547 0.511604 0.197695
O O5 0.158050 0.300517 0.780784
O O6 0.179346 0.253678 0.902453
O O7 0.993465 0.369690 0.872186
O O8 0.500000 0.102764 0.500000
O O9 0.762651 0.156383 0.437596
O O10 0.223536 0.730672 0.347790
O O11 0.302514 0.600499 0.290222
O O12 0.014210 0.628237 0.316989
O O13 0.473861 0.736469 0.079275
O O14 0.712091 0.792856 0.019352
O O15 0.662014 0.123683 0.078867
O O16 0.720754 0.954957 0.812839
O O17 0.000000 0.000000 0.804571
O O18 0.000000 0.500000 0.392741
#
# Coordination Sequence:
#
# PCOD8163893 Si02
#       8
#     8   8   8   8   8   8   8   8
#     4  10  22  40  62  86 122 166 214 261 314 383
#     4  11  22  38  60  92 123 156 210 267 320 385
#     4  12  24  41  61  90 127 168 215 269 336 383
#     4   9  20  37  60  85 118 160 205 259 322 382
#     4  10  22  41  58  83 120 163 206 258 315 386
#     4  10  21  40  62  85 122 165 209 259 313 388
#     4   9  18  35  58  91 122 155 201 263 320 380
#     4   9  18  36  61  89 121 162 209 260 322 384
#
# _framework density 21.28415
#
# number of rings (size 3 to 8) (size 9 to 14) (size 15 to 20)
#    0.000    2.000    1.250    1.875    0.000    7.000 
#    0.000   12.500    0.000    0.750    0.000    0.000 
#    0.000    0.000    0.000    0.000    0.000    0.000 
#
# Total GULP energy -396639.174171 kJ/mol
# GULP energy per Si atom -12394.974193 kJ/mol
# Density = 2.123571 g / cm^3
# Si number density = 21.284150 Si / 1000 Ang^3
#
#
#
# Elastic Constant Matrix: (Units=GPa)
#
#
# Indices 1 2 3 4 5 6 
#
# 1 52.9195 13.5278 13.3144 0.0000 0.0000 0.0000
# 2 13.5278 81.3084 38.4720 0.0000 0.0000 0.0000
# 3 13.3144 38.4720 119.5558 0.0000 0.0000 0.0000
# 4 0.0000 0.0000 0.0000 31.0862 0.0000 0.0000
# 5 0.0000 0.0000 0.0000 0.0000 16.0929 0.0000
# 6 0.0000 0.0000 0.0000 0.0000 0.0000 26.6723
#
#
#
# Elastic Compliance Matrix: (Units=1/GPa)
#
#
# Indices 1 2 3 4 5 6 
#
# 1 0.019921 -0.002671 -0.001359 0.000000 0.000000 0.000000
# 2 -0.002671 0.014866 -0.004486 0.000000 0.000000 0.000000
# 3 -0.001359 -0.004486 0.009959 0.000000 0.000000 0.000000
# 4 0.000000 0.000000 0.000000 0.032169 0.000000 0.000000
# 5 0.000000 0.000000 0.000000 0.000000 0.062139 0.000000
# 6 0.000000 0.000000 0.000000 0.000000 0.000000 0.037492
#
#
# Mechanical properties :
#
#
# Convention : Reuss Voigt Hill
#
# Bulk Modulus (GPa) = 36.08351 42.71245 39.39798
# Shear Modulus (GPa) = 24.65268 27.33492 25.99380
#
# Velocity S-wave (km/s) = 3.40702 3.58758 3.49847
# Velocity P-wave (km/s) = 5.69799 6.10510 5.90506
#
# Compressibility (1/GPa) = 0.02771349
#
# Stress axis : x y z
#
# Youngs Moduli (GPa) = 50.19721 67.26741 100.40901
#
# Poissons Ratio (x) = 0.17970 0.13645
# Poissons Ratio (y) = 0.13410 0.45046
# Poissons Ratio (z) = 0.06821 0.30178
#
# Static dielectric constant tensor:
#      x y z
#    x 3.880520 0.000000 0.000000 
#    y 0.000000 3.806680 0.000000 
#    z 0.000000 0.000000 3.951370 
# 
# 
# High freq. dielectric constant tensor:
#      x y z
#    x 1.830490 0.000000 0.000000 
#    y 0.000000 1.825100 0.000000 
#    z 0.000000 0.000000 1.833540 
# 
# From -- ./inp_files/26363.got.cif
#   From: 2010.03.12/outbox.cif.g09.slc.cpg/sg23_14_cif.got.tgz:26363.got - 2010.04.14 02:50:06.
