data_PCOD8163126
_publ_section_title
;
Structure prediction by ZEFSAII (Michael W. Deem and Ramdas Pophale) SiO2 
 PCOD8163126
Probable space group: F 2 2 2
;
_chemical_formula_sum "Si O2"
_cell_formula_units_Z 100
_cell_length_a 27.889029
_cell_length_b 15.046728
_cell_length_c 11.334765
_cell_angle_alpha 90.000000
_cell_angle_beta 90.000000
_cell_angle_gamma 90.000000
_cell_volume 4756.505296
_symmetry_space_group_name_H-M "F 2 2 2"
_symmetry_group_IT_number 22
_symmetry_cell_setting 'orthorhombic'
loop_
_space_group_symop_operation_xyz
x,y,z
-x,-y,z
x,-y,-z
-x,y,-z
x,1/2+y,1/2+z
-x,1/2-y,1/2+z
x,1/2-y,1/2-z
-x,1/2+y,1/2-z
1/2+x,y,1/2+z
1/2-x,-y,1/2+z
1/2+x,-y,1/2-z
1/2-x,y,1/2-z
1/2+x,1/2+y,z
1/2-x,1/2-y,z
1/2+x,1/2-y,-z
1/2-x,1/2+y,-z
loop_
_atom_site_type_symbol
_atom_site_label
_atom_site_fract_x
_atom_site_fract_y
_atom_site_fract_z
Si Si1 0.443957 0.602655 0.477967
Si Si2 0.250000 0.250000 0.250000
Si Si3 0.393141 0.649443 0.241126
Si Si4 0.298204 0.556040 0.172708
Si Si5 0.944948 0.403682 0.491587
Si Si6 0.897577 0.739729 0.385165
Si Si7 0.307789 0.633134 0.929735
O O1 0.432084 0.500000 0.500000
O O2 0.500000 0.623782 0.500000
O O3 0.429072 0.621426 0.344753
O O4 0.411901 0.664351 0.563713
O O5 0.277355 0.312926 0.162168
O O6 0.376426 0.750000 0.250000
O O7 0.343435 0.594744 0.244372
O O8 0.426057 0.641546 0.126242
O O9 0.250000 0.549773 0.250000
O O10 0.317863 0.460541 0.132489
O O11 0.284270 0.615935 0.058194
O O12 0.918173 0.500000 0.500000
O O13 0.938639 0.334752 0.600584
O O14 0.000000 0.424495 0.500000
O O15 0.882673 0.750000 0.250000
O O16 0.854448 0.692750 0.457160
#
# Coordination Sequence:
#
# PCOD8163126 Si02
#       7
#    16   4  16  16  16  16  16
#     4  11  28  46  66 103 147 193 235 289 356 425
#     4  12  24  44  70 104 138 180 224 282 356 428
#     4  12  25  45  71 101 142 182 241 299 344 425
#     4  11  25  47  74 102 141 186 233 296 360 417
#     4  11  25  42  71 104 135 185 234 287 354 419
#     4  12  25  43  71 101 140 184 226 292 352 416
#     4  11  24  46  71 105 141 174 232 293 353 429
#
# _framework density 21.02384
#
# number of rings (size 3 to 8) (size 9 to 14) (size 15 to 20)
#    0.000    0.640    4.800    1.440    6.720    4.160 
#    2.880    0.000    0.000    0.000    0.000    0.000 
#    0.000    0.000    0.000    0.000    0.000    0.000 
#
# Total GULP energy -309818.748611 kJ/mol
# GULP energy per Si atom -12392.749944 kJ/mol
# Density = 2.097599 g / cm^3
# Si number density = 21.023840 Si / 1000 Ang^3
#
#
#
# Elastic Constant Matrix: (Units=GPa)
#
#
# Indices 1 2 3 4 5 6 
#
# 1 120.1757 50.4185 46.9996 0.0000 0.0000 0.0000
# 2 50.4185 156.1929 46.7226 0.0000 0.0000 0.0000
# 3 46.9996 46.7226 111.3049 0.0000 0.0000 0.0000
# 4 0.0000 0.0000 0.0000 179.4659 0.0000 0.0000
# 5 0.0000 0.0000 0.0000 0.0000 -58.4910 0.0000
# 6 0.0000 0.0000 0.0000 0.0000 0.0000 40.0911
#
#
#
# Elastic Compliance Matrix: (Units=1/GPa)
#
#
# Indices 1 2 3 4 5 6 
#
# 1 0.010703 -0.002405 -0.003510 0.000000 0.000000 0.000000
# 2 -0.002405 0.007862 -0.002285 0.000000 0.000000 0.000000
# 3 -0.003510 -0.002285 0.011425 0.000000 0.000000 0.000000
# 4 0.000000 0.000000 0.000000 0.005572 0.000000 0.000000
# 5 0.000000 0.000000 0.000000 0.000000 -0.017097 0.000000
# 6 0.000000 0.000000 0.000000 0.000000 0.000000 0.024943
#
#
# Mechanical properties :
#
#
# Convention : Reuss Voigt Hill
#
# Bulk Modulus (GPa) = 73.57659 75.10612 74.34136
# Shear Modulus (GPa) = 77.71400 48.44872 63.08136
#
# Velocity S-wave (km/s) = 6.08646 4.80569 5.48360
# Velocity P-wave (km/s) = 9.19054 8.16056 8.69082
#
# Compressibility (1/GPa) = 0.01359128
#
# Stress axis : x y z
#
# Youngs Moduli (GPa) = 93.43379 127.19260 87.52363
#
# Poissons Ratio (x) = 0.30589 0.30719
# Poissons Ratio (y) = 0.22470 0.19997
# Poissons Ratio (z) = 0.32794 0.29061
#
# Static dielectric constant tensor:
#      x y z
#    x 3.792640 0.000000 0.000000 
#    y 0.000000 3.975940 0.000000 
#    z 0.000000 0.000000 3.898470 
# 
# 
# High freq. dielectric constant tensor:
#      x y z
#    x 1.820850 0.000000 0.000000 
#    y 0.000000 1.851130 0.000000 
#    z 0.000000 0.000000 1.829240 
# 
# From -- ./inp_files/25363.got.cif
#   From: 2010.03.12/outbox.cif.g09.slc.cpg/sg22_13_cif.got.tgz:25363.got - 2010.04.14 02:24:06.
