data_PCOD8163703
_publ_section_title
;
Structure prediction by ZEFSAII (Michael W. Deem and Ramdas Pophale) SiO2 
 PCOD8163703
Probable space group: I 2 2 2
;
_chemical_formula_sum "Si O2"
_cell_formula_units_Z 48
_cell_length_a 14.734170
_cell_length_b 8.912780
_cell_length_c 16.515586
_cell_angle_alpha 90.000000
_cell_angle_beta 90.000000
_cell_angle_gamma 90.000000
_cell_volume 2168.866650
_symmetry_space_group_name_H-M "I 2 2 2"
_symmetry_group_IT_number 23
_symmetry_cell_setting 'orthorhombic'
loop_
_space_group_symop_operation_xyz
x,y,z
-x,-y,z
x,-y,-z
-x,y,-z
1/2+x,1/2+y,1/2+z
1/2-x,1/2-y,1/2+z
1/2+x,1/2-y,1/2-z
1/2-x,1/2+y,1/2-z
loop_
_atom_site_type_symbol
_atom_site_label
_atom_site_fract_x
_atom_site_fract_y
_atom_site_fract_z
Si Si1 0.927014 0.888615 0.295107
Si Si2 0.584886 0.593850 0.606468
Si Si3 0.756644 0.583075 0.362623
Si Si4 0.946979 0.350825 0.578490
Si Si5 0.901511 0.432131 0.918847
Si Si6 0.272882 0.088894 0.296527
O O1 0.931899 0.864538 0.199794
O O2 0.955262 0.736321 0.338138
O O3 0.829727 0.952430 0.321579
O O4 0.000000 0.000000 0.329787
O O5 0.500000 0.500000 0.571609
O O6 0.672331 0.489727 0.589603
O O7 0.594981 0.754343 0.564107
O O8 0.837215 0.618168 0.428232
O O9 0.718179 0.732036 0.315056
O O10 0.789705 0.457050 0.297310
O O11 0.000000 0.500000 0.595812
O O12 0.000000 0.276875 0.500000
O O13 0.838392 0.480006 0.845391
O O14 0.000000 0.500000 0.902157
O O15 0.858282 0.500000 0.000000
#
# Coordination Sequence:
#
# PCOD8163703 Si02
#       6
#     8   8   8   8   8   8
#     4   9  20  38  63  94 125 162 221 273 319 382
#     4  10  21  41  70  99 122 165 223 281 334 390
#     4  10  21  39  66  96 127 168 227 282 328 394
#     4  10  22  39  54  86 133 176 216 256 326 402
#     4  11  24  42  60  91 130 166 212 269 337 406
#     4  10  20  39  62  94 126 167 224 278 331 385
#
# _framework density 22.131374999999998
#
# number of rings (size 3 to 8) (size 9 to 14) (size 15 to 20)
#    0.000    2.000    0.000    4.000    0.000    8.333 
#   18.000    5.000    0.000    0.000    0.000    0.000 
#    0.000    0.000    0.000    0.000    0.000    0.000 
#
# Total GULP energy -297332.764097 kJ/mol
# GULP energy per Si atom -12388.865171 kJ/mol
# Density = 2.208100 g / cm^3
# Si number density = 22.131375 Si / 1000 Ang^3
#
#
#
# Elastic Constant Matrix: (Units=GPa)
#
#
# Indices 1 2 3 4 5 6 
#
# 1 105.8245 35.2389 27.6885 0.0000 0.0000 0.0000
# 2 35.2389 119.1827 15.0006 0.0000 0.0000 0.0000
# 3 27.6885 15.0006 64.5391 0.0000 0.0000 0.0000
# 4 0.0000 0.0000 0.0000 27.4410 0.0000 0.0000
# 5 0.0000 0.0000 0.0000 0.0000 18.4824 0.0000
# 6 0.0000 0.0000 0.0000 0.0000 0.0000 41.1052
#
#
#
# Elastic Compliance Matrix: (Units=1/GPa)
#
#
# Indices 1 2 3 4 5 6 
#
# 1 0.011524 -0.002869 -0.004277 0.000000 0.000000 0.000000
# 2 -0.002869 0.009358 -0.000944 0.000000 0.000000 0.000000
# 3 -0.004277 -0.000944 0.017549 0.000000 0.000000 0.000000
# 4 0.000000 0.000000 0.000000 0.036442 0.000000 0.000000
# 5 0.000000 0.000000 0.000000 0.000000 0.054106 0.000000
# 6 0.000000 0.000000 0.000000 0.000000 0.000000 0.024328
#
#
# Mechanical properties :
#
#
# Convention : Reuss Voigt Hill
#
# Bulk Modulus (GPa) = 44.94387 49.48913 47.21650
# Shear Modulus (GPa) = 28.26405 31.51360 29.88883
#
# Velocity S-wave (km/s) = 3.57754 3.77760 3.67893
# Velocity P-wave (km/s) = 6.11693 6.43716 6.27909
#
# Compressibility (1/GPa) = 0.02224997
#
# Stress axis : x y z
#
# Youngs Moduli (GPa) = 86.77484 106.86515 56.98353
#
# Poissons Ratio (x) = 0.30660 0.24373
# Poissons Ratio (y) = 0.24896 0.05380
# Poissons Ratio (z) = 0.37115 0.10089
#
# Static dielectric constant tensor:
#      x y z
#    x 5.462270 0.000000 0.000000 
#    y 0.000000 4.131250 0.000000 
#    z 0.000000 0.000000 4.064010 
# 
# 
# High freq. dielectric constant tensor:
#      x y z
#    x 1.881180 0.000000 0.000000 
#    y 0.000000 1.875370 0.000000 
#    z 0.000000 0.000000 1.859890 
# 
# From -- ./inp_files/24730.got.cif
#   From: 2010.03.12/outbox.cif.g09.slc.cpg/sg23_13_cif.got.tgz:24730.got - 2010.04.14 02:50:06.
