data_PCOD8163180
_publ_section_title
;
Structure prediction by ZEFSAII (Michael W. Deem and Ramdas Pophale) SiO2 
 PCOD8163180
Probable space group: F 2 2 2
;
_chemical_formula_sum "Si O2"
_cell_formula_units_Z 52
_cell_length_a 8.818349
_cell_length_b 11.861299
_cell_length_c 20.902763
_cell_angle_alpha 90.000000
_cell_angle_beta 90.000000
_cell_angle_gamma 90.000000
_cell_volume 2186.367852
_symmetry_space_group_name_H-M "F 2 2 2"
_symmetry_group_IT_number 22
_symmetry_cell_setting 'orthorhombic'
loop_
_space_group_symop_operation_xyz
x,y,z
-x,-y,z
x,-y,-z
-x,y,-z
x,1/2+y,1/2+z
-x,1/2-y,1/2+z
x,1/2-y,1/2-z
-x,1/2+y,1/2-z
1/2+x,y,1/2+z
1/2-x,-y,1/2+z
1/2+x,-y,1/2-z
1/2-x,y,1/2-z
1/2+x,1/2+y,z
1/2-x,1/2-y,z
1/2+x,1/2-y,-z
1/2-x,1/2+y,-z
loop_
_atom_site_type_symbol
_atom_site_label
_atom_site_fract_x
_atom_site_fract_y
_atom_site_fract_z
Si Si1 0.253891 0.616749 0.583793
Si Si2 0.669663 0.544161 0.684487
Si Si3 0.250000 0.750000 0.092451
Si Si4 0.500000 0.349805 0.000000
Si Si5 0.500000 0.000000 0.000000
O O1 0.250000 0.750000 0.591786
O O2 0.242525 0.561403 0.653456
O O3 0.403528 0.579458 0.546270
O O4 0.107092 0.573678 0.544696
O O5 0.500000 0.500000 0.696964
O O6 0.750000 0.578955 0.750000
O O7 0.685314 0.648939 0.636047
O O8 0.390469 0.722891 0.046245
#
# Coordination Sequence:
#
# PCOD8163180 Si02
#       5
#    16  16   8   8   4
#     4  12  26  47  80 120 157 209 263 337 415 485
#     4  12  30  54  79 113 165 221 278 332 393 487
#     4  12  29  54  86 122 165 208 276 344 416 498
#     4  12  27  45  84 126 158 201 265 340 426 486
#     4  12  26  50  78 118 172 196 260 352 422 486
#
# _framework density 23.783739000000001
#
# number of rings (size 3 to 8) (size 9 to 14) (size 15 to 20)
#    0.000    0.000    3.077    5.077    4.308    4.923 
#    5.538    0.000    0.000    0.000    0.000    0.000 
#    0.000    0.000    0.000    0.000    0.000    0.000 
#
# Total GULP energy -161157.817560 kJ/mol
# GULP energy per Si atom -12396.755197 kJ/mol
# Density = 2.372961 g / cm^3
# Si number density = 23.783739 Si / 1000 Ang^3
#
#
#
# Elastic Constant Matrix: (Units=GPa)
#
#
# Indices 1 2 3 4 5 6 
#
# 1 176.4889 49.4248 77.4128 0.0000 0.0000 0.0000
# 2 49.4248 129.2191 47.9747 0.0000 0.0000 0.0000
# 3 77.4128 47.9747 166.7396 0.0000 0.0000 0.0000
# 4 0.0000 0.0000 0.0000 31.2513 0.0000 0.0000
# 5 0.0000 0.0000 0.0000 0.0000 51.8002 0.0000
# 6 0.0000 0.0000 0.0000 0.0000 0.0000 42.0073
#
#
#
# Elastic Compliance Matrix: (Units=1/GPa)
#
#
# Indices 1 2 3 4 5 6 
#
# 1 0.007454 -0.001753 -0.002956 0.000000 0.000000 0.000000
# 2 -0.001753 0.009077 -0.001798 0.000000 0.000000 0.000000
# 3 -0.002956 -0.001798 0.007887 0.000000 0.000000 0.000000
# 4 0.000000 0.000000 0.000000 0.031999 0.000000 0.000000
# 5 0.000000 0.000000 0.000000 0.000000 0.019305 0.000000
# 6 0.000000 0.000000 0.000000 0.000000 0.000000 0.023805
#
#
# Mechanical properties :
#
#
# Convention : Reuss Voigt Hill
#
# Bulk Modulus (GPa) = 87.69276 91.34134 89.51705
# Shear Modulus (GPa) = 42.97684 44.85414 43.91549
#
# Velocity S-wave (km/s) = 4.25548 4.34742 4.30170
# Velocity P-wave (km/s) = 7.81642 7.98051 7.89889
#
# Compressibility (1/GPa) = 0.01140345
#
# Stress axis : x y z
#
# Youngs Moduli (GPa) = 134.16090 110.17055 126.79129
#
# Poissons Ratio (x) = 0.19318 0.37480
# Poissons Ratio (y) = 0.23525 0.22791
# Poissons Ratio (z) = 0.39659 0.19803
#
# Static dielectric constant tensor:
#      x y z
#    x 4.977600 0.000000 0.000000 
#    y 0.000000 4.327900 0.000000 
#    z 0.000000 0.000000 4.596090 
# 
# 
# High freq. dielectric constant tensor:
#      x y z
#    x 1.966840 0.000000 0.000000 
#    y 0.000000 1.959130 0.000000 
#    z 0.000000 0.000000 1.943770 
# 
# From -- ./inp_files/31143.got.cif
#   From: 2010.03.12/outbox.cif.g09.slc.cpg/sg22_16_cif.got.tgz:31143.got - 2010.04.14 02:24:06.
