data_PCOD8163963
_publ_section_title
;
Structure prediction by ZEFSAII (Michael W. Deem and Ramdas Pophale) SiO2 
 PCOD8163963
Probable space group: I 2 2 2
;
_chemical_formula_sum "Si O2"
_cell_formula_units_Z 44
_cell_length_a 8.343227
_cell_length_b 27.196751
_cell_length_c 9.116663
_cell_angle_alpha 90.000000
_cell_angle_beta 90.000000
_cell_angle_gamma 90.000000
_cell_volume 2068.649851
_symmetry_space_group_name_H-M "I 2 2 2"
_symmetry_group_IT_number 23
_symmetry_cell_setting 'orthorhombic'
loop_
_space_group_symop_operation_xyz
x,y,z
-x,-y,z
x,-y,-z
-x,y,-z
1/2+x,1/2+y,1/2+z
1/2-x,1/2-y,1/2+z
1/2+x,1/2-y,1/2-z
1/2-x,1/2+y,1/2-z
loop_
_atom_site_type_symbol
_atom_site_label
_atom_site_fract_x
_atom_site_fract_y
_atom_site_fract_z
Si Si1 0.994120 0.736356 0.325958
Si Si2 0.000000 0.581108 0.500000
Si Si3 0.756409 0.500000 0.500000
Si Si4 0.682203 0.318047 0.328283
Si Si5 0.230708 0.651866 0.647483
Si Si6 0.010226 0.893940 0.665289
Si Si7 0.000000 0.000000 0.764694
O O1 0.971087 0.784856 0.224759
O O2 0.844030 0.701336 0.284326
O O3 0.000000 0.748906 0.500000
O O4 0.157174 0.709529 0.279183
O O5 0.860354 0.545647 0.561256
O O6 0.923168 0.616525 0.378305
O O7 0.648568 0.517261 0.364654
O O8 0.676891 0.332715 0.498487
O O9 0.665661 0.369226 0.240338
O O10 0.349166 0.623671 0.754308
O O11 0.000000 0.875597 0.500000
O O12 0.037654 0.952620 0.666515
#
# Coordination Sequence:
#
# PCOD8163963 Si02
#       7
#     8   4   4   8   8   8   4
#     4  10  22  40  65  96 132 170 220 279 343 401
#     4  11  18  40  66 104 130 168 218 289 330 394
#     4  10  22  34  72 104 128 160 228 280 336 400
#     4  11  22  40  66  95 128 173 225 277 333 404
#     4  11  22  43  69  96 132 174 225 282 336 405
#     4  12  26  43  63  94 136 175 221 274 336 406
#     4  11  23  40  66  98 128 174 216 272 340 412
#
# _framework density 21.269912000000001
#
# number of rings (size 3 to 8) (size 9 to 14) (size 15 to 20)
#    0.000    1.091    4.545    3.545    2.545    2.909 
#    0.000    4.545    0.000    0.000    0.000    0.000 
#    0.000    0.000    0.000    0.000    0.000    0.000 
#
# Total GULP energy -272740.867459 kJ/mol
# GULP energy per Si atom -12397.312157 kJ/mol
# Density = 2.122150 g / cm^3
# Si number density = 21.269912 Si / 1000 Ang^3
#
#
#
# Elastic Constant Matrix: (Units=GPa)
#
#
# Indices 1 2 3 4 5 6 
#
# 1 93.4976 34.2141 40.6521 -0.0017 0.0005 -0.0003
# 2 34.2141 129.8594 40.9220 -0.0010 -0.0002 -0.0004
# 3 40.6521 40.9220 96.0000 -0.0136 -0.0034 -0.0004
# 4 -0.0017 -0.0010 -0.0136 28.6933 -0.0007 -0.0005
# 5 0.0005 -0.0002 -0.0034 -0.0007 26.6316 -0.0015
# 6 -0.0003 -0.0004 -0.0004 -0.0005 -0.0015 46.3649
#
#
#
# Elastic Compliance Matrix: (Units=1/GPa)
#
#
# Indices 1 2 3 4 5 6 
#
# 1 0.013560 -0.002037 -0.004874 -0.000002 -0.000001 0.000000
# 2 -0.002037 0.009201 -0.003060 -0.000001 0.000000 0.000000
# 3 -0.004874 -0.003060 0.013785 0.000006 0.000002 0.000000
# 4 -0.000002 -0.000001 0.000006 0.034851 0.000001 0.000000
# 5 -0.000001 0.000000 0.000002 0.000001 0.037549 0.000001
# 6 0.000000 0.000000 0.000000 0.000000 0.000001 0.021568
#
#
# Mechanical properties :
#
#
# Convention : Reuss Voigt Hill
#
# Bulk Modulus (GPa) = 60.22158 61.21484 60.71821
# Shear Modulus (GPa) = 32.05313 33.90923 32.98118
#
# Velocity S-wave (km/s) = 3.88618 3.99712 3.94204
# Velocity P-wave (km/s) = 6.96499 7.08132 7.02340
#
# Compressibility (1/GPa) = 0.01660534
#
# Stress axis : x y z
#
# Youngs Moduli (GPa) = 73.74686 108.67800 72.54328
#
# Poissons Ratio (x) = 0.22135 0.35357
# Poissons Ratio (y) = 0.15020 0.22197
# Poissons Ratio (z) = 0.35943 0.33254
#
# Static dielectric constant tensor:
#      x y z
#    x 3.979120 0.000000 -0.000010 
#    y 0.000000 4.167260 0.000000 
#    z -0.000010 0.000000 3.460890 
# 
# 
# High freq. dielectric constant tensor:
#      x y z
#    x 1.845090 0.000000 0.000000 
#    y 0.000000 1.860980 0.000000 
#    z 0.000000 0.000000 1.796660 
# 
# From -- ./inp_files/7286.got.cif
#   From: 2010.03.12/outbox.cif.g09.slc.cpg/sg23_4_cif.got.tgz:7286.got - 2010.04.14 02:50:06.
