data_PCOD8163843
_publ_section_title
;
Structure prediction by ZEFSAII (Michael W. Deem and Ramdas Pophale) SiO2 
 PCOD8163843
Probable space group: I 2 2 2
;
_chemical_formula_sum "Si O2"
_cell_formula_units_Z 48
_cell_length_a 9.253089
_cell_length_b 27.890672
_cell_length_c 9.042305
_cell_angle_alpha 90.000000
_cell_angle_beta 90.000000
_cell_angle_gamma 90.000000
_cell_volume 2333.591690
_symmetry_space_group_name_H-M "I 2 2 2"
_symmetry_group_IT_number 23
_symmetry_cell_setting 'orthorhombic'
loop_
_space_group_symop_operation_xyz
x,y,z
-x,-y,z
x,-y,-z
-x,y,-z
1/2+x,1/2+y,1/2+z
1/2-x,1/2-y,1/2+z
1/2+x,1/2-y,1/2-z
1/2-x,1/2+y,1/2-z
loop_
_atom_site_type_symbol
_atom_site_label
_atom_site_fract_x
_atom_site_fract_y
_atom_site_fract_z
Si Si1 0.248071 0.698118 0.192626
Si Si2 0.925894 0.454679 0.657557
Si Si3 0.419912 0.455180 0.342844
Si Si4 0.209730 0.794749 0.353950
Si Si5 0.508805 0.647297 0.676093
Si Si6 0.971438 0.361237 0.837957
O O1 0.268505 0.744476 0.294615
O O2 0.326579 0.653120 0.271519
O O3 0.082456 0.681962 0.191403
O O4 0.312952 0.709268 0.030163
O O5 0.752575 0.462289 0.646476
O O6 0.977129 0.405713 0.729673
O O7 0.000000 0.500000 0.742761
O O8 0.000000 0.452899 0.500000
O O9 0.500000 0.500000 0.258457
O O10 0.500000 0.452172 0.500000
O O11 0.450570 0.404103 0.265364
O O12 0.316329 0.838035 0.318660
O O13 0.067494 0.808782 0.262157
O O14 0.500000 0.653687 0.500000
O O15 0.000000 0.382490 0.000000
#
# Coordination Sequence:
#
# PCOD8163843 Si02
#       6
#     8   8   8   8   8   8
#     4  11  24  38  68  87 128 166 209 264 309 379
#     4  11  23  38  67  97 123 159 212 255 308 374
#     4  10  21  38  62  92 131 159 203 259 313 366
#     4  11  22  44  60  95 123 166 214 258 318 368
#     4  11  23  38  63  93 126 167 207 256 314 373
#     4  10  24  42  61  89 128 164 203 257 314 369
#
# _framework density 20.569151999999999
#
# number of rings (size 3 to 8) (size 9 to 14) (size 15 to 20)
#    0.000    1.333    1.667    4.500    7.000    3.000 
#    0.000    0.000    0.000    2.000    0.000    0.000 
#    0.000    0.000    0.000    0.000    0.000    0.000 
#
# Total GULP energy -297465.424297 kJ/mol
# GULP energy per Si atom -12394.392679 kJ/mol
# Density = 2.052234 g / cm^3
# Si number density = 20.569152 Si / 1000 Ang^3
#
#
#
# Elastic Constant Matrix: (Units=GPa)
#
#
# Indices 1 2 3 4 5 6 
#
# 1 86.8898 33.8351 27.8480 0.0088 -0.0017 0.0066
# 2 33.8351 135.8134 50.3839 -0.0021 0.0003 -0.0048
# 3 27.8480 50.3839 98.4971 0.0103 0.0434 0.0168
# 4 0.0088 -0.0021 0.0103 32.4122 0.0075 -0.0030
# 5 -0.0017 0.0003 0.0434 0.0075 30.6473 0.0229
# 6 0.0066 -0.0048 0.0168 -0.0030 0.0229 -6.8707
#
#
#
# Elastic Compliance Matrix: (Units=1/GPa)
#
#
# Indices 1 2 3 4 5 6 
#
# 1 0.013240 -0.002357 -0.002538 -0.000003 0.000004 0.000008
# 2 -0.002357 0.009507 -0.004197 0.000003 0.000006 -0.000019
# 3 -0.002538 -0.004197 0.013017 -0.000004 -0.000019 0.000032
# 4 -0.000003 0.000003 -0.000004 0.030853 -0.000008 -0.000013
# 5 0.000004 0.000006 -0.000019 -0.000008 0.032629 0.000109
# 6 0.000008 -0.000019 0.000032 -0.000013 0.000109 -0.145545
#
#
# Mechanical properties :
#
#
# Convention : Reuss Voigt Hill
#
# Bulk Modulus (GPa) = 56.87943 60.59271 58.73607
# Shear Modulus (GPa) = -224.65721 25.17999 -99.73861
#
# Velocity S-wave (km/s) = -10.46220 3.50260 -6.97099
# Velocity P-wave (km/s) = 10.87339 6.77345 6.01461
#
# Compressibility (1/GPa) = 0.01758105
#
# Stress axis : x y z
#
# Youngs Moduli (GPa) = 75.52878 105.18382 76.82379
#
# Poissons Ratio (x) = 0.24792 0.19495
# Poissons Ratio (y) = 0.17803 0.32241
# Poissons Ratio (z) = 0.19166 0.44143
#
# Static dielectric constant tensor:
#      x y z
#    x 3.829100 -0.000010 -0.000070 
#    y -0.000010 4.314210 -0.000030 
#    z -0.000070 -0.000030 3.537520 
# 
# 
# High freq. dielectric constant tensor:
#      x y z
#    x 1.820240 0.000000 0.000000 
#    y 0.000000 1.822020 0.000000 
#    z 0.000000 0.000000 1.781700 
# 
# From -- ./inp_files/7323.got.cif
#   From: 2010.03.12/outbox.cif.g09.slc.cpg/sg23_4_cif.got.tgz:7323.got - 2010.04.14 02:50:06.
