data_PCOD8163595
_publ_section_title
;
Structure prediction by ZEFSAII (Michael W. Deem and Ramdas Pophale) SiO2 
 PCOD8163595
Probable space group: I 2 2 2
;
_chemical_formula_sum "Si O2"
_cell_formula_units_Z 28
_cell_length_a 4.940682
_cell_length_b 10.526054
_cell_length_c 24.666320
_cell_angle_alpha 90.000000
_cell_angle_beta 90.000000
_cell_angle_gamma 90.000000
_cell_volume 1282.793814
_symmetry_space_group_name_H-M "I 2 2 2"
_symmetry_group_IT_number 23
_symmetry_cell_setting 'orthorhombic'
loop_
_space_group_symop_operation_xyz
x,y,z
-x,-y,z
x,-y,-z
-x,y,-z
1/2+x,1/2+y,1/2+z
1/2-x,1/2-y,1/2+z
1/2+x,1/2-y,1/2-z
1/2-x,1/2+y,1/2-z
loop_
_atom_site_type_symbol
_atom_site_label
_atom_site_fract_x
_atom_site_fract_y
_atom_site_fract_z
Si Si1 0.873583 0.671486 0.230177
Si Si2 0.000000 0.000000 0.790090
Si Si3 0.492077 0.275005 0.372781
Si Si4 0.481180 0.849943 0.937079
O O1 0.631315 0.776655 0.236413
O O2 0.761355 0.535601 0.252494
O O3 0.953314 0.652607 0.165794
O O4 0.943588 0.116789 0.828982
O O5 0.196255 0.277783 0.399192
O O6 0.692181 0.292260 0.422716
O O7 0.500000 0.000000 0.926171
O O8 0.500000 0.817852 0.000000
#
# Coordination Sequence:
#
# PCOD8163595 Si02
#       4
#     8   4   8   8
#     4  10  22  34  53  80 112 156 203 225 278 347
#     4  10  20  36  53  78 117 152 186 236 272 334
#     4  11  20  34  54  78 112 153 189 231 281 333
#     4  11  21  34  52  78 109 150 193 227 285 342
#
# _framework density 21.827359000000001
#
# number of rings (size 3 to 8) (size 9 to 14) (size 15 to 20)
#    0.000    1.429    2.857    4.286    0.000    5.714 
#    0.000    0.000    0.000    0.000    0.000    1.000 
#    0.000   13.714    0.000    1.143    0.000    0.000 
#
# Total GULP energy -173461.047887 kJ/mol
# GULP energy per Si atom -12390.074849 kJ/mol
# Density = 2.177768 g / cm^3
# Si number density = 21.827359 Si / 1000 Ang^3
#
#
#
# Elastic Constant Matrix: (Units=GPa)
#
#
# Indices 1 2 3 4 5 6 
#
# 1 88.0223 -8.2629 36.4494 0.0000 0.0000 0.0000
# 2 -8.2629 25.4890 15.2979 0.0000 0.0000 0.0000
# 3 36.4494 15.2979 136.8857 0.0000 0.0000 0.0000
# 4 0.0000 0.0000 0.0000 32.0671 0.0000 0.0000
# 5 0.0000 0.0000 0.0000 0.0000 40.2585 0.0000
# 6 0.0000 0.0000 0.0000 0.0000 0.0000 8.4662
#
#
#
# Elastic Compliance Matrix: (Units=1/GPa)
#
#
# Indices 1 2 3 4 5 6 
#
# 1 0.013905 0.007214 -0.004509 0.000000 0.000000 0.000000
# 2 0.007214 0.045796 -0.007039 0.000000 0.000000 0.000000
# 3 -0.004509 -0.007039 0.009293 0.000000 0.000000 0.000000
# 4 0.000000 0.000000 0.000000 0.031185 0.000000 0.000000
# 5 0.000000 0.000000 0.000000 0.000000 0.024839 0.000000
# 6 0.000000 0.000000 0.000000 0.000000 0.000000 0.118117
#
#
# Mechanical properties :
#
#
# Convention : Reuss Voigt Hill
#
# Bulk Modulus (GPa) = 16.57677 37.48512 27.03094
# Shear Modulus (GPa) = 18.38838 29.95252 24.17045
#
# Velocity S-wave (km/s) = 2.90564 3.70840 3.33129
# Velocity P-wave (km/s) = 4.34373 5.96214 5.21608
#
# Compressibility (1/GPa) = 0.06032538
#
# Stress axis : x y z
#
# Youngs Moduli (GPa) = 71.91679 21.83615 107.61281
#
# Poissons Ratio (x) = -0.15752 0.48520
# Poissons Ratio (y) = -0.51878 0.75747
# Poissons Ratio (z) = 0.32425 0.15370
#
# Static dielectric constant tensor:
#      x y z
#    x 4.426000 0.000000 0.000000 
#    y 0.000000 4.916370 0.000000 
#    z 0.000000 0.000000 4.201820 
# 
# 
# High freq. dielectric constant tensor:
#      x y z
#    x 1.883840 0.000000 0.000000 
#    y 0.000000 1.812050 0.000000 
#    z 0.000000 0.000000 1.864960 
# 
# From -- ./inp_files/1464.got.cif
#   From: 2010.03.12/outbox.cif.g09.slc.cpg/sg23_1_cif.got.tgz:1464.got - 2010.04.14 02:50:06.
