data_PCOD8163356
_publ_section_title
;
Structure prediction by ZEFSAII (Michael W. Deem and Ramdas Pophale) SiO2 
 PCOD8163356
Probable space group: I 2 2 2
;
_chemical_formula_sum "Si O2"
_cell_formula_units_Z 64
_cell_length_a 14.576475
_cell_length_b 8.808643
_cell_length_c 30.380867
_cell_angle_alpha 90.000000
_cell_angle_beta 90.000000
_cell_angle_gamma 90.000000
_cell_volume 3900.871863
_symmetry_space_group_name_H-M "I 2 2 2"
_symmetry_group_IT_number 23
_symmetry_cell_setting 'orthorhombic'
loop_
_space_group_symop_operation_xyz
x,y,z
-x,-y,z
x,-y,-z
-x,y,-z
1/2+x,1/2+y,1/2+z
1/2-x,1/2-y,1/2+z
1/2+x,1/2-y,1/2-z
1/2-x,1/2+y,1/2-z
loop_
_atom_site_type_symbol
_atom_site_label
_atom_site_fract_x
_atom_site_fract_y
_atom_site_fract_z
Si Si1 0.603719 0.679065 0.950547
Si Si2 0.307757 0.680244 0.290595
Si Si3 0.320260 0.821665 0.130376
Si Si4 1.000000 0.680188 0.676400
Si Si5 0.500001 0.819125 0.724357
Si Si6 0.820260 0.678335 0.630376
Si Si7 0.307761 0.319755 0.290596
Si Si8 0.396280 0.320934 0.049453
O O1 0.681429 0.747742 0.918121
O O2 0.500000 0.736662 0.939141
O O3 0.607006 0.500000 0.946827
O O4 0.629095 0.731006 1.000000
O O5 0.408539 0.749469 0.296606
O O6 0.263194 0.722650 0.337743
O O7 0.310243 0.499999 0.283290
O O8 0.249997 0.749996 0.249999
O O9 0.410741 0.753528 0.153198
O O10 0.236803 0.777351 0.162256
O O11 0.326064 1.000000 0.124020
O O12 0.999996 0.737897 0.725892
O O13 0.000000 0.500000 0.675916
O O14 0.910744 0.746473 0.653196
O O15 0.408543 0.749465 0.703391
O O16 0.500000 0.000000 0.718791
O O17 0.818570 0.752258 0.581879
#
# Coordination Sequence:
#
# PCOD8163356 Si02
#       8
#     8   8   8   8   8   8   8   8
#     4   9  18  31  46  69 101 131 162 204 249 295
#     4  11  22  35  51  74 102 135 173 212 253 300
#     4  10  19  32  49  70  99 133 169 206 244 291
#     4   9  16  29  46  68  99 131 163 203 243 282
#     4  11  21  37  53  70 101 136 172 217 254 294
#     4  10  19  32  49  70  99 133 169 206 244 291
#     4  11  22  35  51  74 102 135 173 212 253 300
#     4   9  18  31  46  69 101 131 162 204 249 295
#
# _framework density 16.406587999999999
#
# number of rings (size 3 to 8) (size 9 to 14) (size 15 to 20)
#    0.000    2.000    3.750    1.875    0.000    2.500 
#    0.000    1.250    0.000    0.000    0.000    0.875 
#    0.000    7.000    0.000    0.000    0.000    0.000 
#
# Total GULP energy -396612.239920 kJ/mol
# GULP energy per Si atom -12394.132497 kJ/mol
# Density = 1.636925 g / cm^3
# Si number density = 16.406588 Si / 1000 Ang^3
#
#
#
# Elastic Constant Matrix: (Units=GPa)
#
#
# Indices 1 2 3 4 5 6 
#
# 1 118.1665 40.7190 61.8512 0.0000 0.0000 0.0000
# 2 40.7190 56.5151 44.9595 0.0000 0.0000 0.0000
# 3 61.8512 44.9595 135.8780 0.0000 0.0000 0.0000
# 4 0.0000 0.0000 0.0000 28.4945 0.0000 0.0000
# 5 0.0000 0.0000 0.0000 0.0000 17.3366 0.0000
# 6 0.0000 0.0000 0.0000 0.0000 0.0000 25.8579
#
#
#
# Elastic Compliance Matrix: (Units=1/GPa)
#
#
# Indices 1 2 3 4 5 6 
#
# 1 0.012475 -0.006068 -0.003671 0.000000 0.000000 0.000000
# 2 -0.006068 0.026968 -0.006161 0.000000 0.000000 0.000000
# 3 -0.003671 -0.006161 0.011069 0.000000 0.000000 0.000000
# 4 0.000000 0.000000 0.000000 0.035095 0.000000 0.000000
# 5 0.000000 0.000000 0.000000 0.000000 0.057682 0.000000
# 6 0.000000 0.000000 0.000000 0.000000 0.000000 0.038673
#
#
# Mechanical properties :
#
#
# Convention : Reuss Voigt Hill
#
# Bulk Modulus (GPa) = 53.44123 67.29100 60.36611
# Shear Modulus (GPa) = 22.72756 25.20645 23.96700
#
# Velocity S-wave (km/s) = 3.72596 3.92390 3.82621
# Velocity P-wave (km/s) = 7.15221 7.85067 7.50956
#
# Compressibility (1/GPa) = 0.01871214
#
# Stress axis : x y z
#
# Youngs Moduli (GPa) = 80.16043 37.08164 90.34226
#
# Poissons Ratio (x) = 0.22501 0.33163
# Poissons Ratio (y) = 0.48641 0.55659
# Poissons Ratio (z) = 0.29425 0.22846
#
# Static dielectric constant tensor:
#      x y z
#    x 3.080640 0.000000 0.000000 
#    y 0.000000 2.959170 0.000000 
#    z 0.000000 0.000000 3.238870 
# 
# 
# High freq. dielectric constant tensor:
#      x y z
#    x 1.607520 0.000000 0.000000 
#    y 0.000000 1.627360 0.000000 
#    z 0.000000 0.000000 1.629440 
# 
# From -- ./inp_files/30600.got.cif
#   From: 2010.03.12/outbox.cif.g09.slc.cpg/sg23_16_cif.got.tgz:30600.got - 2010.04.14 02:50:06.
