data_PCOD8163002
_publ_section_title
;
Structure prediction by ZEFSAII (Michael W. Deem and Ramdas Pophale) SiO2 
 PCOD8163002
Probable space group: F 2 2 2
;
_chemical_formula_sum "Si O2"
_cell_formula_units_Z 92
_cell_length_a 17.767179
_cell_length_b 21.317285
_cell_length_c 13.682152
_cell_angle_alpha 90.000000
_cell_angle_beta 90.000000
_cell_angle_gamma 90.000000
_cell_volume 5182.087957
_symmetry_space_group_name_H-M "F 2 2 2"
_symmetry_group_IT_number 22
_symmetry_cell_setting 'orthorhombic'
loop_
_space_group_symop_operation_xyz
x,y,z
-x,-y,z
x,-y,-z
-x,y,-z
x,1/2+y,1/2+z
-x,1/2-y,1/2+z
x,1/2-y,1/2-z
-x,1/2+y,1/2-z
1/2+x,y,1/2+z
1/2-x,-y,1/2+z
1/2+x,-y,1/2-z
1/2-x,y,1/2-z
1/2+x,1/2+y,z
1/2-x,1/2-y,z
1/2+x,1/2-y,-z
1/2-x,1/2+y,-z
loop_
_atom_site_type_symbol
_atom_site_label
_atom_site_fract_x
_atom_site_fract_y
_atom_site_fract_z
Si Si1 0.819684 0.625449 0.009054
Si Si2 0.500000 0.000000 0.000000
Si Si3 0.366715 0.750000 0.750000
Si Si4 0.166930 0.511081 0.710663
Si Si5 0.422263 0.621197 0.698253
Si Si6 0.415295 0.582564 0.348997
Si Si7 0.750000 0.750000 0.415719
Si Si8 0.779234 0.500000 0.500000
O O1 0.882396 0.617510 0.093184
O O2 0.768326 0.687769 0.020838
O O3 0.861931 0.632808 0.904576
O O4 0.770198 0.562675 0.008736
O O5 0.558428 0.964593 0.932320
O O6 0.418426 0.690228 0.740044
O O7 0.319596 0.765056 0.653467
O O8 0.250000 0.526439 0.750000
O O9 0.115276 0.571692 0.728349
O O10 0.132877 0.451255 0.765620
O O11 0.168230 0.495720 0.595608
O O12 0.511293 0.612567 0.697121
#
# Coordination Sequence:
#
# PCOD8163002 Si02
#       8
#    16   4   8  16  16  16   8   8
#     4  11  19  35  59  89 115 149 195 244 296 339
#     4  12  18  36  60  94 110 148 186 250 290 338
#     4   9  20  34  54  82 115 154 192 234 293 344
#     4  12  22  35  57  89 120 146 187 243 299 349
#     4  11  20  36  58  83 115 150 192 245 291 340
#     4  12  21  35  60  88 116 146 194 246 292 342
#     4   9  20  34  56  85 120 148 192 245 291 350
#     4  12  23  34  58  88 119 152 188 238 295 354
#
# _framework density 17.753461999999999
#
# number of rings (size 3 to 8) (size 9 to 14) (size 15 to 20)
#    0.000    0.870    6.957    1.565    2.435    0.000 
#    0.000    3.478    0.000    5.217    0.000    0.000 
#    0.000    0.000    0.000    0.000    0.000    0.000 
#
# Total GULP energy -285128.387135 kJ/mol
# GULP energy per Si atom -12396.886397 kJ/mol
# Density = 1.771305 g / cm^3
# Si number density = 17.753462 Si / 1000 Ang^3
#
#
#
# Elastic Constant Matrix: (Units=GPa)
#
#
# Indices 1 2 3 4 5 6 
#
# 1 100.0897 64.7528 47.5284 0.0000 0.0000 0.0000
# 2 64.7528 135.3810 56.1172 0.0000 0.0000 0.0000
# 3 47.5284 56.1172 115.3268 0.0000 0.0000 0.0000
# 4 0.0000 0.0000 0.0000 37.9508 0.0000 0.0000
# 5 0.0000 0.0000 0.0000 0.0000 30.8986 0.0000
# 6 0.0000 0.0000 0.0000 0.0000 0.0000 11.3919
#
#
#
# Elastic Compliance Matrix: (Units=1/GPa)
#
#
# Indices 1 2 3 4 5 6 
#
# 1 0.015511 -0.005974 -0.003485 0.000000 0.000000 0.000000
# 2 -0.005974 0.011554 -0.003160 0.000000 0.000000 0.000000
# 3 -0.003485 -0.003160 0.011645 0.000000 0.000000 0.000000
# 4 0.000000 0.000000 0.000000 0.026350 0.000000 0.000000
# 5 0.000000 0.000000 0.000000 0.000000 0.032364 0.000000
# 6 0.000000 0.000000 0.000000 0.000000 0.000000 0.087782
#
#
# Mechanical properties :
#
#
# Convention : Reuss Voigt Hill
#
# Bulk Modulus (GPa) = 74.23434 76.39937 75.31685
# Shear Modulus (GPa) = 23.26284 28.20821 25.73552
#
# Velocity S-wave (km/s) = 3.62377 3.99041 3.81150
# Velocity P-wave (km/s) = 7.70803 8.02235 7.86676
#
# Compressibility (1/GPa) = 0.01347086
#
# Stress axis : x y z
#
# Youngs Moduli (GPa) = 64.46988 86.55111 85.87369
#
# Poissons Ratio (x) = 0.51708 0.29931
# Poissons Ratio (y) = 0.38516 0.27135
# Poissons Ratio (z) = 0.22470 0.27350
#
# Static dielectric constant tensor:
#      x y z
#    x 3.199970 0.000000 0.000000 
#    y 0.000000 3.281960 0.000000 
#    z 0.000000 0.000000 3.504450 
# 
# 
# High freq. dielectric constant tensor:
#      x y z
#    x 1.686360 0.000000 0.000000 
#    y 0.000000 1.681850 0.000000 
#    z 0.000000 0.000000 1.680520 
# 
# From -- ./inp_files/30770.got.cif
#   From: 2010.03.12/outbox.cif.g09.slc.cpg/sg22_16_cif.got.tgz:30770.got - 2010.04.14 02:24:06.
