data_PCOD8163390
_publ_section_title
;
Structure prediction by ZEFSAII (Michael W. Deem and Ramdas Pophale) SiO2 
 PCOD8163390
Probable space group: I 2 2 2
;
_chemical_formula_sum "Si O2"
_cell_formula_units_Z 56
_cell_length_a 4.937638
_cell_length_b 16.959105
_cell_length_c 32.802315
_cell_angle_alpha 90.000000
_cell_angle_beta 90.000000
_cell_angle_gamma 90.000000
_cell_volume 2746.797672
_symmetry_space_group_name_H-M "I 2 2 2"
_symmetry_group_IT_number 23
_symmetry_cell_setting 'orthorhombic'
loop_
_space_group_symop_operation_xyz
x,y,z
-x,-y,z
x,-y,-z
-x,y,-z
1/2+x,1/2+y,1/2+z
1/2-x,1/2-y,1/2+z
1/2+x,1/2-y,1/2-z
1/2-x,1/2+y,1/2-z
loop_
_atom_site_type_symbol
_atom_site_label
_atom_site_fract_x
_atom_site_fract_y
_atom_site_fract_z
Si Si1 0.919241 0.679334 0.043981
Si Si2 0.610539 0.086898 0.376881
Si Si3 0.485458 0.590166 0.325393
Si Si4 0.898721 0.172701 0.651376
Si Si5 0.479142 0.088910 0.880617
Si Si6 0.062089 0.734404 0.572478
Si Si7 0.201413 0.232660 0.773964
O O1 0.872292 0.605912 0.074631
O O2 0.641792 0.728314 0.039554
O O3 0.136545 0.743106 0.059546
O O4 0.000000 0.644079 0.000000
O O5 0.405417 0.147779 0.357261
O O6 0.894118 0.098187 0.352352
O O7 0.500000 0.000000 0.370767
O O8 0.500000 0.500000 0.308504
O O9 0.681894 0.603798 0.363241
O O10 0.574536 0.650150 0.289768
O O11 0.188634 0.608038 0.343737
O O12 0.008009 0.232898 0.617503
O O13 0.881261 0.216151 0.694403
O O14 0.496133 0.141479 0.921724
O O15 0.500000 0.000000 0.896224
O O16 0.438539 0.216605 0.740576
#
# Coordination Sequence:
#
# PCOD8163390 Si02
#       7
#     8   8   8   8   8   8   8
#     4  10  21  35  56  87 119 156 193 242 296 345
#     4  10  21  38  61  86 114 155 201 247 296 349
#     4  10  21  37  58  85 117 145 186 251 300 338
#     4  10  21  37  59  83 113 148 199 245 291 347
#     4  10  19  33  59  88 111 142 190 247 293 333
#     4  10  19  34  59  82 114 149 193 242 284 348
#     4  12  24  38  60  88 120 158 198 243 303 368
#
# _framework density 20.387377999999998
#
# number of rings (size 3 to 8) (size 9 to 14) (size 15 to 20)
#    0.000    1.714    1.429    3.429    4.000    0.286 
#    0.000    2.857    0.000    8.571    0.000    0.000 
#    0.000    0.000    0.000    0.000    0.000    0.000 
#
# Total GULP energy -347035.711780 kJ/mol
# GULP energy per Si atom -12394.132564 kJ/mol
# Density = 2.034098 g / cm^3
# Si number density = 20.387378 Si / 1000 Ang^3
#
#
#
# Elastic Constant Matrix: (Units=GPa)
#
#
# Indices 1 2 3 4 5 6 
#
# 1 93.8788 13.4643 14.7788 0.0000 0.0000 0.0000
# 2 13.4643 78.0195 24.4292 0.0000 0.0000 0.0000
# 3 14.7788 24.4292 56.4139 0.0000 0.0000 0.0000
# 4 0.0000 0.0000 0.0000 18.2329 0.0000 0.0000
# 5 0.0000 0.0000 0.0000 0.0000 27.9157 0.0000
# 6 0.0000 0.0000 0.0000 0.0000 0.0000 31.2954
#
#
#
# Elastic Compliance Matrix: (Units=1/GPa)
#
#
# Indices 1 2 3 4 5 6 
#
# 1 0.011202 -0.001173 -0.002427 0.000000 0.000000 0.000000
# 2 -0.001173 0.014951 -0.006167 0.000000 0.000000 0.000000
# 3 -0.002427 -0.006167 0.021032 0.000000 0.000000 0.000000
# 4 0.000000 0.000000 0.000000 0.054846 0.000000 0.000000
# 5 0.000000 0.000000 0.000000 0.000000 0.035822 0.000000
# 6 0.000000 0.000000 0.000000 0.000000 0.000000 0.031954
#
#
# Mechanical properties :
#
#
# Convention : Reuss Voigt Hill
#
# Bulk Modulus (GPa) = 36.16408 37.07298 36.61853
# Shear Modulus (GPa) = 25.18161 27.19814 26.18988
#
# Velocity S-wave (km/s) = 3.51829 3.65645 3.58804
# Velocity P-wave (km/s) = 5.85504 6.00416 5.93007
#
# Compressibility (1/GPa) = 0.02765174
#
# Stress axis : x y z
#
# Youngs Moduli (GPa) = 89.26720 66.88628 47.54606
#
# Poissons Ratio (x) = 0.07849 0.11537
# Poissons Ratio (y) = 0.10475 0.29321
# Poissons Ratio (z) = 0.21661 0.41247
#
# Static dielectric constant tensor:
#      x y z
#    x 3.944360 0.000000 0.000000 
#    y 0.000000 3.700460 0.000000 
#    z 0.000000 0.000000 3.469030 
# 
# 
# High freq. dielectric constant tensor:
#      x y z
#    x 1.822780 0.000000 0.000000 
#    y 0.000000 1.782850 0.000000 
#    z 0.000000 0.000000 1.767420 
# 
# From -- ./inp_files/29954.got.cif
#   From: 2010.03.12/outbox.cif.g09.slc.cpg/sg23_15_cif.got.tgz:29954.got - 2010.04.14 02:50:06.
