data_PCOD8163689
_publ_section_title
;
Structure prediction by ZEFSAII (Michael W. Deem and Ramdas Pophale) SiO2 
 PCOD8163689
Probable space group: I 2 2 2
;
_chemical_formula_sum "Si O2"
_cell_formula_units_Z 48
_cell_length_a 21.475325
_cell_length_b 8.683545
_cell_length_c 12.639164
_cell_angle_alpha 90.000000
_cell_angle_beta 90.000000
_cell_angle_gamma 90.000000
_cell_volume 2356.975962
_symmetry_space_group_name_H-M "I 2 2 2"
_symmetry_group_IT_number 23
_symmetry_cell_setting 'orthorhombic'
loop_
_space_group_symop_operation_xyz
x,y,z
-x,-y,z
x,-y,-z
-x,y,-z
1/2+x,1/2+y,1/2+z
1/2-x,1/2-y,1/2+z
1/2+x,1/2-y,1/2-z
1/2-x,1/2+y,1/2-z
loop_
_atom_site_type_symbol
_atom_site_label
_atom_site_fract_x
_atom_site_fract_y
_atom_site_fract_z
Si Si1 0.365083 0.176594 0.771065
Si Si2 0.003387 0.675464 0.230889
Si Si3 0.406643 0.897898 0.901667
Si Si4 0.438893 0.671631 0.545356
Si Si5 0.183205 0.820554 0.520504
Si Si6 0.181308 0.330057 0.041521
O O1 0.433258 0.242384 0.737793
O O2 0.334142 0.287036 0.858100
O O3 0.320919 0.175510 0.668727
O O4 0.370681 0.003199 0.815571
O O5 0.030963 0.670288 0.349696
O O6 0.049720 0.794823 0.169880
O O7 0.000000 0.500000 0.183699
O O8 0.361855 0.762102 0.938117
O O9 0.427954 0.000000 0.000000
O O10 0.442637 0.500000 0.500000
O O11 0.500000 0.762508 0.500000
O O12 0.372902 0.731778 0.510099
O O13 0.253117 0.760997 0.497491
O O14 0.178096 0.000000 0.500000
O O15 0.171623 0.500000 0.000000
#
# Coordination Sequence:
#
# PCOD8163689 Si02
#       6
#     8   8   8   8   8   8
#     4  10  21  39  63  88 119 161 208 260 308 367
#     4  10  20  38  68  93 121 166 210 255 312 374
#     4   9  20  39  62  91 119 157 214 258 307 372
#     4  11  24  39  59  95 130 153 198 259 317 368
#     4  10  24  41  58  89 127 163 206 259 312 373
#     4  11  23  41  65  88 122 164 211 254 305 376
#
# _framework density 20.365076999999999
#
# number of rings (size 3 to 8) (size 9 to 14) (size 15 to 20)
#    0.000    1.833    1.667    2.000    0.000   15.000 
#    0.000    0.833    0.000    0.000    0.000    0.000 
#    0.000    0.000    0.000    0.000    0.000    0.000 
#
# Total GULP energy -297466.768082 kJ/mol
# GULP energy per Si atom -12394.448670 kJ/mol
# Density = 2.031873 g / cm^3
# Si number density = 20.365077 Si / 1000 Ang^3
#
#
#
# Elastic Constant Matrix: (Units=GPa)
#
#
# Indices 1 2 3 4 5 6 
#
# 1 100.9538 48.8374 57.1328 0.0000 0.0000 0.0000
# 2 48.8374 73.7305 46.3861 0.0000 0.0000 0.0000
# 3 57.1328 46.3861 140.5226 0.0000 0.0000 0.0000
# 4 0.0000 0.0000 0.0000 31.3289 0.0000 0.0000
# 5 0.0000 0.0000 0.0000 0.0000 31.5080 0.0000
# 6 0.0000 0.0000 0.0000 0.0000 0.0000 34.1192
#
#
#
# Elastic Compliance Matrix: (Units=1/GPa)
#
#
# Indices 1 2 3 4 5 6 
#
# 1 0.016041 -0.008231 -0.003805 0.000000 0.000000 0.000000
# 2 -0.008231 0.021342 -0.003698 0.000000 0.000000 0.000000
# 3 -0.003805 -0.003698 0.009884 0.000000 0.000000 0.000000
# 4 0.000000 0.000000 0.000000 0.031919 0.000000 0.000000
# 5 0.000000 0.000000 0.000000 0.000000 0.031738 0.000000
# 6 0.000000 0.000000 0.000000 0.000000 0.000000 0.029309
#
#
# Mechanical properties :
#
#
# Convention : Reuss Voigt Hill
#
# Bulk Modulus (GPa) = 63.29886 68.87994 66.08940
# Shear Modulus (GPa) = 28.25382 30.24791 29.25087
#
# Velocity S-wave (km/s) = 3.72878 3.85812 3.79400
# Velocity P-wave (km/s) = 7.04897 7.33095 7.19134
#
# Compressibility (1/GPa) = 0.01579807
#
# Stress axis : x y z
#
# Youngs Moduli (GPa) = 62.34160 46.85629 101.17472
#
# Poissons Ratio (x) = 0.38569 0.38492
# Poissons Ratio (y) = 0.51316 0.37417
# Poissons Ratio (z) = 0.23718 0.17328
#
# Static dielectric constant tensor:
#      x y z
#    x 4.224550 0.000000 0.000000 
#    y 0.000000 3.673170 0.000000 
#    z 0.000000 0.000000 3.971240 
# 
# 
# High freq. dielectric constant tensor:
#      x y z
#    x 1.805220 0.000000 0.000000 
#    y 0.000000 1.775020 0.000000 
#    z 0.000000 0.000000 1.806640 
# 
# From -- ./inp_files/18289.got.cif
#   From: 2010.03.12/outbox.cif.g09.slc.cpg/sg23_10_cif.got.tgz:18289.got - 2010.04.14 02:50:06.
