data_PCOD8163940
_publ_section_title
;
Structure prediction by ZEFSAII (Michael W. Deem and Ramdas Pophale) SiO2 
 PCOD8163940
Probable space group: I 2 2 2
;
_chemical_formula_sum "Si O2"
_cell_formula_units_Z 26
_cell_length_a 10.559310
_cell_length_b 5.274335
_cell_length_c 20.395733
_cell_angle_alpha 90.000000
_cell_angle_beta 90.000000
_cell_angle_gamma 90.000000
_cell_volume 1135.906458
_symmetry_space_group_name_H-M "I 2 2 2"
_symmetry_group_IT_number 23
_symmetry_cell_setting 'orthorhombic'
loop_
_space_group_symop_operation_xyz
x,y,z
-x,-y,z
x,-y,-z
-x,y,-z
1/2+x,1/2+y,1/2+z
1/2-x,1/2-y,1/2+z
1/2+x,1/2-y,1/2-z
1/2-x,1/2+y,1/2-z
loop_
_atom_site_type_symbol
_atom_site_label
_atom_site_fract_x
_atom_site_fract_y
_atom_site_fract_z
Si Si1 0.126811 0.113302 0.672214
Si Si2 0.870144 0.347048 0.193193
Si Si3 0.140070 0.161096 0.118662
Si Si4 0.000000 0.000000 0.000000
O O1 0.082151 0.280974 0.734206
O O2 0.207975 0.284765 0.620578
O O3 0.217047 0.883070 0.697344
O O4 0.000000 0.000000 0.638477
O O5 0.924766 0.626546 0.167664
O O6 0.897371 0.121857 0.141430
O O7 0.090024 0.181963 0.044243
#
# Coordination Sequence:
#
# PCOD8163940 Si02
#       4
#     8   8   8   2
#     4  10  21  42  70 102 152 180 230 300 358 434
#     4  10  21  42  63 110 137 174 243 274 380 411
#     4  10  24  43  63 104 134 194 240 279 361 406
#     4  12  28  50  72  92 160 186 248 310 312 454
#
# _framework density 22.889208
#
# number of rings (size 3 to 8) (size 9 to 14) (size 15 to 20)
#    1.846    0.000    3.077    0.000    2.154    4.923 
#    5.538    0.000    0.000    5.538    0.000    0.000 
#    0.000    0.000    0.000    0.000    0.000    0.000 
#
# Total GULP energy -161136.092306 kJ/mol
# GULP energy per Si atom -12395.084024 kJ/mol
# Density = 2.283711 g / cm^3
# Si number density = 22.889208 Si / 1000 Ang^3
#
#
#
# Elastic Constant Matrix: (Units=GPa)
#
#
# Indices 1 2 3 4 5 6 
#
# 1 155.6179 76.1843 65.3484 0.0000 0.0000 0.0000
# 2 76.1843 141.2115 48.1909 0.0000 0.0000 0.0000
# 3 65.3484 48.1909 142.9344 0.0000 0.0000 0.0000
# 4 0.0000 0.0000 0.0000 26.5633 0.0000 0.0000
# 5 0.0000 0.0000 0.0000 0.0000 42.7561 0.0000
# 6 0.0000 0.0000 0.0000 0.0000 0.0000 59.1713
#
#
#
# Elastic Compliance Matrix: (Units=1/GPa)
#
#
# Indices 1 2 3 4 5 6 
#
# 1 0.009778 -0.004237 -0.003042 0.000000 0.000000 0.000000
# 2 -0.004237 0.009838 -0.001380 0.000000 0.000000 0.000000
# 3 -0.003042 -0.001380 0.008852 0.000000 0.000000 0.000000
# 4 0.000000 0.000000 0.000000 0.037646 0.000000 0.000000
# 5 0.000000 0.000000 0.000000 0.000000 0.023388 0.000000
# 6 0.000000 0.000000 0.000000 0.000000 0.000000 0.016900
#
#
# Mechanical properties :
#
#
# Convention : Reuss Voigt Hill
#
# Bulk Modulus (GPa) = 89.67974 91.02343 90.35159
# Shear Modulus (GPa) = 39.23515 42.36748 40.80131
#
# Velocity S-wave (km/s) = 4.14470 4.30697 4.22661
# Velocity P-wave (km/s) = 7.88478 8.03658 7.96104
#
# Compressibility (1/GPa) = 0.01115079
#
# Stress axis : x y z
#
# Youngs Moduli (GPa) = 102.27501 101.64270 112.96755
#
# Poissons Ratio (x) = 0.43066 0.34361
# Poissons Ratio (y) = 0.43334 0.15589
# Poissons Ratio (z) = 0.31109 0.14026
#
# Static dielectric constant tensor:
#      x y z
#    x 4.593330 0.000000 0.000000 
#    y 0.000000 4.159190 0.000000 
#    z 0.000000 0.000000 3.481920 
# 
# 
# High freq. dielectric constant tensor:
#      x y z
#    x 1.950880 0.000000 0.000000 
#    y 0.000000 1.917630 0.000000 
#    z 0.000000 0.000000 1.838350 
# 
# From -- ./inp_files/28153.got.cif
#   From: 2010.03.12/outbox.cif.g09.slc.cpg/sg23_15_cif.got.tgz:28153.got - 2010.04.14 02:50:06.
