data_PCOD8163630
_publ_section_title
;
Structure prediction by ZEFSAII (Michael W. Deem and Ramdas Pophale) SiO2 
 PCOD8163630
Probable space group: I 2 2 2
;
_chemical_formula_sum "Si O2"
_cell_formula_units_Z 52
_cell_length_a 14.697665
_cell_length_b 19.184698
_cell_length_c 8.325869
_cell_angle_alpha 90.000000
_cell_angle_beta 90.000000
_cell_angle_gamma 90.000000
_cell_volume 2347.647483
_symmetry_space_group_name_H-M "I 2 2 2"
_symmetry_group_IT_number 23
_symmetry_cell_setting 'orthorhombic'
loop_
_space_group_symop_operation_xyz
x,y,z
-x,-y,z
x,-y,-z
-x,y,-z
1/2+x,1/2+y,1/2+z
1/2-x,1/2-y,1/2+z
1/2+x,1/2-y,1/2-z
1/2-x,1/2+y,1/2-z
loop_
_atom_site_type_symbol
_atom_site_label
_atom_site_fract_x
_atom_site_fract_y
_atom_site_fract_z
Si Si1 0.650185 0.622896 0.328196
Si Si2 0.987254 0.638759 0.313429
Si Si3 0.985560 0.212394 0.815445
Si Si4 0.803803 0.627882 0.110478
Si Si5 0.779063 0.000000 0.000000
Si Si6 0.209340 0.791009 0.896206
Si Si7 0.675308 0.092920 0.745838
O O1 0.550439 0.647163 0.268963
O O2 0.714433 0.594565 0.188288
O O3 0.648457 0.559167 0.452484
O O4 0.699284 0.687831 0.416952
O O5 0.006166 0.721052 0.293519
O O6 0.066137 0.592076 0.236901
O O7 0.000000 0.621379 0.500000
O O8 0.892257 0.617116 0.226349
O O9 0.881394 0.187693 0.795415
O O10 0.000000 0.236145 0.000000
O O11 0.778633 0.708878 0.094919
O O12 0.803651 0.587236 0.942700
O O13 0.715258 0.029450 0.853884
O O14 0.293292 0.832064 0.817198
#
# Coordination Sequence:
#
# PCOD8163630 Si02
#       7
#     8   8   8   8   4   8   8
#     4  10  20  37  56  82 118 155 193 242 287 343
#     4  11  21  35  59  91 122 148 184 242 308 363
#     4   9  18  34  58  88 119 149 190 238 293 356
#     4  11  21  35  62  90 116 152 194 244 306 359
#     4  10  24  42  58  78 114 164 210 240 284 344
#     4   9  18  34  58  93 121 149 187 237 304 361
#     4  11  22  39  58  83 121 159 197 244 289 351
#
# _framework density 22.149833999999998
#
# number of rings (size 3 to 8) (size 9 to 14) (size 15 to 20)
#    0.000    1.846    0.000    6.923    0.000    4.308 
#    0.000   13.077    0.000    3.692    0.000    8.615 
#    0.000    0.000    0.000    0.000    0.000    0.000 
#
# Total GULP energy -322105.131576 kJ/mol
# GULP energy per Si atom -12388.658907 kJ/mol
# Density = 2.209942 g / cm^3
# Si number density = 22.149834 Si / 1000 Ang^3
#
#
#
# Elastic Constant Matrix: (Units=GPa)
#
#
# Indices 1 2 3 4 5 6 
#
# 1 85.4063 16.1898 20.1288 0.0000 0.0000 0.0000
# 2 16.1898 54.5842 11.8271 0.0000 0.0000 0.0000
# 3 20.1288 11.8271 113.9790 0.0000 0.0000 0.0000
# 4 0.0000 0.0000 0.0000 23.1195 0.0000 0.0000
# 5 0.0000 0.0000 0.0000 0.0000 31.2834 0.0000
# 6 0.0000 0.0000 0.0000 0.0000 0.0000 10.6612
#
#
#
# Elastic Compliance Matrix: (Units=1/GPa)
#
#
# Indices 1 2 3 4 5 6 
#
# 1 0.012800 -0.003383 -0.001909 0.000000 0.000000 0.000000
# 2 -0.003383 0.019636 -0.001440 0.000000 0.000000 0.000000
# 3 -0.001909 -0.001440 0.009260 0.000000 0.000000 0.000000
# 4 0.000000 0.000000 0.000000 0.043254 0.000000 0.000000
# 5 0.000000 0.000000 0.000000 0.000000 0.031966 0.000000
# 6 0.000000 0.000000 0.000000 0.000000 0.000000 0.093798
#
#
# Mechanical properties :
#
#
# Convention : Reuss Voigt Hill
#
# Bulk Modulus (GPa) = 35.42181 38.91787 37.16984
# Shear Modulus (GPa) = 21.40520 26.73441 24.06980
#
# Velocity S-wave (km/s) = 3.11204 3.47793 3.30006
# Velocity P-wave (km/s) = 5.37956 5.80831 5.59804
#
# Compressibility (1/GPa) = 0.02823120
#
# Stress axis : x y z
#
# Youngs Moduli (GPa) = 78.12496 50.92765 107.98905
#
# Poissons Ratio (x) = 0.17228 0.20620
# Poissons Ratio (y) = 0.26428 0.15552
# Poissons Ratio (z) = 0.14918 0.07334
#
# Static dielectric constant tensor:
#      x y z
#    x 4.140270 0.000000 0.000000 
#    y 0.000000 3.735630 0.000000 
#    z 0.000000 0.000000 4.081500 
# 
# 
# High freq. dielectric constant tensor:
#      x y z
#    x 1.871620 0.000000 0.000000 
#    y 0.000000 1.852140 0.000000 
#    z 0.000000 0.000000 1.868010 
# 
# From -- ./inp_files/10167.got.cif
#   From: 2010.03.12/outbox.cif.g09.slc.cpg/sg23_6_cif.got.tgz:10167.got - 2010.04.14 02:50:06.
