data_PCOD8163047
_publ_section_title
;
Structure prediction by ZEFSAII (Michael W. Deem and Ramdas Pophale) SiO2 
 PCOD8163047
Probable space group: F 2 2 2
;
_chemical_formula_sum "Si O2"
_cell_formula_units_Z 96
_cell_length_a 19.712580
_cell_length_b 13.425696
_cell_length_c 15.000069
_cell_angle_alpha 90.000000
_cell_angle_beta 90.000000
_cell_angle_gamma 90.000000
_cell_volume 3969.844858
_symmetry_space_group_name_H-M "F 2 2 2"
_symmetry_group_IT_number 22
_symmetry_cell_setting 'orthorhombic'
loop_
_space_group_symop_operation_xyz
x,y,z
-x,-y,z
x,-y,-z
-x,y,-z
x,1/2+y,1/2+z
-x,1/2-y,1/2+z
x,1/2-y,1/2-z
-x,1/2+y,1/2-z
1/2+x,y,1/2+z
1/2-x,-y,1/2+z
1/2+x,-y,1/2-z
1/2-x,y,1/2-z
1/2+x,1/2+y,z
1/2-x,1/2-y,z
1/2+x,1/2-y,-z
1/2-x,1/2+y,-z
loop_
_atom_site_type_symbol
_atom_site_label
_atom_site_fract_x
_atom_site_fract_y
_atom_site_fract_z
Si Si1 0.689703 0.022120 0.594050
Si Si2 0.571896 0.779286 0.963474
Si Si3 0.185755 0.805153 0.153110
Si Si4 0.534653 0.143979 0.213475
Si Si5 0.663829 0.582802 0.431528
Si Si6 0.603488 0.948001 0.252540
O O1 0.705855 0.922509 0.653262
O O2 0.651996 0.000000 0.500000
O O3 0.754400 0.089178 0.563952
O O4 0.640773 0.087997 0.657035
O O5 0.617735 0.702285 0.907213
O O6 0.548495 0.865163 0.892746
O O7 0.500000 0.733032 0.000000
O O8 0.620614 0.819376 0.042348
O O9 0.176271 0.750000 0.250000
O O10 0.250000 0.750000 0.106581
O O11 0.557936 0.250000 0.250000
O O12 0.456258 0.128509 0.233818
O O13 0.578342 0.061771 0.265813
O O14 0.637242 0.500000 0.500000
O O15 0.653773 0.553247 0.329840
#
# Coordination Sequence:
#
# PCOD8163047 Si02
#       6
#    16  16  16  16  16  16
#     4  11  25  44  67  98 144 192 234 288 360 439
#     4  12  23  41  69 105 141 177 232 304 359 425
#     4  11  25  43  71 105 139 183 246 304 356 421
#     4  11  24  42  66 104 138 182 241 298 359 425
#     4  11  22  39  69 103 136 177 233 296 363 416
#     4  11  23  42  68  98 142 186 231 289 369 430
#
# _framework density 24.182304999999999
#
# number of rings (size 3 to 8) (size 9 to 14) (size 15 to 20)
#    0.000    0.833    3.333    5.000    4.667    1.667 
#    0.000    1.667    0.000    1.000    0.000    0.000 
#    0.000    0.000    0.000    0.000    0.000    0.000 
#
# Total GULP energy -297362.851430 kJ/mol
# GULP energy per Si atom -12390.118810 kJ/mol
# Density = 2.412727 g / cm^3
# Si number density = 24.182305 Si / 1000 Ang^3
#
#
#
# Elastic Constant Matrix: (Units=GPa)
#
#
# Indices 1 2 3 4 5 6 
#
# 1 148.4755 19.2514 59.3530 0.0000 0.0000 0.0000
# 2 19.2514 55.8567 5.0904 0.0000 0.0000 0.0000
# 3 59.3530 5.0904 155.1693 0.0000 0.0000 0.0000
# 4 0.0000 0.0000 0.0000 25.6705 0.0000 0.0000
# 5 0.0000 0.0000 0.0000 0.0000 59.0935 0.0000
# 6 0.0000 0.0000 0.0000 0.0000 0.0000 10.5267
#
#
#
# Elastic Compliance Matrix: (Units=1/GPa)
#
#
# Indices 1 2 3 4 5 6 
#
# 1 0.008306 -0.002581 -0.003092 0.000000 0.000000 0.000000
# 2 -0.002581 0.018759 0.000372 0.000000 0.000000 0.000000
# 3 -0.003092 0.000372 0.007615 0.000000 0.000000 0.000000
# 4 0.000000 0.000000 0.000000 0.038955 0.000000 0.000000
# 5 0.000000 0.000000 0.000000 0.000000 0.016922 0.000000
# 6 0.000000 0.000000 0.000000 0.000000 0.000000 0.094997
#
#
# Mechanical properties :
#
#
# Convention : Reuss Voigt Hill
#
# Bulk Modulus (GPa) = 41.53369 58.54346 50.03858
# Shear Modulus (GPa) = 24.48787 37.44525 30.96656
#
# Velocity S-wave (km/s) = 3.18565 3.93931 3.58235
# Velocity P-wave (km/s) = 5.54470 6.70468 6.15209
#
# Compressibility (1/GPa) = 0.02407684
#
# Stress axis : x y z
#
# Youngs Moduli (GPa) = 120.39580 53.30890 131.31577
#
# Poissons Ratio (x) = 0.13758 0.40608
# Poissons Ratio (y) = 0.31073 -0.04883
# Poissons Ratio (z) = 0.37231 -0.01982
#
# Static dielectric constant tensor:
#      x y z
#    x 4.715200 0.000000 0.000000 
#    y 0.000000 3.833610 0.000000 
#    z 0.000000 0.000000 4.525660 
# 
# 
# High freq. dielectric constant tensor:
#      x y z
#    x 1.977310 0.000000 0.000000 
#    y 0.000000 1.914140 0.000000 
#    z 0.000000 0.000000 1.969420 
# 
# From -- ./inp_files/29360.got.cif
#   From: 2010.03.12/outbox.cif.g09.slc.cpg/sg22_15_cif.got.tgz:29360.got - 2010.04.14 02:24:06.
