data_PCOD8163714
_publ_section_title
;
Structure prediction by ZEFSAII (Michael W. Deem and Ramdas Pophale) SiO2 
 PCOD8163714
Probable space group: I 2 2 2
;
_chemical_formula_sum "Si O2"
_cell_formula_units_Z 56
_cell_length_a 14.630551
_cell_length_b 20.722796
_cell_length_c 9.321720
_cell_angle_alpha 90.000000
_cell_angle_beta 90.000000
_cell_angle_gamma 90.000000
_cell_volume 2826.214289
_symmetry_space_group_name_H-M "I 2 2 2"
_symmetry_group_IT_number 23
_symmetry_cell_setting 'orthorhombic'
loop_
_space_group_symop_operation_xyz
x,y,z
-x,-y,z
x,-y,-z
-x,y,-z
1/2+x,1/2+y,1/2+z
1/2-x,1/2-y,1/2+z
1/2+x,1/2-y,1/2-z
1/2-x,1/2+y,1/2-z
loop_
_atom_site_type_symbol
_atom_site_label
_atom_site_fract_x
_atom_site_fract_y
_atom_site_fract_z
Si Si1 0.250448 0.927906 0.470096
Si Si2 0.789887 0.723773 0.527698
Si Si3 0.585231 0.659814 0.099159
Si Si4 0.048023 0.431317 0.139358
Si Si5 0.518607 0.743225 0.335848
Si Si6 0.307335 0.183685 0.332493
Si Si7 0.065200 0.330639 0.367118
O O1 0.165366 0.893818 0.390290
O O2 0.342402 0.934149 0.377276
O O3 0.276627 0.886727 0.613076
O O4 0.215819 0.000000 0.500000
O O5 0.873166 0.774931 0.534698
O O6 0.707307 0.759358 0.449350
O O7 0.755975 0.697218 0.681567
O O8 0.830923 0.665656 0.429823
O O9 0.553025 0.676736 0.261405
O O10 0.500000 0.636439 0.000000
O O11 0.033168 0.395724 0.289086
O O12 0.000000 0.500000 0.154886
O O13 0.000000 0.396927 0.000000
O O14 0.500000 0.726653 0.500000
O O15 0.584839 0.806223 0.310716
O O16 0.431679 0.771104 0.248582
O O17 0.000000 0.316601 0.500000
#
# Coordination Sequence:
#
# PCOD8163714 Si02
#       7
#     8   8   8   8   8   8   8
#     4  11  23  40  64  90 121 165 215 258 298 369
#     4  10  21  35  57  90 126 155 196 250 318 369
#     4  10  20  40  59  91 125 155 201 254 309 370
#     4  11  24  41  62  86 122 165 215 253 300 361
#     4  11  21  34  60  92 125 155 197 248 322 371
#     4  10  22  36  57  90 124 158 201 252 308 368
#     4  12  21  36  57  86 125 161 197 249 307 381
#
# _framework density 19.814492000000001
#
# number of rings (size 3 to 8) (size 9 to 14) (size 15 to 20)
#    0.000    1.286    5.714    2.143    8.000    0.571 
#    0.000    0.000    0.000    0.000    0.000    1.000 
#    0.000    0.000    0.000    0.000    0.000    0.000 
#
# Total GULP energy -346895.745087 kJ/mol
# GULP energy per Si atom -12389.133753 kJ/mol
# Density = 1.976939 g / cm^3
# Si number density = 19.814492 Si / 1000 Ang^3
#
#
#
# Elastic Constant Matrix: (Units=GPa)
#
#
# Indices 1 2 3 4 5 6 
#
# 1 71.3151 35.6175 27.4344 0.0000 0.0000 0.0000
# 2 35.6175 106.4119 54.5684 0.0000 0.0000 0.0000
# 3 27.4344 54.5684 140.8208 0.0000 0.0000 0.0000
# 4 0.0000 0.0000 0.0000 18.9594 0.0000 0.0000
# 5 0.0000 0.0000 0.0000 0.0000 26.8009 0.0000
# 6 0.0000 0.0000 0.0000 0.0000 0.0000 29.2059
#
#
#
# Elastic Compliance Matrix: (Units=1/GPa)
#
#
# Indices 1 2 3 4 5 6 
#
# 1 0.017051 -0.004997 -0.001386 0.000000 0.000000 0.000000
# 2 -0.004997 0.013192 -0.004139 0.000000 0.000000 0.000000
# 3 -0.001386 -0.004139 0.008975 0.000000 0.000000 0.000000
# 4 0.000000 0.000000 0.000000 0.052744 0.000000 0.000000
# 5 0.000000 0.000000 0.000000 0.000000 0.037312 0.000000
# 6 0.000000 0.000000 0.000000 0.000000 0.000000 0.034240
#
#
# Mechanical properties :
#
#
# Convention : Reuss Voigt Hill
#
# Bulk Modulus (GPa) = 55.01674 61.53206 58.27440
# Shear Modulus (GPa) = 26.23100 28.38841 27.30971
#
# Velocity S-wave (km/s) = 3.64239 3.78922 3.71653
# Velocity P-wave (km/s) = 6.74652 7.08983 6.92031
#
# Compressibility (1/GPa) = 0.01817629
#
# Stress axis : x y z
#
# Youngs Moduli (GPa) = 58.64830 75.80267 111.42225
#
# Poissons Ratio (x) = 0.37875 0.15439
# Poissons Ratio (y) = 0.29304 0.46113
# Poissons Ratio (z) = 0.08126 0.31371
#
# Static dielectric constant tensor:
#      x y z
#    x 3.782690 0.000000 0.000000 
#    y 0.000000 3.410570 0.000000 
#    z 0.000000 0.000000 3.810340 
# 
# 
# High freq. dielectric constant tensor:
#      x y z
#    x 1.775630 0.000000 0.000000 
#    y 0.000000 1.733740 0.000000 
#    z 0.000000 0.000000 1.775470 
# 
# From -- ./inp_files/10236.got.cif
#   From: 2010.03.12/outbox.cif.g09.slc.cpg/sg23_6_cif.got.tgz:10236.got - 2010.04.14 02:50:06.
