data_PCOD8163374
_publ_section_title
;
Structure prediction by ZEFSAII (Michael W. Deem and Ramdas Pophale) SiO2 
 PCOD8163374
Probable space group: I 2 2 2
;
_chemical_formula_sum "Si O2"
_cell_formula_units_Z 32
_cell_length_a 22.594483
_cell_length_b 8.988639
_cell_length_c 8.126760
_cell_angle_alpha 90.000000
_cell_angle_beta 90.000000
_cell_angle_gamma 90.000000
_cell_volume 1650.493360
_symmetry_space_group_name_H-M "I 2 2 2"
_symmetry_group_IT_number 23
_symmetry_cell_setting 'orthorhombic'
loop_
_space_group_symop_operation_xyz
x,y,z
-x,-y,z
x,-y,-z
-x,y,-z
1/2+x,1/2+y,1/2+z
1/2-x,1/2-y,1/2+z
1/2+x,1/2-y,1/2-z
1/2-x,1/2+y,1/2-z
loop_
_atom_site_type_symbol
_atom_site_label
_atom_site_fract_x
_atom_site_fract_y
_atom_site_fract_z
Si Si1 0.437603 0.670037 0.047021
Si Si2 0.871046 0.093976 0.845670
Si Si3 0.325302 0.679821 0.852426
Si Si4 0.294785 0.164973 0.473500
O O1 0.423748 0.674897 0.243419
O O2 0.443222 0.500000 0.000000
O O3 0.500000 0.750528 0.000000
O O4 0.384482 0.742487 0.940849
O O5 0.835169 0.983891 0.724553
O O6 0.827075 0.220231 0.907033
O O7 0.897404 0.000000 0.000000
O O8 0.305655 0.796696 0.715718
O O9 0.274963 0.669506 0.990261
O O10 0.320569 0.000000 0.500000
#
# Coordination Sequence:
#
# PCOD8163374 Si02
#       4
#     8   8   8   8
#     4   9  17  33  55  77 101 133 174 218 260 305
#     4   9  19  34  53  79 106 133 172 217 263 313
#     4  10  19  33  52  77 104 134 171 218 263 312
#     4  11  20  32  52  77 106 137 170 214 268 322
#
# _framework density 19.388141999999998
#
# number of rings (size 3 to 8) (size 9 to 14) (size 15 to 20)
#    0.000    2.250    0.000    5.250    0.000    0.000 
#    0.000   25.000    0.000    4.500    0.000    0.000 
#    0.000    0.000    0.000    0.000    0.000    0.000 
#
# Total GULP energy -198329.886225 kJ/mol
# GULP energy per Si atom -12395.617889 kJ/mol
# Density = 1.934401 g / cm^3
# Si number density = 19.388142 Si / 1000 Ang^3
#
#
#
# Elastic Constant Matrix: (Units=GPa)
#
#
# Indices 1 2 3 4 5 6 
#
# 1 140.9714 30.9707 91.5836 0.0000 0.0000 0.0000
# 2 30.9707 66.1074 30.2376 0.0000 0.0000 0.0000
# 3 91.5836 30.2376 139.8417 0.0000 0.0000 0.0000
# 4 0.0000 0.0000 0.0000 22.4222 0.0000 0.0000
# 5 0.0000 0.0000 0.0000 0.0000 30.3005 0.0000
# 6 0.0000 0.0000 0.0000 0.0000 0.0000 13.4126
#
#
#
# Elastic Compliance Matrix: (Units=1/GPa)
#
#
# Indices 1 2 3 4 5 6 
#
# 1 0.012674 -0.002376 -0.007787 0.000000 0.000000 0.000000
# 2 -0.002376 0.017233 -0.002170 0.000000 0.000000 0.000000
# 3 -0.007787 -0.002170 0.012720 0.000000 0.000000 0.000000
# 4 0.000000 0.000000 0.000000 0.044599 0.000000 0.000000
# 5 0.000000 0.000000 0.000000 0.000000 0.033003 0.000000
# 6 0.000000 0.000000 0.000000 0.000000 0.000000 0.074557
#
#
# Mechanical properties :
#
#
# Convention : Reuss Voigt Hill
#
# Bulk Modulus (GPa) = 55.67629 72.50048 64.08839
# Shear Modulus (GPa) = 22.17906 26.16898 24.17402
#
# Velocity S-wave (km/s) = 3.38590 3.67787 3.53490
# Velocity P-wave (km/s) = 6.63813 7.45057 7.05606
#
# Compressibility (1/GPa) = 0.01796097
#
# Stress axis : x y z
#
# Youngs Moduli (GPa) = 78.89878 58.02930 78.61749
#
# Poissons Ratio (x) = 0.13789 0.61218
# Poissons Ratio (y) = 0.18748 0.17060
# Poissons Ratio (z) = 0.61437 0.12592
#
# Static dielectric constant tensor:
#      x y z
#    x 4.060140 0.000000 0.000000 
#    y 0.000000 3.276180 0.000000 
#    z 0.000000 0.000000 3.932730 
# 
# 
# High freq. dielectric constant tensor:
#      x y z
#    x 1.742840 0.000000 0.000000 
#    y 0.000000 1.717260 0.000000 
#    z 0.000000 0.000000 1.773860 
# 
# From -- ./inp_files/6574.got.cif
#   From: 2010.03.12/outbox.cif.g09.slc.cpg/sg23_4_cif.got.tgz:6574.got - 2010.04.14 02:50:06.
