data_PCOD8163813
_publ_section_title
;
Structure prediction by ZEFSAII (Michael W. Deem and Ramdas Pophale) SiO2 
 PCOD8163813
Probable space group: I 2 2 2
;
_chemical_formula_sum "Si O2"
_cell_formula_units_Z 48
_cell_length_a 8.965708
_cell_length_b 11.016959
_cell_length_c 22.925592
_cell_angle_alpha 90.000000
_cell_angle_beta 90.000000
_cell_angle_gamma 90.000000
_cell_volume 2264.471623
_symmetry_space_group_name_H-M "I 2 2 2"
_symmetry_group_IT_number 23
_symmetry_cell_setting 'orthorhombic'
loop_
_space_group_symop_operation_xyz
x,y,z
-x,-y,z
x,-y,-z
-x,y,-z
1/2+x,1/2+y,1/2+z
1/2-x,1/2-y,1/2+z
1/2+x,1/2-y,1/2-z
1/2-x,1/2+y,1/2-z
loop_
_atom_site_type_symbol
_atom_site_label
_atom_site_fract_x
_atom_site_fract_y
_atom_site_fract_z
Si Si1 0.922447 0.801315 0.085286
Si Si2 0.755282 0.221075 0.729666
Si Si3 0.276836 0.635766 0.525261
Si Si4 0.046493 0.360267 0.188805
Si Si5 0.916009 0.321652 0.630838
Si Si6 0.281832 0.930035 0.834836
O O1 0.925432 0.674908 0.121199
O O2 0.859397 0.910842 0.124213
O O3 0.083186 0.852958 0.068113
O O4 0.813518 0.777373 0.029649
O O5 0.809070 0.332933 0.771085
O O6 0.582047 0.231976 0.711685
O O7 0.854597 0.209063 0.669970
O O8 0.763893 0.098652 0.768357
O O9 0.253534 0.500000 0.500000
O O10 0.131063 0.680490 0.562113
O O11 0.000000 0.500000 0.193691
O O12 0.834159 0.433295 0.662635
O O13 0.091896 0.337371 0.639057
#
# Coordination Sequence:
#
# PCOD8163813 Si02
#       6
#     8   8   8   8   8   8
#     4  10  21  37  58  83 123 160 203 260 310 372
#     4  11  21  38  61  88 127 163 206 259 315 385
#     4  11  21  36  59  92 126 159 214 270 315 370
#     4  11  23  42  64  91 129 167 214 263 321 388
#     4  11  21  37  59  85 126 161 205 256 319 379
#     4  10  22  36  55  89 121 162 201 248 326 380
#
# _framework density 21.196997
#
# number of rings (size 3 to 8) (size 9 to 14) (size 15 to 20)
#    0.000    1.333    5.000    2.000    0.000    0.667 
#    0.000    4.167    0.000    0.000    0.000    0.000 
#   20.000    0.000    0.000    0.000    0.000    0.000 
#
# Total GULP energy -297333.992194 kJ/mol
# GULP energy per Si atom -12388.916341 kJ/mol
# Density = 2.114875 g / cm^3
# Si number density = 21.196997 Si / 1000 Ang^3
#
#
#
# Elastic Constant Matrix: (Units=GPa)
#
#
# Indices 1 2 3 4 5 6 
#
# 1 56.0297 22.5858 28.7700 0.0000 0.0000 0.0000
# 2 22.5858 63.4372 29.4378 0.0000 0.0000 0.0000
# 3 28.7700 29.4378 139.2135 0.0000 0.0000 0.0000
# 4 0.0000 0.0000 0.0000 36.2660 0.0000 0.0000
# 5 0.0000 0.0000 0.0000 0.0000 35.5341 0.0000
# 6 0.0000 0.0000 0.0000 0.0000 0.0000 22.4877
#
#
#
# Elastic Compliance Matrix: (Units=1/GPa)
#
#
# Indices 1 2 3 4 5 6 
#
# 1 0.022063 -0.006364 -0.003214 0.000000 0.000000 0.000000
# 2 -0.006364 0.019314 -0.002769 0.000000 0.000000 0.000000
# 3 -0.003214 -0.002769 0.008433 0.000000 0.000000 0.000000
# 4 0.000000 0.000000 0.000000 0.027574 0.000000 0.000000
# 5 0.000000 0.000000 0.000000 0.000000 0.028142 0.000000
# 6 0.000000 0.000000 0.000000 0.000000 0.000000 0.044469
#
#
# Mechanical properties :
#
#
# Convention : Reuss Voigt Hill
#
# Bulk Modulus (GPa) = 39.81379 46.69640 43.25510
# Shear Modulus (GPa) = 27.31328 30.71668 29.01498
#
# Velocity S-wave (km/s) = 3.59352 3.81084 3.70378
# Velocity P-wave (km/s) = 6.00345 6.43746 6.22424
#
# Compressibility (1/GPa) = 0.02511692
#
# Stress axis : x y z
#
# Youngs Moduli (GPa) = 45.32424 51.77501 118.58277
#
# Poissons Ratio (x) = 0.32949 0.38112
# Poissons Ratio (y) = 0.28844 0.32836
# Poissons Ratio (z) = 0.14567 0.14337
#
# Static dielectric constant tensor:
#      x y z
#    x 3.989300 0.000000 0.000000 
#    y 0.000000 3.345860 0.000000 
#    z 0.000000 0.000000 4.358540 
# 
# 
# High freq. dielectric constant tensor:
#      x y z
#    x 1.834170 0.000000 0.000000 
#    y 0.000000 1.768820 0.000000 
#    z 0.000000 0.000000 1.854820 
# 
# From -- ./inp_files/27971.got.cif
#   From: 2010.03.12/outbox.cif.g09.slc.cpg/sg23_14_cif.got.tgz:27971.got - 2010.04.14 02:50:06.
