data_PCOD8163141
_publ_section_title
;
Structure prediction by ZEFSAII (Michael W. Deem and Ramdas Pophale) SiO2 
 PCOD8163141
Probable space group: F 2 2 2
;
_chemical_formula_sum "Si O2"
_cell_formula_units_Z 80
_cell_length_a 12.260746
_cell_length_b 10.805132
_cell_length_c 29.293438
_cell_angle_alpha 90.000000
_cell_angle_beta 90.000000
_cell_angle_gamma 90.000000
_cell_volume 3880.764756
_symmetry_space_group_name_H-M "F 2 2 2"
_symmetry_group_IT_number 22
_symmetry_cell_setting 'orthorhombic'
loop_
_space_group_symop_operation_xyz
x,y,z
-x,-y,z
x,-y,-z
-x,y,-z
x,1/2+y,1/2+z
-x,1/2-y,1/2+z
x,1/2-y,1/2-z
-x,1/2+y,1/2-z
1/2+x,y,1/2+z
1/2-x,-y,1/2+z
1/2+x,-y,1/2-z
1/2-x,y,1/2-z
1/2+x,1/2+y,z
1/2-x,1/2-y,z
1/2+x,1/2-y,-z
1/2-x,1/2+y,-z
loop_
_atom_site_type_symbol
_atom_site_label
_atom_site_fract_x
_atom_site_fract_y
_atom_site_fract_z
Si Si1 0.880381 0.768269 0.802093
Si Si2 0.916185 0.108462 0.384604
Si Si3 0.088625 0.796796 0.034488
Si Si4 0.500000 0.000000 0.655262
Si Si5 0.250000 0.750000 0.535405
Si Si6 0.806964 0.989766 0.089845
O O1 0.914382 0.750000 0.750000
O O2 0.750000 0.750000 0.808594
O O3 0.936818 0.667301 0.834822
O O4 0.934430 0.899988 0.814610
O O5 0.943960 0.213115 0.422280
O O6 0.792438 0.058439 0.384770
O O7 0.000000 0.000000 0.393416
O O8 0.152059 0.916091 0.051822
O O9 0.154800 0.710846 0.999350
O O10 0.000000 0.852056 0.000000
O O11 0.404352 0.945448 0.623237
O O12 0.232528 0.634141 0.567138
#
# Coordination Sequence:
#
# PCOD8163141 Si02
#       6
#    16  16  16   8   8  16
#     4  11  25  50  77 107 141 184 234 299 372 438
#     4  12  25  46  69 102 145 186 237 299 364 428
#     4  12  24  44  65  97 137 190 243 288 348 413
#     4  12  24  46  79 104 142 184 241 286 366 436
#     4  12  26  38  62  98 138 184 238 284 336 416
#     4  12  25  45  67 101 146 187 242 294 354 425
#
# _framework density 20.614494000000001
#
# number of rings (size 3 to 8) (size 9 to 14) (size 15 to 20)
#    0.000    0.200    6.000    3.000    4.200    2.800 
#    0.000    0.000    0.000    1.200    0.000    0.000 
#    0.000    0.000    0.000    0.000    0.000    0.000 
#
# Total GULP energy -247789.219418 kJ/mol
# GULP energy per Si atom -12389.460971 kJ/mol
# Density = 2.056757 g / cm^3
# Si number density = 20.614494 Si / 1000 Ang^3
#
#
#
# Elastic Constant Matrix: (Units=GPa)
#
#
# Indices 1 2 3 4 5 6 
#
# 1 104.1553 43.8773 39.4519 0.0000 0.0000 0.0000
# 2 43.8773 148.3350 73.5213 0.0000 0.0000 0.0000
# 3 39.4519 73.5213 155.4999 0.0000 0.0000 0.0000
# 4 0.0000 0.0000 0.0000 141.6598 0.0000 0.0000
# 5 0.0000 0.0000 0.0000 0.0000 23.5177 0.0000
# 6 0.0000 0.0000 0.0000 0.0000 0.0000 41.5874
#
#
#
# Elastic Compliance Matrix: (Units=1/GPa)
#
#
# Indices 1 2 3 4 5 6 
#
# 1 0.011294 -0.002508 -0.001679 0.000000 0.000000 0.000000
# 2 -0.002508 0.009362 -0.003790 0.000000 0.000000 0.000000
# 3 -0.001679 -0.003790 0.008649 0.000000 0.000000 0.000000
# 4 0.000000 0.000000 0.000000 0.007059 0.000000 0.000000
# 5 0.000000 0.000000 0.000000 0.000000 0.042521 0.000000
# 6 0.000000 0.000000 0.000000 0.000000 0.000000 0.024046
#
#
# Mechanical properties :
#
#
# Convention : Reuss Voigt Hill
#
# Bulk Modulus (GPa) = 74.91074 80.18793 77.54933
# Shear Modulus (GPa) = 40.53966 58.09563 49.31765
#
# Velocity S-wave (km/s) = 4.43940 5.31443 4.89650
# Velocity P-wave (km/s) = 7.91805 8.75447 8.34674
#
# Compressibility (1/GPa) = 0.01334922
#
# Stress axis : x y z
#
# Youngs Moduli (GPa) = 88.54378 106.81535 115.62169
#
# Poissons Ratio (x) = 0.26793 0.19418
# Poissons Ratio (y) = 0.22210 0.43821
# Poissons Ratio (z) = 0.14870 0.40483
#
# Static dielectric constant tensor:
#      x y z
#    x 3.621380 0.000000 0.000000 
#    y 0.000000 3.966710 0.000000 
#    z 0.000000 0.000000 3.965880 
# 
# 
# High freq. dielectric constant tensor:
#      x y z
#    x 1.816100 0.000000 0.000000 
#    y 0.000000 1.809050 0.000000 
#    z 0.000000 0.000000 1.813140 
# 
# From -- ./inp_files/18324.got.cif
#   From: 2010.03.12/outbox.cif.g09.slc.cpg/sg22_10_cif.got.tgz:18324.got - 2010.04.14 02:24:06.
