data_PCOD8163729
_publ_section_title
;
Structure prediction by ZEFSAII (Michael W. Deem and Ramdas Pophale) SiO2 
 PCOD8163729
Probable space group: I 2 2 2
;
_chemical_formula_sum "Si O2"
_cell_formula_units_Z 54
_cell_length_a 26.172338
_cell_length_b 8.773723
_cell_length_c 11.018848
_cell_angle_alpha 90.000000
_cell_angle_beta 90.000000
_cell_angle_gamma 90.000000
_cell_volume 2530.245327
_symmetry_space_group_name_H-M "I 2 2 2"
_symmetry_group_IT_number 23
_symmetry_cell_setting 'orthorhombic'
loop_
_space_group_symop_operation_xyz
x,y,z
-x,-y,z
x,-y,-z
-x,y,-z
1/2+x,1/2+y,1/2+z
1/2-x,1/2-y,1/2+z
1/2+x,1/2-y,1/2-z
1/2-x,1/2+y,1/2-z
loop_
_atom_site_type_symbol
_atom_site_label
_atom_site_fract_x
_atom_site_fract_y
_atom_site_fract_z
Si Si1 0.324571 0.000000 0.000000
Si Si2 0.338586 0.353553 0.422456
Si Si3 0.604017 0.133336 0.186135
Si Si4 0.246993 0.031781 0.209276
Si Si5 0.992532 0.177972 0.632496
Si Si6 0.500000 0.000000 0.500000
Si Si7 0.931587 0.666866 0.807215
Si Si8 0.192949 0.314328 0.149178
O O1 0.360693 0.873268 0.064937
O O2 0.288213 0.069338 0.103627
O O3 0.359432 0.500000 0.500000
O O4 0.296073 0.409405 0.328311
O O5 0.382757 0.262524 0.352851
O O6 0.308715 0.235151 0.509848
O O7 0.563075 0.267744 0.175689
O O8 0.635054 0.172466 0.307179
O O9 0.580529 0.967462 0.212204
O O10 0.219886 0.190787 0.237829
O O11 0.276402 0.972411 0.329483
O O12 0.034012 0.220282 0.731300
O O13 0.000000 0.254893 0.500000
O O14 0.000000 0.000000 0.619229
O O15 0.463267 0.106332 0.421223
#
# Coordination Sequence:
#
# PCOD8163729 Si02
#       8
#     4   8   8   8   8   2   8   8
#     4  10  20  40  67  92 126 169 224 272 338 400
#     4  10  23  40  65  95 136 177 225 275 354 419
#     4  11  23  42  68  95 127 175 225 278 336 416
#     4  10  21  41  63  91 130 172 216 280 333 417
#     4  11  26  47  70 101 138 174 233 296 360 421
#     4  12  24  44  60 104 132 160 246 274 328 416
#     4  12  25  42  71  95 135 182 224 287 341 417
#     4  10  22  40  61  92 131 167 223 270 336 407
#
# _framework density 21.341802999999999
#
# number of rings (size 3 to 8) (size 9 to 14) (size 15 to 20)
#    0.000    1.333    3.704    1.778    8.296    0.593 
#    0.000    0.000    0.000    0.000    0.000    0.000 
#    0.000    0.000    0.000    0.000    0.000    0.000 
#
# Total GULP energy -334675.190615 kJ/mol
# GULP energy per Si atom -12395.377430 kJ/mol
# Density = 2.129323 g / cm^3
# Si number density = 21.341803 Si / 1000 Ang^3
#
#
#
# Elastic Constant Matrix: (Units=GPa)
#
#
# Indices 1 2 3 4 5 6 
#
# 1 118.3542 34.1762 20.9199 0.0000 0.0000 0.0000
# 2 34.1762 53.6774 18.0248 0.0000 0.0000 0.0000
# 3 20.9199 18.0248 61.9099 0.0000 0.0000 0.0000
# 4 0.0000 0.0000 0.0000 34.7989 0.0000 0.0000
# 5 0.0000 0.0000 0.0000 0.0000 -122.4603 0.0000
# 6 0.0000 0.0000 0.0000 0.0000 0.0000 155.8230
#
#
#
# Elastic Compliance Matrix: (Units=1/GPa)
#
#
# Indices 1 2 3 4 5 6 
#
# 1 0.010527 -0.006105 -0.001780 0.000000 0.000000 0.000000
# 2 -0.006105 0.024189 -0.004980 0.000000 0.000000 0.000000
# 3 -0.001780 -0.004980 0.018204 0.000000 0.000000 0.000000
# 4 0.000000 0.000000 0.000000 0.028737 0.000000 0.000000
# 5 0.000000 0.000000 0.000000 0.000000 -0.008166 0.000000
# 6 0.000000 0.000000 0.000000 0.000000 0.000000 0.006418
#
#
# Mechanical properties :
#
#
# Convention : Reuss Voigt Hill
#
# Bulk Modulus (GPa) = 36.77671 42.24258 39.50965
# Shear Modulus (GPa) = 43.59241 24.35368 33.97305
#
# Velocity S-wave (km/s) = 4.52440 3.38172 3.99413
# Velocity P-wave (km/s) = 6.67557 5.92321 6.31061
#
# Compressibility (1/GPa) = 0.02719112
#
# Stress axis : x y z
#
# Youngs Moduli (GPa) = 94.99764 41.34148 54.93395
#
# Poissons Ratio (x) = 0.25237 0.09777
# Poissons Ratio (y) = 0.57993 0.27355
# Poissons Ratio (z) = 0.16907 0.20587
#
# Static dielectric constant tensor:
#      x y z
#    x 4.125240 0.000000 0.000000 
#    y 0.000000 5.774770 0.000000 
#    z 0.000000 0.000000 3.359520 
# 
# 
# High freq. dielectric constant tensor:
#      x y z
#    x 1.852090 0.000000 0.000000 
#    y 0.000000 1.832410 0.000000 
#    z 0.000000 0.000000 1.836200 
# 
# From -- ./inp_files/18599.got.cif
#   From: 2010.03.12/outbox.cif.g09.slc.cpg/sg23_10_cif.got.tgz:18599.got - 2010.04.14 02:50:06.
