data_PCOD8163588
_publ_section_title
;
Structure prediction by ZEFSAII (Michael W. Deem and Ramdas Pophale) SiO2 
 PCOD8163588
Probable space group: I 2 2 2
;
_chemical_formula_sum "Si O2"
_cell_formula_units_Z 38
_cell_length_a 18.266488
_cell_length_b 8.362851
_cell_length_c 10.479954
_cell_angle_alpha 90.000000
_cell_angle_beta 90.000000
_cell_angle_gamma 90.000000
_cell_volume 1600.916908
_symmetry_space_group_name_H-M "I 2 2 2"
_symmetry_group_IT_number 23
_symmetry_cell_setting 'orthorhombic'
loop_
_space_group_symop_operation_xyz
x,y,z
-x,-y,z
x,-y,-z
-x,y,-z
1/2+x,1/2+y,1/2+z
1/2-x,1/2-y,1/2+z
1/2+x,1/2-y,1/2-z
1/2-x,1/2+y,1/2-z
loop_
_atom_site_type_symbol
_atom_site_label
_atom_site_fract_x
_atom_site_fract_y
_atom_site_fract_z
Si Si1 0.186186 0.000000 0.500000
Si Si2 0.000000 0.500000 0.317216
Si Si3 0.000000 0.000000 0.000000
Si Si4 0.439527 0.194066 0.405690
Si Si5 0.370821 0.798208 0.137872
Si Si6 0.685355 0.199113 0.411178
Si Si7 0.247097 0.500000 0.500000
O O1 0.133386 0.881464 0.580807
O O2 0.239324 0.902243 0.403069
O O3 0.948864 0.379662 0.234607
O O4 0.946023 0.610997 0.403627
O O5 0.949960 0.887988 0.907448
O O6 0.500000 0.117716 0.500000
O O7 0.358916 0.149057 0.459877
O O8 0.369436 0.811305 0.291456
O O9 0.299939 0.890351 0.092383
O O10 0.703686 0.386695 0.412837
#
# Coordination Sequence:
#
# PCOD8163588 Si02
#       7
#     4   4   2   8   8   8   4
#     4  10  24  40  63  99 136 170 228 276 320 420
#     4  12  23  39  72  96 134 175 220 275 340 406
#     4   8  18  30  48  88 158 164 192 258 324 384
#     4  10  20  35  61 107 141 165 216 272 333 398
#     4  11  23  43  65  93 129 179 225 272 339 384
#     4  11  20  38  69  95 135 171 214 277 340 385
#     4  10  25  41  61  94 131 172 228 264 314 417
#
# _framework density 23.7364
#
# number of rings (size 3 to 8) (size 9 to 14) (size 15 to 20)
#    0.632    0.842    2.105    3.474    0.000    2.105 
#    0.000    8.421    0.000    7.579    0.000    0.000 
#    0.000    0.000    0.000    0.000    0.000    0.000 
#
# Total GULP energy -235499.046454 kJ/mol
# GULP energy per Si atom -12394.686655 kJ/mol
# Density = 2.368237 g / cm^3
# Si number density = 23.736400 Si / 1000 Ang^3
#
#
#
# Elastic Constant Matrix: (Units=GPa)
#
#
# Indices 1 2 3 4 5 6 
#
# 1 103.2190 46.4349 15.9532 0.0000 0.0000 0.0000
# 2 46.4349 155.0318 20.6426 0.0000 0.0000 0.0000
# 3 15.9532 20.6426 44.1196 0.0000 0.0000 0.0000
# 4 0.0000 0.0000 0.0000 28.8046 0.0000 0.0000
# 5 0.0000 0.0000 0.0000 0.0000 23.3255 0.0000
# 6 0.0000 0.0000 0.0000 0.0000 0.0000 32.7250
#
#
#
# Elastic Compliance Matrix: (Units=1/GPa)
#
#
# Indices 1 2 3 4 5 6 
#
# 1 0.011494 -0.003081 -0.002714 0.000000 0.000000 0.000000
# 2 -0.003081 0.007705 -0.002491 0.000000 0.000000 0.000000
# 3 -0.002714 -0.002491 0.024813 0.000000 0.000000 0.000000
# 4 0.000000 0.000000 0.000000 0.034717 0.000000 0.000000
# 5 0.000000 0.000000 0.000000 0.000000 0.042872 0.000000
# 6 0.000000 0.000000 0.000000 0.000000 0.000000 0.030558
#
#
# Mechanical properties :
#
#
# Convention : Reuss Voigt Hill
#
# Bulk Modulus (GPa) = 36.44528 52.04798 44.24663
# Shear Modulus (GPa) = 28.10946 31.59365 29.85156
#
# Velocity S-wave (km/s) = 3.44500 3.65227 3.55015
# Velocity P-wave (km/s) = 5.58673 6.30560 5.95702
#
# Compressibility (1/GPa) = 0.02743839
#
# Stress axis : x y z
#
# Youngs Moduli (GPa) = 87.00342 129.78902 40.30212
#
# Poissons Ratio (x) = 0.39990 0.10940
# Poissons Ratio (y) = 0.26807 0.10038
# Poissons Ratio (z) = 0.23616 0.32328
#
# Static dielectric constant tensor:
#      x y z
#    x 4.064420 0.000000 0.000000 
#    y 0.000000 4.629720 0.000000 
#    z 0.000000 0.000000 3.742040 
# 
# 
# High freq. dielectric constant tensor:
#      x y z
#    x 1.933400 0.000000 0.000000 
#    y 0.000000 1.968380 0.000000 
#    z 0.000000 0.000000 1.898140 
# 
# From -- ./inp_files/17294.got.cif
#   From: 2010.03.12/outbox.cif.g09.slc.cpg/sg23_9_cif.got.tgz:17294.got - 2010.04.14 02:50:06.
