data_PCOD8163462
_publ_section_title
;
Structure prediction by ZEFSAII (Michael W. Deem and Ramdas Pophale) SiO2 
 PCOD8163462
Probable space group: I 2 2 2
;
_chemical_formula_sum "Si O2"
_cell_formula_units_Z 64
_cell_length_a 11.767299
_cell_length_b 16.402752
_cell_length_c 14.592292
_cell_angle_alpha 90.000000
_cell_angle_beta 90.000000
_cell_angle_gamma 90.000000
_cell_volume 2816.547105
_symmetry_space_group_name_H-M "I 2 2 2"
_symmetry_group_IT_number 23
_symmetry_cell_setting 'orthorhombic'
loop_
_space_group_symop_operation_xyz
x,y,z
-x,-y,z
x,-y,-z
-x,y,-z
1/2+x,1/2+y,1/2+z
1/2-x,1/2-y,1/2+z
1/2+x,1/2-y,1/2-z
1/2-x,1/2+y,1/2-z
loop_
_atom_site_type_symbol
_atom_site_label
_atom_site_fract_x
_atom_site_fract_y
_atom_site_fract_z
Si Si1 0.938808 0.925818 0.229148
Si Si2 0.964863 0.221016 0.902621
Si Si3 0.425974 0.077655 0.793787
Si Si4 0.282631 0.235135 0.114809
Si Si5 0.239986 0.489906 0.830212
Si Si6 0.080270 0.102674 0.587384
Si Si7 0.633404 0.092039 0.014405
Si Si8 0.121918 0.668817 0.203874
O O1 0.936683 0.850090 0.165528
O O2 0.811471 0.956150 0.244894
O O3 0.001146 0.905589 0.324538
O O4 0.000000 0.000000 0.177469
O O5 0.844810 0.269728 0.903842
O O6 0.076001 0.270410 0.872613
O O7 0.000000 0.184772 0.000000
O O8 0.348098 0.111350 0.877085
O O9 0.513441 0.146509 0.765144
O O10 0.500000 0.000000 0.828388
O O11 0.348040 0.056892 0.706544
O O12 0.368223 0.306766 0.084807
O O13 0.293295 0.212153 0.223368
O O14 0.301568 0.155563 0.050742
O O15 0.319581 0.532901 0.907334
O O16 0.172510 0.406688 0.857236
O O17 0.000000 0.086888 0.500000
O O18 0.500000 0.100506 0.000000
O O19 0.679087 0.000000 0.000000
#
# Coordination Sequence:
#
# PCOD8163462 Si02
#       8
#     8   8   8   8   8   8   8   8
#     4  10  23  44  70  98 145 192 241 300 366 446
#     4  12  28  48  65 105 146 186 244 305 378 459
#     4  10  19  36  68 105 144 181 240 303 368 434
#     4  12  24  43  70 102 147 198 240 305 389 438
#     4  10  22  43  73 102 138 198 241 302 377 436
#     4  11  25  45  72 111 147 189 258 310 367 450
#     4  11  19  34  61 110 148 182 244 302 359 452
#     4  11  22  44  74  97 141 192 237 305 370 450
#
# _framework density 22.722857000000001
#
# number of rings (size 3 to 8) (size 9 to 14) (size 15 to 20)
#    0.000    1.125    5.000    1.875    0.000    5.500 
#    2.250    1.250    0.000    4.875    0.000    0.000 
#    0.000    0.000    0.000    0.000    0.000    0.000 
#
# Total GULP energy -396555.614316 kJ/mol
# GULP energy per Si atom -12392.362947 kJ/mol
# Density = 2.267114 g / cm^3
# Si number density = 22.722857 Si / 1000 Ang^3
#
#
#
# Elastic Constant Matrix: (Units=GPa)
#
#
# Indices 1 2 3 4 5 6 
#
# 1 91.7049 23.6366 27.0692 0.0000 0.0000 0.0000
# 2 23.6366 98.4101 23.3404 0.0000 0.0000 0.0001
# 3 27.0692 23.3404 88.2122 0.0000 0.0000 0.0002
# 4 0.0000 0.0000 0.0000 16.6967 0.0001 0.0001
# 5 0.0000 0.0000 0.0000 0.0001 3.0863 0.0000
# 6 0.0000 0.0001 0.0002 0.0001 0.0000 22.0789
#
#
#
# Elastic Compliance Matrix: (Units=1/GPa)
#
#
# Indices 1 2 3 4 5 6 
#
# 1 0.012429 -0.002220 -0.003227 0.000000 0.000000 0.000000
# 2 -0.002220 0.011238 -0.002292 0.000000 0.000000 0.000000
# 3 -0.003227 -0.002292 0.012933 0.000000 0.000000 0.000000
# 4 0.000000 0.000000 0.000000 0.059892 -0.000001 0.000000
# 5 0.000000 0.000000 0.000000 -0.000001 0.324017 0.000000
# 6 0.000000 0.000000 0.000000 0.000000 0.000000 0.045292
#
#
# Mechanical properties :
#
#
# Convention : Reuss Voigt Hill
#
# Bulk Modulus (GPa) = 47.34288 47.37997 47.36142
# Shear Modulus (GPa) = 10.23916 21.99109 16.11513
#
# Velocity S-wave (km/s) = 2.12506 3.11432 2.66598
# Velocity P-wave (km/s) = 5.18665 5.81622 5.51044
#
# Compressibility (1/GPa) = 0.02112250
#
# Stress axis : x y z
#
# Youngs Moduli (GPa) = 80.45580 88.98007 77.32159
#
# Poissons Ratio (x) = 0.19754 0.24949
# Poissons Ratio (y) = 0.17861 0.17725
# Poissons Ratio (z) = 0.25960 0.20398
#
# Static dielectric constant tensor:
#      x y z
#    x 4.291870 0.000000 0.000000 
#    y 0.000000 4.285330 0.000000 
#    z 0.000000 0.000000 4.086270 
# 
# 
# High freq. dielectric constant tensor:
#      x y z
#    x 1.902530 0.000000 0.000000 
#    y 0.000000 1.897880 0.000000 
#    z 0.000000 0.000000 1.880890 
# 
# From -- ./inp_files/21038.got.cif
#   From: 2010.03.12/outbox.cif.g09.slc.cpg/sg23_11_cif.got.tgz:21038.got - 2010.04.14 02:50:06.
