data_PCOD8163900
_publ_section_title
;
Structure prediction by ZEFSAII (Michael W. Deem and Ramdas Pophale) SiO2 
 PCOD8163900
Probable space group: I 2 2 2
;
_chemical_formula_sum "Si O2"
_cell_formula_units_Z 48
_cell_length_a 18.182571
_cell_length_b 14.688247
_cell_length_c 8.738087
_cell_angle_alpha 90.000000
_cell_angle_beta 90.000000
_cell_angle_gamma 90.000000
_cell_volume 2333.681716
_symmetry_space_group_name_H-M "I 2 2 2"
_symmetry_group_IT_number 23
_symmetry_cell_setting 'orthorhombic'
loop_
_space_group_symop_operation_xyz
x,y,z
-x,-y,z
x,-y,-z
-x,y,-z
1/2+x,1/2+y,1/2+z
1/2-x,1/2-y,1/2+z
1/2+x,1/2-y,1/2-z
1/2-x,1/2+y,1/2-z
loop_
_atom_site_type_symbol
_atom_site_label
_atom_site_fract_x
_atom_site_fract_y
_atom_site_fract_z
Si Si1 0.260060 0.585124 0.091345
Si Si2 0.688015 0.402632 0.426489
Si Si3 0.460246 0.190078 0.150209
Si Si4 0.409321 0.248426 0.672464
Si Si5 0.909013 0.590441 0.927895
Si Si6 0.682639 0.225528 0.029424
O O1 0.299996 0.580110 0.250413
O O2 0.174404 0.574385 0.117264
O O3 0.275183 0.679623 0.003955
O O4 0.293012 0.500000 0.000000
O O5 0.669194 0.500000 0.500000
O O6 0.616757 0.335741 0.427368
O O7 0.759666 0.356781 0.505290
O O8 0.513975 0.265359 0.233066
O O9 0.450910 0.108607 0.269513
O O10 0.500000 0.149902 0.000000
O O11 0.380810 0.228735 0.100545
O O12 0.421726 0.169638 0.550063
O O13 0.347939 0.217645 0.797463
O O14 0.943248 0.500000 0.000000
#
# Coordination Sequence:
#
# PCOD8163900 Si02
#       6
#     8   8   8   8   8   8
#     4  10  22  37  62  95 124 160 212 265 328 374
#     4  11  23  38  63  96 129 165 216 269 322 383
#     4  10  22  42  65  89 129 172 213 258 322 391
#     4  10  23  40  61  93 128 169 212 259 328 390
#     4  11  22  38  62  93 127 163 210 261 317 384
#     4  10  21  40  64  92 122 168 211 268 321 381
#
# _framework density 20.568358
#
# number of rings (size 3 to 8) (size 9 to 14) (size 15 to 20)
#    0.000    1.667    3.333    0.500    4.667    2.667 
#    0.000    6.667    0.000   24.500    0.000    0.000 
#    0.000    0.000    0.000    0.000    0.000    0.000 
#
# Total GULP energy -297444.698285 kJ/mol
# GULP energy per Si atom -12393.529095 kJ/mol
# Density = 2.052154 g / cm^3
# Si number density = 20.568358 Si / 1000 Ang^3
#
#
#
# Elastic Constant Matrix: (Units=GPa)
#
#
# Indices 1 2 3 4 5 6 
#
# 1 89.7822 47.9858 36.5841 0.0000 0.0000 0.0000
# 2 47.9858 151.0637 67.9605 0.0000 0.0000 0.0000
# 3 36.5841 67.9605 97.1919 0.0000 0.0000 0.0000
# 4 0.0000 0.0000 0.0000 37.3318 0.0000 0.0000
# 5 0.0000 0.0000 0.0000 0.0000 21.3770 0.0000
# 6 0.0000 0.0000 0.0000 0.0000 0.0000 -6.8240
#
#
#
# Elastic Compliance Matrix: (Units=1/GPa)
#
#
# Indices 1 2 3 4 5 6 
#
# 1 0.014052 -0.003041 -0.003163 0.000000 0.000000 0.000000
# 2 -0.003041 0.010316 -0.006069 0.000000 0.000000 0.000000
# 3 -0.003163 -0.006069 0.015723 0.000000 0.000000 0.000000
# 4 0.000000 0.000000 0.000000 0.026787 0.000000 0.000000
# 5 0.000000 0.000000 0.000000 0.000000 0.046779 0.000000
# 6 0.000000 0.000000 0.000000 0.000000 0.000000 -0.146542
#
#
# Mechanical properties :
#
#
# Convention : Reuss Voigt Hill
#
# Bulk Modulus (GPa) = 64.32577 71.45538 67.89058
# Shear Modulus (GPa) = -1583.08028 22.74413 -780.16807
#
# Velocity S-wave (km/s) = -27.77298 3.32894 -19.49688
# Velocity P-wave (km/s) = 31.57704 7.04213 21.76600
#
# Compressibility (1/GPa) = 0.01554587
#
# Stress axis : x y z
#
# Youngs Moduli (GPa) = 71.16356 96.93916 63.60082
#
# Poissons Ratio (x) = 0.29475 0.20119
# Poissons Ratio (y) = 0.21638 0.38597
# Poissons Ratio (z) = 0.22511 0.58829
#
# Static dielectric constant tensor:
#      x y z
#    x 4.059090 0.000000 0.000000 
#    y 0.000000 3.999110 0.000000 
#    z 0.000000 0.000000 3.959170 
# 
# 
# High freq. dielectric constant tensor:
#      x y z
#    x 1.814840 0.000000 0.000000 
#    y 0.000000 1.780880 0.000000 
#    z 0.000000 0.000000 1.821160 
# 
# From -- ./inp_files/9965.got.cif
#   From: 2010.03.12/outbox.cif.g09.slc.cpg/sg23_5_cif.got.tgz:9965.got - 2010.04.14 02:50:06.
