data_PCOD8163098
_publ_section_title
;
Structure prediction by ZEFSAII (Michael W. Deem and Ramdas Pophale) SiO2 
 PCOD8163098
Probable space group: F 2 2 2
;
_chemical_formula_sum "Si O2"
_cell_formula_units_Z 80
_cell_length_a 14.477120
_cell_length_b 20.695457
_cell_length_c 11.700801
_cell_angle_alpha 90.000000
_cell_angle_beta 90.000000
_cell_angle_gamma 90.000000
_cell_volume 3505.684177
_symmetry_space_group_name_H-M "F 2 2 2"
_symmetry_group_IT_number 22
_symmetry_cell_setting 'orthorhombic'
loop_
_space_group_symop_operation_xyz
x,y,z
-x,-y,z
x,-y,-z
-x,y,-z
x,1/2+y,1/2+z
-x,1/2-y,1/2+z
x,1/2-y,1/2-z
-x,1/2+y,1/2-z
1/2+x,y,1/2+z
1/2-x,-y,1/2+z
1/2+x,-y,1/2-z
1/2-x,y,1/2-z
1/2+x,1/2+y,z
1/2-x,1/2-y,z
1/2+x,1/2-y,-z
1/2-x,1/2+y,-z
loop_
_atom_site_type_symbol
_atom_site_label
_atom_site_fract_x
_atom_site_fract_y
_atom_site_fract_z
Si Si1 0.595958 0.137820 0.460656
Si Si2 0.266391 0.076087 0.373628
Si Si3 0.142986 0.733709 0.123955
Si Si4 0.900056 0.532151 0.714454
Si Si5 0.603892 0.411116 0.456108
O O1 0.500000 0.107521 0.500000
O O2 0.673903 0.124573 0.552939
O O3 0.588539 0.215019 0.453702
O O4 0.614329 0.103181 0.339502
O O5 0.250000 0.109382 0.250000
O O6 0.170168 0.065434 0.441031
O O7 0.320872 0.009510 0.348311
O O8 0.106502 0.750000 0.250000
O O9 0.250000 0.750000 0.114652
O O10 0.122409 0.662165 0.081423
O O11 0.880750 0.540789 0.848988
O O12 0.000000 0.500000 0.692723
O O13 0.500000 0.418229 0.500000
#
# Coordination Sequence:
#
# PCOD8163098 Si02
#       5
#    16  16  16  16  16
#     4  12  25  47  75 108 146 198 255 314 379 458
#     4  12  29  45  74 111 151 197 247 313 389 453
#     4  11  23  46  77 109 146 203 266 318 382 463
#     4  12  27  48  75 110 153 199 255 312 392 468
#     4  12  28  52  76 114 158 208 262 324 394 463
#
# _framework density 22.820081999999999
#
# number of rings (size 3 to 8) (size 9 to 14) (size 15 to 20)
#    0.000    0.200    6.000    2.400    5.600    2.000 
#    0.000    2.000    0.000    0.000    0.000    0.000 
#    0.000    0.000    0.000    0.000    0.000    0.000 
#
# Total GULP energy -247940.615444 kJ/mol
# GULP energy per Si atom -12397.030772 kJ/mol
# Density = 2.276814 g / cm^3
# Si number density = 22.820082 Si / 1000 Ang^3
#
#
#
# Elastic Constant Matrix: (Units=GPa)
#
#
# Indices 1 2 3 4 5 6 
#
# 1 156.2441 37.5587 70.1643 0.0000 0.0000 0.0000
# 2 37.5587 147.1145 52.5903 0.0000 0.0000 0.0000
# 3 70.1643 52.5903 154.0398 0.0000 0.0000 0.0000
# 4 0.0000 0.0000 0.0000 17.9514 0.0000 0.0000
# 5 0.0000 0.0000 0.0000 0.0000 40.3804 0.0000
# 6 0.0000 0.0000 0.0000 0.0000 0.0000 31.6586
#
#
#
# Elastic Compliance Matrix: (Units=1/GPa)
#
#
# Indices 1 2 3 4 5 6 
#
# 1 0.008140 -0.000857 -0.003415 0.000000 0.000000 0.000000
# 2 -0.000857 0.007833 -0.002284 0.000000 0.000000 0.000000
# 3 -0.003415 -0.002284 0.008827 0.000000 0.000000 0.000000
# 4 0.000000 0.000000 0.000000 0.055706 0.000000 0.000000
# 5 0.000000 0.000000 0.000000 0.000000 0.024765 0.000000
# 6 0.000000 0.000000 0.000000 0.000000 0.000000 0.031587
#
#
# Mechanical properties :
#
#
# Convention : Reuss Voigt Hill
#
# Bulk Modulus (GPa) = 85.56036 86.44721 86.00379
# Shear Modulus (GPa) = 32.49607 37.80375 35.14991
#
# Velocity S-wave (km/s) = 3.77770 4.07455 3.92893
# Velocity P-wave (km/s) = 7.52349 7.75244 7.63882
#
# Compressibility (1/GPa) = 0.01168766
#
# Stress axis : x y z
#
# Youngs Moduli (GPa) = 122.85179 127.67069 113.28917
#
# Poissons Ratio (x) = 0.10946 0.38688
# Poissons Ratio (y) = 0.10533 0.25871
# Poissons Ratio (z) = 0.41953 0.29155
#
# Static dielectric constant tensor:
#      x y z
#    x 4.364580 0.000000 0.000000 
#    y 0.000000 4.630310 0.000000 
#    z 0.000000 0.000000 1.859600 
# 
# 
# High freq. dielectric constant tensor:
#      x y z
#    x 1.914570 0.000000 0.000000 
#    y 0.000000 1.903700 0.000000 
#    z 0.000000 0.000000 1.913930 
# 
# From -- ./inp_files/19841.got.cif
#   From: 2010.03.12/outbox.cif.g09.slc.cpg/sg22_10_cif.got.tgz:19841.got - 2010.04.14 02:24:06.
