data_PCOD8163975
_publ_section_title
;
Structure prediction by ZEFSAII (Michael W. Deem and Ramdas Pophale) SiO2 
 PCOD8163975
Probable space group: I 2 2 2
;
_chemical_formula_sum "Si O2"
_cell_formula_units_Z 48
_cell_length_a 8.958063
_cell_length_b 8.418448
_cell_length_c 31.928948
_cell_angle_alpha 90.000000
_cell_angle_beta 90.000000
_cell_angle_gamma 90.000000
_cell_volume 2407.857358
_symmetry_space_group_name_H-M "I 2 2 2"
_symmetry_group_IT_number 23
_symmetry_cell_setting 'orthorhombic'
loop_
_space_group_symop_operation_xyz
x,y,z
-x,-y,z
x,-y,-z
-x,y,-z
1/2+x,1/2+y,1/2+z
1/2-x,1/2-y,1/2+z
1/2+x,1/2-y,1/2-z
1/2-x,1/2+y,1/2-z
loop_
_atom_site_type_symbol
_atom_site_label
_atom_site_fract_x
_atom_site_fract_y
_atom_site_fract_z
Si Si1 0.850222 0.089404 0.230829
Si Si2 0.691432 0.341249 0.118999
Si Si3 0.667450 0.553714 0.043279
Si Si4 0.171742 0.021604 0.862902
Si Si5 0.841925 0.561895 0.798284
Si Si6 0.588557 0.159953 0.910129
O O1 0.795050 0.021952 0.186390
O O2 0.875987 0.276322 0.226500
O O3 0.723066 0.063655 0.265343
O O4 0.000000 0.000000 0.245446
O O5 0.741466 0.464140 0.082882
O O6 0.791228 0.185346 0.113960
O O7 0.722842 0.419054 0.164178
O O8 0.518160 0.285598 0.114555
O O9 0.500000 0.500000 0.038746
O O10 0.662210 0.745673 0.050417
O O11 0.750960 0.500000 0.000000
O O12 0.274439 0.880586 0.879927
O O13 0.000000 0.000000 0.873287
O O14 0.000000 0.500000 0.816274
O O15 0.500000 0.000000 0.924421
#
# Coordination Sequence:
#
# PCOD8163975 Si02
#       6
#     8   8   8   8   8   8
#     4  10  22  37  54  80 110 144 190 236 280 335
#     4   9  20  36  55  81 108 142 185 229 286 343
#     4   9  18  34  56  84 112 137 181 237 281 330
#     4   9  19  36  56  80 113 150 188 229 276 337
#     4  11  23  38  56  79 110 149 189 236 289 343
#     4   9  18  35  59  83 109 147 185 227 282 339
#
# _framework density 19.934733999999999
#
# number of rings (size 3 to 8) (size 9 to 14) (size 15 to 20)
#    0.000    2.500    0.000    1.000    0.000   12.000 
#    0.000   14.167    0.000    5.500    0.000    0.000 
#    0.000    0.000    0.000    0.000    0.000    0.000 
#
# Total GULP energy -297465.892315 kJ/mol
# GULP energy per Si atom -12394.412180 kJ/mol
# Density = 1.988936 g / cm^3
# Si number density = 19.934734 Si / 1000 Ang^3
#
#
#
# Elastic Constant Matrix: (Units=GPa)
#
#
# Indices 1 2 3 4 5 6 
#
# 1 78.7912 33.1781 48.9999 0.0000 0.0000 0.0000
# 2 33.1781 102.0555 63.4636 0.0000 0.0000 0.0000
# 3 48.9999 63.4636 106.3276 0.0000 0.0000 0.0000
# 4 0.0000 0.0000 0.0000 22.7441 0.0000 0.0000
# 5 0.0000 0.0000 0.0000 0.0000 13.2918 0.0000
# 6 0.0000 0.0000 0.0000 0.0000 0.0000 25.2718
#
#
#
# Elastic Compliance Matrix: (Units=1/GPa)
#
#
# Indices 1 2 3 4 5 6 
#
# 1 0.017867 -0.001095 -0.007580 0.000000 0.000000 0.000000
# 2 -0.001095 0.015649 -0.008836 0.000000 0.000000 0.000000
# 3 -0.007580 -0.008836 0.018172 0.000000 0.000000 0.000000
# 4 0.000000 0.000000 0.000000 0.043967 0.000000 0.000000
# 5 0.000000 0.000000 0.000000 0.000000 0.075234 0.000000
# 6 0.000000 0.000000 0.000000 0.000000 0.000000 0.039570
#
#
# Mechanical properties :
#
#
# Convention : Reuss Voigt Hill
#
# Bulk Modulus (GPa) = 60.00191 64.27303 62.13747
# Shear Modulus (GPa) = 19.91735 21.69706 20.80721
#
# Velocity S-wave (km/s) = 3.16433 3.30268 3.23424
# Velocity P-wave (km/s) = 6.59660 6.84509 6.72200
#
# Compressibility (1/GPa) = 0.01666614
#
# Stress axis : x y z
#
# Youngs Moduli (GPa) = 55.96929 63.90107 55.02896
#
# Poissons Ratio (x) = 0.06994 0.41715
# Poissons Ratio (y) = 0.06126 0.48624
# Poissons Ratio (z) = 0.42427 0.56464
#
# Static dielectric constant tensor:
#      x y z
#    x 3.544710 0.000000 0.000000 
#    y 0.000000 3.920910 0.000000 
#    z 0.000000 0.000000 3.948380 
# 
# 
# High freq. dielectric constant tensor:
#      x y z
#    x 1.757140 0.000000 0.000000 
#    y 0.000000 1.791420 0.000000 
#    z 0.000000 0.000000 1.762180 
# 
# From -- ./inp_files/7348.got.cif
#   From: 2010.03.12/outbox.cif.g09.slc.cpg/sg23_4_cif.got.tgz:7348.got - 2010.04.14 02:50:06.
