data_PCOD8163114
_publ_section_title
;
Structure prediction by ZEFSAII (Michael W. Deem and Ramdas Pophale) SiO2 
 PCOD8163114
Probable space group: F 2 2 2
;
_chemical_formula_sum "Si O2"
_cell_formula_units_Z 84
_cell_length_a 20.245550
_cell_length_b 11.137458
_cell_length_c 16.775311
_cell_angle_alpha 90.000000
_cell_angle_beta 90.000000
_cell_angle_gamma 90.000000
_cell_volume 3782.563602
_symmetry_space_group_name_H-M "F 2 2 2"
_symmetry_group_IT_number 22
_symmetry_cell_setting 'orthorhombic'
loop_
_space_group_symop_operation_xyz
x,y,z
-x,-y,z
x,-y,-z
-x,y,-z
x,1/2+y,1/2+z
-x,1/2-y,1/2+z
x,1/2-y,1/2-z
-x,1/2+y,1/2-z
1/2+x,y,1/2+z
1/2-x,-y,1/2+z
1/2+x,-y,1/2-z
1/2-x,y,1/2-z
1/2+x,1/2+y,z
1/2-x,1/2-y,z
1/2+x,1/2-y,-z
1/2-x,1/2+y,-z
loop_
_atom_site_type_symbol
_atom_site_label
_atom_site_fract_x
_atom_site_fract_y
_atom_site_fract_z
Si Si1 0.344278 0.147406 0.585554
Si Si2 0.862288 0.877990 0.329913
Si Si3 0.696203 0.077554 0.078356
Si Si4 0.931360 0.524685 0.315368
Si Si5 0.750000 0.750000 0.250000
Si Si6 0.563693 0.295833 0.949040
O O1 0.332281 0.289740 0.588052
O O2 0.275349 0.076249 0.587277
O O3 0.381876 0.135104 0.502068
O O4 0.388187 0.092212 0.658221
O O5 0.894026 0.883019 0.242194
O O6 0.792243 0.817607 0.316358
O O7 0.905681 0.815067 0.398975
O O8 0.844257 0.013774 0.351965
O O9 0.678123 0.000000 0.000000
O O10 0.957994 0.598993 0.390741
O O11 0.000000 0.500000 0.268922
O O12 0.500000 0.250670 0.000000
#
# Coordination Sequence:
#
# PCOD8163114 Si02
#       6
#    16  16  16  16   4  16
#     4  11  25  43  73 105 142 183 237 294 361 428
#     4  12  27  46  72 108 144 190 237 298 374 425
#     4  11  24  44  70 106 142 185 235 298 359 433
#     4  12  25  47  72 102 141 190 241 296 356 436
#     4  12  24  44  76 106 148 176 234 302 362 444
#     4  12  24  46  76 103 142 188 247 293 351 433
#
# _framework density 22.207160999999999
#
# number of rings (size 3 to 8) (size 9 to 14) (size 15 to 20)
#    0.000    0.381    5.714    2.857    2.667    2.286 
#    3.429    2.857    0.000    0.000    0.000    0.000 
#    0.000    0.000    0.000    0.000    0.000    0.000 
#
# Total GULP energy -260157.947393 kJ/mol
# GULP energy per Si atom -12388.473685 kJ/mol
# Density = 2.215662 g / cm^3
# Si number density = 22.207161 Si / 1000 Ang^3
#
#
#
# Elastic Constant Matrix: (Units=GPa)
#
#
# Indices 1 2 3 4 5 6 
#
# 1 134.6383 54.4555 54.6916 0.0000 0.0000 0.0000
# 2 54.4555 110.2707 36.9412 0.0000 0.0000 0.0000
# 3 54.6916 36.9412 99.8456 0.0000 0.0000 0.0000
# 4 0.0000 0.0000 0.0000 37.0480 0.0000 0.0000
# 5 0.0000 0.0000 0.0000 0.0000 38.2281 0.0000
# 6 0.0000 0.0000 0.0000 0.0000 0.0000 -21.1867
#
#
#
# Elastic Compliance Matrix: (Units=1/GPa)
#
#
# Indices 1 2 3 4 5 6 
#
# 1 0.010804 -0.003827 -0.004502 0.000000 0.000000 0.000000
# 2 -0.003827 0.011707 -0.002235 0.000000 0.000000 0.000000
# 3 -0.004502 -0.002235 0.013308 0.000000 0.000000 0.000000
# 4 0.000000 0.000000 0.000000 0.026992 0.000000 0.000000
# 5 0.000000 0.000000 0.000000 0.000000 0.026159 0.000000
# 6 0.000000 0.000000 0.000000 0.000000 0.000000 -0.047199
#
#
# Mechanical properties :
#
#
# Convention : Reuss Voigt Hill
#
# Bulk Modulus (GPa) = 68.06828 70.77013 69.41921
# Shear Modulus (GPa) = 73.74954 24.06230 48.90592
#
# Velocity S-wave (km/s) = 5.76905 3.29528 4.69791
# Velocity P-wave (km/s) = 8.66567 6.81292 7.79454
#
# Compressibility (1/GPa) = 0.01469113
#
# Stress axis : x y z
#
# Youngs Moduli (GPa) = 92.55805 85.41619 75.14013
#
# Poissons Ratio (x) = 0.32691 0.33828
# Poissons Ratio (y) = 0.35424 0.16795
# Poissons Ratio (z) = 0.41670 0.19092
#
# Static dielectric constant tensor:
#      x y z
#    x 4.118960 0.000000 0.000000 
#    y 0.000000 3.975020 0.000000 
#    z 0.000000 0.000000 4.047360 
# 
# 
# High freq. dielectric constant tensor:
#      x y z
#    x 1.889930 0.000000 0.000000 
#    y 0.000000 1.883190 0.000000 
#    z 0.000000 0.000000 1.870000 
# 
# From -- ./inp_files/38735.got.cif
#   From: 2010.03.12/outbox.cif.g09.slc.cpg/sg22_20_cif.got.tgz:38735.got - 2010.04.14 02:24:06.
