data_PCOD8163372
_publ_section_title
;
Structure prediction by ZEFSAII (Michael W. Deem and Ramdas Pophale) SiO2 
 PCOD8163372
Probable space group: I 2 2 2
;
_chemical_formula_sum "Si O2"
_cell_formula_units_Z 64
_cell_length_a 21.461900
_cell_length_b 9.030704
_cell_length_c 16.440819
_cell_angle_alpha 90.000000
_cell_angle_beta 90.000000
_cell_angle_gamma 90.000000
_cell_volume 3186.494863
_symmetry_space_group_name_H-M "I 2 2 2"
_symmetry_group_IT_number 23
_symmetry_cell_setting 'orthorhombic'
loop_
_space_group_symop_operation_xyz
x,y,z
-x,-y,z
x,-y,-z
-x,y,-z
1/2+x,1/2+y,1/2+z
1/2-x,1/2-y,1/2+z
1/2+x,1/2-y,1/2-z
1/2-x,1/2+y,1/2-z
loop_
_atom_site_type_symbol
_atom_site_label
_atom_site_fract_x
_atom_site_fract_y
_atom_site_fract_z
Si Si1 0.932410 0.570596 0.415959
Si Si2 0.244708 0.968798 0.195912
Si Si3 0.750936 0.772349 0.082888
Si Si4 0.126831 0.440479 0.744695
Si Si5 0.099912 0.090374 0.421532
Si Si6 0.357205 0.369067 0.190152
Si Si7 0.348384 0.977587 0.411846
Si Si8 0.264287 0.299269 0.908690
O O1 0.903429 0.500000 0.500000
O O2 0.894476 0.532361 0.334644
O O3 0.934343 0.750138 0.420245
O O4 0.000000 0.500000 0.405351
O O5 0.181302 0.966638 0.246229
O O6 0.265316 0.803719 0.170656
O O7 0.233129 0.067437 0.117374
O O8 0.298311 0.040961 0.251591
O O9 0.689717 0.699364 0.123190
O O10 0.813780 0.678469 0.096464
O O11 0.735235 0.800941 0.989250
O O12 0.107997 0.268699 0.734281
O O13 0.104160 0.499791 0.834090
O O14 0.174472 0.100827 0.413720
O O15 0.077571 0.000000 0.500000
O O16 0.087952 0.975100 0.346810
O O17 0.296506 0.103307 0.410131
O O18 0.383102 0.000000 0.500000
#
# Coordination Sequence:
#
# PCOD8163372 Si02
#       8
#     8   8   8   8   8   8   8   8
#     4  11  27  46  63  87 112 141 199 266 320 358
#     4  11  21  28  48  79 120 151 198 237 276 345
#     4  10  20  29  44  72 118 155 200 225 276 329
#     4  11  21  36  58  77 116 160 192 246 298 350
#     4  12  21  37  61  83 111 157 200 240 293 366
#     4  11  21  32  48  86 116 155 200 229 280 354
#     4  10  19  33  51  81 123 159 194 235 278 343
#     4  11  18  33  47  79 119 159 193 234 273 344
#
# _framework density 20.084765000000001
#
# number of rings (size 3 to 8) (size 9 to 14) (size 15 to 20)
#    0.000    1.125    6.250    1.500    5.250    0.000 
#    0.000    4.375    0.000    0.375    0.000    0.000 
#    0.000    0.000    0.500    0.000    0.000    0.000 
#
# Total GULP energy -396495.791938 kJ/mol
# GULP energy per Si atom -12390.493498 kJ/mol
# Density = 2.003905 g / cm^3
# Si number density = 20.084765 Si / 1000 Ang^3
#
#
#
# Elastic Constant Matrix: (Units=GPa)
#
#
# Indices 1 2 3 4 5 6 
#
# 1 19.7025 13.8513 14.3181 0.0000 0.0000 0.0000
# 2 13.8513 111.8673 21.1010 0.0000 0.0000 0.0000
# 3 14.3181 21.1010 117.4691 0.0000 0.0000 0.0000
# 4 0.0000 0.0000 0.0000 35.5726 0.0000 0.0000
# 5 0.0000 0.0000 0.0000 0.0000 10.5817 0.0000
# 6 0.0000 0.0000 0.0000 0.0000 0.0000 19.4962
#
#
#
# Elastic Compliance Matrix: (Units=1/GPa)
#
#
# Indices 1 2 3 4 5 6 
#
# 1 0.059594 -0.006220 -0.006147 0.000000 0.000000 0.000000
# 2 -0.006220 0.009902 -0.001021 0.000000 0.000000 0.000000
# 3 -0.006147 -0.001021 0.009445 0.000000 0.000000 0.000000
# 4 0.000000 0.000000 0.000000 0.028112 0.000000 0.000000
# 5 0.000000 0.000000 0.000000 0.000000 0.094503 0.000000
# 6 0.000000 0.000000 0.000000 0.000000 0.000000 0.051292
#
#
# Mechanical properties :
#
#
# Convention : Reuss Voigt Hill
#
# Bulk Modulus (GPa) = 19.16883 38.61998 28.89441
# Shear Modulus (GPa) = 16.83442 26.44800 21.64121
#
# Velocity S-wave (km/s) = 2.89826 3.63274 3.28608
# Velocity P-wave (km/s) = 4.55681 6.07173 5.36798
#
# Compressibility (1/GPa) = 0.05216801
#
# Stress axis : x y z
#
# Youngs Moduli (GPa) = 16.78012 100.99207 105.87156
#
# Poissons Ratio (x) = 0.62812 0.65076
# Poissons Ratio (y) = 0.10436 0.10805
# Poissons Ratio (z) = 0.10314 0.10307
#
# Static dielectric constant tensor:
#      x y z
#    x 2.968920 0.000000 0.000000 
#    y 0.000000 3.919570 0.000000 
#    z 0.000000 0.000000 4.339080 
# 
# 
# High freq. dielectric constant tensor:
#      x y z
#    x 1.700910 0.000000 0.000000 
#    y 0.000000 1.803540 0.000000 
#    z 0.000000 0.000000 1.803500 
# 
# From -- ./inp_files/25267.got.cif
#   From: 2010.03.12/outbox.cif.g09.slc.cpg/sg23_13_cif.got.tgz:25267.got - 2010.04.14 02:50:06.
