data_PCOD8163471
_publ_section_title
;
Structure prediction by ZEFSAII (Michael W. Deem and Ramdas Pophale) SiO2 
 PCOD8163471
Probable space group: I 2 2 2
;
_chemical_formula_sum "Si O2"
_cell_formula_units_Z 64
_cell_length_a 17.172810
_cell_length_b 15.532273
_cell_length_c 11.541216
_cell_angle_alpha 90.000000
_cell_angle_beta 90.000000
_cell_angle_gamma 90.000000
_cell_volume 3078.420549
_symmetry_space_group_name_H-M "I 2 2 2"
_symmetry_group_IT_number 23
_symmetry_cell_setting 'orthorhombic'
loop_
_space_group_symop_operation_xyz
x,y,z
-x,-y,z
x,-y,-z
-x,y,-z
1/2+x,1/2+y,1/2+z
1/2-x,1/2-y,1/2+z
1/2+x,1/2-y,1/2-z
1/2-x,1/2+y,1/2-z
loop_
_atom_site_type_symbol
_atom_site_label
_atom_site_fract_x
_atom_site_fract_y
_atom_site_fract_z
Si Si1 0.098617 0.609781 0.070192
Si Si2 0.267925 0.831200 0.307549
Si Si3 0.611628 0.728066 0.282499
Si Si4 0.006441 0.100403 0.130189
Si Si5 0.004881 0.682231 0.633089
Si Si6 0.872474 0.187675 0.724430
Si Si7 0.084839 0.562740 0.815103
Si Si8 0.274994 0.591777 0.034445
O O1 0.096091 0.708114 0.109834
O O2 0.064635 0.539533 0.163976
O O3 0.186078 0.574736 0.066009
O O4 0.061957 0.607750 0.939431
O O5 0.200506 0.806045 0.215963
O O6 0.325023 0.750380 0.308927
O O7 0.323070 0.915866 0.284405
O O8 0.221334 0.841514 0.427559
O O9 0.561488 0.642473 0.294710
O O10 0.580706 0.782083 0.170697
O O11 0.088856 0.123794 0.184714
O O12 0.000000 0.000000 0.137428
O O13 0.000000 0.134685 0.000000
O O14 0.066752 0.759462 0.646117
O O15 0.031939 0.601916 0.712622
O O16 0.000000 0.651642 0.500000
O O17 0.818720 0.131384 0.642573
O O18 0.313687 0.500000 0.000000
#
# Coordination Sequence:
#
# PCOD8163471 Si02
#       8
#     8   8   8   8   8   8   8   8
#     4  10  19  37  61 100 121 153 214 263 318 366
#     4  10  20  35  61  97 120 160 200 254 323 373
#     4  11  23  36  65  89 121 163 210 255 313 379
#     4  10  25  43  60  87 124 168 216 259 311 377
#     4  10  22  41  58  88 129 167 208 244 309 386
#     4  10  22  39  64  90 130 166 203 265 317 368
#     4   9  20  38  62  89 129 158 203 267 315 368
#     4  11  20  36  64  96 125 155 206 271 314 376
#
# _framework density 20.789883
#
# number of rings (size 3 to 8) (size 9 to 14) (size 15 to 20)
#    0.000    1.875    3.750    0.750    8.750    0.500 
#    0.000    2.500    0.000    0.000    0.000    0.000 
#    0.000    0.000    0.000    0.000    0.000    0.000 
#
# Total GULP energy -396549.864828 kJ/mol
# GULP energy per Si atom -12392.183276 kJ/mol
# Density = 2.074256 g / cm^3
# Si number density = 20.789883 Si / 1000 Ang^3
#
#
#
# Elastic Constant Matrix: (Units=GPa)
#
#
# Indices 1 2 3 4 5 6 
#
# 1 43.2957 13.9496 38.9970 0.0000 0.0000 0.0000
# 2 13.9496 83.7290 55.7904 0.0000 0.0000 0.0000
# 3 38.9970 55.7904 132.8652 0.0000 0.0000 0.0000
# 4 0.0000 0.0000 0.0000 35.5868 0.0000 0.0000
# 5 0.0000 0.0000 0.0000 0.0000 12.6819 0.0000
# 6 0.0000 0.0000 0.0000 0.0000 0.0000 25.6683
#
#
#
# Elastic Compliance Matrix: (Units=1/GPa)
#
#
# Indices 1 2 3 4 5 6 
#
# 1 0.031494 0.001267 -0.009776 0.000000 0.000000 0.000000
# 2 0.001267 0.016634 -0.007356 0.000000 0.000000 0.000000
# 3 -0.009776 -0.007356 0.013485 0.000000 0.000000 0.000000
# 4 0.000000 0.000000 0.000000 0.028100 0.000000 0.000000
# 5 0.000000 0.000000 0.000000 0.000000 0.078853 0.000000
# 6 0.000000 0.000000 0.000000 0.000000 0.000000 0.038959
#
#
# Mechanical properties :
#
#
# Convention : Reuss Voigt Hill
#
# Bulk Modulus (GPa) = 33.46516 53.04043 43.25280
# Shear Modulus (GPa) = 20.06296 24.86426 22.46361
#
# Velocity S-wave (km/s) = 3.10987 3.46204 3.29067
# Velocity P-wave (km/s) = 5.38766 6.44585 5.94036
#
# Compressibility (1/GPa) = 0.02988182
#
# Stress axis : x y z
#
# Youngs Moduli (GPa) = 31.75223 60.11777 74.15859
#
# Poissons Ratio (x) = -0.07615 0.72494
# Poissons Ratio (y) = -0.04022 0.54554
# Poissons Ratio (z) = 0.31040 0.44225
#
# Static dielectric constant tensor:
#      x y z
#    x 3.963530 0.000000 0.000000 
#    y 0.000000 3.752640 0.000000 
#    z 0.000000 0.000000 3.719310 
# 
# 
# High freq. dielectric constant tensor:
#      x y z
#    x 1.826270 0.000000 0.000000 
#    y 0.000000 1.815610 0.000000 
#    z 0.000000 0.000000 1.796950 
# 
# From -- ./inp_files/17602.got.cif
#   From: 2010.03.12/outbox.cif.g09.slc.cpg/sg23_9_cif.got.tgz:17602.got - 2010.04.14 02:50:06.
