data_PCOD8163151
_publ_section_title
;
Structure prediction by ZEFSAII (Michael W. Deem and Ramdas Pophale) SiO2 
 PCOD8163151
Probable space group: F 2 2 2
;
_chemical_formula_sum "Si O2"
_cell_formula_units_Z 88
_cell_length_a 9.458295
_cell_length_b 20.472651
_cell_length_c 20.209215
_cell_angle_alpha 90.000000
_cell_angle_beta 90.000000
_cell_angle_gamma 90.000000
_cell_volume 3913.239085
_symmetry_space_group_name_H-M "F 2 2 2"
_symmetry_group_IT_number 22
_symmetry_cell_setting 'orthorhombic'
loop_
_space_group_symop_operation_xyz
x,y,z
-x,-y,z
x,-y,-z
-x,y,-z
x,1/2+y,1/2+z
-x,1/2-y,1/2+z
x,1/2-y,1/2-z
-x,1/2+y,1/2-z
1/2+x,y,1/2+z
1/2-x,-y,1/2+z
1/2+x,-y,1/2-z
1/2-x,y,1/2-z
1/2+x,1/2+y,z
1/2-x,1/2-y,z
1/2+x,1/2-y,-z
1/2-x,1/2+y,-z
loop_
_atom_site_type_symbol
_atom_site_label
_atom_site_fract_x
_atom_site_fract_y
_atom_site_fract_z
Si Si1 0.044927 0.930366 0.142254
Si Si2 0.000000 0.745960 0.000000
Si Si3 0.980173 0.643659 0.105019
Si Si4 0.801242 0.941440 0.551498
Si Si5 0.083586 0.176283 0.746913
Si Si6 0.322964 0.141398 0.444302
O O1 0.201853 0.947595 0.116008
O O2 0.033078 0.870962 0.194115
O O3 0.941208 0.908658 0.082571
O O4 0.000000 0.000000 0.174150
O O5 0.053909 0.700100 0.060251
O O6 0.882017 0.787664 0.037724
O O7 0.038121 0.574793 0.074890
O O8 0.032193 0.645531 0.179336
O O9 0.809860 0.645912 0.105829
O O10 0.735250 0.880149 0.514459
O O11 0.799232 0.000000 0.500000
O O12 0.019854 0.250000 0.750000
O O13 0.250000 0.180175 0.750000
#
# Coordination Sequence:
#
# PCOD8163151 Si02
#       6
#    16   8  16  16  16  16
#     4  12  25  49  76 105 147 199 250 301 371 451
#     4  12  24  42  72 110 154 188 242 310 388 434
#     4  12  27  46  70 112 147 193 249 309 372 437
#     4  12  24  47  72 106 148 186 242 308 373 442
#     4  11  26  50  76 106 147 201 250 302 368 450
#     4  12  25  42  73 110 146 188 241 312 372 437
#
# _framework density 22.487763999999999
#
# number of rings (size 3 to 8) (size 9 to 14) (size 15 to 20)
#    0.000    0.182    7.273    1.636    0.000    2.182 
#    6.545    0.909    0.000    0.000    0.000    0.000 
#    0.000    0.000    0.000    0.000    0.000    0.000 
#
# Total GULP energy -272626.928741 kJ/mol
# GULP energy per Si atom -12392.133125 kJ/mol
# Density = 2.243658 g / cm^3
# Si number density = 22.487764 Si / 1000 Ang^3
#
#
#
# Elastic Constant Matrix: (Units=GPa)
#
#
# Indices 1 2 3 4 5 6 
#
# 1 118.9661 22.0803 15.5076 0.0000 0.0000 0.0000
# 2 22.0803 86.6817 0.7242 0.0000 0.0000 0.0000
# 3 15.5076 0.7242 75.1812 0.0000 0.0000 0.0000
# 4 0.0000 0.0000 0.0000 42.7488 0.0000 0.0000
# 5 0.0000 0.0000 0.0000 0.0000 28.0245 0.0000
# 6 0.0000 0.0000 0.0000 0.0000 0.0000 34.3988
#
#
#
# Elastic Compliance Matrix: (Units=1/GPa)
#
#
# Indices 1 2 3 4 5 6 
#
# 1 0.009073 -0.002296 -0.001849 0.000000 0.000000 0.000000
# 2 -0.002296 0.012118 0.000357 0.000000 0.000000 0.000000
# 3 -0.001849 0.000357 0.013679 0.000000 0.000000 0.000000
# 4 0.000000 0.000000 0.000000 0.023392 0.000000 0.000000
# 5 0.000000 0.000000 0.000000 0.000000 0.035683 0.000000
# 6 0.000000 0.000000 0.000000 0.000000 0.000000 0.029071
#
#
# Mechanical properties :
#
#
# Convention : Reuss Voigt Hill
#
# Bulk Modulus (GPa) = 36.63818 39.71702 38.17760
# Shear Modulus (GPa) = 35.79325 37.20221 36.49773
#
# Velocity S-wave (km/s) = 3.99391 4.07176 4.03302
# Velocity P-wave (km/s) = 6.13158 6.30917 6.22101
#
# Compressibility (1/GPa) = 0.02729393
#
# Stress axis : x y z
#
# Youngs Moduli (GPa) = 110.21828 82.52009 73.10353
#
# Poissons Ratio (x) = 0.18944 0.13519
# Poissons Ratio (y) = 0.25303 -0.02608
# Poissons Ratio (z) = 0.20383 -0.02944
#
# Static dielectric constant tensor:
#      x y z
#    x 3.371290 0.000000 0.000000 
#    y 0.000000 4.359640 0.000000 
#    z 0.000000 0.000000 4.141810 
# 
# 
# High freq. dielectric constant tensor:
#      x y z
#    x 1.890700 0.000000 0.000000 
#    y 0.000000 1.903460 0.000000 
#    z 0.000000 0.000000 1.872260 
# 
# From -- ./inp_files/47271.got.cif
#   From: 2010.03.12/outbox.cif.g09.slc.cpg/sg22_24_cif.got.tgz:47271.got - 2010.04.14 02:24:06.
