data_PCOD8163927
_publ_section_title
;
Structure prediction by ZEFSAII (Michael W. Deem and Ramdas Pophale) SiO2 
 PCOD8163927
Probable space group: I 2 2 2
;
_chemical_formula_sum "Si O2"
_cell_formula_units_Z 64
_cell_length_a 29.794400
_cell_length_b 11.116873
_cell_length_c 9.530648
_cell_angle_alpha 90.000000
_cell_angle_beta 90.000000
_cell_angle_gamma 90.000000
_cell_volume 3156.746576
_symmetry_space_group_name_H-M "I 2 2 2"
_symmetry_group_IT_number 23
_symmetry_cell_setting 'orthorhombic'
loop_
_space_group_symop_operation_xyz
x,y,z
-x,-y,z
x,-y,-z
-x,y,-z
1/2+x,1/2+y,1/2+z
1/2-x,1/2-y,1/2+z
1/2+x,1/2-y,1/2-z
1/2-x,1/2+y,1/2-z
loop_
_atom_site_type_symbol
_atom_site_label
_atom_site_fract_x
_atom_site_fract_y
_atom_site_fract_z
Si Si1 0.364415 0.918943 0.124941
Si Si2 0.930924 0.791452 0.422293
Si Si3 0.270045 0.129002 0.458150
Si Si4 0.088887 0.160147 0.906670
Si Si5 0.018963 0.132139 0.687891
Si Si6 0.796365 0.238144 0.766725
Si Si7 0.370981 0.082979 0.375070
Si Si8 0.378615 0.421291 0.693891
O O1 0.404972 0.835041 0.071812
O O2 0.324697 0.843780 0.195239
O O3 0.383985 0.012425 0.235853
O O4 0.344436 0.000000 0.000000
O O5 0.940772 0.837906 0.579244
O O6 0.900043 0.890380 0.344005
O O7 0.977792 0.775465 0.336775
O O8 0.239716 0.192289 0.343005
O O9 0.271830 0.212417 0.595491
O O10 0.318330 0.108226 0.389582
O O11 0.248841 0.000000 0.500000
O O12 0.038675 0.140664 0.845239
O O13 0.103230 0.293001 0.869664
O O14 0.122485 0.064540 0.831081
O O15 0.089857 0.139705 0.073861
O O16 0.000000 0.000000 0.656459
O O17 0.828272 0.129065 0.815859
O O18 0.388941 0.000000 0.500000
#
# Coordination Sequence:
#
# PCOD8163927 Si02
#       8
#     8   8   8   8   8   8   8   8
#     4  11  23  42  66  97 125 182 228 265 324 410
#     4  10  21  41  63  91 135 166 212 266 329 382
#     4  11  24  45  67  98 134 179 218 282 348 396
#     4  11  22  39  68  96 125 174 217 264 331 391
#     4  11  22  40  65  99 133 171 206 273 341 386
#     4  11  24  45  67  97 136 172 221 283 335 404
#     4  11  21  45  68  85 133 179 217 270 337 391
#     4  10  22  41  60  98 132 161 216 273 319 396
#
# _framework density 20.274037
#
# number of rings (size 3 to 8) (size 9 to 14) (size 15 to 20)
#    0.000    1.250    5.000    2.250    1.750    1.500 
#    4.500    4.375    0.000    0.750    0.000    0.000 
#    0.000    0.000    0.000    0.000    0.000    0.000 
#
# Total GULP energy -396802.497353 kJ/mol
# GULP energy per Si atom -12400.078042 kJ/mol
# Density = 2.022789 g / cm^3
# Si number density = 20.274037 Si / 1000 Ang^3
#
#
#
# Elastic Constant Matrix: (Units=GPa)
#
#
# Indices 1 2 3 4 5 6 
#
# 1 70.7841 33.2512 38.4208 0.0000 0.0000 0.0000
# 2 33.2512 125.9980 34.1368 0.0000 0.0000 0.0000
# 3 38.4208 34.1368 95.3223 0.0000 0.0000 0.0000
# 4 0.0000 0.0000 0.0000 36.4223 0.0000 0.0000
# 5 0.0000 0.0000 0.0000 0.0000 29.7330 0.0000
# 6 0.0000 0.0000 0.0000 0.0000 0.0000 29.1944
#
#
#
# Elastic Compliance Matrix: (Units=1/GPa)
#
#
# Indices 1 2 3 4 5 6 
#
# 1 0.019246 -0.003297 -0.006577 0.000000 0.000000 0.000000
# 2 -0.003297 0.009354 -0.002021 0.000000 0.000000 0.000000
# 3 -0.006577 -0.002021 0.013865 0.000000 0.000000 0.000000
# 4 0.000000 0.000000 0.000000 0.027456 0.000000 0.000000
# 5 0.000000 0.000000 0.000000 0.000000 0.033633 0.000000
# 6 0.000000 0.000000 0.000000 0.000000 0.000000 0.034253
#
#
# Mechanical properties :
#
#
# Convention : Reuss Voigt Hill
#
# Bulk Modulus (GPa) = 53.54452 55.96910 54.75681
# Shear Modulus (GPa) = 29.79347 31.48965 30.64156
#
# Velocity S-wave (km/s) = 3.83761 3.94534 3.89185
# Velocity P-wave (km/s) = 6.79000 6.95849 6.87476
#
# Compressibility (1/GPa) = 0.01867605
#
# Stress axis : x y z
#
# Youngs Moduli (GPa) = 51.95866 106.90220 72.12291
#
# Poissons Ratio (x) = 0.35249 0.47432
# Poissons Ratio (y) = 0.17132 0.14576
# Poissons Ratio (z) = 0.34171 0.21604
#
# Static dielectric constant tensor:
#      x y z
#    x 3.582070 0.000000 0.000000 
#    y 0.000000 3.899150 0.000000 
#    z 0.000000 0.000000 3.802420 
# 
# 
# High freq. dielectric constant tensor:
#      x y z
#    x 1.772020 0.000000 0.000000 
#    y 0.000000 1.798440 0.000000 
#    z 0.000000 0.000000 1.805430 
# 
# From -- ./inp_files/13508.got.cif
#   From: 2010.03.12/outbox.cif.g09.slc.cpg/sg23_7_cif.got.tgz:13508.got - 2010.04.14 02:50:06.
