data_PCOD8163744
_publ_section_title
;
Structure prediction by ZEFSAII (Michael W. Deem and Ramdas Pophale) SiO2 
 PCOD8163744
Probable space group: I 2 2 2
;
_chemical_formula_sum "Si O2"
_cell_formula_units_Z 48
_cell_length_a 10.123479
_cell_length_b 27.723429
_cell_length_c 7.879829
_cell_angle_alpha 90.000000
_cell_angle_beta 90.000000
_cell_angle_gamma 90.000000
_cell_volume 2211.533512
_symmetry_space_group_name_H-M "I 2 2 2"
_symmetry_group_IT_number 23
_symmetry_cell_setting 'orthorhombic'
loop_
_space_group_symop_operation_xyz
x,y,z
-x,-y,z
x,-y,-z
-x,y,-z
1/2+x,1/2+y,1/2+z
1/2-x,1/2-y,1/2+z
1/2+x,1/2-y,1/2-z
1/2-x,1/2+y,1/2-z
loop_
_atom_site_type_symbol
_atom_site_label
_atom_site_fract_x
_atom_site_fract_y
_atom_site_fract_z
Si Si1 0.500000 0.000000 0.000000
Si Si2 0.000000 0.500000 0.000000
Si Si3 0.500000 0.380964 0.000000
Si Si4 0.388591 0.750882 0.375932
Si Si5 0.957711 0.054959 0.188981
Si Si6 0.998758 0.341625 0.298209
Si Si7 0.235561 0.818569 0.616734
Si Si8 0.849106 0.564329 0.249944
O O1 0.593306 0.037211 0.090849
O O2 0.895963 0.466303 0.908059
O O3 0.525826 0.412547 0.168301
O O4 0.634724 0.349796 0.001865
O O5 0.500000 0.730092 0.500000
O O6 0.448687 0.788684 0.242828
O O7 0.277800 0.776213 0.489808
O O8 0.335118 0.704712 0.278677
O O9 0.805190 0.063465 0.222888
O O10 0.000000 0.000000 0.217258
O O11 0.000000 0.072132 0.000000
O O12 0.099312 0.381253 0.224912
O O13 0.000000 0.348012 0.500000
O O14 0.858324 0.348686 0.199094
#
# Coordination Sequence:
#
# PCOD8163744 Si02
#       8
#     2   2   4   8   8   8   8   8
#     4  10  20  42  64 102 128 180 224 292 348 434
#     4  10  28  38  78 102 148 182 236 308 360 442
#     4  12  29  42  75 108 148 187 250 303 372 444
#     4  10  24  44  70  98 136 186 235 298 363 440
#     4  11  27  49  74 105 150 196 239 301 371 449
#     4  11  24  43  75 101 140 185 238 305 359 444
#     4  11  26  45  70 103 143 186 245 298 378 432
#     4  11  24  44  70 104 140 183 242 292 367 432
#
# _framework density 21.704395000000002
#
# number of rings (size 3 to 8) (size 9 to 14) (size 15 to 20)
#    0.000    1.167    0.833    3.250   16.333    2.000 
#    0.000    0.000    0.000    0.000    0.000    0.000 
#    0.000    0.000    0.000    0.000    0.000    0.000 
#
# Total GULP energy -297484.921002 kJ/mol
# GULP energy per Si atom -12395.205042 kJ/mol
# Density = 2.165499 g / cm^3
# Si number density = 21.704395 Si / 1000 Ang^3
#
#
#
# Elastic Constant Matrix: (Units=GPa)
#
#
# Indices 1 2 3 4 5 6 
#
# 1 136.9659 40.9766 33.0997 0.0007 -0.0007 0.0020
# 2 40.9766 83.8142 34.7419 0.0008 0.0004 0.0003
# 3 33.0997 34.7419 124.1307 0.0070 0.0129 0.0049
# 4 0.0007 0.0008 0.0070 54.2272 -0.0045 -0.0017
# 5 -0.0007 0.0004 0.0129 -0.0045 40.1344 -0.0009
# 6 0.0020 0.0003 0.0049 -0.0017 -0.0009 33.0886
#
#
#
# Elastic Compliance Matrix: (Units=1/GPa)
#
#
# Indices 1 2 3 4 5 6 
#
# 1 0.008729 -0.003736 -0.001282 0.000000 0.000001 0.000000
# 2 -0.003736 0.015096 -0.003229 0.000000 0.000001 0.000001
# 3 -0.001282 -0.003229 0.009302 -0.000001 -0.000003 -0.000001
# 4 0.000000 0.000000 -0.000001 0.018441 0.000002 0.000001
# 5 0.000001 0.000001 -0.000003 0.000002 0.024916 0.000001
# 6 0.000000 0.000001 -0.000001 0.000001 0.000001 0.030222
#
#
# Mechanical properties :
#
#
# Convention : Reuss Voigt Hill
#
# Bulk Modulus (GPa) = 60.12268 62.50524 61.31396
# Shear Modulus (GPa) = 38.83703 41.22956 40.03329
#
# Velocity S-wave (km/s) = 4.23467 4.36316 4.29940
# Velocity P-wave (km/s) = 7.18824 7.36504 7.27718
#
# Compressibility (1/GPa) = 0.01663266
#
# Stress axis : x y z
#
# Youngs Moduli (GPa) = 114.56601 66.24219 107.50912
#
# Poissons Ratio (x) = 0.24748 0.13781
# Poissons Ratio (y) = 0.42803 0.34714
# Poissons Ratio (z) = 0.14686 0.21389
#
# Static dielectric constant tensor:
#      x y z
#    x 3.994530 0.000000 0.000000 
#    y 0.000000 3.913100 0.000010 
#    z 0.000000 0.000010 4.170260 
# 
# 
# High freq. dielectric constant tensor:
#      x y z
#    x 1.863820 0.000000 0.000000 
#    y 0.000000 1.854580 0.000000 
#    z 0.000000 0.000000 1.869410 
# 
# From -- ./inp_files/7432.got.cif
#   From: 2010.03.12/outbox.cif.g09.slc.cpg/sg23_4_cif.got.tgz:7432.got - 2010.04.14 02:50:06.
