data_PCOD8163922
_publ_section_title
;
Structure prediction by ZEFSAII (Michael W. Deem and Ramdas Pophale) SiO2 
 PCOD8163922
Probable space group: I 2 2 2
;
_chemical_formula_sum "Si O2"
_cell_formula_units_Z 52
_cell_length_a 17.707306
_cell_length_b 8.956588
_cell_length_c 16.026682
_cell_angle_alpha 90.000000
_cell_angle_beta 90.000000
_cell_angle_gamma 90.000000
_cell_volume 2541.784397
_symmetry_space_group_name_H-M "I 2 2 2"
_symmetry_group_IT_number 23
_symmetry_cell_setting 'orthorhombic'
loop_
_space_group_symop_operation_xyz
x,y,z
-x,-y,z
x,-y,-z
-x,y,-z
1/2+x,1/2+y,1/2+z
1/2-x,1/2-y,1/2+z
1/2+x,1/2-y,1/2-z
1/2-x,1/2+y,1/2-z
loop_
_atom_site_type_symbol
_atom_site_label
_atom_site_fract_x
_atom_site_fract_y
_atom_site_fract_z
Si Si1 0.192601 0.000000 0.000000
Si Si2 0.139750 0.538139 0.230520
Si Si3 0.000000 0.500000 0.871473
Si Si4 0.728752 0.131558 0.149849
Si Si5 0.262796 0.531893 0.097146
Si Si6 0.439687 0.306074 0.564591
Si Si7 0.854749 0.861317 0.718998
Si Si8 0.000000 0.000000 0.791790
O O1 0.252742 0.031839 0.928938
O O2 0.141526 0.853228 0.975381
O O3 0.058093 0.572275 0.193304
O O4 0.151261 0.408723 0.300124
O O5 0.188059 0.493155 0.149009
O O6 0.160635 0.685131 0.282170
O O7 0.043725 0.627211 0.926000
O O8 0.717972 0.298236 0.118222
O O9 0.799185 0.083934 0.208209
O O10 0.331638 0.429178 0.129424
O O11 0.248803 0.500000 0.000000
O O12 0.500000 0.371263 0.500000
O O13 0.451093 0.384473 0.653389
O O14 0.941231 0.907789 0.735777
#
# Coordination Sequence:
#
# PCOD8163922 Si02
#       8
#     4   8   4   8   8   8   8   4
#     4  12  23  38  68  93 140 172 218 260 332 395
#     4  10  24  42  61  92 129 172 219 261 332 393
#     4  12  27  38  64  95 134 166 220 272 329 390
#     4  10  23  39  62  92 125 175 217 261 322 388
#     4  10  24  41  63  92 126 164 220 277 321 385
#     4  12  23  38  60  97 134 166 205 263 327 398
#     4  10  21  41  62  88 126 172 215 260 321 393
#     4  12  19  40  65  88 124 174 212 258 325 407
#
# _framework density 20.458068999999998
#
# number of rings (size 3 to 8) (size 9 to 14) (size 15 to 20)
#    0.000    1.231    4.615    0.231    8.615    1.231 
#    0.000    0.385    0.000    0.462    0.000    0.000 
#    0.000    0.000    0.000    0.000    0.000    0.000 
#
# Total GULP energy -322105.068430 kJ/mol
# GULP energy per Si atom -12388.656478 kJ/mol
# Density = 2.041151 g / cm^3
# Si number density = 20.458069 Si / 1000 Ang^3
#
#
#
# Elastic Constant Matrix: (Units=GPa)
#
#
# Indices 1 2 3 4 5 6 
#
# 1 61.1952 16.5225 39.6865 0.0000 0.0000 0.0000
# 2 16.5225 88.9534 55.7013 0.0000 0.0000 0.0000
# 3 39.6865 55.7013 124.5169 0.0000 0.0000 0.0000
# 4 0.0000 0.0000 0.0000 19.2432 0.0000 0.0000
# 5 0.0000 0.0000 0.0000 0.0000 15.6439 0.0000
# 6 0.0000 0.0000 0.0000 0.0000 0.0000 24.8775
#
#
#
# Elastic Compliance Matrix: (Units=1/GPa)
#
#
# Indices 1 2 3 4 5 6 
#
# 1 0.020609 0.000396 -0.006746 0.000000 0.000000 0.000000
# 2 0.000396 0.015624 -0.007115 0.000000 0.000000 0.000000
# 3 -0.006746 -0.007115 0.013364 0.000000 0.000000 0.000000
# 4 0.000000 0.000000 0.000000 0.051966 0.000000 0.000000
# 5 0.000000 0.000000 0.000000 0.000000 0.063923 0.000000
# 6 0.000000 0.000000 0.000000 0.000000 0.000000 0.040197
#
#
# Mechanical properties :
#
#
# Convention : Reuss Voigt Hill
#
# Bulk Modulus (GPa) = 44.11745 55.38735 49.75240
# Shear Modulus (GPa) = 20.81868 22.80325 21.81097
#
# Velocity S-wave (km/s) = 3.19349 3.34224 3.26871
# Velocity P-wave (km/s) = 5.93376 6.48278 6.21433
#
# Compressibility (1/GPa) = 0.02266677
#
# Stress axis : x y z
#
# Youngs Moduli (GPa) = 48.52253 64.00484 74.82752
#
# Poissons Ratio (x) = -0.02535 0.50477
# Poissons Ratio (y) = -0.01922 0.53243
# Poissons Ratio (z) = 0.32732 0.45542
#
# Static dielectric constant tensor:
#      x y z
#    x 3.572810 0.000000 0.000000 
#    y 0.000000 3.746090 0.000000 
#    z 0.000000 0.000000 3.676230 
# 
# 
# High freq. dielectric constant tensor:
#      x y z
#    x 1.772940 0.000000 0.000000 
#    y 0.000000 1.812200 0.000000 
#    z 0.000000 0.000000 1.789080 
# 
# From -- ./inp_files/22371.got.cif
#   From: 2010.03.12/outbox.cif.g09.slc.cpg/sg23_12_cif.got.tgz:22371.got - 2010.04.14 02:50:06.
