data_PCOD8163662
_publ_section_title
;
Structure prediction by ZEFSAII (Michael W. Deem and Ramdas Pophale) SiO2 
 PCOD8163662
Probable space group: I 2 2 2
;
_chemical_formula_sum "Si O2"
_cell_formula_units_Z 34
_cell_length_a 4.764364
_cell_length_b 11.737534
_cell_length_c 27.443325
_cell_angle_alpha 90.000000
_cell_angle_beta 90.000000
_cell_angle_gamma 90.000000
_cell_volume 1534.682449
_symmetry_space_group_name_H-M "I 2 2 2"
_symmetry_group_IT_number 23
_symmetry_cell_setting 'orthorhombic'
loop_
_space_group_symop_operation_xyz
x,y,z
-x,-y,z
x,-y,-z
-x,y,-z
1/2+x,1/2+y,1/2+z
1/2-x,1/2-y,1/2+z
1/2+x,1/2-y,1/2-z
1/2-x,1/2+y,1/2-z
loop_
_atom_site_type_symbol
_atom_site_label
_atom_site_fract_x
_atom_site_fract_y
_atom_site_fract_z
Si Si1 0.869956 0.385092 0.080000
Si Si2 0.769926 0.715406 0.722599
Si Si3 0.500000 0.000000 0.875606
Si Si4 0.863542 0.254711 0.389057
Si Si5 0.000000 0.000000 0.500000
Si Si6 0.500000 0.500000 0.307033
O O1 0.643704 0.321277 0.113150
O O2 0.710704 0.419171 0.030244
O O3 0.000000 0.500000 0.104542
O O4 0.135025 0.299304 0.073577
O O5 0.585238 0.798668 0.756945
O O6 0.750207 0.749259 0.666003
O O7 0.618473 0.594703 0.729072
O O8 0.585623 0.113370 0.906454
O O9 0.752361 0.954241 0.842074
#
# Coordination Sequence:
#
# PCOD8163662 Si02
#       6
#     8   8   4   8   2   4
#     4  12  24  44  70 104 136 177 225 276 349 428
#     4  11  22  40  60  90 133 180 223 283 344 388
#     4  10  20  40  68  91 124 170 222 280 330 379
#     4  11  23  41  69 101 132 175 242 284 328 429
#     4  12  26  48  72 106 146 192 210 284 378 444
#     4  10  20  38  59  82 120 177 228 265 329 414
#
# _framework density 22.154418
#
# number of rings (size 3 to 8) (size 9 to 14) (size 15 to 20)
#    0.000    0.941    2.353    7.412    0.000    0.000 
#    8.471    0.000    2.588    0.706    6.118    0.000 
#    0.000    0.000    0.000    0.000    0.000    0.000 
#
# Total GULP energy -210648.959289 kJ/mol
# GULP energy per Si atom -12391.115252 kJ/mol
# Density = 2.210399 g / cm^3
# Si number density = 22.154418 Si / 1000 Ang^3
#
#
#
# Elastic Constant Matrix: (Units=GPa)
#
#
# Indices 1 2 3 4 5 6 
#
# 1 141.8412 64.2856 27.5951 0.0000 0.0000 0.0000
# 2 64.2856 166.7830 46.4479 0.0000 0.0000 0.0000
# 3 27.5951 46.4479 52.4330 0.0000 0.0000 0.0000
# 4 0.0000 0.0000 0.0000 30.6443 0.0000 0.0000
# 5 0.0000 0.0000 0.0000 0.0000 48.8388 0.0000
# 6 0.0000 0.0000 0.0000 0.0000 0.0000 53.3610
#
#
#
# Elastic Compliance Matrix: (Units=1/GPa)
#
#
# Indices 1 2 3 4 5 6 
#
# 1 0.008720 -0.002765 -0.002140 0.000000 0.000000 0.000000
# 2 -0.002765 0.008836 -0.006372 0.000000 0.000000 0.000000
# 3 -0.002140 -0.006372 0.025843 0.000000 0.000000 0.000000
# 4 0.000000 0.000000 0.000000 0.032633 0.000000 0.000000
# 5 0.000000 0.000000 0.000000 0.000000 0.020476 0.000000
# 6 0.000000 0.000000 0.000000 0.000000 0.000000 0.018740
#
#
# Mechanical properties :
#
#
# Convention : Reuss Voigt Hill
#
# Bulk Modulus (GPa) = 47.97377 70.85717 59.41547
# Shear Modulus (GPa) = 34.54242 41.41739 37.97990
#
# Velocity S-wave (km/s) = 3.95291 4.32845 4.14493
# Velocity P-wave (km/s) = 6.52191 7.55204 7.05580
#
# Compressibility (1/GPa) = 0.02084472
#
# Stress axis : x y z
#
# Youngs Moduli (GPa) = 114.68441 113.17016 38.69516
#
# Poissons Ratio (x) = 0.31292 0.08279
# Poissons Ratio (y) = 0.31711 0.24658
# Poissons Ratio (z) = 0.24538 0.72116
#
# Static dielectric constant tensor:
#      x y z
#    x 4.084310 0.000000 0.000000 
#    y 0.000000 4.218270 0.000000 
#    z 0.000000 0.000000 3.445340 
# 
# 
# High freq. dielectric constant tensor:
#      x y z
#    x 1.914160 0.000000 0.000000 
#    y 0.000000 1.879610 0.000000 
#    z 0.000000 0.000000 1.813640 
# 
# From -- ./inp_files/28846.got.cif
#   From: 2010.03.12/outbox.cif.g09.slc.cpg/sg23_15_cif.got.tgz:28846.got - 2010.04.14 02:50:06.
