data_PCOD8163505
_publ_section_title
;
Structure prediction by ZEFSAII (Michael W. Deem and Ramdas Pophale) SiO2 
 PCOD8163505
Probable space group: I 2 2 2
;
_chemical_formula_sum "Si O2"
_cell_formula_units_Z 64
_cell_length_a 8.886765
_cell_length_b 31.188912
_cell_length_c 11.611883
_cell_angle_alpha 90.000000
_cell_angle_beta 90.000000
_cell_angle_gamma 90.000000
_cell_volume 3218.448560
_symmetry_space_group_name_H-M "I 2 2 2"
_symmetry_group_IT_number 23
_symmetry_cell_setting 'orthorhombic'
loop_
_space_group_symop_operation_xyz
x,y,z
-x,-y,z
x,-y,-z
-x,y,-z
1/2+x,1/2+y,1/2+z
1/2-x,1/2-y,1/2+z
1/2+x,1/2-y,1/2-z
1/2-x,1/2+y,1/2-z
loop_
_atom_site_type_symbol
_atom_site_label
_atom_site_fract_x
_atom_site_fract_y
_atom_site_fract_z
Si Si1 0.830022 0.354759 0.450311
Si Si2 0.321874 0.816808 0.508918
Si Si3 0.578461 0.543219 0.733032
Si Si4 0.686691 0.368446 0.204846
Si Si5 0.634464 0.331029 0.778460
Si Si6 0.163628 0.778796 0.055866
Si Si7 0.314950 0.410052 0.367999
Si Si8 0.843060 0.506918 0.366371
O O1 0.800500 0.363000 0.314476
O O2 0.783848 0.306346 0.482431
O O3 0.712318 0.387626 0.509484
O O4 0.000000 0.363328 0.500000
O O5 0.500000 0.820436 0.500000
O O6 0.277930 0.855449 0.592523
O O7 0.227422 0.820733 0.392223
O O8 0.281200 0.770064 0.558383
O O9 0.500000 0.500000 0.789964
O O10 0.625878 0.582585 0.816812
O O11 0.473434 0.564293 0.633912
O O12 0.728749 0.528742 0.673317
O O13 0.545186 0.336020 0.208781
O O14 0.663250 0.293012 0.688447
O O15 0.700119 0.375414 0.731957
O O16 0.000000 0.784965 0.000000
O O17 0.189928 0.444309 0.336139
O O18 0.859743 0.500000 0.500000
O O19 0.000000 0.500000 0.301477
#
# Coordination Sequence:
#
# PCOD8163505 Si02
#       8
#     8   8   8   8   8   8   8   8
#     4  11  24  36  61  96 129 170 216 273 333 393
#     4  11  27  41  64  96 129 171 219 281 335 397
#     4   9  20  38  61  89 123 172 213 264 322 399
#     4  11  23  41  66  92 129 172 224 267 342 402
#     4  10  22  42  66  88 127 170 216 268 323 400
#     4  10  22  44  64  93 129 169 218 268 330 402
#     4   9  21  37  58  86 125 162 207 256 322 391
#     4  10  20  30  50  86 125 160 197 255 319 386
#
# _framework density 19.885356999999999
#
# number of rings (size 3 to 8) (size 9 to 14) (size 15 to 20)
#    0.000    1.875    1.250    1.125    8.750    6.250 
#    0.000    0.000    0.000   12.750    0.000    8.750 
#    0.000    0.000    0.000    0.000    0.000    0.000 
#
# Total GULP energy -396483.417017 kJ/mol
# GULP energy per Si atom -12390.106782 kJ/mol
# Density = 1.984010 g / cm^3
# Si number density = 19.885357 Si / 1000 Ang^3
#
#
#
# Elastic Constant Matrix: (Units=GPa)
#
#
# Indices 1 2 3 4 5 6 
#
# 1 117.8506 61.5071 47.4176 0.0009 0.0001 -0.0002
# 2 61.5071 138.8097 54.5156 0.0023 0.0007 0.0002
# 3 47.4176 54.5156 117.6336 0.0073 0.0009 -0.0005
# 4 0.0009 0.0023 0.0073 15.7412 0.0011 -0.0002
# 5 0.0001 0.0007 0.0009 0.0011 31.7840 0.0008
# 6 -0.0002 0.0002 -0.0005 -0.0002 0.0008 29.7586
#
#
#
# Elastic Compliance Matrix: (Units=1/GPa)
#
#
# Indices 1 2 3 4 5 6 
#
# 1 0.011768 -0.004097 -0.002845 0.000001 0.000000 0.000000
# 2 -0.004097 0.010234 -0.003091 0.000000 0.000000 0.000000
# 3 -0.002845 -0.003091 0.011080 -0.000005 0.000000 0.000000
# 4 0.000001 0.000000 -0.000005 0.063527 -0.000002 0.000000
# 5 0.000000 0.000000 0.000000 -0.000002 0.031462 -0.000001
# 6 0.000000 0.000000 0.000000 0.000000 -0.000001 0.033604
#
#
# Mechanical properties :
#
#
# Convention : Reuss Voigt Hill
#
# Bulk Modulus (GPa) = 76.83023 77.90827 77.36925
# Shear Modulus (GPa) = 26.87002 29.51367 28.19185
#
# Velocity S-wave (km/s) = 3.67992 3.85670 3.76935
# Velocity P-wave (km/s) = 7.53500 7.68739 7.61157
#
# Compressibility (1/GPa) = 0.01301571
#
# Stress axis : x y z
#
# Youngs Moduli (GPa) = 84.97327 97.71748 90.25072
#
# Poissons Ratio (x) = 0.40038 0.25676
# Poissons Ratio (y) = 0.34816 0.27897
# Poissons Ratio (z) = 0.24175 0.30204
#
# Static dielectric constant tensor:
#      x y z
#    x 4.859780 -0.000010 0.000010 
#    y -0.000010 3.925010 0.000000 
#    z 0.000010 0.000000 3.280690 
# 
# 
# High freq. dielectric constant tensor:
#      x y z
#    x 1.787900 0.000000 0.000000 
#    y 0.000000 1.794850 0.000000 
#    z 0.000000 0.000000 1.737270 
# 
# From -- ./inp_files/14990.got.cif
#   From: 2010.03.12/outbox.cif.g09.slc.cpg/sg23_8_cif.got.tgz:14990.got - 2010.04.14 02:50:06.
