data_PCOD8163613
_publ_section_title
;
Structure prediction by ZEFSAII (Michael W. Deem and Ramdas Pophale) SiO2 
 PCOD8163613
Probable space group: I 2 2 2
;
_chemical_formula_sum "Si O2"
_cell_formula_units_Z 48
_cell_length_a 11.686289
_cell_length_b 17.438606
_cell_length_c 12.184758
_cell_angle_alpha 90.000000
_cell_angle_beta 90.000000
_cell_angle_gamma 90.000000
_cell_volume 2483.163385
_symmetry_space_group_name_H-M "I 2 2 2"
_symmetry_group_IT_number 23
_symmetry_cell_setting 'orthorhombic'
loop_
_space_group_symop_operation_xyz
x,y,z
-x,-y,z
x,-y,-z
-x,y,-z
1/2+x,1/2+y,1/2+z
1/2-x,1/2-y,1/2+z
1/2+x,1/2-y,1/2-z
1/2-x,1/2+y,1/2-z
loop_
_atom_site_type_symbol
_atom_site_label
_atom_site_fract_x
_atom_site_fract_y
_atom_site_fract_z
Si Si1 0.129590 0.473064 0.119243
Si Si2 0.165104 0.131529 0.900553
Si Si3 0.042810 0.584471 0.381888
Si Si4 0.273035 0.531848 0.317481
Si Si5 0.371126 0.173497 0.745873
Si Si6 0.913680 0.835554 0.145379
O O1 0.213953 0.512053 0.204119
O O2 0.145982 0.381754 0.139532
O O3 0.000000 0.500000 0.138471
O O4 0.171336 0.500000 0.000000
O O5 0.273111 0.169334 0.839286
O O6 0.049974 0.163245 0.845632
O O7 0.179049 0.039727 0.887503
O O8 0.147304 0.155423 0.026837
O O9 0.179964 0.580632 0.388175
O O10 0.000000 0.500000 0.346521
O O11 0.000000 0.609271 0.500000
O O12 0.992471 0.647328 0.298062
O O13 0.375279 0.589355 0.287151
O O14 0.370676 0.259067 0.702819
#
# Coordination Sequence:
#
# PCOD8163613 Si02
#       6
#     8   8   8   8   8   8
#     4  10  20  36  60  86 118 159 206 254 303 371
#     4  10  23  43  57  90 122 162 211 246 307 387
#     4  11  20  35  62  93 118 158 206 270 310 356
#     4  11  20  39  63  86 119 162 212 246 310 369
#     4  11  22  40  59  92 127 155 212 265 312 371
#     4  11  25  37  64  87 125 164 195 262 317 372
#
# _framework density 19.330182000000001
#
# number of rings (size 3 to 8) (size 9 to 14) (size 15 to 20)
#    0.000    1.333    5.000    2.000    4.667    5.333 
#    0.000    0.000    0.000    4.000    0.000    0.000 
#    0.000    0.000    0.000    0.000    0.000    0.000 
#
# Total GULP energy -297395.622182 kJ/mol
# GULP energy per Si atom -12391.484258 kJ/mol
# Density = 1.928619 g / cm^3
# Si number density = 19.330182 Si / 1000 Ang^3
#
#
#
# Elastic Constant Matrix: (Units=GPa)
#
#
# Indices 1 2 3 4 5 6 
#
# 1 76.1533 35.1580 13.8649 0.0001 -0.0001 0.0000
# 2 35.1580 136.1931 41.4030 0.0006 -0.0003 -0.0002
# 3 13.8649 41.4030 85.9515 0.0010 -0.0006 -0.0002
# 4 0.0001 0.0006 0.0010 25.8380 -0.0004 -0.0003
# 5 -0.0001 -0.0003 -0.0006 -0.0004 23.1001 0.0001
# 6 0.0000 -0.0002 -0.0002 -0.0003 0.0001 29.1366
#
#
#
# Elastic Compliance Matrix: (Units=1/GPa)
#
#
# Indices 1 2 3 4 5 6 
#
# 1 0.014939 -0.003660 -0.000647 0.000000 0.000000 0.000000
# 2 -0.003660 0.009499 -0.003985 0.000000 0.000000 0.000000
# 3 -0.000647 -0.003985 0.013659 0.000000 0.000000 0.000000
# 4 0.000000 0.000000 0.000000 0.038703 0.000001 0.000000
# 5 0.000000 0.000000 0.000000 0.000001 0.043290 0.000000
# 6 0.000000 0.000000 0.000000 0.000000 0.000000 0.034321
#
#
# Mechanical properties :
#
#
# Convention : Reuss Voigt Hill
#
# Bulk Modulus (GPa) = 46.48489 53.23884 49.86186
# Shear Modulus (GPa) = 28.06398 29.47307 28.76853
#
# Velocity S-wave (km/s) = 3.81441 3.90900 3.86200
# Velocity P-wave (km/s) = 6.59543 6.92642 6.76295
#
# Compressibility (1/GPa) = 0.02151237
#
# Stress axis : x y z
#
# Youngs Moduli (GPa) = 66.93980 105.27647 73.21441
#
# Poissons Ratio (x) = 0.38529 0.04736
# Poissons Ratio (y) = 0.24498 0.29178
# Poissons Ratio (z) = 0.04330 0.41955
#
# Static dielectric constant tensor:
#      x y z
#    x 5.843980 0.000010 0.000000 
#    y 0.000010 3.475890 0.000000 
#    z 0.000000 0.000000 3.591380 
# 
# 
# High freq. dielectric constant tensor:
#      x y z
#    x 1.759550 0.000000 0.000000 
#    y 0.000000 1.739550 0.000000 
#    z 0.000000 0.000000 1.748830 
# 
# From -- ./inp_files/15769.got.cif
#   From: 2010.03.12/outbox.cif.g09.slc.cpg/sg23_8_cif.got.tgz:15769.got - 2010.04.14 02:50:06.
