data_PCOD8163404
_publ_section_title
;
Structure prediction by ZEFSAII (Michael W. Deem and Ramdas Pophale) SiO2 
 PCOD8163404
Probable space group: I 2 2 2
;
_chemical_formula_sum "Si O2"
_cell_formula_units_Z 56
_cell_length_a 20.406557
_cell_length_b 9.489994
_cell_length_c 15.378334
_cell_angle_alpha 90.000000
_cell_angle_beta 90.000000
_cell_angle_gamma 90.000000
_cell_volume 2978.138997
_symmetry_space_group_name_H-M "I 2 2 2"
_symmetry_group_IT_number 23
_symmetry_cell_setting 'orthorhombic'
loop_
_space_group_symop_operation_xyz
x,y,z
-x,-y,z
x,-y,-z
-x,y,-z
1/2+x,1/2+y,1/2+z
1/2-x,1/2-y,1/2+z
1/2+x,1/2-y,1/2-z
1/2-x,1/2+y,1/2-z
loop_
_atom_site_type_symbol
_atom_site_label
_atom_site_fract_x
_atom_site_fract_y
_atom_site_fract_z
Si Si1 0.564197 0.320400 0.244029
Si Si2 0.783905 0.860617 0.800334
Si Si3 0.748058 0.834299 0.992261
Si Si4 0.694583 0.315264 0.329316
Si Si5 0.565467 0.919228 0.887545
Si Si6 0.610985 0.189070 0.944669
Si Si7 0.920501 0.135272 0.283386
O O1 0.615117 0.308511 0.323725
O O2 0.586334 0.194131 0.182530
O O3 0.486571 0.312816 0.267897
O O4 0.577915 0.469309 0.198187
O O5 0.731419 0.797962 0.732126
O O6 0.857292 0.816288 0.771170
O O7 0.777901 0.030216 0.803234
O O8 0.773117 0.792533 0.896165
O O9 0.795102 0.778900 0.069167
O O10 0.678196 0.760132 0.011110
O O11 0.741249 0.000000 0.000000
O O12 0.500000 0.000000 0.859590
O O13 0.622446 0.039203 0.893416
O O14 0.557461 0.840806 0.980330
O O15 0.580233 0.301916 0.879975
#
# Coordination Sequence:
#
# PCOD8163404 Si02
#       7
#     8   8   8   8   8   8   8
#     4  10  22  36  52  80 116 150 187 232 281 343
#     4  10  21  38  58  82 113 153 192 239 291 337
#     4  10  19  34  57  83 111 147 191 241 283 337
#     4  10  21  36  58  84 113 150 194 240 290 342
#     4  11  21  32  52  84 110 143 185 228 279 346
#     4  11  19  32  54  80 111 142 185 231 277 341
#     4  10  21  37  54  77 115 155 186 226 288 343
#
# _framework density 18.803688999999999
#
# number of rings (size 3 to 8) (size 9 to 14) (size 15 to 20)
#    0.000    1.714    4.286    1.714    2.000    0.571 
#    0.000    2.857    0.000    4.286    0.000    0.000 
#    0.000    0.000    0.000    0.000    0.000    0.000 
#
# Total GULP energy -346920.369365 kJ/mol
# GULP energy per Si atom -12390.013192 kJ/mol
# Density = 1.876089 g / cm^3
# Si number density = 18.803689 Si / 1000 Ang^3
#
#
#
# Elastic Constant Matrix: (Units=GPa)
#
#
# Indices 1 2 3 4 5 6 
#
# 1 107.2074 15.7445 29.8782 0.0000 0.0000 0.0000
# 2 15.7445 45.4253 21.9875 0.0000 0.0000 0.0000
# 3 29.8782 21.9875 88.6365 0.0000 0.0000 0.0000
# 4 0.0000 0.0000 0.0000 22.1682 0.0000 0.0000
# 5 0.0000 0.0000 0.0000 0.0000 30.8677 0.0000
# 6 0.0000 0.0000 0.0000 0.0000 0.0000 20.9048
#
#
#
# Elastic Compliance Matrix: (Units=1/GPa)
#
#
# Indices 1 2 3 4 5 6 
#
# 1 0.010482 -0.002185 -0.002991 0.000000 0.000000 0.000000
# 2 -0.002185 0.025474 -0.005582 0.000000 0.000000 0.000000
# 3 -0.002991 -0.005582 0.013675 0.000000 0.000000 0.000000
# 4 0.000000 0.000000 0.000000 0.045110 0.000000 0.000000
# 5 0.000000 0.000000 0.000000 0.000000 0.032396 0.000000
# 6 0.000000 0.000000 0.000000 0.000000 0.000000 0.047836
#
#
# Mechanical properties :
#
#
# Convention : Reuss Voigt Hill
#
# Bulk Modulus (GPa) = 35.57074 41.83220 38.70147
# Shear Modulus (GPa) = 24.28807 26.36540 25.32673
#
# Velocity S-wave (km/s) = 3.59787 3.74858 3.67400
# Velocity P-wave (km/s) = 6.01810 6.40554 6.21484
#
# Compressibility (1/GPa) = 0.02811300
#
# Stress axis : x y z
#
# Youngs Moduli (GPa) = 95.39863 39.25610 73.12506
#
# Poissons Ratio (x) = 0.08579 0.21874
# Poissons Ratio (y) = 0.20847 0.40822
# Poissons Ratio (z) = 0.28537 0.21915
#
# Static dielectric constant tensor:
#      x y z
#    x 3.677180 0.000000 0.000000 
#    y 0.000000 3.419560 0.000000 
#    z 0.000000 0.000000 3.421860 
# 
# 
# High freq. dielectric constant tensor:
#      x y z
#    x 1.741400 0.000000 0.000000 
#    y 0.000000 1.716520 0.000000 
#    z 0.000000 0.000000 1.704700 
# 
# From -- ./inp_files/22407.got.cif
#   From: 2010.03.12/outbox.cif.g09.slc.cpg/sg23_12_cif.got.tgz:22407.got - 2010.04.14 02:50:06.
