data_PCOD8163524
_publ_section_title
;
Structure prediction by ZEFSAII (Michael W. Deem and Ramdas Pophale) SiO2 
 PCOD8163524
Probable space group: I 2 2 2
;
_chemical_formula_sum "Si O2"
_cell_formula_units_Z 56
_cell_length_a 14.162147
_cell_length_b 24.147129
_cell_length_c 9.008507
_cell_angle_alpha 90.000000
_cell_angle_beta 90.000000
_cell_angle_gamma 90.000000
_cell_volume 3080.685898
_symmetry_space_group_name_H-M "I 2 2 2"
_symmetry_group_IT_number 23
_symmetry_cell_setting 'orthorhombic'
loop_
_space_group_symop_operation_xyz
x,y,z
-x,-y,z
x,-y,-z
-x,y,-z
1/2+x,1/2+y,1/2+z
1/2-x,1/2-y,1/2+z
1/2+x,1/2-y,1/2-z
1/2-x,1/2+y,1/2-z
loop_
_atom_site_type_symbol
_atom_site_label
_atom_site_fract_x
_atom_site_fract_y
_atom_site_fract_z
Si Si1 0.690061 0.063108 0.324898
Si Si2 0.190061 0.563108 0.175102
Si Si3 1.000000 0.565338 0.334416
Si Si4 0.244756 0.836811 0.828154
Si Si5 0.244755 0.163189 0.828153
Si Si6 0.608850 0.239465 0.328052
Si Si7 0.391151 0.239465 0.328049
O O1 0.683225 0.068482 0.500000
O O2 0.591646 0.084447 0.255887
O O3 0.768614 0.104953 0.259502
O O4 0.714327 1.000000 0.278088
O O5 0.091645 0.584447 0.244113
O O6 0.268613 0.604954 0.240499
O O7 0.000000 0.500000 0.345782
O O8 0.000000 0.591394 0.500000
O O9 0.151602 0.800456 0.798650
O O10 0.337578 0.805134 0.771085
O O11 0.258816 0.850369 0.000001
O O12 0.337577 0.194866 0.771081
O O13 0.151601 0.199544 0.798649
O O14 0.500001 0.240641 0.280139
O O15 0.621853 0.223012 0.500001
#
# Coordination Sequence:
#
# PCOD8163524 Si02
#       7
#     8   8   8   8   8   8   8
#     4  10  20  33  49  70 100 137 170 202 248 304
#     4  10  20  33  49  70 100 137 170 202 248 304
#     4   9  17  29  45  67  95 127 165 205 242 285
#     4  10  20  33  52  78 103 130 169 212 252 297
#     4  10  20  33  52  78 103 130 169 212 252 297
#     4   9  19  36  55  74 100 134 169 208 255 304
#     4   9  19  36  55  74 100 134 169 208 255 304
#
# _framework density 18.177772000000001
#
# number of rings (size 3 to 8) (size 9 to 14) (size 15 to 20)
#    0.000    2.429    0.000    2.143    2.000    5.143 
#    0.000    0.000    0.000    0.857    0.000    6.000 
#    0.000    0.000    0.000    0.000    0.000    0.000 
#
# Total GULP energy -347186.540489 kJ/mol
# GULP energy per Si atom -12399.519303 kJ/mol
# Density = 1.813640 g / cm^3
# Si number density = 18.177772 Si / 1000 Ang^3
#
#
#
# Elastic Constant Matrix: (Units=GPa)
#
#
# Indices 1 2 3 4 5 6 
#
# 1 66.5683 18.8788 20.1136 0.0000 -0.0005 -0.0001
# 2 18.8788 93.9745 44.1288 -0.0002 -0.0001 0.0000
# 3 20.1136 44.1288 90.0196 -0.0038 0.0025 0.0001
# 4 0.0000 -0.0002 -0.0038 35.3171 0.0009 0.0001
# 5 -0.0005 -0.0001 0.0025 0.0009 22.8782 0.0000
# 6 -0.0001 0.0000 0.0001 0.0001 0.0000 21.1695
#
#
#
# Elastic Compliance Matrix: (Units=1/GPa)
#
#
# Indices 1 2 3 4 5 6 
#
# 1 0.016407 -0.002045 -0.002663 0.000000 0.000001 0.000000
# 2 -0.002045 0.014078 -0.006444 -0.000001 0.000001 0.000000
# 3 -0.002663 -0.006444 0.014863 0.000002 -0.000002 0.000000
# 4 0.000000 -0.000001 0.000002 0.028315 -0.000001 0.000000
# 5 0.000001 0.000001 -0.000002 -0.000001 0.043710 0.000000
# 6 0.000000 0.000000 0.000000 0.000000 0.000000 0.047238
#
#
# Mechanical properties :
#
#
# Convention : Reuss Voigt Hill
#
# Bulk Modulus (GPa) = 43.39880 46.31164 44.85522
# Shear Modulus (GPa) = 25.69413 27.03572 26.36492
#
# Velocity S-wave (km/s) = 3.76372 3.86073 3.81253
# Velocity P-wave (km/s) = 6.54324 6.73840 6.64154
#
# Compressibility (1/GPa) = 0.02304211
#
# Stress axis : x y z
#
# Youngs Moduli (GPa) = 60.94980 71.03166 67.28198
#
# Poissons Ratio (x) = 0.14529 0.17918
# Poissons Ratio (y) = 0.12467 0.43359
# Poissons Ratio (z) = 0.16232 0.45775
#
# Static dielectric constant tensor:
#      x y z
#    x 3.186950 0.000000 0.000000 
#    y 0.000000 3.497110 0.000000 
#    z 0.000000 0.000000 3.447050 
# 
# 
# High freq. dielectric constant tensor:
#      x y z
#    x 1.666850 0.000000 0.000000 
#    y 0.000000 1.711110 0.000000 
#    z 0.000000 0.000000 1.716270 
# 
# From -- ./inp_files/10211.got.cif
#   From: 2010.03.12/outbox.cif.g09.slc.cpg/sg23_6_cif.got.tgz:10211.got - 2010.04.14 02:50:06.
