data_PCOD8163638
_publ_section_title
;
Structure prediction by ZEFSAII (Michael W. Deem and Ramdas Pophale) SiO2 
 PCOD8163638
Probable space group: I 2 2 2
;
_chemical_formula_sum "Si O2"
_cell_formula_units_Z 48
_cell_length_a 8.097191
_cell_length_b 8.894419
_cell_length_c 32.632049
_cell_angle_alpha 90.000000
_cell_angle_beta 90.000000
_cell_angle_gamma 90.000000
_cell_volume 2350.153952
_symmetry_space_group_name_H-M "I 2 2 2"
_symmetry_group_IT_number 23
_symmetry_cell_setting 'orthorhombic'
loop_
_space_group_symop_operation_xyz
x,y,z
-x,-y,z
x,-y,-z
-x,y,-z
1/2+x,1/2+y,1/2+z
1/2-x,1/2-y,1/2+z
1/2+x,1/2-y,1/2-z
1/2-x,1/2+y,1/2-z
loop_
_atom_site_type_symbol
_atom_site_label
_atom_site_fract_x
_atom_site_fract_y
_atom_site_fract_z
Si Si1 0.035023 0.326793 0.854776
Si Si2 0.431018 0.665674 0.279125
Si Si3 0.157059 0.904331 0.908429
Si Si4 0.359977 0.817818 0.120895
Si Si5 0.952126 0.336696 0.295506
Si Si6 0.552057 0.829747 0.042732
O O1 0.035645 0.280949 0.807049
O O2 0.899203 0.225259 0.877629
O O3 0.000000 0.500000 0.861239
O O4 0.215856 0.300846 0.872519
O O5 0.500000 0.500000 0.287692
O O6 0.242789 0.682145 0.292440
O O7 0.457036 0.710913 0.231993
O O8 0.250668 0.827386 0.947255
O O9 0.286869 0.013034 0.884562
O O10 0.000000 0.000000 0.924474
O O11 0.488268 0.816071 0.158115
O O12 0.453299 0.757204 0.080588
O O13 0.000000 0.500000 0.278280
O O14 0.500000 0.000000 0.038055
O O15 0.500000 0.746527 0.000000
#
# Coordination Sequence:
#
# PCOD8163638 Si02
#       6
#     8   8   8   8   8   8
#     4  11  22  38  58  83 114 152 198 241 287 346
#     4  12  25  40  59  85 116 153 192 240 290 339
#     4   9  18  35  59  85 117 153 189 236 293 345
#     4  10  20  37  60  85 114 152 190 238 292 342
#     4  12  23  39  59  83 116 153 194 237 286 347
#     4   9  17  33  59  91 118 146 190 240 288 346
#
# _framework density 20.424194
#
# number of rings (size 3 to 8) (size 9 to 14) (size 15 to 20)
#    0.000    1.500    0.000    8.500    0.000    1.333 
#    0.000   16.667    0.000    3.000    0.000    0.000 
#    0.000    0.000    0.000    0.000    0.000    0.000 
#
# Total GULP energy -297587.914843 kJ/mol
# GULP energy per Si atom -12399.496452 kJ/mol
# Density = 2.037771 g / cm^3
# Si number density = 20.424194 Si / 1000 Ang^3
#
#
#
# Elastic Constant Matrix: (Units=GPa)
#
#
# Indices 1 2 3 4 5 6 
#
# 1 138.1309 38.9697 91.5651 0.0000 0.0000 0.0000
# 2 38.9697 92.0934 36.9994 0.0000 0.0000 0.0000
# 3 91.5651 36.9994 157.1792 0.0000 0.0000 0.0000
# 4 0.0000 0.0000 0.0000 12.1702 0.0000 0.0000
# 5 0.0000 0.0000 0.0000 0.0000 45.7837 0.0000
# 6 0.0000 0.0000 0.0000 0.0000 0.0000 21.5484
#
#
#
# Elastic Compliance Matrix: (Units=1/GPa)
#
#
# Indices 1 2 3 4 5 6 
#
# 1 0.012323 -0.002574 -0.006573 0.000000 0.000000 0.000000
# 2 -0.002574 0.012530 -0.001450 0.000000 0.000000 0.000000
# 3 -0.006573 -0.001450 0.010532 0.000000 0.000000 0.000000
# 4 0.000000 0.000000 0.000000 0.082168 0.000000 0.000000
# 5 0.000000 0.000000 0.000000 0.000000 0.021842 0.000000
# 6 0.000000 0.000000 0.000000 0.000000 0.000000 0.046407
#
#
# Mechanical properties :
#
#
# Convention : Reuss Voigt Hill
#
# Bulk Modulus (GPa) = 70.46221 80.27464 75.36843
# Shear Modulus (GPa) = 23.61539 30.55841 27.08690
#
# Velocity S-wave (km/s) = 3.40405 3.87225 3.64568
# Velocity P-wave (km/s) = 7.07279 7.70594 7.39614
#
# Compressibility (1/GPa) = 0.01419201
#
# Stress axis : x y z
#
# Youngs Moduli (GPa) = 81.15205 79.80674 94.94431
#
# Poissons Ratio (x) = 0.20540 0.62404
# Poissons Ratio (y) = 0.20886 0.13769
# Poissons Ratio (z) = 0.53339 0.11574
#
# Static dielectric constant tensor:
#      x y z
#    x 3.993010 0.000000 0.000000 
#    y 0.000000 3.361860 0.000000 
#    z 0.000000 0.000000 4.246010 
# 
# 
# High freq. dielectric constant tensor:
#      x y z
#    x 1.818530 0.000000 0.000000 
#    y 0.000000 1.760650 0.000000 
#    z 0.000000 0.000000 1.797130 
# 
# From -- ./inp_files/30229.got.cif
#   From: 2010.03.12/outbox.cif.g09.slc.cpg/sg23_16_cif.got.tgz:30229.got - 2010.04.14 02:50:06.
