data_PCOD8163005
_publ_section_title
;
Structure prediction by ZEFSAII (Michael W. Deem and Ramdas Pophale) SiO2 
 PCOD8163005
Probable space group: F 2 2 2
;
_chemical_formula_sum "Si O2"
_cell_formula_units_Z 36
_cell_length_a 15.972086
_cell_length_b 6.855544
_cell_length_c 14.078845
_cell_angle_alpha 90.000000
_cell_angle_beta 90.000000
_cell_angle_gamma 90.000000
_cell_volume 1541.596054
_symmetry_space_group_name_H-M "F 2 2 2"
_symmetry_group_IT_number 22
_symmetry_cell_setting 'orthorhombic'
loop_
_space_group_symop_operation_xyz
x,y,z
-x,-y,z
x,-y,-z
-x,y,-z
x,1/2+y,1/2+z
-x,1/2-y,1/2+z
x,1/2-y,1/2-z
-x,1/2+y,1/2-z
1/2+x,y,1/2+z
1/2-x,-y,1/2+z
1/2+x,-y,1/2-z
1/2-x,y,1/2-z
1/2+x,1/2+y,z
1/2-x,1/2-y,z
1/2+x,1/2-y,-z
1/2-x,1/2+y,-z
loop_
_atom_site_type_symbol
_atom_site_label
_atom_site_fract_x
_atom_site_fract_y
_atom_site_fract_z
Si Si1 0.638693 0.520089 0.898166
Si Si2 0.750000 0.750000 0.750000
Si Si3 0.507368 0.222226 0.857633
O O1 0.697229 0.605546 0.816373
O O2 0.601392 0.309419 0.866366
O O3 0.560307 0.662699 0.920642
O O4 0.686718 0.500000 0.000000
O O5 0.476213 0.250000 0.750000
O O6 0.500000 0.000000 0.890096
#
# Coordination Sequence:
#
# PCOD8163005 Si02
#       3
#    16   4  16
#     4  11  25  45  70 104 143 190 241 292 359 432
#     4  12  24  56  66 106 162 178 240 306 356 426
#     4  11  19  42  74 105 139 187 242 301 349 418
#
# _framework density 23.352419999999999
#
# number of rings (size 3 to 8) (size 9 to 14) (size 15 to 20)
#    0.000    0.889    6.667    2.667    0.000    3.556 
#   16.000    2.222    0.000    0.000    0.000    0.000 
#    0.000    0.000    0.000    0.000    0.000    0.000 
#
# Total GULP energy -111561.264280 kJ/mol
# GULP energy per Si atom -12395.696031 kJ/mol
# Density = 2.329927 g / cm^3
# Si number density = 23.352420 Si / 1000 Ang^3
#
#
#
# Elastic Constant Matrix: (Units=GPa)
#
#
# Indices 1 2 3 4 5 6 
#
# 1 103.1507 60.2744 56.1935 0.0000 0.0000 0.0000
# 2 60.2744 198.6799 42.3900 0.0000 0.0000 0.0000
# 3 56.1935 42.3900 165.6781 0.0000 0.0000 0.0000
# 4 0.0000 0.0000 0.0000 21.6885 0.0000 0.0000
# 5 0.0000 0.0000 0.0000 0.0000 19.7334 0.0000
# 6 0.0000 0.0000 0.0000 0.0000 0.0000 36.2976
#
#
#
# Elastic Compliance Matrix: (Units=1/GPa)
#
#
# Indices 1 2 3 4 5 6 
#
# 1 0.013722 -0.003353 -0.003796 0.000000 0.000000 0.000000
# 2 -0.003353 0.006143 -0.000435 0.000000 0.000000 0.000000
# 3 -0.003796 -0.000435 0.007435 0.000000 0.000000 0.000000
# 4 0.000000 0.000000 0.000000 0.046107 0.000000 0.000000
# 5 0.000000 0.000000 0.000000 0.000000 0.050675 0.000000
# 6 0.000000 0.000000 0.000000 0.000000 0.000000 0.027550
#
#
# Mechanical properties :
#
#
# Convention : Reuss Voigt Hill
#
# Bulk Modulus (GPa) = 82.42536 87.24716 84.83626
# Shear Modulus (GPa) = 29.26651 36.12063 32.69357
#
# Velocity S-wave (km/s) = 3.54397 3.93716 3.74573
# Velocity P-wave (km/s) = 7.21937 7.62302 7.42394
#
# Compressibility (1/GPa) = 0.01213219
#
# Stress axis : x y z
#
# Youngs Moduli (GPa) = 72.87661 162.78366 134.50714
#
# Poissons Ratio (x) = 0.54580 0.51062
# Poissons Ratio (y) = 0.24435 0.05845
# Poissons Ratio (z) = 0.27665 0.07074
#
# Static dielectric constant tensor:
#      x y z
#    x 3.867930 0.000000 0.000000 
#    y 0.000000 4.406350 0.000000 
#    z 0.000000 0.000000 4.259620 
# 
# 
# High freq. dielectric constant tensor:
#      x y z
#    x 1.888280 0.000000 0.000000 
#    y 0.000000 1.928770 0.000000 
#    z 0.000000 0.000000 1.947920 
# 
# From -- ./inp_files/8837.got.cif
#   From: 2010.03.12/outbox.cif.g09.slc.cpg/sg22_5_cif.got.tgz:8837.got - 2010.04.14 02:24:06.
