data_PCOD8163229
_publ_section_title
;
Structure prediction by ZEFSAII (Michael W. Deem and Ramdas Pophale) SiO2 
 PCOD8163229
Probable space group: I 2 2 2
;
_chemical_formula_sum "Si O2"
_cell_formula_units_Z 60
_cell_length_a 5.334682
_cell_length_b 33.847043
_cell_length_c 20.369431
_cell_angle_alpha 90.000000
_cell_angle_beta 90.000000
_cell_angle_gamma 90.000000
_cell_volume 3677.969869
_symmetry_space_group_name_H-M "I 2 2 2"
_symmetry_group_IT_number 23
_symmetry_cell_setting 'orthorhombic'
loop_
_space_group_symop_operation_xyz
x,y,z
-x,-y,z
x,-y,-z
-x,y,-z
1/2+x,1/2+y,1/2+z
1/2-x,1/2-y,1/2+z
1/2+x,1/2-y,1/2-z
1/2-x,1/2+y,1/2-z
loop_
_atom_site_type_symbol
_atom_site_label
_atom_site_fract_x
_atom_site_fract_y
_atom_site_fract_z
Si Si1 0.549680 0.195756 0.365927
Si Si2 0.980269 0.091286 0.327566
Si Si3 0.500000 0.070776 0.500000
Si Si4 0.673740 0.637038 0.052952
Si Si5 0.036293 0.842974 0.772908
Si Si6 0.460988 0.184322 0.785254
Si Si7 0.547821 0.272747 0.168087
Si Si8 0.026888 0.544585 0.142226
O O1 0.584404 0.161885 0.421614
O O2 0.547763 0.175876 0.293551
O O3 0.295334 0.220948 0.377561
O O4 0.794977 0.223693 0.374767
O O5 0.996002 0.124673 0.384376
O O6 0.711933 0.069380 0.332075
O O7 0.011200 0.114017 0.258958
O O8 0.212654 0.061474 0.330352
O O9 0.260956 0.097868 0.515234
O O10 0.550321 0.043756 0.563238
O O11 0.500000 0.660477 0.000000
O O12 0.294213 0.838181 0.814652
O O13 0.051469 0.806276 0.722820
O O14 0.787343 0.835660 0.817028
O O15 0.454842 0.230878 0.796347
O O16 0.000000 0.500000 0.167849
#
# Coordination Sequence:
#
# PCOD8163229 Si02
#       8
#     8   8   4   8   8   8   8   8
#     4  10  19  27  42  57  83 101 128 151 190 236
#     4  11  21  34  48  64  77 101 127 168 211 263
#     4  10  23  32  50  58  76  94 136 174 230 260
#     4  11  21  32  45  63  78 104 133 175 210 257
#     4  10  17  27  43  62  83  98 123 146 187 239
#     4  10  17  27  43  63  85 103 121 145 184 239
#     4  10  18  28  42  62  84 104 122 146 185 239
#     4  11  23  37  48  60  76  98 131 175 223 269
#
# _framework density 16.313348000000001
#
# number of rings (size 3 to 8) (size 9 to 14) (size 15 to 20)
#    0.000    1.600    4.000    5.400    7.467    0.000 
#    0.000    1.333    0.000    0.000    0.000    0.000 
#    0.000    0.000    0.000    0.000    0.000    0.000 
#
# Total GULP energy -371717.952412 kJ/mol
# GULP energy per Si atom -12390.598414 kJ/mol
# Density = 1.627622 g / cm^3
# Si number density = 16.313348 Si / 1000 Ang^3
#
#
#
# Elastic Constant Matrix: (Units=GPa)
#
#
# Indices 1 2 3 4 5 6 
#
# 1 148.9018 26.7955 5.3272 0.0000 0.0000 0.0000
# 2 26.7955 62.4316 12.0260 0.0000 0.0000 0.0000
# 3 5.3272 12.0260 6.7911 0.0000 0.0000 0.0000
# 4 0.0000 0.0000 0.0000 12.3644 0.0000 0.0000
# 5 0.0000 0.0000 0.0000 0.0000 13.3556 0.0000
# 6 0.0000 0.0000 0.0000 0.0000 0.0000 25.1924
#
#
#
# Elastic Compliance Matrix: (Units=1/GPa)
#
#
# Indices 1 2 3 4 5 6 
#
# 1 0.007278 -0.003072 -0.000270 0.000000 0.000000 0.000000
# 2 -0.003072 0.025606 -0.042935 0.000000 0.000000 0.000000
# 3 -0.000270 -0.042935 0.223494 0.000000 0.000000 0.000000
# 4 0.000000 0.000000 0.000000 0.080878 0.000000 0.000000
# 5 0.000000 0.000000 0.000000 0.000000 0.074875 0.000000
# 6 0.000000 0.000000 0.000000 0.000000 0.000000 0.039694
#
#
# Mechanical properties :
#
#
# Convention : Reuss Voigt Hill
#
# Bulk Modulus (GPa) = 6.10405 34.04688 20.07546
# Shear Modulus (GPa) = 8.34741 21.78087 15.06414
#
# Velocity S-wave (km/s) = 2.26452 3.65794 3.04209
# Velocity P-wave (km/s) = 3.25381 6.22548 4.96708
#
# Compressibility (1/GPa) = 0.16382569
#
# Stress axis : x y z
#
# Youngs Moduli (GPa) = 137.39511 39.05268 4.47439
#
# Poissons Ratio (x) = 0.11997 0.00121
# Poissons Ratio (y) = 0.42206 0.19211
# Poissons Ratio (z) = 0.03703 1.67674
#
# Static dielectric constant tensor:
#      x y z
#    x 4.481590 0.000000 0.000000 
#    y 0.000000 2.903930 0.000000 
#    z 0.000000 0.000000 2.526280 
# 
# 
# High freq. dielectric constant tensor:
#      x y z
#    x 1.669670 0.000000 0.000000 
#    y 0.000000 1.604420 0.000000 
#    z 0.000000 0.000000 1.535340 
# 
# From -- ./inp_files/4637.got.cif
#   From: 2010.03.12/outbox.cif.g09.slc.cpg/sg23_3_cif.got.tgz:4637.got - 2010.04.14 02:50:06.
