data_PCOD8163759
_publ_section_title
;
Structure prediction by ZEFSAII (Michael W. Deem and Ramdas Pophale) SiO2 
 PCOD8163759
Probable space group: I 2 2 2
;
_chemical_formula_sum "Si O2"
_cell_formula_units_Z 58
_cell_length_a 28.984086
_cell_length_b 10.737413
_cell_length_c 8.608967
_cell_angle_alpha 90.000000
_cell_angle_beta 90.000000
_cell_angle_gamma 90.000000
_cell_volume 2679.231932
_symmetry_space_group_name_H-M "I 2 2 2"
_symmetry_group_IT_number 23
_symmetry_cell_setting 'orthorhombic'
loop_
_space_group_symop_operation_xyz
x,y,z
-x,-y,z
x,-y,-z
-x,y,-z
1/2+x,1/2+y,1/2+z
1/2-x,1/2-y,1/2+z
1/2+x,1/2-y,1/2-z
1/2-x,1/2+y,1/2-z
loop_
_atom_site_type_symbol
_atom_site_label
_atom_site_fract_x
_atom_site_fract_y
_atom_site_fract_z
Si Si1 0.028568 0.373346 0.637493
Si Si2 0.122736 0.755020 0.831036
Si Si3 0.209082 0.351884 0.984290
Si Si4 0.201089 0.781554 0.335335
Si Si5 0.500000 0.500000 0.500000
Si Si6 0.373090 0.868296 0.012828
Si Si7 0.146591 0.974285 0.179227
Si Si8 0.564870 0.304659 0.615837
O O1 0.080699 0.394074 0.583585
O O2 0.034587 0.297538 0.795379
O O3 0.000000 0.500000 0.671046
O O4 0.000000 0.301540 0.500000
O O5 0.113469 0.661801 0.690356
O O6 0.130049 0.892758 0.754860
O O7 0.165886 0.710328 0.931548
O O8 0.078153 0.753888 0.944354
O O9 0.208559 0.316863 0.803016
O O10 0.207282 0.500000 0.000000
O O11 0.253825 0.290881 0.060561
O O12 0.159020 0.738932 0.444205
O O13 0.191127 0.921431 0.269407
O O14 0.531567 0.421024 0.612210
O O15 0.345661 0.000000 0.000000
O O16 0.110184 0.860078 0.200281
O O17 0.158208 0.000000 0.000000
#
# Coordination Sequence:
#
# PCOD8163759 Si02
#       8
#     8   8   8   8   2   8   8   8
#     4  11  24  46  70 101 148 189 233 302 361 439
#     4  11  24  47  74 105 141 191 238 303 368 431
#     4  12  27  45  70 108 145 187 250 295 362 454
#     4  12  26  45  71 105 146 191 241 303 364 432
#     4  12  24  40  72 108 140 176 258 298 344 440
#     4  12  25  46  70 100 143 190 241 298 371 427
#     4  10  20  45  73  99 143 187 232 301 370 424
#     4  11  23  46  73 104 141 188 238 299 366 431
#
# _framework density 21.647994000000001
#
# number of rings (size 3 to 8) (size 9 to 14) (size 15 to 20)
#    0.000    0.690    7.586    1.655    5.793    0.000 
#    0.000    4.138    0.000    0.000    0.000    0.000 
#    0.000    0.000    0.000    0.000    0.000    0.000 
#
# Total GULP energy -359472.495037 kJ/mol
# GULP energy per Si atom -12395.603277 kJ/mol
# Density = 2.159872 g / cm^3
# Si number density = 21.647994 Si / 1000 Ang^3
#
#
#
# Elastic Constant Matrix: (Units=GPa)
#
#
# Indices 1 2 3 4 5 6 
#
# 1 104.6973 39.4640 48.5272 0.0000 0.0000 0.0000
# 2 39.4640 122.3780 62.5230 0.0000 0.0000 0.0000
# 3 48.5272 62.5230 118.7544 0.0000 0.0000 0.0000
# 4 0.0000 0.0000 0.0000 34.2682 0.0000 0.0000
# 5 0.0000 0.0000 0.0000 0.0000 46.3475 0.0000
# 6 0.0000 0.0000 0.0000 0.0000 0.0000 39.6278
#
#
#
# Elastic Compliance Matrix: (Units=1/GPa)
#
#
# Indices 1 2 3 4 5 6 
#
# 1 0.012091 -0.001881 -0.003951 0.000000 0.000000 0.000000
# 2 -0.001881 0.011471 -0.005271 0.000000 0.000000 0.000000
# 3 -0.003951 -0.005271 0.012810 0.000000 0.000000 0.000000
# 4 0.000000 0.000000 0.000000 0.029182 0.000000 0.000000
# 5 0.000000 0.000000 0.000000 0.000000 0.021576 0.000000
# 6 0.000000 0.000000 0.000000 0.000000 0.000000 0.025235
#
#
# Mechanical properties :
#
#
# Convention : Reuss Voigt Hill
#
# Bulk Modulus (GPa) = 70.58231 71.87313 71.22772
# Shear Modulus (GPa) = 35.89587 37.06975 36.48281
#
# Velocity S-wave (km/s) = 4.07647 4.14259 4.10966
# Velocity P-wave (km/s) = 7.40487 7.49362 7.44938
#
# Compressibility (1/GPa) = 0.01416786
#
# Stress axis : x y z
#
# Youngs Moduli (GPa) = 82.70304 87.17879 78.06321
#
# Poissons Ratio (x) = 0.16396 0.30841
# Poissons Ratio (y) = 0.15554 0.41145
# Poissons Ratio (z) = 0.32674 0.45949
#
# Static dielectric constant tensor:
#      x y z
#    x 4.173750 0.000000 0.000000 
#    y 0.000000 3.747050 0.000000 
#    z 0.000000 0.000000 3.832730 
# 
# 
# High freq. dielectric constant tensor:
#      x y z
#    x 1.855540 0.000000 0.000000 
#    y 0.000000 1.857270 0.000000 
#    z 0.000000 0.000000 1.847070 
# 
# From -- ./inp_files/13080.got.cif
#   From: 2010.03.12/outbox.cif.g09.slc.cpg/sg23_7_cif.got.tgz:13080.got - 2010.04.14 02:50:06.
