data_PCOD8163003
_publ_section_title
;
Structure prediction by ZEFSAII (Michael W. Deem and Ramdas Pophale) SiO2 
 PCOD8163003
Probable space group: F 2 2 2
;
_chemical_formula_sum "Si O2"
_cell_formula_units_Z 112
_cell_length_a 12.689845
_cell_length_b 19.341165
_cell_length_c 23.857345
_cell_angle_alpha 90.000000
_cell_angle_beta 90.000000
_cell_angle_gamma 90.000000
_cell_volume 5855.460536
_symmetry_space_group_name_H-M "F 2 2 2"
_symmetry_group_IT_number 22
_symmetry_cell_setting 'orthorhombic'
loop_
_space_group_symop_operation_xyz
x,y,z
-x,-y,z
x,-y,-z
-x,y,-z
x,1/2+y,1/2+z
-x,1/2-y,1/2+z
x,1/2-y,1/2-z
-x,1/2+y,1/2-z
1/2+x,y,1/2+z
1/2-x,-y,1/2+z
1/2+x,-y,1/2-z
1/2-x,y,1/2-z
1/2+x,1/2+y,z
1/2-x,1/2-y,z
1/2+x,1/2-y,-z
1/2-x,1/2+y,-z
loop_
_atom_site_type_symbol
_atom_site_label
_atom_site_fract_x
_atom_site_fract_y
_atom_site_fract_z
Si Si1 0.871647 0.934994 0.602262
Si Si2 0.639903 0.723216 0.313578
Si Si3 0.911546 0.741450 0.651122
Si Si4 0.689697 0.361255 0.506854
Si Si5 0.248330 0.143308 0.687929
Si Si6 0.601158 0.593676 0.379189
Si Si7 0.107987 0.718579 0.477982
O O1 0.845269 0.921824 0.536762
O O2 0.773647 0.912839 0.640425
O O3 0.977311 0.888854 0.611859
O O4 0.890605 0.011717 0.624982
O O5 0.636814 0.750000 0.250000
O O6 0.750000 0.750000 0.340755
O O7 0.537741 0.756036 0.343131
O O8 0.636826 0.639547 0.324731
O O9 0.846658 0.801237 0.682799
O O10 0.866270 0.671521 0.678355
O O11 0.881560 0.738805 0.586482
O O12 0.677064 0.389593 0.569012
O O13 0.808740 0.340166 0.493595
O O14 0.620781 0.291835 0.508446
O O15 0.250000 0.110534 0.750000
O O16 0.000000 0.685680 0.500000
#
# Coordination Sequence:
#
# PCOD8163003 Si02
#       7
#    16  16  16  16  16  16  16
#     4  11  21  41  59  93 127 154 204 259 306 379
#     4  11  24  41  61  86 123 164 214 259 303 369
#     4  11  19  37  61  90 124 151 205 253 314 357
#     4  11  20  37  58  89 125 160 199 251 312 372
#     4  11  20  35  62  91 118 156 196 260 315 358
#     4  11  24  37  65  88 122 166 204 247 317 374
#     4  11  21  32  58  91 128 156 196 254 309 368
#
# _framework density 19.127445999999999
#
# number of rings (size 3 to 8) (size 9 to 14) (size 15 to 20)
#    0.000    1.000    4.286    5.143    4.000    1.143 
#    2.571    0.000    0.000    4.286    0.000    0.000 
#    0.000    0.000    0.000    0.000    0.000    0.000 
#
# Total GULP energy -346878.034103 kJ/mol
# GULP energy per Si atom -12388.501218 kJ/mol
# Density = 1.908391 g / cm^3
# Si number density = 19.127446 Si / 1000 Ang^3
#
#
#
# Elastic Constant Matrix: (Units=GPa)
#
#
# Indices 1 2 3 4 5 6 
#
# 1 131.4413 31.6266 16.3754 0.0000 0.0000 0.0000
# 2 31.6266 76.2286 26.4531 0.0000 0.0000 0.0000
# 3 16.3754 26.4531 93.6191 0.0000 0.0000 0.0000
# 4 0.0000 0.0000 0.0000 35.0227 0.0000 0.0000
# 5 0.0000 0.0000 0.0000 0.0000 28.0834 0.0000
# 6 0.0000 0.0000 0.0000 0.0000 0.0000 22.3550
#
#
#
# Elastic Compliance Matrix: (Units=1/GPa)
#
#
# Indices 1 2 3 4 5 6 
#
# 1 0.008476 -0.003329 -0.000542 0.000000 0.000000 0.000000
# 2 -0.003329 0.015852 -0.003897 0.000000 0.000000 0.000000
# 3 -0.000542 -0.003897 0.011878 0.000000 0.000000 0.000000
# 4 0.000000 0.000000 0.000000 0.028553 0.000000 0.000000
# 5 0.000000 0.000000 0.000000 0.000000 0.035608 0.000000
# 6 0.000000 0.000000 0.000000 0.000000 0.000000 0.044733
#
#
# Mechanical properties :
#
#
# Convention : Reuss Voigt Hill
#
# Bulk Modulus (GPa) = 48.37826 50.02212 49.20019
# Shear Modulus (GPa) = 29.84632 32.21449 31.03040
#
# Velocity S-wave (km/s) = 3.95447 4.10836 4.03214
# Velocity P-wave (km/s) = 6.79690 6.97951 6.88881
#
# Compressibility (1/GPa) = 0.02067044
#
# Stress axis : x y z
#
# Youngs Moduli (GPa) = 117.97425 63.08437 84.19277
#
# Poissons Ratio (x) = 0.20999 0.04564
# Poissons Ratio (y) = 0.39270 0.32809
# Poissons Ratio (z) = 0.06395 0.24583
#
# Static dielectric constant tensor:
#      x y z
#    x 3.643330 0.000000 0.000000 
#    y 0.000000 3.385700 0.000000 
#    z 0.000000 0.000000 3.472820 
# 
# 
# High freq. dielectric constant tensor:
#      x y z
#    x 1.750160 0.000000 0.000000 
#    y 0.000000 1.717710 0.000000 
#    z 0.000000 0.000000 1.743940 
# 
# From -- ./inp_files/48284.got.cif
#   From: 2010.03.12/outbox.cif.g09.slc.cpg/sg22_25_cif.got.tgz:48284.got - 2010.04.14 02:24:06.
