data_PCOD8163646
_publ_section_title
;
Structure prediction by ZEFSAII (Michael W. Deem and Ramdas Pophale) SiO2 
 PCOD8163646
Probable space group: I 2 2 2
;
_chemical_formula_sum "Si O2"
_cell_formula_units_Z 48
_cell_length_a 10.631153
_cell_length_b 12.347086
_cell_length_c 17.655151
_cell_angle_alpha 90.000000
_cell_angle_beta 90.000000
_cell_angle_gamma 90.000000
_cell_volume 2317.481510
_symmetry_space_group_name_H-M "I 2 2 2"
_symmetry_group_IT_number 23
_symmetry_cell_setting 'orthorhombic'
loop_
_space_group_symop_operation_xyz
x,y,z
-x,-y,z
x,-y,-z
-x,y,-z
1/2+x,1/2+y,1/2+z
1/2-x,1/2-y,1/2+z
1/2+x,1/2-y,1/2-z
1/2-x,1/2+y,1/2-z
loop_
_atom_site_type_symbol
_atom_site_label
_atom_site_fract_x
_atom_site_fract_y
_atom_site_fract_z
Si Si1 0.618301 0.571377 0.245356
Si Si2 0.734007 0.113388 0.682671
Si Si3 0.090365 0.692476 0.321053
Si Si4 0.323485 0.841139 0.144948
Si Si5 0.357066 0.765840 0.987746
Si Si6 0.371490 0.120104 0.472163
O O1 0.500000 0.500000 0.274609
O O2 0.690517 0.499967 0.182005
O O3 0.576422 0.683022 0.206492
O O4 0.707642 0.595206 0.317835
O O5 0.679257 0.125292 0.766408
O O6 0.824148 0.212970 0.663002
O O7 0.625229 0.116007 0.619261
O O8 0.152922 0.683814 0.404136
O O9 0.958663 0.626438 0.320893
O O10 0.323765 0.854950 0.053149
O O11 0.500000 0.721096 0.000000
O O12 0.254440 0.671604 0.993884
O O13 0.500000 0.180356 0.500000
O O14 0.373602 0.000000 0.500000
#
# Coordination Sequence:
#
# PCOD8163646 Si02
#       6
#     8   8   8   8   8   8
#     4  11  21  37  61  91 126 160 206 260 313 374
#     4  10  21  36  58  88 118 156 205 249 307 373
#     4  10  20  37  62  87 119 163 204 253 313 366
#     4   9  20  37  58  87 120 159 204 253 309 370
#     4   9  19  38  58  82 116 161 203 251 306 365
#     4  10  21  35  52  84 123 154 192 249 313 380
#
# _framework density 20.712139000000001
#
# number of rings (size 3 to 8) (size 9 to 14) (size 15 to 20)
#    0.000    2.167    1.667    1.000    0.000    6.333 
#    3.000    0.833    0.000    4.000    0.000    0.000 
#    0.000    0.000    0.000    0.000    0.000    0.000 
#
# Total GULP energy -297389.576049 kJ/mol
# GULP energy per Si atom -12391.232335 kJ/mol
# Density = 2.066500 g / cm^3
# Si number density = 20.712139 Si / 1000 Ang^3
#
#
#
# Elastic Constant Matrix: (Units=GPa)
#
#
# Indices 1 2 3 4 5 6 
#
# 1 137.2445 25.0018 65.4975 0.0000 0.0000 0.0000
# 2 25.0018 46.8230 12.2981 0.0000 0.0000 0.0000
# 3 65.4975 12.2981 154.9325 0.0000 0.0000 0.0000
# 4 0.0000 0.0000 0.0000 19.1273 0.0000 0.0000
# 5 0.0000 0.0000 0.0000 0.0000 46.4404 0.0000
# 6 0.0000 0.0000 0.0000 0.0000 0.0000 17.3383
#
#
#
# Elastic Compliance Matrix: (Units=1/GPa)
#
#
# Indices 1 2 3 4 5 6 
#
# 1 0.009901 -0.004276 -0.003846 0.000000 0.000000 0.000000
# 2 -0.004276 0.023659 -0.000070 0.000000 0.000000 0.000000
# 3 -0.003846 -0.000070 0.008086 0.000000 0.000000 0.000000
# 4 0.000000 0.000000 0.000000 0.052281 0.000000 0.000000
# 5 0.000000 0.000000 0.000000 0.000000 0.021533 0.000000
# 6 0.000000 0.000000 0.000000 0.000000 0.000000 0.057676
#
#
# Mechanical properties :
#
#
# Convention : Reuss Voigt Hill
#
# Bulk Modulus (GPa) = 39.58784 60.51054 50.04919
# Shear Modulus (GPa) = 25.26001 32.32804 28.79403
#
# Velocity S-wave (km/s) = 3.49603 3.95501 3.73258
# Velocity P-wave (km/s) = 5.95409 7.08058 6.54163
#
# Compressibility (1/GPa) = 0.02526028
#
# Stress axis : x y z
#
# Youngs Moduli (GPa) = 101.00209 42.26734 123.67182
#
# Poissons Ratio (x) = 0.18076 0.47565
# Poissons Ratio (y) = 0.43193 0.00867
# Poissons Ratio (z) = 0.38846 0.00296
#
# Static dielectric constant tensor:
#      x y z
#    x 4.249460 0.000000 0.000000 
#    y 0.000000 3.276300 0.000000 
#    z 0.000000 0.000000 7.006740 
# 
# 
# High freq. dielectric constant tensor:
#      x y z
#    x 1.817920 0.000000 0.000000 
#    y 0.000000 1.785980 0.000000 
#    z 0.000000 0.000000 1.816210 
# 
# From -- ./inp_files/15765.got.cif
#   From: 2010.03.12/outbox.cif.g09.slc.cpg/sg23_8_cif.got.tgz:15765.got - 2010.04.14 02:50:06.
