data_PCOD8163397
_publ_section_title
;
Structure prediction by ZEFSAII (Michael W. Deem and Ramdas Pophale) SiO2 
 PCOD8163397
Probable space group: I 2 2 2
;
_chemical_formula_sum "Si O2"
_cell_formula_units_Z 64
_cell_length_a 20.533790
_cell_length_b 8.925264
_cell_length_c 19.628264
_cell_angle_alpha 90.000000
_cell_angle_beta 90.000000
_cell_angle_gamma 90.000000
_cell_volume 3597.262064
_symmetry_space_group_name_H-M "I 2 2 2"
_symmetry_group_IT_number 23
_symmetry_cell_setting 'orthorhombic'
loop_
_space_group_symop_operation_xyz
x,y,z
-x,-y,z
x,-y,-z
-x,y,-z
1/2+x,1/2+y,1/2+z
1/2-x,1/2-y,1/2+z
1/2+x,1/2-y,1/2-z
1/2-x,1/2+y,1/2-z
loop_
_atom_site_type_symbol
_atom_site_label
_atom_site_fract_x
_atom_site_fract_y
_atom_site_fract_z
Si Si1 0.620367 0.924820 0.068212
Si Si2 0.120367 0.924820 0.431788
Si Si3 0.192734 0.427653 0.793603
Si Si4 0.433856 0.573760 0.790214
Si Si5 0.192734 0.072347 0.793604
Si Si6 0.066144 0.573761 0.290214
Si Si7 0.271631 0.426688 0.569644
Si Si8 0.271631 0.926688 0.430356
O O1 0.610587 0.750000 0.059633
O O2 0.581893 0.986738 0.133743
O O3 0.695814 0.964851 0.079091
O O4 0.592204 0.000000 0.000000
O O5 0.081893 0.986738 0.366257
O O6 0.195814 0.964851 0.420910
O O7 0.092203 0.000000 0.500000
O O8 0.203605 0.250000 0.795695
O O9 0.250000 0.500000 0.750000
O O10 0.124268 0.471482 0.759879
O O11 0.189995 0.495955 0.868898
O O12 0.500000 0.500000 0.763091
O O13 0.375732 0.528518 0.740120
O O14 0.443064 0.750000 0.791876
O O15 0.189994 0.004045 0.868898
O O16 0.000000 0.500000 0.263091
O O17 0.297889 0.500000 0.500000
O O18 0.285053 0.250000 0.569182
O O19 0.297889 0.000000 0.500000
#
# Coordination Sequence:
#
# PCOD8163397 Si02
#       8
#     8   8   8   8   8   8   8   8
#     4   9  18  33  50  74 108 143 180 221 260 315
#     4   9  18  33  50  74 108 143 180 221 260 315
#     4  11  21  36  57  82 111 144 184 231 276 325
#     4  10  22  38  53  76 110 145 185 227 271 325
#     4  11  21  36  57  82 111 144 184 231 276 325
#     4  10  22  38  53  76 110 145 185 227 271 325
#     4  10  19  34  55  83 113 142 180 225 276 328
#     4  10  19  34  55  83 113 142 180 225 276 328
#
# _framework density 17.791308999999998
#
# number of rings (size 3 to 8) (size 9 to 14) (size 15 to 20)
#    0.000    2.000    2.500    1.500    0.000    4.500 
#    0.000    2.500    0.000    0.750    0.000    5.250 
#    0.000    0.000    0.000    0.000    0.000    0.000 
#
# Total GULP energy -396876.753449 kJ/mol
# GULP energy per Si atom -12402.398545 kJ/mol
# Density = 1.775082 g / cm^3
# Si number density = 17.791309 Si / 1000 Ang^3
#
#
#
# Elastic Constant Matrix: (Units=GPa)
#
#
# Indices 1 2 3 4 5 6 
#
# 1 108.2528 51.1330 70.9253 0.0000 0.0000 0.0000
# 2 51.1330 68.0778 56.4658 0.0000 0.0000 0.0000
# 3 70.9253 56.4658 151.2091 0.0000 0.0000 0.0000
# 4 0.0000 0.0000 0.0000 36.7309 0.0000 0.0000
# 5 0.0000 0.0000 0.0000 0.0000 22.1278 0.0000
# 6 0.0000 0.0000 0.0000 0.0000 0.0000 26.5298
#
#
#
# Elastic Compliance Matrix: (Units=1/GPa)
#
#
# Indices 1 2 3 4 5 6 
#
# 1 0.016114 -0.008452 -0.004402 0.000000 0.000000 0.000000
# 2 -0.008452 0.025713 -0.005638 0.000000 0.000000 0.000000
# 3 -0.004402 -0.005638 0.010784 0.000000 0.000000 0.000000
# 4 0.000000 0.000000 0.000000 0.027225 0.000000 0.000000
# 5 0.000000 0.000000 0.000000 0.000000 0.045192 0.000000
# 6 0.000000 0.000000 0.000000 0.000000 0.000000 0.037694
#
#
# Mechanical properties :
#
#
# Convention : Reuss Voigt Hill
#
# Bulk Modulus (GPa) = 63.99046 76.06533 70.02789
# Shear Modulus (GPa) = 24.40042 27.01206 25.70624
#
# Velocity S-wave (km/s) = 3.70737 3.90073 3.80528
# Velocity P-wave (km/s) = 7.37370 7.94573 7.66505
#
# Compressibility (1/GPa) = 0.01562733
#
# Stress axis : x y z
#
# Youngs Moduli (GPa) = 62.05721 38.89026 92.73418
#
# Poissons Ratio (x) = 0.32870 0.40824
# Poissons Ratio (y) = 0.52451 0.52281
# Poissons Ratio (z) = 0.27319 0.21925
#
# Static dielectric constant tensor:
#      x y z
#    x 3.156060 0.000000 0.000000 
#    y 0.000000 3.274440 0.000000 
#    z 0.000000 0.000000 3.602790 
# 
# 
# High freq. dielectric constant tensor:
#      x y z
#    x 1.662360 0.000000 0.000000 
#    y 0.000000 1.692840 0.000000 
#    z 0.000000 0.000000 1.697470 
# 
# From -- ./inp_files/25272.got.cif
#   From: 2010.03.12/outbox.cif.g09.slc.cpg/sg23_13_cif.got.tgz:25272.got - 2010.04.14 02:50:06.
