data_PCOD8163306
_publ_section_title
;
Structure prediction by ZEFSAII (Michael W. Deem and Ramdas Pophale) SiO2 
 PCOD8163306
Probable space group: I 2 2 2
;
_chemical_formula_sum "Si O2"
_cell_formula_units_Z 64
_cell_length_a 20.272379
_cell_length_b 11.852017
_cell_length_c 13.702799
_cell_angle_alpha 90.000000
_cell_angle_beta 90.000000
_cell_angle_gamma 90.000000
_cell_volume 3292.352065
_symmetry_space_group_name_H-M "I 2 2 2"
_symmetry_group_IT_number 23
_symmetry_cell_setting 'orthorhombic'
loop_
_space_group_symop_operation_xyz
x,y,z
-x,-y,z
x,-y,-z
-x,y,-z
1/2+x,1/2+y,1/2+z
1/2-x,1/2-y,1/2+z
1/2+x,1/2-y,1/2-z
1/2-x,1/2+y,1/2-z
loop_
_atom_site_type_symbol
_atom_site_label
_atom_site_fract_x
_atom_site_fract_y
_atom_site_fract_z
Si Si1 0.592434 0.623184 0.515064
Si Si2 0.196464 0.087922 0.168076
Si Si3 0.292409 0.180990 0.765308
Si Si4 0.158059 0.495740 0.614951
Si Si5 0.350375 0.350009 0.313085
Si Si6 0.660772 0.026008 0.390231
Si Si7 0.911811 0.642614 0.760764
Si Si8 0.530045 0.166765 0.401387
O O1 0.560139 0.500000 0.500000
O O2 0.664370 0.613301 0.563872
O O3 0.608408 0.679084 0.411151
O O4 0.541792 0.699074 0.578754
O O5 0.183890 0.193906 0.238365
O O6 0.273290 0.062311 0.149450
O O7 0.154443 0.982726 0.213332
O O8 0.223949 0.194573 0.821786
O O9 0.283911 0.096444 0.670581
O O10 0.343936 0.122609 0.840591
O O11 0.150117 0.500000 0.500000
O O12 0.095556 0.427364 0.660002
O O13 0.389600 0.271760 0.235728
O O14 0.599053 0.109250 0.383259
O O15 0.685205 0.000000 0.500000
O O16 0.641064 0.909171 0.338293
O O17 0.985096 0.640985 0.806726
O O18 0.500000 0.112469 0.500000
#
# Coordination Sequence:
#
# PCOD8163306 Si02
#       8
#     8   8   8   8   8   8   8   8
#     4  10  20  34  54  84 121 159 195 235 303 379
#     4  10  18  34  56  82 114 155 197 249 303 364
#     4  10  20  34  57  84 114 155 204 252 302 362
#     4  10  21  39  59  81 115 167 208 251 306 363
#     4  10  19  35  51  77 118 152 189 244 301 360
#     4  11  21  35  54  82 119 155 198 249 308 365
#     4  11  22  34  55  81 113 158 201 248 303 368
#     4  12  21  34  54  84 121 161 192 248 308 364
#
# _framework density 19.43899
#
# number of rings (size 3 to 8) (size 9 to 14) (size 15 to 20)
#    0.000    1.500    5.000    2.250    0.000    0.250 
#    0.000    0.000    0.000    6.000    0.000    0.000 
#    0.000    0.000   15.000    0.000    0.000    0.000 
#
# Total GULP energy -396480.560048 kJ/mol
# GULP energy per Si atom -12390.017501 kJ/mol
# Density = 1.939475 g / cm^3
# Si number density = 19.438990 Si / 1000 Ang^3
#
#
#
# Elastic Constant Matrix: (Units=GPa)
#
#
# Indices 1 2 3 4 5 6 
#
# 1 61.8990 17.2859 27.3297 0.0000 0.0000 0.0000
# 2 17.2859 122.1493 47.0246 0.0000 0.0000 0.0000
# 3 27.3297 47.0246 114.0048 0.0000 0.0000 0.0000
# 4 0.0000 0.0000 0.0000 24.3532 0.0000 0.0000
# 5 0.0000 0.0000 0.0000 0.0000 30.5433 0.0000
# 6 0.0000 0.0000 0.0000 0.0000 0.0000 19.9078
#
#
#
# Elastic Compliance Matrix: (Units=1/GPa)
#
#
# Indices 1 2 3 4 5 6 
#
# 1 0.018183 -0.001064 -0.003920 0.000000 0.000000 0.000000
# 2 -0.001064 0.009794 -0.003785 0.000000 0.000000 0.000000
# 3 -0.003920 -0.003785 0.011272 0.000000 0.000000 0.000000
# 4 0.000000 0.000000 0.000000 0.041062 0.000000 0.000000
# 5 0.000000 0.000000 0.000000 0.000000 0.032740 0.000000
# 6 0.000000 0.000000 0.000000 0.000000 0.000000 0.050232
#
#
# Mechanical properties :
#
#
# Convention : Reuss Voigt Hill
#
# Bulk Modulus (GPa) = 46.05727 53.48148 49.76937
# Shear Modulus (GPa) = 26.58726 28.72171 27.65449
#
# Velocity S-wave (km/s) = 3.70229 3.84804 3.77587
# Velocity P-wave (km/s) = 6.48233 6.87862 6.68341
#
# Compressibility (1/GPa) = 0.02171210
#
# Stress axis : x y z
#
# Youngs Moduli (GPa) = 54.99557 102.09936 88.71160
#
# Poissons Ratio (x) = 0.10864 0.34775
# Poissons Ratio (y) = 0.05852 0.33576
# Poissons Ratio (z) = 0.21559 0.38643
#
# Static dielectric constant tensor:
#      x y z
#    x 3.443860 0.000000 0.000000 
#    y 0.000000 3.936560 0.000000 
#    z 0.000000 0.000000 3.515890 
# 
# 
# High freq. dielectric constant tensor:
#      x y z
#    x 1.735540 0.000000 0.000000 
#    y 0.000000 1.778250 0.000000 
#    z 0.000000 0.000000 1.721980 
# 
# From -- ./inp_files/18429.got.cif
#   From: 2010.03.12/outbox.cif.g09.slc.cpg/sg23_10_cif.got.tgz:18429.got - 2010.04.14 02:50:06.
