data_PCOD8163564
_publ_section_title
;
Structure prediction by ZEFSAII (Michael W. Deem and Ramdas Pophale) SiO2 
 PCOD8163564
Probable space group: I 2 2 2
;
_chemical_formula_sum "Si O2"
_cell_formula_units_Z 40
_cell_length_a 21.644468
_cell_length_b 7.620880
_cell_length_c 13.446240
_cell_angle_alpha 90.000000
_cell_angle_beta 90.000000
_cell_angle_gamma 90.000000
_cell_volume 2217.955853
_symmetry_space_group_name_H-M "I 2 2 2"
_symmetry_group_IT_number 23
_symmetry_cell_setting 'orthorhombic'
loop_
_space_group_symop_operation_xyz
x,y,z
-x,-y,z
x,-y,-z
-x,y,-z
1/2+x,1/2+y,1/2+z
1/2-x,1/2-y,1/2+z
1/2+x,1/2-y,1/2-z
1/2-x,1/2+y,1/2-z
loop_
_atom_site_type_symbol
_atom_site_label
_atom_site_fract_x
_atom_site_fract_y
_atom_site_fract_z
Si Si1 0.715198 0.707057 0.611674
Si Si2 0.927529 0.000000 0.384478
Si Si3 0.284802 0.707058 0.611674
Si Si4 0.345977 0.198186 0.804243
Si Si5 0.154023 0.301814 0.695757
O O1 0.709183 0.500000 0.623882
O O2 0.699978 0.769296 0.500000
O O3 0.666508 0.797494 0.685663
O O4 0.784769 0.765307 0.638755
O O5 0.901645 0.175010 0.333102
O O6 0.910000 0.000000 0.500000
O O7 0.901645 0.824990 0.333102
O O8 0.000000 0.000000 0.366679
O O9 0.215231 0.765308 0.638755
O O10 0.333492 0.797494 0.685663
O O11 0.363708 0.000000 0.835618
#
# Coordination Sequence:
#
# PCOD8163564 Si02
#       5
#     8   8   8   8   8
#     4   9  17  31  54  84 116 144 173 219 277 331
#     4  11  24  40  57  77 107 149 189 224 268 322
#     4   9  17  31  54  84 116 144 173 219 277 331
#     4  10  20  35  54  82 113 142 181 224 272 323
#     4  10  20  35  54  82 113 142 181 224 272 323
#
# _framework density 18.034623
#
# number of rings (size 3 to 8) (size 9 to 14) (size 15 to 20)
#    0.000    2.200    2.000    1.200    2.800    4.000 
#    0.000    2.000    0.000    2.400    0.000    2.800 
#    0.000    0.000    0.000    0.000    0.000    0.000 
#
# Total GULP energy -248040.358008 kJ/mol
# GULP energy per Si atom -12402.017900 kJ/mol
# Density = 1.799358 g / cm^3
# Si number density = 18.034623 Si / 1000 Ang^3
#
#
#
# Elastic Constant Matrix: (Units=GPa)
#
#
# Indices 1 2 3 4 5 6 
#
# 1 83.1339 49.2147 48.6924 0.0000 0.0000 0.0000
# 2 49.2147 92.5264 38.8584 0.0000 0.0000 0.0000
# 3 48.6924 38.8584 126.4606 0.0000 0.0000 0.0000
# 4 0.0000 0.0000 0.0000 22.4999 0.0000 0.0000
# 5 0.0000 0.0000 0.0000 0.0000 22.2214 0.0000
# 6 0.0000 0.0000 0.0000 0.0000 0.0000 28.6016
#
#
#
# Elastic Compliance Matrix: (Units=1/GPa)
#
#
# Indices 1 2 3 4 5 6 
#
# 1 0.020070 -0.008530 -0.005106 0.000000 0.000000 0.000000
# 2 -0.008530 0.016035 -0.001643 0.000000 0.000000 0.000000
# 3 -0.005106 -0.001643 0.010378 0.000000 0.000000 0.000000
# 4 0.000000 0.000000 0.000000 0.044445 0.000000 0.000000
# 5 0.000000 0.000000 0.000000 0.000000 0.045002 0.000000
# 6 0.000000 0.000000 0.000000 0.000000 0.000000 0.034963
#
#
# Mechanical properties :
#
#
# Convention : Reuss Voigt Hill
#
# Bulk Modulus (GPa) = 62.79779 63.96136 63.37957
# Shear Modulus (GPa) = 24.18267 25.68826 24.93547
#
# Velocity S-wave (km/s) = 3.66581 3.77820 3.72243
# Velocity P-wave (km/s) = 7.26731 7.38755 7.32768
#
# Compressibility (1/GPa) = 0.01592413
#
# Stress axis : x y z
#
# Youngs Moduli (GPa) = 49.82644 62.36387 96.35308
#
# Poissons Ratio (x) = 0.53199 0.49202
# Poissons Ratio (y) = 0.42504 0.15827
# Poissons Ratio (z) = 0.25443 0.10244
#
# Static dielectric constant tensor:
#      x y z
#    x 2.929030 0.000000 0.000000 
#    y 0.000000 3.332150 0.000000 
#    z 0.000000 0.000000 3.527800 
# 
# 
# High freq. dielectric constant tensor:
#      x y z
#    x 1.650190 0.000000 0.000000 
#    y 0.000000 1.709070 0.000000 
#    z 0.000000 0.000000 1.708430 
# 
# From -- ./inp_files/11894.got.cif
#   From: 2010.03.12/outbox.cif.g09.slc.cpg/sg23_6_cif.got.tgz:11894.got - 2010.04.14 02:50:06.
