data_PCOD8163599
_publ_section_title
;
Structure prediction by ZEFSAII (Michael W. Deem and Ramdas Pophale) SiO2 
 PCOD8163599
Probable space group: I 2 2 2
;
_chemical_formula_sum "Si O2"
_cell_formula_units_Z 48
_cell_length_a 8.921739
_cell_length_b 32.140380
_cell_length_c 8.571005
_cell_angle_alpha 90.000000
_cell_angle_beta 90.000000
_cell_angle_gamma 90.000000
_cell_volume 2457.719242
_symmetry_space_group_name_H-M "I 2 2 2"
_symmetry_group_IT_number 23
_symmetry_cell_setting 'orthorhombic'
loop_
_space_group_symop_operation_xyz
x,y,z
-x,-y,z
x,-y,-z
-x,y,-z
1/2+x,1/2+y,1/2+z
1/2-x,1/2-y,1/2+z
1/2+x,1/2-y,1/2-z
1/2-x,1/2+y,1/2-z
loop_
_atom_site_type_symbol
_atom_site_label
_atom_site_fract_x
_atom_site_fract_y
_atom_site_fract_z
Si Si1 0.593017 0.914591 0.651290
Si Si2 0.339905 0.777941 0.565346
Si Si3 0.682968 0.882321 0.159004
Si Si4 0.326210 0.639222 0.029178
Si Si5 0.346079 0.209560 0.077466
Si Si6 0.331387 0.043014 0.946676
O O1 0.500000 0.931894 0.500000
O O2 0.482324 0.889681 0.767675
O O3 0.726811 0.884972 0.597389
O O4 0.669648 0.950971 0.757357
O O5 0.500000 0.792039 0.500000
O O6 0.217771 0.812453 0.517645
O O7 0.354410 0.774475 0.748307
O O8 0.292430 0.732750 0.504305
O O9 0.800508 0.879334 0.299023
O O10 0.679381 0.839707 0.061594
O O11 0.739765 0.918083 0.040621
O O12 0.500000 0.633036 0.000000
O O13 0.500000 0.223571 0.000000
O O14 0.500000 0.039241 0.000000
O O15 0.248521 0.000000 0.000000
#
# Coordination Sequence:
#
# PCOD8163599 Si02
#       6
#     8   8   8   8   8   8
#     4   9  17  33  58  83 111 146 181 225 279 330
#     4  11  23  37  55  81 111 145 185 232 281 327
#     4   9  19  36  56  81 109 143 181 226 280 329
#     4  10  20  36  56  79 109 146 188 228 271 328
#     4  11  21  36  55  78 110 147 185 227 274 331
#     4   9  17  32  56  86 114 140 181 232 278 328
#
# _framework density 19.530303
#
# number of rings (size 3 to 8) (size 9 to 14) (size 15 to 20)
#    0.000    2.167    0.000    5.500    0.000    2.667 
#    0.000   15.000    0.000    3.000    0.000    0.000 
#    0.000    0.000    0.000    0.000    0.000    0.000 
#
# Total GULP energy -297525.787456 kJ/mol
# GULP energy per Si atom -12396.907811 kJ/mol
# Density = 1.948585 g / cm^3
# Si number density = 19.530303 Si / 1000 Ang^3
#
#
#
# Elastic Constant Matrix: (Units=GPa)
#
#
# Indices 1 2 3 4 5 6 
#
# 1 94.6402 31.8936 37.0089 0.0041 0.0010 0.0022
# 2 31.8936 132.4497 82.8005 0.0064 0.0032 0.0043
# 3 37.0089 82.8005 122.6293 0.0050 0.0020 0.0041
# 4 0.0041 0.0064 0.0050 32.1224 0.0022 0.0037
# 5 0.0010 0.0032 0.0020 0.0022 22.9349 0.0033
# 6 0.0022 0.0043 0.0041 0.0037 0.0033 13.6491
#
#
#
# Elastic Compliance Matrix: (Units=1/GPa)
#
#
# Indices 1 2 3 4 5 6 
#
# 1 0.012070 -0.001089 -0.002908 -0.000001 0.000000 -0.000001
# 2 -0.001089 0.013163 -0.008559 -0.000001 -0.000001 -0.000001
# 3 -0.002908 -0.008559 0.014811 0.000000 0.000000 -0.000001
# 4 -0.000001 -0.000001 0.000000 0.031131 -0.000003 -0.000009
# 5 0.000000 -0.000001 0.000000 -0.000003 0.043602 -0.000011
# 6 -0.000001 -0.000001 -0.000001 -0.000009 -0.000011 0.073265
#
#
# Mechanical properties :
#
#
# Convention : Reuss Voigt Hill
#
# Bulk Modulus (GPa) = 66.96356 72.56948 69.76652
# Shear Modulus (GPa) = 22.92202 26.94236 24.93219
#
# Velocity S-wave (km/s) = 3.42960 3.71821 3.57682
# Velocity P-wave (km/s) = 7.07420 7.46133 7.27034
#
# Compressibility (1/GPa) = 0.01493350
#
# Stress axis : x y z
#
# Youngs Moduli (GPa) = 82.84826 75.97079 67.51576
#
# Poissons Ratio (x) = 0.08272 0.19630
# Poissons Ratio (y) = 0.09021 0.57788
# Poissons Ratio (z) = 0.24088 0.65025
#
# Static dielectric constant tensor:
#      x y z
#    x 3.211570 0.000000 0.000000 
#    y 0.000000 4.051870 0.000000 
#    z 0.000000 0.000000 3.889990 
# 
# 
# High freq. dielectric constant tensor:
#      x y z
#    x 1.726720 0.000000 0.000000 
#    y 0.000000 1.755280 0.000000 
#    z 0.000000 0.000000 1.776760 
# 
# From -- ./inp_files/7337.got.cif
#   From: 2010.03.12/outbox.cif.g09.slc.cpg/sg23_4_cif.got.tgz:7337.got - 2010.04.14 02:50:06.
