data_PCOD8163706
_publ_section_title
;
Structure prediction by ZEFSAII (Michael W. Deem and Ramdas Pophale) SiO2 
 PCOD8163706
Probable space group: I 2 2 2
;
_chemical_formula_sum "Si O2"
_cell_formula_units_Z 48
_cell_length_a 30.237445
_cell_length_b 10.126046
_cell_length_c 7.830149
_cell_angle_alpha 90.000000
_cell_angle_beta 90.000000
_cell_angle_gamma 90.000000
_cell_volume 2397.480115
_symmetry_space_group_name_H-M "I 2 2 2"
_symmetry_group_IT_number 23
_symmetry_cell_setting 'orthorhombic'
loop_
_space_group_symop_operation_xyz
x,y,z
-x,-y,z
x,-y,-z
-x,y,-z
1/2+x,1/2+y,1/2+z
1/2-x,1/2-y,1/2+z
1/2+x,1/2-y,1/2-z
1/2-x,1/2+y,1/2-z
loop_
_atom_site_type_symbol
_atom_site_label
_atom_site_fract_x
_atom_site_fract_y
_atom_site_fract_z
Si Si1 0.500000 0.300557 0.000000
Si Si2 0.777040 0.876312 0.118700
Si Si3 0.608377 0.848266 0.442972
Si Si4 0.575193 0.500000 0.000000
Si Si5 0.205384 0.634315 0.099973
Si Si6 0.876043 0.899647 0.159464
Si Si7 0.484693 0.149563 0.322129
O O1 0.543327 0.381042 0.947211
O O2 0.510624 0.213629 0.165275
O O3 0.735166 0.888351 0.238360
O O4 0.824639 0.879768 0.210930
O O5 0.770678 0.741961 0.015687
O O6 0.772964 0.000000 0.000000
O O7 0.655431 0.819340 0.349601
O O8 0.604252 0.743706 0.601932
O O9 0.568412 0.829840 0.308491
O O10 0.605062 0.000000 0.500000
O O11 0.602748 0.458840 0.168062
O O12 0.200566 0.500000 0.000000
O O13 0.882099 0.000000 0.000000
O O14 0.500000 0.216980 0.500000
O O15 0.500000 0.000000 0.323669
#
# Coordination Sequence:
#
# PCOD8163706 Si02
#       7
#     4   8   8   4   8   8   8
#     4  11  25  40  56  94 125 151 212 264 308 383
#     4  10  21  39  61  89 123 164 206 252 312 377
#     4  10  20  39  64  92 123 164 211 260 316 380
#     4  11  24  40  62  90 126 162 206 262 319 372
#     4  10  21  37  61  88 129 159 206 258 306 374
#     4  10  22  41  65  91 126 167 213 259 313 383
#     4  11  21  39  65  83 118 165 205 254 321 375
#
# _framework density 20.02102
#
# number of rings (size 3 to 8) (size 9 to 14) (size 15 to 20)
#    0.000    1.667    1.667    3.250    1.167    0.000 
#    3.000    3.333    0.000    0.000    0.000    0.000 
#    0.000    0.000    0.000    0.000    0.000    0.000 
#
# Total GULP energy -297430.928748 kJ/mol
# GULP energy per Si atom -12392.955365 kJ/mol
# Density = 1.997545 g / cm^3
# Si number density = 20.021020 Si / 1000 Ang^3
#
#
#
# Elastic Constant Matrix: (Units=GPa)
#
#
# Indices 1 2 3 4 5 6 
#
# 1 121.9708 28.5275 41.3795 0.0000 0.0000 0.0000
# 2 28.5275 103.6395 46.8101 0.0000 0.0000 0.0000
# 3 41.3795 46.8101 99.9941 0.0002 0.0000 0.0000
# 4 0.0000 0.0000 0.0002 78.6791 0.0001 0.0000
# 5 0.0000 0.0000 0.0000 0.0001 36.9061 0.0000
# 6 0.0000 0.0000 0.0000 0.0000 0.0000 3.1167
#
#
#
# Elastic Compliance Matrix: (Units=1/GPa)
#
#
# Indices 1 2 3 4 5 6 
#
# 1 0.009632 -0.001079 -0.003481 0.000000 0.000000 0.000000
# 2 -0.001079 0.012357 -0.005338 0.000000 0.000000 0.000000
# 3 -0.003481 -0.005338 0.013940 0.000000 0.000000 0.000000
# 4 0.000000 0.000000 0.000000 0.012710 0.000000 0.000000
# 5 0.000000 0.000000 0.000000 0.000000 0.027096 0.000000
# 6 0.000000 0.000000 0.000000 0.000000 0.000000 0.320851
#
#
# Mechanical properties :
#
#
# Convention : Reuss Voigt Hill
#
# Bulk Modulus (GPa) = 61.98516 62.11540 62.05028
# Shear Modulus (GPa) = 11.85511 37.66619 24.76065
#
# Velocity S-wave (km/s) = 2.43602 4.34214 3.52054
# Velocity P-wave (km/s) = 6.24015 7.49876 6.89822
#
# Compressibility (1/GPa) = 0.01613289
#
# Stress axis : x y z
#
# Youngs Moduli (GPa) = 103.82127 80.92664 71.73675
#
# Poissons Ratio (x) = 0.08733 0.24969
# Poissons Ratio (y) = 0.11204 0.38293
# Poissons Ratio (z) = 0.36137 0.43199
#
# Static dielectric constant tensor:
#      x y z
#    x 4.052490 0.000000 0.000000 
#    y 0.000000 3.868350 0.000000 
#    z 0.000000 0.000000 3.787630 
# 
# 
# High freq. dielectric constant tensor:
#      x y z
#    x 1.798500 0.000000 0.000000 
#    y 0.000000 1.799800 0.000000 
#    z 0.000000 0.000000 1.755970 
# 
# From -- ./inp_files/13384.got.cif
#   From: 2010.03.12/outbox.cif.g09.slc.cpg/sg23_7_cif.got.tgz:13384.got - 2010.04.14 02:50:06.
