data_PCOD8163614
_publ_section_title
;
Structure prediction by ZEFSAII (Michael W. Deem and Ramdas Pophale) SiO2 
 PCOD8163614
Probable space group: I 2 2 2
;
_chemical_formula_sum "Si O2"
_cell_formula_units_Z 64
_cell_length_a 26.067644
_cell_length_b 9.396838
_cell_length_c 13.407511
_cell_angle_alpha 90.000000
_cell_angle_beta 90.000000
_cell_angle_gamma 90.000000
_cell_volume 3284.215777
_symmetry_space_group_name_H-M "I 2 2 2"
_symmetry_group_IT_number 23
_symmetry_cell_setting 'orthorhombic'
loop_
_space_group_symop_operation_xyz
x,y,z
-x,-y,z
x,-y,-z
-x,y,-z
1/2+x,1/2+y,1/2+z
1/2-x,1/2-y,1/2+z
1/2+x,1/2-y,1/2-z
1/2-x,1/2+y,1/2-z
loop_
_atom_site_type_symbol
_atom_site_label
_atom_site_fract_x
_atom_site_fract_y
_atom_site_fract_z
Si Si1 0.373721 0.517811 0.883096
Si Si2 0.496055 0.668565 0.614672
Si Si3 0.389611 0.272966 0.282072
Si Si4 0.661739 0.985807 0.737798
Si Si5 0.833706 0.983883 0.116475
Si Si6 0.759017 0.926143 0.599535
Si Si7 0.727062 0.097681 0.904425
Si Si8 0.595562 0.710899 0.728963
O O1 0.392976 0.668851 0.833652
O O2 0.312244 0.499478 0.865130
O O3 0.403092 0.390459 0.826019
O O4 0.387711 0.500000 0.000000
O O5 0.500000 0.500000 0.618084
O O6 0.500000 0.723096 0.500000
O O7 0.442425 0.713106 0.660498
O O8 0.538559 0.739438 0.687241
O O9 0.371893 0.113408 0.306522
O O10 0.345517 0.367844 0.331741
O O11 0.677933 0.049764 0.843393
O O12 0.712341 0.939719 0.676926
O O13 0.623369 0.856707 0.756149
O O14 0.778826 0.932869 0.158259
O O15 0.876038 0.865364 0.137681
O O16 0.831832 0.000000 0.000000
O O17 0.774373 0.764720 0.571943
O O18 0.738251 0.000000 0.500000
O O19 0.727167 0.000000 0.000000
#
# Coordination Sequence:
#
# PCOD8163614 Si02
#       8
#     8   8   8   8   8   8   8   8
#     4  10  22  40  63  88 126 159 207 257 302 364
#     4  11  22  41  70  95 120 155 205 256 310 373
#     4  11  23  40  62  91 121 162 209 255 312 365
#     4  12  26  39  61  89 133 167 204 256 309 361
#     4  10  20  36  60  87 124 157 204 252 305 368
#     4  11  25  39  60  93 128 165 208 254 306 368
#     4  11  25  39  61  90 124 169 211 251 304 368
#     4  11  23  40  62  92 119 165 207 253 312 366
#
# _framework density 19.487148000000001
#
# number of rings (size 3 to 8) (size 9 to 14) (size 15 to 20)
#    0.000    1.125    5.000    2.250    7.000    1.500 
#    0.000    1.875    0.000    0.000    0.000    2.625 
#    0.000    0.000    0.000    0.000    0.000    0.000 
#
# Total GULP energy -396615.142518 kJ/mol
# GULP energy per Si atom -12394.223204 kJ/mol
# Density = 1.944279 g / cm^3
# Si number density = 19.487148 Si / 1000 Ang^3
#
#
#
# Elastic Constant Matrix: (Units=GPa)
#
#
# Indices 1 2 3 4 5 6 
#
# 1 82.6411 18.4218 39.7911 0.0000 0.0000 0.0000
# 2 18.4218 117.6540 34.0027 0.0000 0.0000 0.0000
# 3 39.7911 34.0027 107.0184 0.0000 0.0000 0.0000
# 4 0.0000 0.0000 0.0000 19.3845 0.0000 0.0000
# 5 0.0000 0.0000 0.0000 0.0000 71.4360 0.0000
# 6 0.0000 0.0000 0.0000 0.0000 0.0000 -37.4929
#
#
#
# Elastic Compliance Matrix: (Units=1/GPa)
#
#
# Indices 1 2 3 4 5 6 
#
# 1 0.014807 -0.000801 -0.005251 0.000000 0.000000 0.000000
# 2 -0.000801 0.009402 -0.002690 0.000000 0.000000 0.000000
# 3 -0.005251 -0.002690 0.012151 0.000000 0.000000 0.000000
# 4 0.000000 0.000000 0.000000 0.051588 0.000000 0.000000
# 5 0.000000 0.000000 0.000000 0.000000 0.013999 0.000000
# 6 0.000000 0.000000 0.000000 0.000000 0.000000 -0.026672
#
#
# Mechanical properties :
#
#
# Convention : Reuss Voigt Hill
#
# Bulk Modulus (GPa) = 52.97277 54.63830 53.80553
# Shear Modulus (GPa) = 50.47901 25.00537 37.74219
#
# Velocity S-wave (km/s) = 5.09509 3.58603 4.40565
# Velocity P-wave (km/s) = 7.86484 6.72645 7.31782
#
# Compressibility (1/GPa) = 0.01887762
#
# Stress axis : x y z
#
# Youngs Moduli (GPa) = 67.53362 106.35814 82.29639
#
# Poissons Ratio (x) = 0.08518 0.43215
# Poissons Ratio (y) = 0.05409 0.22134
# Poissons Ratio (z) = 0.35463 0.28606
#
# Static dielectric constant tensor:
#      x y z
#    x 3.989730 0.000000 0.000000 
#    y 0.000000 3.435480 0.000000 
#    z 0.000000 0.000000 3.312590 
# 
# 
# High freq. dielectric constant tensor:
#      x y z
#    x 1.756670 0.000000 0.000000 
#    y 0.000000 1.753620 0.000000 
#    z 0.000000 0.000000 1.758650 
# 
# From -- ./inp_files/22613.got.cif
#   From: 2010.03.12/outbox.cif.g09.slc.cpg/sg23_12_cif.got.tgz:22613.got - 2010.04.14 02:50:06.
