data_PCOD8163445
_publ_section_title
;
Structure prediction by ZEFSAII (Michael W. Deem and Ramdas Pophale) SiO2 
 PCOD8163445
Probable space group: I 2 2 2
;
_chemical_formula_sum "Si O2"
_cell_formula_units_Z 64
_cell_length_a 14.124271
_cell_length_b 16.253330
_cell_length_c 13.510542
_cell_angle_alpha 90.000000
_cell_angle_beta 90.000000
_cell_angle_gamma 90.000000
_cell_volume 3101.566997
_symmetry_space_group_name_H-M "I 2 2 2"
_symmetry_group_IT_number 23
_symmetry_cell_setting 'orthorhombic'
loop_
_space_group_symop_operation_xyz
x,y,z
-x,-y,z
x,-y,-z
-x,y,-z
1/2+x,1/2+y,1/2+z
1/2-x,1/2-y,1/2+z
1/2+x,1/2-y,1/2-z
1/2-x,1/2+y,1/2-z
loop_
_atom_site_type_symbol
_atom_site_label
_atom_site_fract_x
_atom_site_fract_y
_atom_site_fract_z
Si Si1 0.600965 0.751647 0.474710
Si Si2 0.858417 0.082684 0.958989
Si Si3 0.097042 0.908283 0.535936
Si Si4 0.000357 0.409949 0.339104
Si Si5 0.290901 0.283415 0.071066
Si Si6 0.353872 0.880872 0.005827
Si Si7 0.413458 0.251164 0.255371
Si Si8 0.049237 0.089580 0.245573
O O1 0.500000 0.793820 0.500000
O O2 0.588952 0.653532 0.480546
O O3 0.677602 0.776663 0.558450
O O4 0.630908 0.771650 0.362315
O O5 0.747671 0.079489 0.985892
O O6 0.873996 0.093527 0.841764
O O7 0.906232 0.000000 0.000000
O O8 0.184085 0.870741 0.475675
O O9 0.108908 0.900909 0.653547
O O10 0.000000 0.863276 0.500000
O O11 0.092221 0.000000 0.500000
O O12 0.105651 0.395958 0.384033
O O13 0.000000 0.500000 0.282984
O O14 0.924666 0.420153 0.426723
O O15 0.973515 0.330246 0.273737
O O16 0.346476 0.217171 0.005057
O O17 0.324098 0.270774 0.184305
O O18 0.477188 0.333414 0.262422
O O19 0.000000 0.000000 0.245777
#
# Coordination Sequence:
#
# PCOD8163445 Si02
#       8
#     8   8   8   8   8   8   8   8
#     4  11  24  44  62  89 132 169 209 266 323 385
#     4  11  23  37  61  93 133 164 208 259 335 401
#     4  11  20  37  63  96 134 165 213 268 311 371
#     4  10  19  35  63  87 125 166 213 265 319 365
#     4  10  22  38  64  91 126 166 216 257 321 387
#     4   9  19  36  59  94 126 162 203 269 323 380
#     4  11  22  40  65  93 124 168 218 260 325 394
#     4  12  22  36  66  97 130 173 203 258 337 392
#
# _framework density 20.634730999999999
#
# number of rings (size 3 to 8) (size 9 to 14) (size 15 to 20)
#    0.000    1.375    3.750    3.000    1.750    3.000 
#    4.500    0.000    5.500    0.000    0.000    0.000 
#    0.000    0.000    0.000    0.000    0.000    0.000 
#
# Total GULP energy -396554.099339 kJ/mol
# GULP energy per Si atom -12392.315604 kJ/mol
# Density = 2.058777 g / cm^3
# Si number density = 20.634731 Si / 1000 Ang^3
#
#
#
# Elastic Constant Matrix: (Units=GPa)
#
#
# Indices 1 2 3 4 5 6 
#
# 1 120.8952 29.2133 52.8941 0.0000 0.0000 0.0000
# 2 29.2133 97.9561 25.2667 0.0000 0.0000 0.0000
# 3 52.8941 25.2667 151.0208 0.0000 0.0000 0.0000
# 4 0.0000 0.0000 0.0000 24.9928 0.0000 0.0000
# 5 0.0000 0.0000 0.0000 0.0000 34.4679 0.0000
# 6 0.0000 0.0000 0.0000 0.0000 0.0000 7.7403
#
#
#
# Elastic Compliance Matrix: (Units=1/GPa)
#
#
# Indices 1 2 3 4 5 6 
#
# 1 0.010210 -0.002218 -0.003205 0.000000 0.000000 0.000000
# 2 -0.002218 0.011151 -0.001089 0.000000 0.000000 0.000000
# 3 -0.003205 -0.001089 0.007926 0.000000 0.000000 0.000000
# 4 0.000000 0.000000 0.000000 0.040011 0.000000 0.000000
# 5 0.000000 0.000000 0.000000 0.000000 0.029012 0.000000
# 6 0.000000 0.000000 0.000000 0.000000 0.000000 0.129194
#
#
# Mechanical properties :
#
#
# Convention : Reuss Voigt Hill
#
# Bulk Modulus (GPa) = 61.48712 64.95782 63.22247
# Shear Modulus (GPa) = 20.32935 30.94008 25.63472
#
# Velocity S-wave (km/s) = 3.14220 3.87643 3.52846
# Velocity P-wave (km/s) = 6.55950 7.18219 6.87790
#
# Compressibility (1/GPa) = 0.01626357
#
# Stress axis : x y z
#
# Youngs Moduli (GPa) = 97.94509 89.67798 126.16368
#
# Poissons Ratio (x) = 0.19893 0.40433
# Poissons Ratio (y) = 0.21726 0.13736
# Poissons Ratio (z) = 0.31389 0.09763
#
# Static dielectric constant tensor:
#      x y z
#    x 3.759460 0.000000 0.000000 
#    y 0.000000 3.243120 0.000000 
#    z 0.000000 0.000000 3.790910 
# 
# 
# High freq. dielectric constant tensor:
#      x y z
#    x 1.797340 0.000000 0.000000 
#    y 0.000000 1.815150 0.000000 
#    z 0.000000 0.000000 1.794530 
# 
# From -- ./inp_files/16957.got.cif
#   From: 2010.03.12/outbox.cif.g09.slc.cpg/sg23_9_cif.got.tgz:16957.got - 2010.04.14 02:50:06.
