data_PCOD8163074
_publ_section_title
;
Structure prediction by ZEFSAII (Michael W. Deem and Ramdas Pophale) SiO2 
 PCOD8163074
Probable space group: F 2 2 2
;
_chemical_formula_sum "Si O2"
_cell_formula_units_Z 96
_cell_length_a 26.853717
_cell_length_b 7.665561
_cell_length_c 19.026761
_cell_angle_alpha 90.000000
_cell_angle_beta 90.000000
_cell_angle_gamma 90.000000
_cell_volume 3916.636029
_symmetry_space_group_name_H-M "F 2 2 2"
_symmetry_group_IT_number 22
_symmetry_cell_setting 'orthorhombic'
loop_
_space_group_symop_operation_xyz
x,y,z
-x,-y,z
x,-y,-z
-x,y,-z
x,1/2+y,1/2+z
-x,1/2-y,1/2+z
x,1/2-y,1/2-z
-x,1/2+y,1/2-z
1/2+x,y,1/2+z
1/2-x,-y,1/2+z
1/2+x,-y,1/2-z
1/2-x,y,1/2-z
1/2+x,1/2+y,z
1/2-x,1/2-y,z
1/2+x,1/2-y,-z
1/2-x,1/2+y,-z
loop_
_atom_site_type_symbol
_atom_site_label
_atom_site_fract_x
_atom_site_fract_y
_atom_site_fract_z
Si Si1 0.053544 0.962964 0.348573
Si Si2 0.771704 0.438485 0.077794
Si Si3 0.679935 0.941083 0.340118
Si Si4 0.412505 0.611744 0.093807
Si Si5 0.842987 0.947427 0.313488
Si Si6 0.051433 0.232437 0.042531
O O1 0.056120 0.757046 0.363768
O O2 0.942004 0.918569 0.419439
O O3 0.099174 0.009431 0.297114
O O4 0.000000 0.000000 0.312359
O O5 0.750000 0.250000 0.072421
O O6 0.732126 0.560867 0.118606
O O7 0.821932 0.430940 0.124290
O O8 0.784354 0.500000 0.000000
O O9 0.688146 0.983628 0.257429
O O10 0.658063 0.747630 0.343526
O O11 0.642183 0.079296 0.374406
O O12 0.444696 0.431998 0.096026
O O13 0.405089 0.692323 0.014998
O O14 0.000000 0.228111 0.000000
#
# Coordination Sequence:
#
# PCOD8163074 Si02
#       6
#    16  16  16  16  16  16
#     4  12  25  42  67 105 144 196 249 302 362 434
#     4  12  27  47  77 113 146 183 240 303 367 439
#     4  11  25  49  76 103 146 197 238 294 378 440
#     4  11  23  38  69  99 140 189 243 301 355 439
#     4  11  26  50  73 106 147 194 244 302 361 443
#     4  11  23  40  63 102 144 190 242 304 372 418
#
# _framework density 24.510829000000001
#
# number of rings (size 3 to 8) (size 9 to 14) (size 15 to 20)
#    0.000    0.667    3.333    4.500    2.333    7.333 
#    0.000    5.000    0.000    0.000    0.000    0.000 
#    0.000    0.000    0.000    0.000    0.000    0.000 
#
# Total GULP energy -297544.018632 kJ/mol
# GULP energy per Si atom -12397.667443 kJ/mol
# Density = 2.445504 g / cm^3
# Si number density = 24.510829 Si / 1000 Ang^3
#
#
#
# Elastic Constant Matrix: (Units=GPa)
#
#
# Indices 1 2 3 4 5 6 
#
# 1 90.5393 -7.3187 15.5616 0.0000 0.0000 -0.0001
# 2 -7.3187 87.8629 1.1383 0.0000 0.0000 0.0000
# 3 15.5616 1.1383 89.7490 0.0000 0.0000 0.0000
# 4 0.0000 0.0000 0.0000 30.2366 0.0000 0.0000
# 5 0.0000 0.0000 0.0000 0.0000 34.2928 0.0000
# 6 -0.0001 0.0000 0.0000 0.0000 0.0000 51.4649
#
#
#
# Elastic Compliance Matrix: (Units=1/GPa)
#
#
# Indices 1 2 3 4 5 6 
#
# 1 0.011468 0.000981 -0.002001 0.000000 0.000000 0.000000
# 2 0.000981 0.011467 -0.000316 0.000000 0.000000 0.000000
# 3 -0.002001 -0.000316 0.011493 0.000000 0.000000 0.000000
# 4 0.000000 0.000000 0.000000 0.033073 0.000000 0.000000
# 5 0.000000 0.000000 0.000000 0.000000 0.029161 0.000000
# 6 0.000000 0.000000 0.000000 0.000000 0.000000 0.019431
#
#
# Mechanical properties :
#
#
# Convention : Reuss Voigt Hill
#
# Bulk Modulus (GPa) = 31.48825 31.87929 31.68377
# Shear Modulus (GPa) = 38.65515 40.45019 39.55267
#
# Velocity S-wave (km/s) = 3.97553 4.06679 4.02142
# Velocity P-wave (km/s) = 5.82647 5.92336 5.87511
#
# Compressibility (1/GPa) = 0.03175788
#
# Stress axis : x y z
#
# Youngs Moduli (GPa) = 87.19799 87.20533 87.00856
#
# Poissons Ratio (x) = -0.08556 0.17410
# Poissons Ratio (y) = -0.08556 0.02746
# Poissons Ratio (z) = 0.17448 0.02752
#
# Static dielectric constant tensor:
#      x y z
#    x 4.751870 0.000000 0.000000 
#    y 0.000000 4.562130 0.000000 
#    z 0.000000 0.000000 4.144660 
# 
# 
# High freq. dielectric constant tensor:
#      x y z
#    x 1.971320 0.000000 0.000000 
#    y 0.000000 1.993240 0.000000 
#    z 0.000000 0.000000 1.952430 
# 
# From -- ./inp_files/45689.got.cif
#   From: 2010.03.12/outbox.cif.g09.slc.cpg/sg22_23_cif.got.tgz:45689.got - 2010.04.14 02:24:06.
