data_PCOD8163448
_publ_section_title
;
Structure prediction by ZEFSAII (Michael W. Deem and Ramdas Pophale) SiO2 
 PCOD8163448
Probable space group: I 2 2 2
;
_chemical_formula_sum "Si O2"
_cell_formula_units_Z 58
_cell_length_a 18.863927
_cell_length_b 28.998346
_cell_length_c 5.286596
_cell_angle_alpha 90.000000
_cell_angle_beta 90.000000
_cell_angle_gamma 90.000000
_cell_volume 2891.887923
_symmetry_space_group_name_H-M "I 2 2 2"
_symmetry_group_IT_number 23
_symmetry_cell_setting 'orthorhombic'
loop_
_space_group_symop_operation_xyz
x,y,z
-x,-y,z
x,-y,-z
-x,y,-z
1/2+x,1/2+y,1/2+z
1/2-x,1/2-y,1/2+z
1/2+x,1/2-y,1/2-z
1/2-x,1/2+y,1/2-z
loop_
_atom_site_type_symbol
_atom_site_label
_atom_site_fract_x
_atom_site_fract_y
_atom_site_fract_z
Si Si1 0.917725 0.828335 0.500801
Si Si2 0.797174 0.697666 0.010782
Si Si3 0.661229 0.761896 0.011534
Si Si4 0.926025 0.550039 0.104536
Si Si5 0.206710 0.945913 0.961093
Si Si6 0.415567 0.620035 0.497778
Si Si7 0.000000 0.500000 0.500000
Si Si8 0.278412 0.907312 0.459489
O O1 0.903204 0.774043 0.515836
O O2 0.888589 0.848770 0.237196
O O3 0.000000 0.836613 0.500000
O O4 0.887559 0.855041 0.746801
O O5 0.733350 0.733378 0.010057
O O6 0.844349 0.705986 0.759954
O O7 0.764189 0.646789 0.004235
O O8 0.844098 0.705866 0.262815
O O9 0.944502 0.536847 0.388541
O O10 0.905418 0.500000 0.000000
O O11 0.863134 0.585609 0.054449
O O12 0.000000 0.570573 0.000000
O O13 0.248464 0.922943 0.191027
O O14 0.125337 0.928306 0.967571
O O15 0.243651 0.934667 0.692967
O O16 0.205127 0.000000 0.000000
O O17 0.500000 0.611000 0.500000
#
# Coordination Sequence:
#
# PCOD8163448 Si02
#       8
#     8   8   8   8   8   8   2   8
#     4  10  20  36  62  88 113 152 197 248 289 343
#     4  10  21  35  57  81 109 153 181 233 289 346
#     4  10  19  36  56  81 112 143 193 226 285 353
#     4   9  20  37  60  84 110 152 195 232 290 349
#     4  12  25  39  60  89 121 159 197 253 309 343
#     4  10  21  38  60  88 120 159 203 241 294 361
#     4   8  18  36  64  82 104 152 200 232 286 352
#     4  12  25  40  60  89 124 149 203 250 302 354
#
# _framework density 20.056101000000002
#
# number of rings (size 3 to 8) (size 9 to 14) (size 15 to 20)
#    0.000    1.793    0.000    5.379    4.828    2.483 
#    0.000    1.379    0.000    4.138    0.000    0.000 
#    0.000    0.000    0.000    0.000    0.000    0.000 
#
# Total GULP energy -359360.387334 kJ/mol
# GULP energy per Si atom -12391.737494 kJ/mol
# Density = 2.001045 g / cm^3
# Si number density = 20.056101 Si / 1000 Ang^3
#
#
#
# Elastic Constant Matrix: (Units=GPa)
#
#
# Indices 1 2 3 4 5 6 
#
# 1 65.7897 17.9258 28.6575 -0.0001 0.0001 -0.0001
# 2 17.9258 91.3609 32.1705 0.0002 0.0003 -0.0003
# 3 28.6575 32.1705 148.7767 -0.0005 0.0007 -0.0003
# 4 -0.0001 0.0002 -0.0005 43.2928 0.0000 -0.0002
# 5 0.0001 0.0003 0.0007 0.0000 37.2791 0.0000
# 6 -0.0001 -0.0003 -0.0003 -0.0002 0.0000 33.9152
#
#
#
# Elastic Compliance Matrix: (Units=1/GPa)
#
#
# Indices 1 2 3 4 5 6 
#
# 1 0.017053 -0.002370 -0.002772 0.000000 0.000000 0.000000
# 2 -0.002370 0.012177 -0.002177 0.000000 0.000000 0.000000
# 3 -0.002772 -0.002177 0.007726 0.000000 0.000000 0.000000
# 4 0.000000 0.000000 0.000000 0.023099 0.000000 0.000000
# 5 0.000000 0.000000 0.000000 0.000000 0.026825 0.000000
# 6 0.000000 0.000000 0.000000 0.000000 0.000000 0.029485
#
#
# Mechanical properties :
#
#
# Convention : Reuss Voigt Hill
#
# Bulk Modulus (GPa) = 44.80506 51.49275 48.14890
# Shear Modulus (GPa) = 36.11617 38.04232 37.07925
#
# Velocity S-wave (km/s) = 4.24814 4.35995 4.30440
# Velocity P-wave (km/s) = 6.81547 7.14672 6.98306
#
# Compressibility (1/GPa) = 0.02231891
#
# Stress axis : x y z
#
# Youngs Moduli (GPa) = 58.63978 82.12196 129.43050
#
# Poissons Ratio (x) = 0.19461 0.35883
# Poissons Ratio (y) = 0.13896 0.28172
# Poissons Ratio (z) = 0.16257 0.17875
#
# Static dielectric constant tensor:
#      x y z
#    x 3.324400 0.000000 0.000000 
#    y 0.000000 3.427800 0.000000 
#    z 0.000000 0.000000 4.223140 
# 
# 
# High freq. dielectric constant tensor:
#      x y z
#    x 1.771180 0.000000 0.000000 
#    y 0.000000 1.766370 0.000000 
#    z 0.000000 0.000000 1.808810 
# 
# From -- ./inp_files/3503.got.cif
#   From: 2010.03.12/outbox.cif.g09.slc.cpg/sg23_2_cif.got.tgz:3503.got - 2010.04.14 02:50:06.
