data_PCOD8163199
_publ_section_title
;
Structure prediction by ZEFSAII (Michael W. Deem and Ramdas Pophale) SiO2 
 PCOD8163199
Probable space group: I 2 2 2
;
_chemical_formula_sum "Si O2"
_cell_formula_units_Z 24
_cell_length_a 5.173988
_cell_length_b 27.321496
_cell_length_c 7.886451
_cell_angle_alpha 90.000000
_cell_angle_beta 90.000000
_cell_angle_gamma 90.000000
_cell_volume 1114.837329
_symmetry_space_group_name_H-M "I 2 2 2"
_symmetry_group_IT_number 23
_symmetry_cell_setting 'orthorhombic'
loop_
_space_group_symop_operation_xyz
x,y,z
-x,-y,z
x,-y,-z
-x,y,-z
1/2+x,1/2+y,1/2+z
1/2-x,1/2-y,1/2+z
1/2+x,1/2-y,1/2-z
1/2-x,1/2+y,1/2-z
loop_
_atom_site_type_symbol
_atom_site_label
_atom_site_fract_x
_atom_site_fract_y
_atom_site_fract_z
Si Si1 0.247649 0.978444 0.809554
Si Si2 0.749403 0.367821 0.387508
Si Si3 0.102952 0.724951 0.189321
O O1 0.221921 0.920261 0.799958
O O2 0.500000 0.000000 0.715341
O O3 0.000000 0.000000 0.711732
O O4 0.249062 0.000000 0.000000
O O5 0.500000 0.354243 0.500000
O O6 0.786153 0.327685 0.242105
O O7 0.000000 0.369657 0.500000
O O8 0.352907 0.760926 0.196127
O O9 0.000000 0.723945 0.000000
#
# Coordination Sequence:
#
# PCOD8163199 Si02
#       3
#     8   8   8
#     4  10  16  30  51  89 129 150 201 254 290 358
#     4  12  21  35  63  94 123 163 206 257 315 364
#     4  12  26  45  64  90 128 165 215 267 318 376
#
# _framework density 21.527802000000001
#
# number of rings (size 3 to 8) (size 9 to 14) (size 15 to 20)
#    0.000    0.667    6.667    6.000    0.000    0.000 
#    0.000    0.000    0.000    1.000    0.000    4.667 
#    0.000    0.000    0.000    0.000    0.000    0.000 
#
# Total GULP energy -148745.534343 kJ/mol
# GULP energy per Si atom -12395.461195 kJ/mol
# Density = 2.147880 g / cm^3
# Si number density = 21.527802 Si / 1000 Ang^3
#
#
#
# Elastic Constant Matrix: (Units=GPa)
#
#
# Indices 1 2 3 4 5 6 
#
# 1 226.4863 72.8937 41.2577 -0.0001 -0.0001 0.0001
# 2 72.8937 187.6504 55.1842 0.0016 0.0000 0.0004
# 3 41.2577 55.1842 63.4900 0.0026 0.0001 0.0002
# 4 -0.0001 0.0016 0.0026 19.4791 0.0001 0.0001
# 5 -0.0001 0.0000 0.0001 0.0001 22.4653 0.0000
# 6 0.0001 0.0004 0.0002 0.0001 0.0000 44.5022
#
#
#
# Elastic Compliance Matrix: (Units=1/GPa)
#
#
# Indices 1 2 3 4 5 6 
#
# 1 0.005267 -0.001396 -0.002209 0.000000 0.000000 0.000000
# 2 -0.001396 0.007529 -0.005637 0.000000 0.000000 0.000000
# 3 -0.002209 -0.005637 0.022085 -0.000003 0.000000 0.000000
# 4 0.000000 0.000000 -0.000003 0.051337 0.000000 0.000000
# 5 0.000000 0.000000 0.000000 0.000000 0.044513 0.000000
# 6 0.000000 0.000000 0.000000 0.000000 0.000000 0.022471
#
#
# Mechanical properties :
#
#
# Convention : Reuss Voigt Hill
#
# Bulk Modulus (GPa) = 60.98572 90.69978 75.84275
# Shear Modulus (GPa) = 28.22422 37.84204 33.03313
#
# Velocity S-wave (km/s) = 3.62478 4.19719 3.92144
# Velocity P-wave (km/s) = 6.77562 8.10626 7.47063
#
# Compressibility (1/GPa) = 0.01639728
#
# Stress axis : x y z
#
# Youngs Moduli (GPa) = 189.85749 132.81691 45.27887
#
# Poissons Ratio (x) = 0.18547 0.10002
# Poissons Ratio (y) = 0.26512 0.25523
# Poissons Ratio (z) = 0.41939 0.74866
#
# Static dielectric constant tensor:
#      x y z
#    x 1.300250 0.000000 0.000000 
#    y 0.000000 4.913170 -0.000010 
#    z 0.000000 -0.000010 3.195610 
# 
# 
# High freq. dielectric constant tensor:
#      x y z
#    x 1.890990 0.000000 0.000000 
#    y 0.000000 1.860980 0.000000 
#    z 0.000000 0.000000 1.782990 
# 
# From -- ./inp_files/421.got.cif
#   From: 2010.03.12/outbox.cif.g09.slc.cpg/sg23_1_cif.got.tgz:421.got - 2010.04.14 02:50:06.
