data_PCOD8163528
_publ_section_title
;
Structure prediction by ZEFSAII (Michael W. Deem and Ramdas Pophale) SiO2 
 PCOD8163528
Probable space group: I 2 2 2
;
_chemical_formula_sum "Si O2"
_cell_formula_units_Z 64
_cell_length_a 24.631573
_cell_length_b 14.093394
_cell_length_c 8.876858
_cell_angle_alpha 90.000000
_cell_angle_beta 90.000000
_cell_angle_gamma 90.000000
_cell_volume 3081.534351
_symmetry_space_group_name_H-M "I 2 2 2"
_symmetry_group_IT_number 23
_symmetry_cell_setting 'orthorhombic'
loop_
_space_group_symop_operation_xyz
x,y,z
-x,-y,z
x,-y,-z
-x,y,-z
1/2+x,1/2+y,1/2+z
1/2-x,1/2-y,1/2+z
1/2+x,1/2-y,1/2-z
1/2-x,1/2+y,1/2-z
loop_
_atom_site_type_symbol
_atom_site_label
_atom_site_fract_x
_atom_site_fract_y
_atom_site_fract_z
Si Si1 0.189823 0.156356 0.908155
Si Si2 0.806804 0.675422 0.356986
Si Si3 0.593490 0.713860 0.187872
Si Si4 0.006467 0.891431 0.820770
Si Si5 0.697649 0.444397 0.294662
Si Si6 0.613224 0.346717 0.138713
Si Si7 0.619680 0.084844 0.905273
Si Si8 0.307177 0.997446 0.673355
O O1 0.245983 0.215669 0.889082
O O2 0.142482 0.206695 0.810530
O O3 0.197153 0.048787 0.858439
O O4 0.180895 0.140646 0.087424
O O5 0.850527 0.755184 0.320984
O O6 0.826515 0.613619 0.500304
O O7 0.799831 0.607346 0.214824
O O8 0.539604 0.677930 0.263553
O O9 0.583726 0.822229 0.130794
O O10 0.600860 0.650303 0.038705
O O11 0.061638 0.849609 0.750573
O O12 0.000000 0.000000 0.764860
O O13 0.000000 0.887913 0.000000
O O14 0.650593 0.438589 0.168766
O O15 0.756546 0.430146 0.219566
O O16 0.638249 0.043527 0.746299
O O17 0.588932 0.000000 0.000000
O O18 0.317544 0.000000 0.500000
#
# Coordination Sequence:
#
# PCOD8163528 Si02
#       8
#     8   8   8   8   8   8   8   8
#     4  10  20  36  56  85 127 171 212 251 320 392
#     4   9  20  37  55  83 126 166 199 259 326 383
#     4  11  24  38  66  96 119 166 221 269 321 390
#     4  11  25  47  67  88 126 172 212 266 337 397
#     4  10  21  35  53  83 127 174 207 255 318 377
#     4  11  24  37  60  89 121 159 213 268 308 381
#     4   9  19  41  61  87 127 172 204 260 339 392
#     4  10  20  33  56  85 123 166 210 259 317 384
#
# _framework density 20.768874
#
# number of rings (size 3 to 8) (size 9 to 14) (size 15 to 20)
#    0.000    1.875    1.250    1.875    5.250    6.000 
#    0.000    0.000    0.000   12.750    0.000    8.750 
#    0.000    0.000    0.000    0.000    0.000    0.000 
#
# Total GULP energy -396455.671733 kJ/mol
# GULP energy per Si atom -12389.239742 kJ/mol
# Density = 2.072160 g / cm^3
# Si number density = 20.768874 Si / 1000 Ang^3
#
#
#
# Elastic Constant Matrix: (Units=GPa)
#
#
# Indices 1 2 3 4 5 6 
#
# 1 110.0541 55.8046 31.7399 0.0000 0.0000 0.0000
# 2 55.8046 78.4008 38.8601 0.0000 0.0000 0.0000
# 3 31.7399 38.8601 119.9559 0.0000 0.0000 0.0000
# 4 0.0000 0.0000 0.0000 32.0767 0.0000 0.0000
# 5 0.0000 0.0000 0.0000 0.0000 29.3783 0.0000
# 6 0.0000 0.0000 0.0000 0.0000 0.0000 29.6260
#
#
#
# Elastic Compliance Matrix: (Units=1/GPa)
#
#
# Indices 1 2 3 4 5 6 
#
# 1 0.014252 -0.009858 -0.000577 0.000000 0.000000 0.000000
# 2 -0.009858 0.022014 -0.004523 0.000000 0.000000 0.000000
# 3 -0.000577 -0.004523 0.009954 0.000000 0.000000 0.000000
# 4 0.000000 0.000000 0.000000 0.031175 0.000000 0.000000
# 5 0.000000 0.000000 0.000000 0.000000 0.034039 0.000000
# 6 0.000000 0.000000 0.000000 0.000000 0.000000 0.033754
#
#
# Mechanical properties :
#
#
# Convention : Reuss Voigt Hill
#
# Bulk Modulus (GPa) = 61.33861 62.35777 61.84819
# Shear Modulus (GPa) = 27.69491 30.34994 29.02242
#
# Velocity S-wave (km/s) = 3.65565 3.82687 3.74224
# Velocity P-wave (km/s) = 6.88596 7.04389 6.96537
#
# Compressibility (1/GPa) = 0.01630294
#
# Stress axis : x y z
#
# Youngs Moduli (GPa) = 70.16779 45.42659 100.45790
#
# Poissons Ratio (x) = 0.44781 0.05801
# Poissons Ratio (y) = 0.69170 0.45437
# Poissons Ratio (z) = 0.04052 0.20546
#
# Static dielectric constant tensor:
#      x y z
#    x 3.606520 0.000000 0.000000 
#    y 0.000000 3.841790 0.000000 
#    z 0.000000 0.000000 4.262480 
# 
# 
# High freq. dielectric constant tensor:
#      x y z
#    x 1.786530 0.000000 0.000000 
#    y 0.000000 1.810190 0.000000 
#    z 0.000000 0.000000 1.826660 
# 
# From -- ./inp_files/12717.got.cif
#   From: 2010.03.12/outbox.cif.g09.slc.cpg/sg23_7_cif.got.tgz:12717.got - 2010.04.14 02:50:06.
