data_PCOD8163547
_publ_section_title
;
Structure prediction by ZEFSAII (Michael W. Deem and Ramdas Pophale) SiO2 
 PCOD8163547
Probable space group: I 2 2 2
;
_chemical_formula_sum "Si O2"
_cell_formula_units_Z 56
_cell_length_a 19.037015
_cell_length_b 19.303308
_cell_length_c 6.409492
_cell_angle_alpha 90.000000
_cell_angle_beta 90.000000
_cell_angle_gamma 90.000000
_cell_volume 2355.343224
_symmetry_space_group_name_H-M "I 2 2 2"
_symmetry_group_IT_number 23
_symmetry_cell_setting 'orthorhombic'
loop_
_space_group_symop_operation_xyz
x,y,z
-x,-y,z
x,-y,-z
-x,y,-z
1/2+x,1/2+y,1/2+z
1/2-x,1/2-y,1/2+z
1/2+x,1/2-y,1/2-z
1/2-x,1/2+y,1/2-z
loop_
_atom_site_type_symbol
_atom_site_label
_atom_site_fract_x
_atom_site_fract_y
_atom_site_fract_z
Si Si1 0.478817 0.304654 0.242380
Si Si2 0.242093 0.873763 0.841800
Si Si3 0.345618 0.237719 0.122360
Si Si4 0.232229 0.341794 0.121760
Si Si5 0.563737 0.539564 0.283166
Si Si6 0.278932 0.519654 0.777060
Si Si7 0.872492 0.231649 0.843221
O O1 0.411687 0.251285 0.280294
O O2 0.455581 0.380585 0.309043
O O3 0.544819 0.281787 0.391290
O O4 0.500000 0.302186 0.000000
O O5 0.318561 0.841524 0.906820
O O6 0.236066 0.870044 0.590990
O O7 0.233798 0.956603 0.891066
O O8 0.175367 0.831283 0.933899
O O9 0.278159 0.278483 0.217295
O O10 0.368617 0.269867 0.906201
O O11 0.239719 0.406454 0.289519
O O12 0.154842 0.308492 0.083887
O O13 0.500000 0.500000 0.159953
O O14 0.571564 0.500000 0.500000
O O15 0.639119 0.533506 0.173917
O O16 0.243841 0.500000 0.000000
#
# Coordination Sequence:
#
# PCOD8163547 Si02
#       7
#     8   8   8   8   8   8   8
#     4  10  20  36  58  77 105 150 189 215 259 335
#     4   9  18  32  50  78 103 134 179 225 264 318
#     4   9  17  33  52  75 102 135 180 224 264 314
#     4   9  17  33  51  76 101 138 180 222 266 318
#     4  11  24  36  46  80 120 141 173 215 272 317
#     4  10  20  34  57  76 105 149 186 211 266 336
#     4   9  18  32  54  76 100 137 183 220 268 315
#
# _framework density 23.775728000000001
#
# number of rings (size 3 to 8) (size 9 to 14) (size 15 to 20)
#    0.000    2.429    1.429    0.857    4.000    1.143 
#   10.286    0.000    0.000    0.857    0.000    6.000 
#    0.000    0.000    0.000    0.000    0.000    0.000 
#
# Total GULP energy -347002.722185 kJ/mol
# GULP energy per Si atom -12392.954364 kJ/mol
# Density = 2.372161 g / cm^3
# Si number density = 23.775728 Si / 1000 Ang^3
#
#
#
# Elastic Constant Matrix: (Units=GPa)
#
#
# Indices 1 2 3 4 5 6 
#
# 1 157.6492 108.4083 26.0347 0.0000 0.0000 0.0000
# 2 108.4083 193.4845 20.2747 0.0000 0.0000 0.0000
# 3 26.0347 20.2747 25.9750 0.0000 0.0000 0.0000
# 4 0.0000 0.0000 0.0000 32.9881 0.0000 0.0000
# 5 0.0000 0.0000 0.0000 0.0000 31.5059 0.0000
# 6 0.0000 0.0000 0.0000 0.0000 0.0000 37.7625
#
#
#
# Elastic Compliance Matrix: (Units=1/GPa)
#
#
# Indices 1 2 3 4 5 6 
#
# 1 0.011379 -0.005642 -0.007002 0.000000 0.000000 0.000000
# 2 -0.005642 0.008426 -0.000922 0.000000 0.000000 0.000000
# 3 -0.007002 -0.000922 0.046236 0.000000 0.000000 0.000000
# 4 0.000000 0.000000 0.000000 0.030314 0.000000 0.000000
# 5 0.000000 0.000000 0.000000 0.000000 0.031740 0.000000
# 6 0.000000 0.000000 0.000000 0.000000 0.000000 0.026481
#
#
# Mechanical properties :
#
#
# Convention : Reuss Voigt Hill
#
# Bulk Modulus (GPa) = 25.70022 76.28269 50.99145
# Shear Modulus (GPa) = 25.68344 35.27737 30.48040
#
# Velocity S-wave (km/s) = 3.29026 3.85613 3.58438
# Velocity P-wave (km/s) = 5.02666 7.20973 6.21481
#
# Compressibility (1/GPa) = 0.03891018
#
# Stress axis : x y z
#
# Youngs Moduli (GPa) = 87.87932 118.67745 21.62819
#
# Poissons Ratio (x) = 0.66958 0.15143
# Poissons Ratio (y) = 0.49582 0.01994
# Poissons Ratio (z) = 0.61529 0.10942
#
# Static dielectric constant tensor:
#      x y z
#    x 4.646640 0.000000 0.000000 
#    y 0.000000 4.525530 0.000000 
#    z 0.000000 0.000000 4.668960 
# 
# 
# High freq. dielectric constant tensor:
#      x y z
#    x 1.912500 0.000000 0.000000 
#    y 0.000000 1.929840 0.000000 
#    z 0.000000 0.000000 2.007030 
# 
# From -- ./inp_files/12140.got.cif
#   From: 2010.03.12/outbox.cif.g09.slc.cpg/sg23_7_cif.got.tgz:12140.got - 2010.04.14 02:50:06.
