data_PCOD8163347
_publ_section_title
;
Structure prediction by ZEFSAII (Michael W. Deem and Ramdas Pophale) SiO2 
 PCOD8163347
Probable space group: I 2 2 2
;
_chemical_formula_sum "Si O2"
_cell_formula_units_Z 48
_cell_length_a 17.834487
_cell_length_b 5.329092
_cell_length_c 22.930300
_cell_angle_alpha 90.000000
_cell_angle_beta 90.000000
_cell_angle_gamma 90.000000
_cell_volume 2179.332905
_symmetry_space_group_name_H-M "I 2 2 2"
_symmetry_group_IT_number 23
_symmetry_cell_setting 'orthorhombic'
loop_
_space_group_symop_operation_xyz
x,y,z
-x,-y,z
x,-y,-z
-x,y,-z
1/2+x,1/2+y,1/2+z
1/2-x,1/2-y,1/2+z
1/2+x,1/2-y,1/2-z
1/2-x,1/2+y,1/2-z
loop_
_atom_site_type_symbol
_atom_site_label
_atom_site_fract_x
_atom_site_fract_y
_atom_site_fract_z
Si Si1 0.644792 0.499997 0.250519
Si Si2 0.916001 0.499999 0.569112
Si Si3 0.830631 0.999999 0.569291
Si Si4 0.314044 0.000003 0.233214
Si Si5 0.584965 0.499997 0.371216
Si Si6 0.669882 0.000003 0.627340
O O1 0.643121 0.749982 0.209976
O O2 0.726694 0.499997 0.284458
O O3 0.582075 0.499997 0.300099
O O4 0.643121 0.250012 0.209976
O O5 0.920285 0.500000 0.500000
O O6 0.873789 0.750375 0.590903
O O7 0.000000 0.500000 0.595328
O O8 0.873790 0.249620 0.590902
O O9 0.821685 0.000000 0.500000
O O10 0.749897 0.999999 0.597906
O O11 0.322130 0.000002 0.303200
O O12 0.500000 0.500000 0.394123
O O13 0.625618 0.751415 0.394063
O O14 0.625616 0.248576 0.394063
#
# Coordination Sequence:
#
# PCOD8163347 Si02
#       6
#     8   8   8   8   8   8
#     4   8  14  25  42  64  85 107 139 182 230 278
#     4   9  17  30  49  72  95 119 149 186 231 284
#     4  10  19  31  49  72  97 126 160 197 233 274
#     4   8  14  25  42  64  86 108 140 181 226 278
#     4  10  19  31  48  68  92 123 161 206 246 279
#     4  10  19  31  48  70  94 124 163 201 238 280
#
# _framework density 22.025089000000001
#
# number of rings (size 3 to 8) (size 9 to 14) (size 15 to 20)
#    0.000    2.833    0.000    2.000    0.000    2.000 
#    0.000    0.000    0.000    5.000    0.000    0.000 
#    0.000    0.000    0.000    0.000    0.000    0.000 
#
# Total GULP energy -297355.208862 kJ/mol
# GULP energy per Si atom -12389.800369 kJ/mol
# Density = 2.197496 g / cm^3
# Si number density = 22.025089 Si / 1000 Ang^3
#
#
#
# Elastic Constant Matrix: (Units=GPa)
#
#
# Indices 1 2 3 4 5 6 
#
# 1 172.4283 88.6456 21.9904 0.0000 0.0000 0.0000
# 2 88.6456 264.9005 3.4668 0.0000 0.0000 0.0000
# 3 21.9904 3.4668 28.0536 0.0000 0.0000 0.0000
# 4 0.0000 0.0000 0.0000 -3.2802 0.0000 0.0000
# 5 0.0000 0.0000 0.0000 0.0000 28.0663 0.0000
# 6 0.0000 0.0000 0.0000 0.0000 0.0000 19.6150
#
#
#
# Elastic Compliance Matrix: (Units=1/GPa)
#
#
# Indices 1 2 3 4 5 6 
#
# 1 0.007857 -0.002553 -0.005844 0.000000 0.000000 0.000000
# 2 -0.002553 0.004611 0.001431 0.000000 0.000000 0.000000
# 3 -0.005844 0.001431 0.040050 0.000000 0.000000 0.000000
# 4 0.000000 0.000000 0.000000 -0.304857 0.000000 0.000000
# 5 0.000000 0.000000 0.000000 0.000000 0.035630 0.000000
# 6 0.000000 0.000000 0.000000 0.000000 0.000000 0.050981
#
#
# Mechanical properties :
#
#
# Convention : Reuss Voigt Hill
#
# Bulk Modulus (GPa) = 25.91517 77.06531 51.49024
# Shear Modulus (GPa) = -35.98781 32.29885 -1.84448
#
# Velocity S-wave (km/s) = -4.04660 3.83359 -0.91611
# Velocity P-wave (km/s) = 3.16883 7.39330 4.72332
#
# Compressibility (1/GPa) = 0.03858743
#
# Stress axis : x y z
#
# Youngs Moduli (GPa) = 127.27223 216.89426 24.96892
#
# Poissons Ratio (x) = 0.55369 0.14591
# Poissons Ratio (y) = 0.32490 -0.03574
# Poissons Ratio (z) = 0.74372 -0.31045
#
# Static dielectric constant tensor:
#      x y z
#    x 3.725470 0.000000 0.000000 
#    y 0.000000 5.348580 0.000000 
#    z 0.000000 0.000000 3.296550 
# 
# 
# High freq. dielectric constant tensor:
#      x y z
#    x 1.846220 0.000000 0.000000 
#    y 0.000000 1.910690 0.000000 
#    z 0.000000 0.000000 1.806880 
# 
# From -- ./inp_files/2686.got.cif
#   From: 2010.03.12/outbox.cif.g09.slc.cpg/sg23_2_cif.got.tgz:2686.got - 2010.04.14 02:50:06.
