data_PCOD8163560
_publ_section_title
;
Structure prediction by ZEFSAII (Michael W. Deem and Ramdas Pophale) SiO2 
 PCOD8163560
Probable space group: I 2 2 2
;
_chemical_formula_sum "Si O2"
_cell_formula_units_Z 64
_cell_length_a 20.782981
_cell_length_b 17.751941
_cell_length_c 9.775354
_cell_angle_alpha 90.000000
_cell_angle_beta 90.000000
_cell_angle_gamma 90.000000
_cell_volume 3606.502022
_symmetry_space_group_name_H-M "I 2 2 2"
_symmetry_group_IT_number 23
_symmetry_cell_setting 'orthorhombic'
loop_
_space_group_symop_operation_xyz
x,y,z
-x,-y,z
x,-y,-z
-x,y,-z
1/2+x,1/2+y,1/2+z
1/2-x,1/2-y,1/2+z
1/2+x,1/2-y,1/2-z
1/2-x,1/2+y,1/2-z
loop_
_atom_site_type_symbol
_atom_site_label
_atom_site_fract_x
_atom_site_fract_y
_atom_site_fract_z
Si Si1 0.628403 0.055241 0.883356
Si Si2 0.576267 0.198169 0.990422
Si Si3 0.751941 0.556591 0.121564
Si Si4 0.207128 0.793244 0.800381
Si Si5 0.276149 0.543802 0.369571
Si Si6 0.306629 0.704563 0.981104
Si Si7 0.566259 0.974869 0.651694
Si Si8 0.630582 0.842407 0.721639
O O1 0.703727 0.069642 0.904276
O O2 0.622977 0.013637 0.737690
O O3 0.588607 0.133793 0.876418
O O4 0.600241 0.000000 0.000000
O O5 0.609985 0.159527 0.121029
O O6 0.500000 0.217125 0.000000
O O7 0.617249 0.274586 0.963908
O O8 0.715805 0.508217 0.236911
O O9 0.701659 0.617592 0.061371
O O10 0.808822 0.602561 0.194648
O O11 0.775479 0.500000 0.000000
O O12 0.186945 0.877469 0.843081
O O13 0.268424 0.762181 0.882753
O O14 0.219374 0.785778 0.636924
O O15 0.145485 0.740337 0.837213
O O16 0.305945 0.500000 0.500000
O O17 0.571132 0.883632 0.647183
O O18 0.500000 0.000000 0.721907
O O19 0.571549 0.000000 0.500000
#
# Coordination Sequence:
#
# PCOD8163560 Si02
#       8
#     8   8   8   8   8   8   8   8
#     4  11  20  31  49  73 104 140 183 217 259 319
#     4  11  21  36  56  78 112 153 191 232 273 333
#     4  11  20  35  57  81 111 147 183 239 290 341
#     4  10  21  34  54  78 115 146 180 239 289 342
#     4  11  21  34  53  82 111 140 184 229 286 344
#     4  10  22  36  53  85 112 146 191 233 295 340
#     4  11  22  33  46  71 106 141 183 217 251 319
#     4  10  20  35  52  76 108 146 182 223 280 330
#
# _framework density 17.745726999999999
#
# number of rings (size 3 to 8) (size 9 to 14) (size 15 to 20)
#    0.000    1.375    5.000    1.875    3.500    0.000 
#    0.000    0.000    0.000    0.375    0.000    0.000 
#    0.000    4.000    0.000    0.000    0.000    0.000 
#
# Total GULP energy -396487.487053 kJ/mol
# GULP energy per Si atom -12390.233970 kJ/mol
# Density = 1.770534 g / cm^3
# Si number density = 17.745727 Si / 1000 Ang^3
#
#
#
# Elastic Constant Matrix: (Units=GPa)
#
#
# Indices 1 2 3 4 5 6 
#
# 1 76.2776 53.4897 24.0257 0.0000 0.0000 0.0000
# 2 53.4897 145.8863 46.6975 0.0000 0.0000 0.0000
# 3 24.0257 46.6975 91.4578 0.0000 0.0000 0.0000
# 4 0.0000 0.0000 0.0000 26.5124 0.0000 0.0000
# 5 0.0000 0.0000 0.0000 0.0000 19.4678 0.0000
# 6 0.0000 0.0000 0.0000 0.0000 0.0000 26.2319
#
#
#
# Elastic Compliance Matrix: (Units=1/GPa)
#
#
# Indices 1 2 3 4 5 6 
#
# 1 0.017844 -0.006027 -0.001610 0.000000 0.000000 0.000000
# 2 -0.006027 0.010230 -0.003640 0.000000 0.000000 0.000000
# 3 -0.001610 -0.003640 0.013215 0.000000 0.000000 0.000000
# 4 0.000000 0.000000 0.000000 0.037718 0.000000 0.000000
# 5 0.000000 0.000000 0.000000 0.000000 0.051367 0.000000
# 6 0.000000 0.000000 0.000000 0.000000 0.000000 0.038122
#
#
# Mechanical properties :
#
#
# Convention : Reuss Voigt Hill
#
# Bulk Modulus (GPa) = 53.37701 62.44973 57.91337
# Shear Modulus (GPa) = 25.34287 27.06967 26.20627
#
# Velocity S-wave (km/s) = 3.78314 3.90990 3.84704
# Velocity P-wave (km/s) = 7.01619 7.45995 7.24147
#
# Compressibility (1/GPa) = 0.01873466
#
# Stress axis : x y z
#
# Youngs Moduli (GPa) = 56.04251 97.75574 75.66897
#
# Poissons Ratio (x) = 0.58918 0.12184
# Poissons Ratio (y) = 0.33777 0.27542
# Poissons Ratio (z) = 0.09023 0.35582
#
# Static dielectric constant tensor:
#      x y z
#    x 4.352210 0.000000 0.000000 
#    y 0.000000 3.633250 0.000000 
#    z 0.000000 0.000000 3.360870 
# 
# 
# High freq. dielectric constant tensor:
#      x y z
#    x 1.639680 0.000000 0.000000 
#    y 0.000000 1.695450 0.000000 
#    z 0.000000 0.000000 1.693310 
# 
# From -- ./inp_files/12183.got.cif
#   From: 2010.03.12/outbox.cif.g09.slc.cpg/sg23_7_cif.got.tgz:12183.got - 2010.04.14 02:50:06.
