data_PCOD8163085
_publ_section_title
;
Structure prediction by ZEFSAII (Michael W. Deem and Ramdas Pophale) SiO2 
 PCOD8163085
Probable space group: F 2 2 2
;
_chemical_formula_sum "Si O2"
_cell_formula_units_Z 64
_cell_length_a 17.782611
_cell_length_b 21.236994
_cell_length_c 7.259058
_cell_angle_alpha 90.000000
_cell_angle_beta 90.000000
_cell_angle_gamma 90.000000
_cell_volume 2741.377469
_symmetry_space_group_name_H-M "F 2 2 2"
_symmetry_group_IT_number 22
_symmetry_cell_setting 'orthorhombic'
loop_
_space_group_symop_operation_xyz
x,y,z
-x,-y,z
x,-y,-z
-x,y,-z
x,1/2+y,1/2+z
-x,1/2-y,1/2+z
x,1/2-y,1/2-z
-x,1/2+y,1/2-z
1/2+x,y,1/2+z
1/2-x,-y,1/2+z
1/2+x,-y,1/2-z
1/2-x,y,1/2-z
1/2+x,1/2+y,z
1/2-x,1/2-y,z
1/2+x,1/2-y,-z
1/2-x,1/2+y,-z
loop_
_atom_site_type_symbol
_atom_site_label
_atom_site_fract_x
_atom_site_fract_y
_atom_site_fract_z
Si Si1 0.917317 0.028381 0.255824
Si Si2 0.919652 0.629664 0.052009
Si Si3 0.734893 0.680546 0.537063
Si Si4 0.862207 0.409510 0.587919
O O1 0.911109 0.058607 0.461265
O O2 0.096789 0.085141 0.890629
O O3 0.853331 0.977124 0.196121
O O4 0.000000 0.000000 0.223666
O O5 0.853720 0.672856 0.980761
O O6 0.916967 0.628142 0.273418
O O7 0.000000 0.659192 0.000000
O O8 0.750000 0.674806 0.750000
O O9 0.750000 0.750000 0.457682
O O10 0.782459 0.627211 0.428007
#
# Coordination Sequence:
#
# PCOD8163085 Si02
#       4
#    16  16  16  16
#     4  11  23  42  66 111 156 184 228 299 363 440
#     4  12  25  44  72 111 144 191 238 296 369 436
#     4  11  26  53  75 102 146 194 256 312 355 434
#     4  11  23  42  73 101 144 197 231 290 368 428
#
# _framework density 23.345927
#
# number of rings (size 3 to 8) (size 9 to 14) (size 15 to 20)
#    0.000    0.750    5.000    3.000    0.000    2.000 
#   18.000    7.500    0.000    0.000    0.000    0.000 
#    0.000    0.000    0.000    0.000    0.000    0.000 
#
# Total GULP energy -198249.663502 kJ/mol
# GULP energy per Si atom -12390.603969 kJ/mol
# Density = 2.329279 g / cm^3
# Si number density = 23.345927 Si / 1000 Ang^3
#
#
#
# Elastic Constant Matrix: (Units=GPa)
#
#
# Indices 1 2 3 4 5 6 
#
# 1 185.8617 85.1986 40.6239 0.0005 0.0005 0.0033
# 2 85.1986 117.3873 20.7877 0.0020 0.0003 0.0037
# 3 40.6239 20.7877 73.0894 0.0068 0.0017 0.0186
# 4 0.0005 0.0020 0.0068 -19.4561 -0.0022 -0.0062
# 5 0.0005 0.0003 0.0017 -0.0022 36.3228 -0.0078
# 6 0.0033 0.0037 0.0186 -0.0062 -0.0078 -21.9572
#
#
#
# Elastic Compliance Matrix: (Units=1/GPa)
#
#
# Indices 1 2 3 4 5 6 
#
# 1 0.008724 -0.005763 -0.003210 -0.000001 0.000000 -0.000002
# 2 -0.005763 0.012778 -0.000431 0.000001 0.000000 0.000001
# 3 -0.003210 -0.000431 0.015588 0.000005 -0.000001 0.000013
# 4 -0.000001 0.000001 0.000005 -0.051398 -0.000003 0.000015
# 5 0.000000 0.000000 -0.000001 -0.000003 0.027531 -0.000010
# 6 -0.000002 0.000001 0.000013 0.000015 -0.000010 -0.045543
#
#
# Mechanical properties :
#
#
# Convention : Reuss Voigt Hill
#
# Bulk Modulus (GPa) = 54.69711 74.39541 64.54626
# Shear Modulus (GPa) = -674.03032 14.29711 -329.86661
#
# Velocity S-wave (km/s) = -17.01003 2.47736 -11.89966
# Velocity P-wave (km/s) = 19.03440 6.33394 12.69231
#
# Compressibility (1/GPa) = 0.01828250
#
# Stress axis : x y z
#
# Youngs Moduli (GPa) = 114.63024 78.25946 64.15035
#
# Poissons Ratio (x) = 0.45103 0.20590
# Poissons Ratio (y) = 0.66064 0.02765
# Poissons Ratio (z) = 0.36792 0.03373
#
# Static dielectric constant tensor:
#      x y z
#    x 4.211660 -0.000010 0.000090 
#    y -0.000010 4.296510 -0.000020 
#    z 0.000090 -0.000020 4.930450 
# 
# 
# High freq. dielectric constant tensor:
#      x y z
#    x 1.909280 0.000000 0.000000 
#    y 0.000000 1.891170 0.000000 
#    z 0.000000 0.000000 1.956890 
# 
# From -- ./inp_files/9802.got.cif
#   From: 2010.03.12/outbox.cif.g09.slc.cpg/sg22_5_cif.got.tgz:9802.got - 2010.04.14 02:24:06.
