data_PCOD8163014
_publ_section_title
;
Structure prediction by ZEFSAII (Michael W. Deem and Ramdas Pophale) SiO2 
 PCOD8163014
Probable space group: F 2 2 2
;
_chemical_formula_sum "Si O2"
_cell_formula_units_Z 96
_cell_length_a 22.582712
_cell_length_b 10.034003
_cell_length_c 22.613125
_cell_angle_alpha 90.000000
_cell_angle_beta 90.000000
_cell_angle_gamma 90.000000
_cell_volume 5124.021058
_symmetry_space_group_name_H-M "F 2 2 2"
_symmetry_group_IT_number 22
_symmetry_cell_setting 'orthorhombic'
loop_
_space_group_symop_operation_xyz
x,y,z
-x,-y,z
x,-y,-z
-x,y,-z
x,1/2+y,1/2+z
-x,1/2-y,1/2+z
x,1/2-y,1/2-z
-x,1/2+y,1/2-z
1/2+x,y,1/2+z
1/2-x,-y,1/2+z
1/2+x,-y,1/2-z
1/2-x,y,1/2-z
1/2+x,1/2+y,z
1/2-x,1/2-y,z
1/2+x,1/2-y,-z
1/2-x,1/2+y,-z
loop_
_atom_site_type_symbol
_atom_site_label
_atom_site_fract_x
_atom_site_fract_y
_atom_site_fract_z
Si Si1 0.996919 0.851807 0.430135
Si Si2 0.877087 0.732069 0.925657
Si Si3 0.814120 0.023770 0.619734
Si Si4 0.127408 0.767505 0.936203
Si Si5 0.824551 0.985318 0.870958
Si Si6 0.680067 0.101552 0.752402
O O1 0.936873 0.777160 0.411772
O O2 0.000000 0.865938 0.500000
O O3 0.053607 0.768102 0.408006
O O4 0.000000 0.000000 0.401984
O O5 0.850032 0.585663 0.916798
O O6 0.844096 0.835015 0.883367
O O7 0.868587 0.771957 0.993460
O O8 0.823474 0.167102 0.589386
O O9 0.744936 0.993880 0.617253
O O10 0.838250 0.027559 0.687126
O O11 0.140328 0.915618 0.913885
O O12 0.842179 0.016310 0.803305
O O13 0.651895 0.250000 0.750000
O O14 0.750000 0.116308 0.750000
#
# Coordination Sequence:
#
# PCOD8163014 Si02
#       6
#    16  16  16  16  16  16
#     4   9  18  36  58  78 106 153 201 223 256 335
#     4  11  23  36  55  87 119 146 182 235 288 329
#     4  11  21  36  60  83 112 153 189 227 278 339
#     4  11  21  36  60  83 112 153 189 227 278 339
#     4  11  23  36  55  87 119 146 182 235 288 329
#     4   9  18  36  58  78 106 153 201 223 256 335
#
# _framework density 18.735285999999999
#
# number of rings (size 3 to 8) (size 9 to 14) (size 15 to 20)
#    0.000    1.667    3.333    2.000    0.000    5.333 
#    0.000    5.000    0.000    6.000    0.000    0.000 
#    0.000    0.000    0.000    0.000    0.000    0.000 
#
# Total GULP energy -297649.567532 kJ/mol
# GULP energy per Si atom -12402.065314 kJ/mol
# Density = 1.869264 g / cm^3
# Si number density = 18.735286 Si / 1000 Ang^3
#
#
#
# Elastic Constant Matrix: (Units=GPa)
#
#
# Indices 1 2 3 4 5 6 
#
# 1 89.5441 17.5636 21.4663 0.0000 0.0000 0.0000
# 2 17.5636 61.9430 17.6149 0.0000 0.0000 0.0000
# 3 21.4663 17.6149 88.4522 0.0000 0.0000 0.0000
# 4 0.0000 0.0000 0.0000 25.5539 0.0000 0.0000
# 5 0.0000 0.0000 0.0000 0.0000 4.5244 0.0000
# 6 0.0000 0.0000 0.0000 0.0000 0.0000 12.6882
#
#
#
# Elastic Compliance Matrix: (Units=1/GPa)
#
#
# Indices 1 2 3 4 5 6 
#
# 1 0.012298 -0.002797 -0.002428 0.000000 0.000000 0.000000
# 2 -0.002797 0.017749 -0.002856 0.000000 0.000000 0.000000
# 3 -0.002428 -0.002856 0.012463 0.000000 0.000000 0.000000
# 4 0.000000 0.000000 0.000000 0.039133 0.000000 0.000000
# 5 0.000000 0.000000 0.000000 0.000000 0.221022 0.000000
# 6 0.000000 0.000000 0.000000 0.000000 0.000000 0.078814
#
#
# Mechanical properties :
#
#
# Convention : Reuss Voigt Hill
#
# Bulk Modulus (GPa) = 37.95059 39.24767 38.59913
# Shear Modulus (GPa) = 12.30245 20.77294 16.53769
#
# Velocity S-wave (km/s) = 2.56529 3.33342 2.97425
# Velocity P-wave (km/s) = 5.39207 5.98411 5.69579
#
# Compressibility (1/GPa) = 0.02635005
#
# Stress axis : x y z
#
# Youngs Moduli (GPa) = 81.31256 56.34116 80.23462
#
# Poissons Ratio (x) = 0.15757 0.19478
# Poissons Ratio (y) = 0.22741 0.22914
# Poissons Ratio (z) = 0.19740 0.16091
#
# Static dielectric constant tensor:
#      x y z
#    x 3.461700 0.000000 0.000000 
#    y 0.000000 3.379880 0.000000 
#    z 0.000000 0.000000 3.483240 
# 
# 
# High freq. dielectric constant tensor:
#      x y z
#    x 1.717780 0.000000 0.000000 
#    y 0.000000 1.730440 0.000000 
#    z 0.000000 0.000000 1.717170 
# 
# From -- ./inp_files/13888.got.cif
#   From: 2010.03.12/outbox.cif.g09.slc.cpg/sg22_7_cif.got.tgz:13888.got - 2010.04.14 02:24:06.
