data_PCOD8163943
_publ_section_title
;
Structure prediction by ZEFSAII (Michael W. Deem and Ramdas Pophale) SiO2 
 PCOD8163943
Probable space group: I 2 2 2
;
_chemical_formula_sum "Si O2"
_cell_formula_units_Z 38
_cell_length_a 7.101038
_cell_length_b 15.438649
_cell_length_c 16.054645
_cell_angle_alpha 90.000000
_cell_angle_beta 90.000000
_cell_angle_gamma 90.000000
_cell_volume 1760.077687
_symmetry_space_group_name_H-M "I 2 2 2"
_symmetry_group_IT_number 23
_symmetry_cell_setting 'orthorhombic'
loop_
_space_group_symop_operation_xyz
x,y,z
-x,-y,z
x,-y,-z
-x,y,-z
1/2+x,1/2+y,1/2+z
1/2-x,1/2-y,1/2+z
1/2+x,1/2-y,1/2-z
1/2-x,1/2+y,1/2-z
loop_
_atom_site_type_symbol
_atom_site_label
_atom_site_fract_x
_atom_site_fract_y
_atom_site_fract_z
Si Si1 0.089975 0.660449 0.318147
Si Si2 0.785782 0.758489 0.839611
Si Si3 0.045397 0.098807 0.096038
Si Si4 0.500000 0.500000 0.000000
Si Si5 0.159472 0.589278 0.070482
Si Si6 0.000000 0.500000 0.782725
O O1 0.930742 0.718650 0.362317
O O2 0.966680 0.584240 0.274230
O O3 0.206332 0.719460 0.253436
O O4 0.234985 0.619849 0.385038
O O5 0.864484 0.689320 0.905630
O O6 0.916023 0.842768 0.845225
O O7 0.000000 0.000000 0.119586
O O8 0.000000 0.117706 0.000000
O O9 0.369580 0.570435 0.043620
O O10 0.162155 0.526296 0.151824
O O11 0.000000 0.569133 0.000000
#
# Coordination Sequence:
#
# PCOD8163943 Si02
#       6
#     8   8   8   2   8   4
#     4  11  23  43  66 101 133 174 231 277 343 399
#     4  11  24  42  69  99 135 179 226 285 339 409
#     4  11  25  46  71  99 136 181 230 285 344 409
#     4  12  22  40  64  98 132 186 232 268 360 406
#     4  11  23  42  63  99 141 179 227 282 345 411
#     4  10  21  42  66  89 140 176 220 296 324 405
#
# _framework density 21.589956999999998
#
# number of rings (size 3 to 8) (size 9 to 14) (size 15 to 20)
#    0.000    1.053    4.211    1.895    0.000    5.895 
#    7.579    2.105    0.000    0.000    0.000    0.000 
#    0.000    0.000    0.000    0.000    0.000    0.000 
#
# Total GULP energy -235375.455607 kJ/mol
# GULP energy per Si atom -12388.181874 kJ/mol
# Density = 2.154082 g / cm^3
# Si number density = 21.589957 Si / 1000 Ang^3
#
#
#
# Elastic Constant Matrix: (Units=GPa)
#
#
# Indices 1 2 3 4 5 6 
#
# 1 147.3224 55.7918 40.0032 0.0000 0.0000 0.0000
# 2 55.7918 129.9673 51.6237 0.0000 0.0000 0.0000
# 3 40.0032 51.6237 90.9231 0.0000 0.0000 0.0000
# 4 0.0000 0.0000 0.0000 11.8588 0.0000 0.0000
# 5 0.0000 0.0000 0.0000 0.0000 28.1765 0.0000
# 6 0.0000 0.0000 0.0000 0.0000 0.0000 39.2881
#
#
#
# Elastic Compliance Matrix: (Units=1/GPa)
#
#
# Indices 1 2 3 4 5 6 
#
# 1 0.008414 -0.002765 -0.002132 0.000000 0.000000 0.000000
# 2 -0.002765 0.010843 -0.004940 0.000000 0.000000 0.000000
# 3 -0.002132 -0.004940 0.014741 0.000000 0.000000 0.000000
# 4 0.000000 0.000000 0.000000 0.084325 0.000000 0.000000
# 5 0.000000 0.000000 0.000000 0.000000 0.035491 0.000000
# 6 0.000000 0.000000 0.000000 0.000000 0.000000 0.025453
#
#
# Mechanical properties :
#
#
# Convention : Reuss Voigt Hill
#
# Bulk Modulus (GPa) = 69.81122 73.67223 71.74173
# Shear Modulus (GPa) = 24.54395 30.58430 27.56413
#
# Velocity S-wave (km/s) = 3.37534 3.76786 3.57698
# Velocity P-wave (km/s) = 6.89897 7.28879 7.09656
#
# Compressibility (1/GPa) = 0.01432435
#
# Stress axis : x y z
#
# Youngs Moduli (GPa) = 118.85148 92.22160 67.83747
#
# Poissons Ratio (x) = 0.25500 0.14462
# Poissons Ratio (y) = 0.32863 0.33512
# Poissons Ratio (z) = 0.25338 0.45558
#
# Static dielectric constant tensor:
#      x y z
#    x 3.699650 0.000000 0.000000 
#    y 0.000000 4.133910 0.000000 
#    z 0.000000 0.000000 3.780230 
# 
# 
# High freq. dielectric constant tensor:
#      x y z
#    x 1.841080 0.000000 0.000000 
#    y 0.000000 1.872050 0.000000 
#    z 0.000000 0.000000 1.834920 
# 
# From -- ./inp_files/23054.got.cif
#   From: 2010.03.12/outbox.cif.g09.slc.cpg/sg23_12_cif.got.tgz:23054.got - 2010.04.14 02:50:06.
