data_PCOD8163640
_publ_section_title
;
Structure prediction by ZEFSAII (Michael W. Deem and Ramdas Pophale) SiO2 
 PCOD8163640
Probable space group: I 2 2 2
;
_chemical_formula_sum "Si O2"
_cell_formula_units_Z 58
_cell_length_a 24.172097
_cell_length_b 8.763867
_cell_length_c 13.058945
_cell_angle_alpha 90.000000
_cell_angle_beta 90.000000
_cell_angle_gamma 90.000000
_cell_volume 2766.420532
_symmetry_space_group_name_H-M "I 2 2 2"
_symmetry_group_IT_number 23
_symmetry_cell_setting 'orthorhombic'
loop_
_space_group_symop_operation_xyz
x,y,z
-x,-y,z
x,-y,-z
-x,y,-z
1/2+x,1/2+y,1/2+z
1/2-x,1/2-y,1/2+z
1/2+x,1/2-y,1/2-z
1/2-x,1/2+y,1/2-z
loop_
_atom_site_type_symbol
_atom_site_label
_atom_site_fract_x
_atom_site_fract_y
_atom_site_fract_z
Si Si1 0.815689 0.820258 0.482805
Si Si2 0.090085 0.318583 0.996465
Si Si3 0.157501 0.350578 0.291620
Si Si4 0.564583 0.334518 0.712207
Si Si5 0.204586 0.647926 0.929067
Si Si6 0.059057 0.175937 0.192882
Si Si7 0.000000 0.500000 0.500000
Si Si8 0.897605 0.359301 0.389873
O O1 0.809294 0.771544 0.362931
O O2 0.762262 0.764187 0.549496
O O3 0.868712 0.722149 0.514924
O O4 0.827116 0.000000 0.500000
O O5 0.075159 0.271311 0.884028
O O6 0.085968 0.500000 0.000000
O O7 0.151506 0.259941 0.029134
O O8 0.049065 0.241305 0.078265
O O9 0.195853 0.387006 0.192014
O O10 0.098950 0.282111 0.257527
O O11 0.141474 0.503370 0.352151
O O12 0.584021 0.505711 0.687752
O O13 0.500608 0.327212 0.745869
O O14 0.600951 0.268026 0.802708
O O15 0.210888 0.500000 0.000000
O O16 0.040530 0.595985 0.425561
#
# Coordination Sequence:
#
# PCOD8163640 Si02
#       8
#     8   8   8   8   8   8   2   8
#     4  11  24  43  63  93 129 165 213 268 336 400
#     4  10  20  37  60  92 126 164 214 268 321 398
#     4  11  22  43  66  90 130 167 220 278 331 402
#     4  11  22  36  60  89 125 170 210 267 333 394
#     4   9  21  40  65  94 126 169 217 275 332 397
#     4  10  22  38  57  90 128 165 212 263 335 398
#     4  12  24  44  66  96 126 172 230 292 330 400
#     4  12  24  42  66  92 125 168 224 275 332 406
#
# _framework density 20.965720999999998
#
# number of rings (size 3 to 8) (size 9 to 14) (size 15 to 20)
#    0.000    1.379    1.379    4.966    0.000    6.621 
#    0.000    5.517    0.000    0.000    0.000    0.000 
#    0.000    0.000    0.000    0.000    0.000    0.000 
#
# Total GULP energy -359493.533246 kJ/mol
# GULP energy per Si atom -12396.328733 kJ/mol
# Density = 2.091800 g / cm^3
# Si number density = 20.965721 Si / 1000 Ang^3
#
#
#
# Elastic Constant Matrix: (Units=GPa)
#
#
# Indices 1 2 3 4 5 6 
#
# 1 78.2477 20.5526 29.9062 0.0000 0.0000 0.0000
# 2 20.5526 108.4041 51.9225 0.0000 0.0000 0.0000
# 3 29.9062 51.9225 126.3039 0.0000 0.0000 0.0000
# 4 0.0000 0.0000 0.0000 41.1251 0.0000 0.0000
# 5 0.0000 0.0000 0.0000 0.0000 28.5872 0.0000
# 6 0.0000 0.0000 0.0000 0.0000 0.0000 25.6955
#
#
#
# Elastic Compliance Matrix: (Units=1/GPa)
#
#
# Indices 1 2 3 4 5 6 
#
# 1 0.014208 -0.001348 -0.002810 0.000000 0.000000 0.000000
# 2 -0.001348 0.011614 -0.004455 0.000000 0.000000 0.000000
# 3 -0.002810 -0.004455 0.010414 0.000000 0.000000 0.000000
# 4 0.000000 0.000000 0.000000 0.024316 0.000000 0.000000
# 5 0.000000 0.000000 0.000000 0.000000 0.034981 0.000000
# 6 0.000000 0.000000 0.000000 0.000000 0.000000 0.038917
#
#
# Mechanical properties :
#
#
# Convention : Reuss Voigt Hill
#
# Bulk Modulus (GPa) = 52.60373 57.52424 55.06399
# Shear Modulus (GPa) = 31.64276 33.11984 32.38130
#
# Velocity S-wave (km/s) = 3.88914 3.97887 3.93426
# Velocity P-wave (km/s) = 6.73142 6.97176 6.85264
#
# Compressibility (1/GPa) = 0.01901006
#
# Stress axis : x y z
#
# Youngs Moduli (GPa) = 70.38316 86.10082 96.02113
#
# Poissons Ratio (x) = 0.11604 0.26983
# Poissons Ratio (y) = 0.09486 0.42781
# Poissons Ratio (z) = 0.19778 0.38362
#
# Static dielectric constant tensor:
#      x y z
#    x 4.084350 0.000000 0.000000 
#    y 0.000000 3.919150 0.000000 
#    z 0.000000 0.000000 3.866400 
# 
# 
# High freq. dielectric constant tensor:
#      x y z
#    x 1.820880 0.000000 0.000000 
#    y 0.000000 1.815680 0.000000 
#    z 0.000000 0.000000 1.831910 
# 
# From -- ./inp_files/18776.got.cif
#   From: 2010.03.12/outbox.cif.g09.slc.cpg/sg23_10_cif.got.tgz:18776.got - 2010.04.14 02:50:06.
