data_PCOD8163399
_publ_section_title
;
Structure prediction by ZEFSAII (Michael W. Deem and Ramdas Pophale) SiO2 
 PCOD8163399
Probable space group: I 2 2 2
;
_chemical_formula_sum "Si O2"
_cell_formula_units_Z 64
_cell_length_a 13.958386
_cell_length_b 10.206404
_cell_length_c 22.837867
_cell_angle_alpha 90.000000
_cell_angle_beta 90.000000
_cell_angle_gamma 90.000000
_cell_volume 3253.595048
_symmetry_space_group_name_H-M "I 2 2 2"
_symmetry_group_IT_number 23
_symmetry_cell_setting 'orthorhombic'
loop_
_space_group_symop_operation_xyz
x,y,z
-x,-y,z
x,-y,-z
-x,y,-z
1/2+x,1/2+y,1/2+z
1/2-x,1/2-y,1/2+z
1/2+x,1/2-y,1/2-z
1/2-x,1/2+y,1/2-z
loop_
_atom_site_type_symbol
_atom_site_label
_atom_site_fract_x
_atom_site_fract_y
_atom_site_fract_z
Si Si1 0.966115 0.636919 0.433822
Si Si2 0.300007 0.669004 0.198358
Si Si3 0.992626 0.150151 0.341832
Si Si4 0.994390 0.643850 0.096544
Si Si5 0.753671 0.695876 0.418976
Si Si6 0.848489 0.642473 0.003845
Si Si7 0.821964 0.112899 0.260279
Si Si8 0.923021 0.104046 0.141763
O O1 0.852346 0.621908 0.427235
O O2 0.000000 0.500000 0.406475
O O3 0.000000 0.654042 0.500000
O O4 0.008870 0.758807 0.398684
O O5 0.415560 0.683808 0.199098
O O6 0.259602 0.694683 0.132884
O O7 0.256401 0.777544 0.242779
O O8 0.270499 0.520621 0.216799
O O9 0.892963 0.174690 0.308360
O O10 0.000000 0.000000 0.363032
O O11 0.000000 0.500000 0.126796
O O12 0.065579 0.646067 0.042214
O O13 0.025586 0.753336 0.143067
O O14 0.888488 0.673385 0.069224
O O15 0.732514 0.756956 0.482866
O O16 0.667774 0.596956 0.402098
O O17 0.800228 0.500000 0.000000
O O18 0.888409 0.069008 0.206370
O O19 0.000000 0.000000 0.118865
#
# Coordination Sequence:
#
# PCOD8163399 Si02
#       8
#     8   8   8   8   8   8   8   8
#     4  10  22  42  59  77 108 147 191 246 295 336
#     4   9  19  36  58  83 112 148 187 231 290 344
#     4   9  19  38  61  83 109 147 189 239 288 337
#     4   8  15  30  52  75 111 152 183 211 264 336
#     4   9  19  37  56  79 112 149 187 237 284 338
#     4   8  14  30  52  76 107 146 181 226 273 320
#     4  10  20  37  58  82 118 149 186 240 286 339
#     4  10  19  34  55  86 121 151 178 224 283 350
#
# _framework density 19.670549000000001
#
# number of rings (size 3 to 8) (size 9 to 14) (size 15 to 20)
#    0.000    2.875    0.000    1.875    0.000    3.250 
#   11.250   15.000    0.000    0.000    0.000    0.000 
#    0.000    0.000    0.000    0.000    0.000    0.000 
#
# Total GULP energy -396601.957432 kJ/mol
# GULP energy per Si atom -12393.811170 kJ/mol
# Density = 1.962578 g / cm^3
# Si number density = 19.670549 Si / 1000 Ang^3
#
#
#
# Elastic Constant Matrix: (Units=GPa)
#
#
# Indices 1 2 3 4 5 6 
#
# 1 114.6045 74.4216 37.9866 0.0000 0.0000 0.0000
# 2 74.4216 129.7630 45.8105 0.0000 0.0000 0.0000
# 3 37.9866 45.8105 63.9356 0.0000 0.0000 0.0000
# 4 0.0000 0.0000 0.0000 26.4849 0.0000 0.0000
# 5 0.0000 0.0000 0.0000 0.0000 19.6205 0.0000
# 6 0.0000 0.0000 0.0000 0.0000 0.0000 33.5933
#
#
#
# Elastic Compliance Matrix: (Units=1/GPa)
#
#
# Indices 1 2 3 4 5 6 
#
# 1 0.014482 -0.007052 -0.003552 0.000000 0.000000 0.000000
# 2 -0.007052 0.013750 -0.005662 0.000000 0.000000 0.000000
# 3 -0.003552 -0.005662 0.021808 0.000000 0.000000 0.000000
# 4 0.000000 0.000000 0.000000 0.037757 0.000000 0.000000
# 5 0.000000 0.000000 0.000000 0.000000 0.050967 0.000000
# 6 0.000000 0.000000 0.000000 0.000000 0.000000 0.029768
#
#
# Mechanical properties :
#
#
# Convention : Reuss Voigt Hill
#
# Bulk Modulus (GPa) = 57.11499 69.41561 63.26530
# Shear Modulus (GPa) = 24.16634 25.94536 25.05585
#
# Velocity S-wave (km/s) = 3.50888 3.63574 3.57287
# Velocity P-wave (km/s) = 6.74649 7.27946 7.01803
#
# Compressibility (1/GPa) = 0.01750854
#
# Stress axis : x y z
#
# Youngs Moduli (GPa) = 69.04962 72.72902 45.85541
#
# Poissons Ratio (x) = 0.51289 0.16286
# Poissons Ratio (y) = 0.48694 0.25963
# Poissons Ratio (z) = 0.24524 0.41178
#
# Static dielectric constant tensor:
#      x y z
#    x 3.909030 0.000000 0.000000 
#    y 0.000000 3.725870 0.000000 
#    z 0.000000 0.000000 3.575410 
# 
# 
# High freq. dielectric constant tensor:
#      x y z
#    x 1.766220 0.000000 0.000000 
#    y 0.000000 1.760980 0.000000 
#    z 0.000000 0.000000 1.744760 
# 
# From -- ./inp_files/28555.got.cif
#   From: 2010.03.12/outbox.cif.g09.slc.cpg/sg23_15_cif.got.tgz:28555.got - 2010.04.14 02:50:06.
