data_PCOD8163228
_publ_section_title
;
Structure prediction by ZEFSAII (Michael W. Deem and Ramdas Pophale) SiO2 
 PCOD8163228
Probable space group: I 2 2 2
;
_chemical_formula_sum "Si O2"
_cell_formula_units_Z 58
_cell_length_a 23.586378
_cell_length_b 17.375234
_cell_length_c 8.951252
_cell_angle_alpha 90.000000
_cell_angle_beta 90.000000
_cell_angle_gamma 90.000000
_cell_volume 3668.391684
_symmetry_space_group_name_H-M "I 2 2 2"
_symmetry_group_IT_number 23
_symmetry_cell_setting 'orthorhombic'
loop_
_space_group_symop_operation_xyz
x,y,z
-x,-y,z
x,-y,-z
-x,y,-z
1/2+x,1/2+y,1/2+z
1/2-x,1/2-y,1/2+z
1/2+x,1/2-y,1/2-z
1/2-x,1/2+y,1/2-z
loop_
_atom_site_type_symbol
_atom_site_label
_atom_site_fract_x
_atom_site_fract_y
_atom_site_fract_z
Si Si1 0.678883 0.219968 0.160633
Si Si2 0.192623 0.165395 0.842978
Si Si3 0.398453 0.932385 0.661445
Si Si4 0.660224 0.807872 0.169533
Si Si5 0.500000 0.000000 0.500000
Si Si6 0.211557 0.134978 0.173616
Si Si7 0.840786 0.581595 0.146201
Si Si8 0.713042 0.476779 0.836702
O O1 0.742339 0.189417 0.161244
O O2 0.677786 0.307453 0.217440
O O3 0.645947 0.161719 0.270642
O O4 0.649450 0.220484 0.998898
O O5 0.155331 0.237008 0.785129
O O6 0.177890 0.093695 0.734771
O O7 0.180432 0.143210 0.014019
O O8 0.389750 0.868385 0.789141
O O9 0.356838 0.907522 0.526672
O O10 0.462700 0.942321 0.602880
O O11 0.379377 0.015898 0.723336
O O12 0.721756 0.847016 0.173596
O O13 0.205326 0.048106 0.226600
O O14 0.776696 0.553417 0.152152
O O15 0.689767 0.500000 0.000000
#
# Coordination Sequence:
#
# PCOD8163228 Si02
#       8
#     8   8   8   8   2   8   8   8
#     4   9  18  26  39  59  83 107 149 185 211 248
#     4   9  19  26  37  57  84 113 149 184 209 248
#     4  10  17  31  48  61  82 107 147 186 228 275
#     4  10  17  28  41  59  78 112 145 183 222 257
#     4   8  20  32  48  70  80 108 146 194 236 272
#     4  10  17  27  37  56  85 116 148 181 211 248
#     4   9  16  27  41  58  76 110 142 177 215 264
#     4  11  16  25  38  57  83 114 149 179 212 242
#
# _framework density 15.810743
#
# number of rings (size 3 to 8) (size 9 to 14) (size 15 to 20)
#    0.000    2.483    2.759    2.069    0.000    4.966 
#    0.000    0.000    0.000    6.621    0.000    0.000 
#    0.000    0.000    0.000   22.345    0.000   52.414 
#
# Total GULP energy -359411.750392 kJ/mol
# GULP energy per Si atom -12393.508634 kJ/mol
# Density = 1.577476 g / cm^3
# Si number density = 15.810743 Si / 1000 Ang^3
#
#
#
# Elastic Constant Matrix: (Units=GPa)
#
#
# Indices 1 2 3 4 5 6 
#
# 1 33.5065 17.0782 14.2269 0.0000 0.0000 0.0000
# 2 17.0782 79.8850 29.4021 0.0000 0.0000 0.0000
# 3 14.2269 29.4021 83.7460 0.0000 0.0000 0.0000
# 4 0.0000 0.0000 0.0000 33.3948 0.0000 0.0000
# 5 0.0000 0.0000 0.0000 0.0000 12.5587 0.0000
# 6 0.0000 0.0000 0.0000 0.0000 0.0000 10.1362
#
#
#
# Elastic Compliance Matrix: (Units=1/GPa)
#
#
# Indices 1 2 3 4 5 6 
#
# 1 0.034494 -0.005992 -0.003756 0.000000 0.000000 0.000000
# 2 -0.005992 0.015416 -0.004395 0.000000 0.000000 0.000000
# 3 -0.003756 -0.004395 0.014122 0.000000 0.000000 0.000000
# 4 0.000000 0.000000 0.000000 0.029945 0.000000 0.000000
# 5 0.000000 0.000000 0.000000 0.000000 0.079626 0.000000
# 6 0.000000 0.000000 0.000000 0.000000 0.000000 0.098656
#
#
# Mechanical properties :
#
#
# Convention : Reuss Voigt Hill
#
# Bulk Modulus (GPa) = 27.97442 35.39463 31.68452
# Shear Modulus (GPa) = 16.00204 20.31329 18.15767
#
# Velocity S-wave (km/s) = 3.18480 3.58827 3.39254
# Velocity P-wave (km/s) = 5.59068 6.29306 5.95224
#
# Compressibility (1/GPa) = 0.03574695
#
# Stress axis : x y z
#
# Youngs Moduli (GPa) = 28.99064 64.86598 70.81213
#
# Poissons Ratio (x) = 0.38866 0.26599
# Poissons Ratio (y) = 0.17370 0.31119
# Poissons Ratio (z) = 0.10890 0.28506
#
# Static dielectric constant tensor:
#      x y z
#    x 2.399990 0.000000 0.000000 
#    y 0.000000 3.220150 0.000000 
#    z 0.000000 0.000000 3.220930 
# 
# 
# High freq. dielectric constant tensor:
#      x y z
#    x 1.519420 0.000000 0.000000 
#    y 0.000000 1.620870 0.000000 
#    z 0.000000 0.000000 1.617460 
# 
# From -- ./inp_files/10406.got.cif
#   From: 2010.03.12/outbox.cif.g09.slc.cpg/sg23_6_cif.got.tgz:10406.got - 2010.04.14 02:50:06.
