data_PCOD8163701
_publ_section_title
;
Structure prediction by ZEFSAII (Michael W. Deem and Ramdas Pophale) SiO2 
 PCOD8163701
Probable space group: I 2 2 2
;
_chemical_formula_sum "Si O2"
_cell_formula_units_Z 30
_cell_length_a 9.447105
_cell_length_b 7.552816
_cell_length_c 21.756239
_cell_angle_alpha 90.000000
_cell_angle_beta 90.000000
_cell_angle_gamma 90.000000
_cell_volume 1552.356513
_symmetry_space_group_name_H-M "I 2 2 2"
_symmetry_group_IT_number 23
_symmetry_cell_setting 'orthorhombic'
loop_
_space_group_symop_operation_xyz
x,y,z
-x,-y,z
x,-y,-z
-x,y,-z
1/2+x,1/2+y,1/2+z
1/2-x,1/2-y,1/2+z
1/2+x,1/2-y,1/2-z
1/2-x,1/2+y,1/2-z
loop_
_atom_site_type_symbol
_atom_site_label
_atom_site_fract_x
_atom_site_fract_y
_atom_site_fract_z
Si Si1 0.706931 0.373384 0.598299
Si Si2 0.000000 0.500000 0.612851
Si Si3 0.500000 0.500000 0.500000
Si Si4 0.224113 0.671829 0.316818
Si Si5 0.660965 0.949784 0.315299
O O1 0.871328 0.405255 0.574916
O O2 0.600795 0.376939 0.541088
O O3 0.673116 0.530406 0.647750
O O4 0.683353 0.182925 0.628380
O O5 0.935484 0.649280 0.658144
O O6 0.233432 0.637884 0.244196
O O7 0.264029 0.869579 0.334005
O O8 0.500000 0.000000 0.301754
#
# Coordination Sequence:
#
# PCOD8163701 Si02
#       5
#     8   4   2   8   8
#     4  10  23  42  62  98 130 176 229 269 333 396
#     4   8  20  43  60  98 120 171 220 270 342 382
#     4  12  24  46  70  92 140 192 220 270 334 406
#     4  10  20  39  61  99 133 168 221 273 348 392
#     4  12  21  37  63  99 138 175 219 284 340 400
#
# _framework density 19.325458000000001
#
# number of rings (size 3 to 8) (size 9 to 14) (size 15 to 20)
#    1.600    0.000    4.000    1.600    0.000    1.600 
#    0.000    6.000    0.000    0.000   13.867    0.000 
#    0.000    0.000    0.000    0.000    0.000    0.000 
#
# Total GULP energy -185844.405974 kJ/mol
# GULP energy per Si atom -12389.627065 kJ/mol
# Density = 1.928147 g / cm^3
# Si number density = 19.325458 Si / 1000 Ang^3
#
#
#
# Elastic Constant Matrix: (Units=GPa)
#
#
# Indices 1 2 3 4 5 6 
#
# 1 106.4720 52.8365 57.5365 0.0000 0.0000 0.0000
# 2 52.8365 166.5158 55.0194 0.0000 0.0000 0.0000
# 3 57.5365 55.0194 87.1641 0.0000 0.0000 0.0000
# 4 0.0000 0.0000 0.0000 11.2622 0.0000 0.0000
# 5 0.0000 0.0000 0.0000 0.0000 40.5710 0.0000
# 6 0.0000 0.0000 0.0000 0.0000 0.0000 31.9865
#
#
#
# Elastic Compliance Matrix: (Units=1/GPa)
#
#
# Indices 1 2 3 4 5 6 
#
# 1 0.015055 -0.001887 -0.008747 0.000000 0.000000 0.000000
# 2 -0.001887 0.007825 -0.003693 0.000000 0.000000 0.000000
# 3 -0.008747 -0.003693 0.019578 0.000000 0.000000 0.000000
# 4 0.000000 0.000000 0.000000 0.088792 0.000000 0.000000
# 5 0.000000 0.000000 0.000000 0.000000 0.024648 0.000000
# 6 0.000000 0.000000 0.000000 0.000000 0.000000 0.031263
#
#
# Mechanical properties :
#
#
# Convention : Reuss Voigt Hill
#
# Bulk Modulus (GPa) = 72.44752 76.77073 74.60913
# Shear Modulus (GPa) = 22.68436 29.74793 26.21615
#
# Velocity S-wave (km/s) = 3.42980 3.92766 3.68715
# Velocity P-wave (km/s) = 7.29755 7.77047 7.53772
#
# Compressibility (1/GPa) = 0.01380309
#
# Stress axis : x y z
#
# Youngs Moduli (GPa) = 66.42208 127.80287 51.07892
#
# Poissons Ratio (x) = 0.24117 0.44677
# Poissons Ratio (y) = 0.12534 0.18865
# Poissons Ratio (z) = 0.58097 0.47202
#
# Static dielectric constant tensor:
#      x y z
#    x 7.212420 0.000000 0.000000 
#    y 0.000000 3.323330 0.000000 
#    z 0.000000 0.000000 3.199490 
# 
# 
# High freq. dielectric constant tensor:
#      x y z
#    x 1.758310 0.000000 0.000000 
#    y 0.000000 1.746440 0.000000 
#    z 0.000000 0.000000 1.726450 
# 
# From -- ./inp_files/12367.got.cif
#   From: 2010.03.12/outbox.cif.g09.slc.cpg/sg23_7_cif.got.tgz:12367.got - 2010.04.14 02:50:06.
