data_PCOD8163721
_publ_section_title
;
Structure prediction by ZEFSAII (Michael W. Deem and Ramdas Pophale) SiO2 
 PCOD8163721
Probable space group: I 2 2 2
;
_chemical_formula_sum "Si O2"
_cell_formula_units_Z 58
_cell_length_a 19.274784
_cell_length_b 16.730099
_cell_length_c 8.984442
_cell_angle_alpha 90.000000
_cell_angle_beta 90.000000
_cell_angle_gamma 90.000000
_cell_volume 2897.204427
_symmetry_space_group_name_H-M "I 2 2 2"
_symmetry_group_IT_number 23
_symmetry_cell_setting 'orthorhombic'
loop_
_space_group_symop_operation_xyz
x,y,z
-x,-y,z
x,-y,-z
-x,y,-z
1/2+x,1/2+y,1/2+z
1/2-x,1/2-y,1/2+z
1/2+x,1/2-y,1/2-z
1/2-x,1/2+y,1/2-z
loop_
_atom_site_type_symbol
_atom_site_label
_atom_site_fract_x
_atom_site_fract_y
_atom_site_fract_z
Si Si1 0.311742 0.150981 0.636984
Si Si2 0.192712 0.500790 0.326973
Si Si3 0.399559 0.691739 0.375121
Si Si4 0.652635 0.618635 0.110828
Si Si5 0.895054 0.389334 0.155958
Si Si6 0.336194 0.448281 0.789852
Si Si7 0.000000 0.500000 0.000000
Si Si8 0.554239 0.718397 0.296868
O O1 0.332504 0.085110 0.762118
O O2 0.346638 0.237040 0.673396
O O3 0.228091 0.157078 0.645981
O O4 0.337923 0.123527 0.474310
O O5 0.212070 0.500000 0.500000
O O6 0.134824 0.567503 0.301426
O O7 0.255520 0.535209 0.230363
O O8 0.367933 0.604388 0.342446
O O9 0.472142 0.702781 0.289213
O O10 0.411465 0.687851 0.550829
O O11 0.632474 0.537354 0.199477
O O12 0.592285 0.679330 0.156154
O O13 0.649394 0.603145 0.936399
O O14 0.932564 0.311505 0.214940
O O15 0.955498 0.444520 0.102318
#
# Coordination Sequence:
#
# PCOD8163721 Si02
#       8
#     8   8   8   8   8   8   2   8
#     4  10  20  40  63  90 128 164 209 265 312 384
#     4  11  23  38  61  97 128 158 210 268 320 377
#     4  10  23  40  62  90 128 166 212 259 326 377
#     4  10  22  40  64  91 124 164 217 267 314 383
#     4  11  21  40  67  94 126 171 217 248 319 394
#     4  10  23  41  63  91 120 166 213 262 329 384
#     4  12  20  36  78  88 128 190 212 252 312 396
#     4  10  24  41  61  95 126 165 216 264 309 391
#
# _framework density 20.019297999999999
#
# number of rings (size 3 to 8) (size 9 to 14) (size 15 to 20)
#    0.000    1.655    2.759    1.655    5.793    2.207 
#    0.000    3.103    0.000    0.000    0.000    0.000 
#    0.000    0.000    0.000    0.000    0.000    0.000 
#
# Total GULP energy -359477.552140 kJ/mol
# GULP energy per Si atom -12395.777660 kJ/mol
# Density = 1.997373 g / cm^3
# Si number density = 20.019298 Si / 1000 Ang^3
#
#
#
# Elastic Constant Matrix: (Units=GPa)
#
#
# Indices 1 2 3 4 5 6 
#
# 1 79.2558 42.3103 19.4092 0.0000 0.0000 0.0000
# 2 42.3103 111.2408 35.0094 0.0000 0.0000 0.0000
# 3 19.4092 35.0094 55.2779 0.0000 0.0000 0.0000
# 4 0.0000 0.0000 0.0000 38.5164 0.0000 0.0000
# 5 0.0000 0.0000 0.0000 0.0000 20.9730 0.0000
# 6 0.0000 0.0000 0.0000 0.0000 0.0000 28.1450
#
#
#
# Elastic Compliance Matrix: (Units=1/GPa)
#
#
# Indices 1 2 3 4 5 6 
#
# 1 0.016045 -0.005408 -0.002209 0.000000 0.000000 0.000000
# 2 -0.005408 0.013050 -0.006366 0.000000 0.000000 0.000000
# 3 -0.002209 -0.006366 0.022898 0.000000 0.000000 0.000000
# 4 0.000000 0.000000 0.000000 0.025963 0.000000 0.000000
# 5 0.000000 0.000000 0.000000 0.000000 0.047680 0.000000
# 6 0.000000 0.000000 0.000000 0.000000 0.000000 0.035530
#
#
# Mechanical properties :
#
#
# Convention : Reuss Voigt Hill
#
# Bulk Modulus (GPa) = 41.61907 48.80357 45.21132
# Shear Modulus (GPa) = 25.36255 27.46326 26.41291
#
# Velocity S-wave (km/s) = 3.56322 3.70785 3.63626
# Velocity P-wave (km/s) = 6.14519 6.53927 6.34529
#
# Compressibility (1/GPa) = 0.02402745
#
# Stress axis : x y z
#
# Youngs Moduli (GPa) = 62.32430 76.62953 43.67203
#
# Poissons Ratio (x) = 0.41438 0.09647
# Poissons Ratio (y) = 0.33702 0.27802
# Poissons Ratio (z) = 0.13767 0.48784
#
# Static dielectric constant tensor:
#      x y z
#    x 3.583210 0.000000 0.000000 
#    y 0.000000 3.846890 0.000000 
#    z 0.000000 0.000000 3.410180 
# 
# 
# High freq. dielectric constant tensor:
#      x y z
#    x 1.781270 0.000000 0.000000 
#    y 0.000000 1.793250 0.000000 
#    z 0.000000 0.000000 1.765540 
# 
# From -- ./inp_files/11275.got.cif
#   From: 2010.03.12/outbox.cif.g09.slc.cpg/sg23_6_cif.got.tgz:11275.got - 2010.04.14 02:50:06.
