data_PCOD8163125
_publ_section_title
;
Structure prediction by ZEFSAII (Michael W. Deem and Ramdas Pophale) SiO2 
 PCOD8163125
Probable space group: F 2 2 2
;
_chemical_formula_sum "Si O2"
_cell_formula_units_Z 68
_cell_length_a 10.254848
_cell_length_b 20.652390
_cell_length_c 14.686095
_cell_angle_alpha 90.000000
_cell_angle_beta 90.000000
_cell_angle_gamma 90.000000
_cell_volume 3110.325768
_symmetry_space_group_name_H-M "F 2 2 2"
_symmetry_group_IT_number 22
_symmetry_cell_setting 'orthorhombic'
loop_
_space_group_symop_operation_xyz
x,y,z
-x,-y,z
x,-y,-z
-x,y,-z
x,1/2+y,1/2+z
-x,1/2-y,1/2+z
x,1/2-y,1/2-z
-x,1/2+y,1/2-z
1/2+x,y,1/2+z
1/2-x,-y,1/2+z
1/2+x,-y,1/2-z
1/2-x,y,1/2-z
1/2+x,1/2+y,z
1/2-x,1/2-y,z
1/2+x,1/2-y,-z
1/2-x,1/2+y,-z
loop_
_atom_site_type_symbol
_atom_site_label
_atom_site_fract_x
_atom_site_fract_y
_atom_site_fract_z
Si Si1 0.898695 0.820025 0.269376
Si Si2 0.500000 0.500000 0.500000
Si Si3 0.809571 0.408713 0.106963
Si Si4 0.634761 0.799001 0.032346
Si Si5 0.560568 0.929271 0.706351
O O1 0.967866 0.750000 0.250000
O O2 0.750000 0.811767 0.250000
O O3 0.909377 0.839109 0.377061
O O4 0.947454 0.875307 0.198425
O O5 0.401959 0.460801 0.561952
O O6 0.657913 0.431768 0.119216
O O7 0.863395 0.399024 0.207809
O O8 0.809195 0.344341 0.046823
O O9 0.750000 0.750000 0.058628
O O10 0.500000 0.764273 0.000000
O O11 0.500000 0.000000 0.722571
#
# Coordination Sequence:
#
# PCOD8163125 Si02
#       5
#    16   4  16  16  16
#     4  11  24  46  71 101 142 194 234 292 374 434
#     4  12  20  48  70 100 140 186 236 276 380 428
#     4  11  25  41  72 101 138 190 232 297 357 433
#     4  12  25  46  70 106 141 187 243 296 365 436
#     4  11  25  44  68 109 142 186 244 300 361 427
#
# _framework density 21.862660999999999
#
# number of rings (size 3 to 8) (size 9 to 14) (size 15 to 20)
#    0.000    0.706    7.059    0.000    6.588    0.000 
#    0.000    5.294    0.000    0.000    0.000    0.000 
#    0.000    0.000    0.000    0.000    0.000    0.000 
#
# Total GULP energy -210603.397046 kJ/mol
# GULP energy per Si atom -12388.435120 kJ/mol
# Density = 2.181290 g / cm^3
# Si number density = 21.862661 Si / 1000 Ang^3
#
#
#
# Elastic Constant Matrix: (Units=GPa)
#
#
# Indices 1 2 3 4 5 6 
#
# 1 119.2863 55.7283 44.7944 0.0000 0.0000 0.0000
# 2 55.7283 141.1200 28.9679 0.0000 0.0000 0.0000
# 3 44.7944 28.9679 97.8149 0.0000 0.0000 0.0000
# 4 0.0000 0.0000 0.0000 34.1571 0.0000 0.0000
# 5 0.0000 0.0000 0.0000 0.0000 51.6027 0.0000
# 6 0.0000 0.0000 0.0000 0.0000 0.0000 23.7240
#
#
#
# Elastic Compliance Matrix: (Units=1/GPa)
#
#
# Indices 1 2 3 4 5 6 
#
# 1 0.011741 -0.003762 -0.004263 0.000000 0.000000 0.000000
# 2 -0.003762 0.008750 -0.000869 0.000000 0.000000 0.000000
# 3 -0.004263 -0.000869 0.012433 0.000000 0.000000 0.000000
# 4 0.000000 0.000000 0.000000 0.029277 0.000000 0.000000
# 5 0.000000 0.000000 0.000000 0.000000 0.019379 0.000000
# 6 0.000000 0.000000 0.000000 0.000000 0.000000 0.042151
#
#
# Mechanical properties :
#
#
# Convention : Reuss Voigt Hill
#
# Bulk Modulus (GPa) = 66.06020 68.57804 67.31912
# Shear Modulus (GPa) = 34.11497 37.14548 35.63023
#
# Velocity S-wave (km/s) = 3.95450 4.12641 4.04137
# Velocity P-wave (km/s) = 7.15069 7.35790 7.25504
#
# Compressibility (1/GPa) = 0.01513771
#
# Stress axis : x y z
#
# Youngs Moduli (GPa) = 85.16893 114.28649 80.43197
#
# Poissons Ratio (x) = 0.42990 0.34288
# Poissons Ratio (y) = 0.32037 0.06987
# Poissons Ratio (z) = 0.36307 0.09928
#
# Static dielectric constant tensor:
#      x y z
#    x 4.360400 0.000000 0.000000 
#    y 0.000000 3.500270 0.000000 
#    z 0.000000 0.000000 4.192990 
# 
# 
# High freq. dielectric constant tensor:
#      x y z
#    x 1.875710 0.000000 0.000000 
#    y 0.000000 1.844430 0.000000 
#    z 0.000000 0.000000 1.862090 
# 
# From -- ./inp_files/19637.got.cif
#   From: 2010.03.12/outbox.cif.g09.slc.cpg/sg22_10_cif.got.tgz:19637.got - 2010.04.14 02:24:06.
