data_PCOD8163115
_publ_section_title
;
Structure prediction by ZEFSAII (Michael W. Deem and Ramdas Pophale) SiO2 
 PCOD8163115
Probable space group: F 2 2 2
;
_chemical_formula_sum "Si O2"
_cell_formula_units_Z 116
_cell_length_a 28.355272
_cell_length_b 20.836942
_cell_length_c 9.107160
_cell_angle_alpha 90.000000
_cell_angle_beta 90.000000
_cell_angle_gamma 90.000000
_cell_volume 5380.848532
_symmetry_space_group_name_H-M "F 2 2 2"
_symmetry_group_IT_number 22
_symmetry_cell_setting 'orthorhombic'
loop_
_space_group_symop_operation_xyz
x,y,z
-x,-y,z
x,-y,-z
-x,y,-z
x,1/2+y,1/2+z
-x,1/2-y,1/2+z
x,1/2-y,1/2-z
-x,1/2+y,1/2-z
1/2+x,y,1/2+z
1/2-x,-y,1/2+z
1/2+x,-y,1/2-z
1/2-x,y,1/2-z
1/2+x,1/2+y,z
1/2-x,1/2-y,z
1/2+x,1/2-y,-z
1/2-x,1/2+y,-z
loop_
_atom_site_type_symbol
_atom_site_label
_atom_site_fract_x
_atom_site_fract_y
_atom_site_fract_z
Si Si1 0.954051 0.744172 0.422912
Si Si2 0.901232 0.136676 0.070243
Si Si3 0.327119 0.352131 0.682617
Si Si4 0.116778 0.559221 0.703999
Si Si5 0.546531 0.454400 0.261419
Si Si6 0.913019 0.875026 0.484911
Si Si7 0.750000 0.250000 0.250000
Si Si8 0.795698 0.006446 0.328666
O O1 0.959941 0.750000 0.250000
O O2 0.912666 0.695930 0.464717
O O3 0.944474 0.812287 0.498748
O O4 0.000000 0.715880 0.500000
O O5 0.877684 0.085771 0.959640
O O6 0.862300 0.163847 0.183000
O O7 0.948623 0.108600 0.154496
O O8 0.359686 0.360489 0.538445
O O9 0.286011 0.297508 0.660152
O O10 0.304025 0.420317 0.718908
O O11 0.089563 0.492787 0.693506
O O12 0.087939 0.605731 0.814084
O O13 0.166301 0.544427 0.775745
O O14 0.500000 0.500000 0.252566
O O15 0.559411 0.431798 0.426810
O O16 0.750000 0.980207 0.250000
O O17 0.789911 0.000000 0.500000
#
# Coordination Sequence:
#
# PCOD8163115 Si02
#       8
#    16  16  16  16  16  16   4  16
#     4  12  29  47  67  97 134 187 246 284 337 406
#     4  11  26  45  70 100 142 184 225 292 347 400
#     4  11  24  44  71 102 133 180 229 280 350 417
#     4  12  23  44  68 101 143 178 223 286 346 419
#     4  11  26  40  70 107 141 182 232 281 345 417
#     4  11  24  47  70  95 143 185 227 286 344 407
#     4  12  24  44  76  98 128 176 244 284 336 420
#     4  12  25  43  69 104 141 176 226 280 355 426
#
# _framework density 21.557938
#
# number of rings (size 3 to 8) (size 9 to 14) (size 15 to 20)
#    0.000    0.552    6.207    1.655    9.655    1.103 
#    0.000    0.000    0.000    0.828    0.000    0.000 
#    0.000    0.000    0.000    0.000    0.000    0.000 
#
# Total GULP energy -359401.815413 kJ/mol
# GULP energy per Si atom -12393.166049 kJ/mol
# Density = 2.150887 g / cm^3
# Si number density = 21.557938 Si / 1000 Ang^3
#
#
#
# Elastic Constant Matrix: (Units=GPa)
#
#
# Indices 1 2 3 4 5 6 
#
# 1 104.9099 33.8904 49.6114 -0.0016 0.0000 0.0001
# 2 33.8904 86.5524 20.6094 -0.0014 -0.0001 0.0000
# 3 49.6114 20.6094 89.5724 -0.0026 -0.0002 -0.0002
# 4 -0.0016 -0.0014 -0.0026 199.7503 0.0008 0.0012
# 5 0.0000 -0.0001 -0.0002 0.0008 32.0285 0.0000
# 6 0.0001 0.0000 -0.0002 0.0012 0.0000 46.8865
#
#
#
# Elastic Compliance Matrix: (Units=1/GPa)
#
#
# Indices 1 2 3 4 5 6 
#
# 1 0.014034 -0.003855 -0.006886 0.000000 0.000000 0.000000
# 2 -0.003855 0.013283 -0.000921 0.000000 0.000000 0.000000
# 3 -0.006886 -0.000921 0.015190 0.000000 0.000000 0.000000
# 4 0.000000 0.000000 0.000000 0.005006 0.000000 0.000000
# 5 0.000000 0.000000 0.000000 0.000000 0.031222 0.000000
# 6 0.000000 0.000000 0.000000 0.000000 0.000000 0.021328
#
#
# Mechanical properties :
#
#
# Convention : Reuss Voigt Hill
#
# Bulk Modulus (GPa) = 52.13155 54.36190 53.24672
# Shear Modulus (GPa) = 38.52660 67.52797 53.02728
#
# Velocity S-wave (km/s) = 4.23202 5.60285 4.96497
# Velocity P-wave (km/s) = 6.93646 8.19313 7.59085
#
# Compressibility (1/GPa) = 0.01918224
#
# Stress axis : x y z
#
# Youngs Moduli (GPa) = 71.25703 75.28673 65.83362
#
# Poissons Ratio (x) = 0.29026 0.45331
# Poissons Ratio (y) = 0.27473 0.06061
# Poissons Ratio (z) = 0.49066 0.06932
#
# Static dielectric constant tensor:
#      x y z
#    x -1.387960 0.000000 0.000090 
#    y 0.000000 4.049590 0.000000 
#    z 0.000090 0.000000 3.524560 
# 
# 
# High freq. dielectric constant tensor:
#      x y z
#    x 1.838720 0.000000 0.000000 
#    y 0.000000 1.858280 0.000000 
#    z 0.000000 0.000000 1.847780 
# 
# From -- ./inp_files/14979.got.cif
#   From: 2010.03.12/outbox.cif.g09.slc.cpg/sg22_8_cif.got.tgz:14979.got - 2010.04.14 02:24:06.
