data_PCOD8163107
_publ_section_title
;
Structure prediction by ZEFSAII (Michael W. Deem and Ramdas Pophale) SiO2 
 PCOD8163107
Probable space group: F 2 2 2
;
_chemical_formula_sum "Si O2"
_cell_formula_units_Z 100
_cell_length_a 13.556069
_cell_length_b 11.369543
_cell_length_c 31.036599
_cell_angle_alpha 90.000000
_cell_angle_beta 90.000000
_cell_angle_gamma 90.000000
_cell_volume 4783.556460
_symmetry_space_group_name_H-M "F 2 2 2"
_symmetry_group_IT_number 22
_symmetry_cell_setting 'orthorhombic'
loop_
_space_group_symop_operation_xyz
x,y,z
-x,-y,z
x,-y,-z
-x,y,-z
x,1/2+y,1/2+z
-x,1/2-y,1/2+z
x,1/2-y,1/2-z
-x,1/2+y,1/2-z
1/2+x,y,1/2+z
1/2-x,-y,1/2+z
1/2+x,-y,1/2-z
1/2-x,y,1/2-z
1/2+x,1/2+y,z
1/2-x,1/2-y,z
1/2+x,1/2-y,-z
1/2-x,1/2+y,-z
loop_
_atom_site_type_symbol
_atom_site_label
_atom_site_fract_x
_atom_site_fract_y
_atom_site_fract_z
Si Si1 0.134649 0.617728 0.244537
Si Si2 0.625467 0.831237 0.447091
Si Si3 0.750000 0.750000 0.980752
Si Si4 0.595572 0.074083 0.148395
Si Si5 0.777729 0.044893 0.086956
Si Si6 0.000000 0.000000 0.000000
Si Si7 0.530612 0.677526 0.878769
Si Si8 0.000000 0.000000 0.810480
O O1 0.090365 0.750000 0.250000
O O2 0.250000 0.623911 0.250000
O O3 0.108366 0.557424 0.199285
O O4 0.093529 0.531742 0.281305
O O5 0.657642 0.743875 0.485703
O O6 0.566822 0.933501 0.467979
O O7 0.550685 0.773315 0.412754
O O8 0.716255 0.906010 0.426248
O O9 0.745005 0.867930 0.952054
O O10 0.695084 0.038560 0.123727
O O11 0.585222 0.211418 0.140133
O O12 0.500000 0.000000 0.132718
O O13 0.884442 0.090583 0.103096
O O14 0.471888 0.610485 0.840905
#
# Coordination Sequence:
#
# PCOD8163107 Si02
#       8
#    16  16   8  16  16   4  16   8
#     4  11  24  41  70 102 133 176 223 273 334 409
#     4  12  24  40  66  99 130 174 229 288 334 400
#     4  12  24  40  66  96 139 173 224 276 344 398
#     4  12  27  44  64  99 143 174 217 282 351 404
#     4  12  23  45  67  95 130 179 228 282 333 410
#     4  12  18  40  64  88 124 160 228 288 324 376
#     4  12  23  43  71  98 128 180 235 282 330 401
#     4  12  21  42  72 103 128 174 227 280 326 397
#
# _framework density 20.904948999999998
#
# number of rings (size 3 to 8) (size 9 to 14) (size 15 to 20)
#    0.000    0.160    8.800    0.960    4.480    0.000 
#    0.000    0.000    0.000    3.360    0.000    0.000 
#    0.000    0.000    0.000    0.000    0.000    0.000 
#
# Total GULP energy -309790.236769 kJ/mol
# GULP energy per Si atom -12391.609471 kJ/mol
# Density = 2.085737 g / cm^3
# Si number density = 20.904949 Si / 1000 Ang^3
#
#
#
# Elastic Constant Matrix: (Units=GPa)
#
#
# Indices 1 2 3 4 5 6 
#
# 1 99.7711 15.0428 49.9727 0.0000 0.0000 0.0000
# 2 15.0428 39.2755 15.3820 0.0000 0.0000 0.0000
# 3 49.9727 15.3820 132.1830 0.0000 0.0000 0.0000
# 4 0.0000 0.0000 0.0000 78.3727 0.0000 0.0000
# 5 0.0000 0.0000 0.0000 0.0000 43.6967 0.0000
# 6 0.0000 0.0000 0.0000 0.0000 0.0000 33.3831
#
#
#
# Elastic Compliance Matrix: (Units=1/GPa)
#
#
# Indices 1 2 3 4 5 6 
#
# 1 0.012721 -0.003132 -0.004445 0.000000 0.000000 0.000000
# 2 -0.003132 0.027448 -0.002010 0.000000 0.000000 0.000000
# 3 -0.004445 -0.002010 0.009480 0.000000 0.000000 0.000000
# 4 0.000000 0.000000 0.000000 0.012760 0.000000 0.000000
# 5 0.000000 0.000000 0.000000 0.000000 0.022885 0.000000
# 6 0.000000 0.000000 0.000000 0.000000 0.000000 0.029955
#
#
# Mechanical properties :
#
#
# Convention : Reuss Voigt Hill
#
# Bulk Modulus (GPa) = 32.81323 48.00272 40.40798
# Shear Modulus (GPa) = 34.58272 43.81265 39.19769
#
# Velocity S-wave (km/s) = 4.07170 4.58296 4.33487
# Velocity P-wave (km/s) = 6.15105 7.14261 6.66530
#
# Compressibility (1/GPa) = 0.03047551
#
# Stress axis : x y z
#
# Youngs Moduli (GPa) = 78.60710 36.43269 105.48896
#
# Poissons Ratio (x) = 0.11409 0.46890
# Poissons Ratio (y) = 0.24616 0.21205
# Poissons Ratio (z) = 0.34941 0.07324
#
# Static dielectric constant tensor:
#      x y z
#    x 4.048370 0.000000 0.000000 
#    y 0.000000 3.897740 0.000000 
#    z 0.000000 0.000000 4.274440 
# 
# 
# High freq. dielectric constant tensor:
#      x y z
#    x 1.816400 0.000000 0.000000 
#    y 0.000000 1.803430 0.000000 
#    z 0.000000 0.000000 1.841330 
# 
# From -- ./inp_files/56445.got.cif
#   From: 2010.03.12/outbox.cif.g09.slc.cpg/sg22_29_cif.got.tgz:56445.got - 2010.04.14 02:24:06.
