data_PCOD8163872
_publ_section_title
;
Structure prediction by ZEFSAII (Michael W. Deem and Ramdas Pophale) SiO2 
 PCOD8163872
Probable space group: I 2 2 2
;
_chemical_formula_sum "Si O2"
_cell_formula_units_Z 48
_cell_length_a 27.634339
_cell_length_b 10.408113
_cell_length_c 8.441255
_cell_angle_alpha 90.000000
_cell_angle_beta 90.000000
_cell_angle_gamma 90.000000
_cell_volume 2427.884931
_symmetry_space_group_name_H-M "I 2 2 2"
_symmetry_group_IT_number 23
_symmetry_cell_setting 'orthorhombic'
loop_
_space_group_symop_operation_xyz
x,y,z
-x,-y,z
x,-y,-z
-x,y,-z
1/2+x,1/2+y,1/2+z
1/2-x,1/2-y,1/2+z
1/2+x,1/2-y,1/2-z
1/2-x,1/2+y,1/2-z
loop_
_atom_site_type_symbol
_atom_site_label
_atom_site_fract_x
_atom_site_fract_y
_atom_site_fract_z
Si Si1 0.793799 0.868648 0.409295
Si Si2 0.512997 0.362264 0.318830
Si Si3 0.777576 0.383698 0.378782
Si Si4 0.872225 0.505501 0.684080
Si Si5 0.893548 0.227265 0.674612
Si Si6 0.543177 0.830245 0.104625
O O1 0.783876 0.746442 0.520925
O O2 0.765075 0.860944 0.245070
O O3 0.850066 0.869764 0.359195
O O4 0.781152 0.000000 0.500000
O O5 0.500000 0.500000 0.245506
O O6 0.500000 0.355225 0.500000
O O7 0.570052 0.337237 0.298919
O O8 0.480194 0.260729 0.231637
O O9 0.764778 0.500000 0.500000
O O10 0.824932 0.413047 0.263675
O O11 0.860765 0.500000 0.500000
O O12 0.873845 0.360977 0.752914
O O13 0.925632 0.566914 0.706283
O O14 0.920725 0.253289 0.509259
O O15 0.500000 0.894455 0.000000
#
# Coordination Sequence:
#
# PCOD8163872 Si02
#       6
#     8   8   8   8   8   8
#     4  12  25  40  69 100 128 171 230 273 340 399
#     4  10  23  40  56  85 131 162 200 266 334 386
#     4  11  22  46  64  93 138 170 216 284 330 397
#     4   9  17  37  63  86 119 158 201 259 312 379
#     4  10  21  39  64  87 119 165 212 257 316 394
#     4   9  18  34  63  87 108 154 206 246 301 386
#
# _framework density 19.770295000000001
#
# number of rings (size 3 to 8) (size 9 to 14) (size 15 to 20)
#    0.000    1.833    5.000    1.000    2.333   10.000 
#    6.000    1.667    0.000    0.000    0.000    0.000 
#    0.000    0.000    0.000    0.000    0.000    0.000 
#
# Total GULP energy -297399.808550 kJ/mol
# GULP energy per Si atom -12391.658690 kJ/mol
# Density = 1.972530 g / cm^3
# Si number density = 19.770295 Si / 1000 Ang^3
#
#
#
# Elastic Constant Matrix: (Units=GPa)
#
#
# Indices 1 2 3 4 5 6 
#
# 1 132.2056 35.1892 39.9074 0.0000 0.0000 0.0000
# 2 35.1892 117.7985 33.9861 0.0000 0.0000 0.0000
# 3 39.9074 33.9861 55.7907 0.0000 0.0000 0.0000
# 4 0.0000 0.0000 0.0000 13.2251 0.0000 0.0000
# 5 0.0000 0.0000 0.0000 0.0000 25.1604 0.0000
# 6 0.0000 0.0000 0.0000 0.0000 0.0000 26.4334
#
#
#
# Elastic Compliance Matrix: (Units=1/GPa)
#
#
# Indices 1 2 3 4 5 6 
#
# 1 0.009762 -0.001094 -0.006316 0.000000 0.000000 0.000000
# 2 -0.001094 0.010422 -0.005566 0.000000 0.000000 0.000000
# 3 -0.006316 -0.005566 0.025833 0.000000 0.000000 0.000000
# 4 0.000000 0.000000 0.000000 0.075614 0.000000 0.000000
# 5 0.000000 0.000000 0.000000 0.000000 0.039745 0.000000
# 6 0.000000 0.000000 0.000000 0.000000 0.000000 0.037831
#
#
# Mechanical properties :
#
#
# Convention : Reuss Voigt Hill
#
# Bulk Modulus (GPa) = 49.84092 58.21779 54.02936
# Shear Modulus (GPa) = 21.56595 26.07791 23.82193
#
# Velocity S-wave (km/s) = 3.30635 3.63581 3.47498
# Velocity P-wave (km/s) = 6.31195 6.86560 6.59459
#
# Compressibility (1/GPa) = 0.02006383
#
# Stress axis : x y z
#
# Youngs Moduli (GPa) = 102.44070 95.95342 38.71006
#
# Poissons Ratio (x) = 0.10495 0.24451
# Poissons Ratio (y) = 0.11204 0.21547
# Poissons Ratio (z) = 0.64705 0.53410
#
# Static dielectric constant tensor:
#      x y z
#    x 4.354070 0.000000 0.000000 
#    y 0.000000 3.991650 0.000000 
#    z 0.000000 0.000000 3.236230 
# 
# 
# High freq. dielectric constant tensor:
#      x y z
#    x 1.791380 0.000000 0.000000 
#    y 0.000000 1.779450 0.000000 
#    z 0.000000 0.000000 1.731430 
# 
# From -- ./inp_files/12975.got.cif
#   From: 2010.03.12/outbox.cif.g09.slc.cpg/sg23_7_cif.got.tgz:12975.got - 2010.04.14 02:50:06.
