data_PCOD8163022
_publ_section_title
;
Structure prediction by ZEFSAII (Michael W. Deem and Ramdas Pophale) SiO2 
 PCOD8163022
Probable space group: F 2 2 2
;
_chemical_formula_sum "Si O2"
_cell_formula_units_Z 80
_cell_length_a 15.199689
_cell_length_b 10.773759
_cell_length_c 22.605414
_cell_angle_alpha 90.000000
_cell_angle_beta 90.000000
_cell_angle_gamma 90.000000
_cell_volume 3701.812552
_symmetry_space_group_name_H-M "F 2 2 2"
_symmetry_group_IT_number 22
_symmetry_cell_setting 'orthorhombic'
loop_
_space_group_symop_operation_xyz
x,y,z
-x,-y,z
x,-y,-z
-x,y,-z
x,1/2+y,1/2+z
-x,1/2-y,1/2+z
x,1/2-y,1/2-z
-x,1/2+y,1/2-z
1/2+x,y,1/2+z
1/2-x,-y,1/2+z
1/2+x,-y,1/2-z
1/2-x,y,1/2-z
1/2+x,1/2+y,z
1/2-x,1/2-y,z
1/2+x,1/2-y,-z
1/2-x,1/2+y,-z
loop_
_atom_site_type_symbol
_atom_site_label
_atom_site_fract_x
_atom_site_fract_y
_atom_site_fract_z
Si Si1 0.252093 0.603299 0.449163
Si Si2 0.347467 0.892600 0.251259
Si Si3 0.649083 0.249868 0.815935
Si Si4 0.902472 0.504152 0.867472
Si Si5 0.097909 0.003082 0.870602
O O1 0.261045 0.500000 0.500000
O O2 0.250000 0.750000 0.469765
O O3 0.336612 0.583946 0.407668
O O4 0.161965 0.574003 0.415320
O O5 0.328018 0.750000 0.250000
O O6 0.250000 0.959904 0.250000
O O7 0.402795 0.923296 0.309167
O O8 0.406935 0.930396 0.196128
O O9 0.602162 0.250000 0.750000
O O10 0.750000 0.250000 0.801702
O O11 0.627528 0.135518 0.858020
O O12 0.626086 0.363953 0.857645
O O13 0.000000 0.500000 0.895880
O O14 0.000000 0.000000 0.897988
#
# Coordination Sequence:
#
# PCOD8163022 Si02
#       5
#    16  16  16  16  16
#     4  12  30  55  76  99 133 184 242 298 355 414
#     4  11  21  39  67 104 147 187 226 282 348 416
#     4  11  22  40  66 104 150 190 226 271 340 412
#     4  12  26  43  71 106 144 184 230 285 348 421
#     4  12  26  43  71 106 144 184 230 285 348 421
#
# _framework density 21.611035999999999
#
# number of rings (size 3 to 8) (size 9 to 14) (size 15 to 20)
#    0.000    0.400    6.000    1.800    8.400    0.800 
#    0.000    2.000    0.000    0.000    0.000    0.000 
#    0.000    0.000    0.000    0.000    0.000    0.000 
#
# Total GULP energy -247916.417561 kJ/mol
# GULP energy per Si atom -12395.820878 kJ/mol
# Density = 2.156185 g / cm^3
# Si number density = 21.611036 Si / 1000 Ang^3
#
#
#
# Elastic Constant Matrix: (Units=GPa)
#
#
# Indices 1 2 3 4 5 6 
#
# 1 131.4570 15.2539 6.5953 0.0000 0.0000 0.0000
# 2 15.2539 155.4155 17.7946 0.0000 0.0000 0.0000
# 3 6.5953 17.7946 49.6052 0.0000 0.0000 0.0000
# 4 0.0000 0.0000 0.0000 39.4323 0.0000 0.0000
# 5 0.0000 0.0000 0.0000 0.0000 8.5031 0.0000
# 6 0.0000 0.0000 0.0000 0.0000 0.0000 26.8438
#
#
#
# Elastic Compliance Matrix: (Units=1/GPa)
#
#
# Indices 1 2 3 4 5 6 
#
# 1 0.007724 -0.000668 -0.000787 0.000000 0.000000 0.000000
# 2 -0.000668 0.006768 -0.002339 0.000000 0.000000 0.000000
# 3 -0.000787 -0.002339 0.021103 0.000000 0.000000 0.000000
# 4 0.000000 0.000000 0.000000 0.025360 0.000000 0.000000
# 5 0.000000 0.000000 0.000000 0.000000 0.117604 0.000000
# 6 0.000000 0.000000 0.000000 0.000000 0.000000 0.037252
#
#
# Mechanical properties :
#
#
# Convention : Reuss Voigt Hill
#
# Bulk Modulus (GPa) = 35.70641 46.19615 40.95128
# Shear Modulus (GPa) = 21.48368 34.74478 28.11423
#
# Velocity S-wave (km/s) = 3.15637 4.01400 3.61074
# Velocity P-wave (km/s) = 5.46276 6.55023 6.03106
#
# Compressibility (1/GPa) = 0.02800618
#
# Stress axis : x y z
#
# Youngs Moduli (GPa) = 129.46556 147.76015 47.38689
#
# Poissons Ratio (x) = 0.09870 0.03731
# Poissons Ratio (y) = 0.08648 0.11084
# Poissons Ratio (z) = 0.10193 0.34560
#
# Static dielectric constant tensor:
#      x y z
#    x 4.008720 0.000000 0.000000 
#    y 0.000000 4.172970 0.000000 
#    z 0.000000 0.000000 3.667630 
# 
# 
# High freq. dielectric constant tensor:
#      x y z
#    x 1.854450 0.000000 0.000000 
#    y 0.000000 1.869480 0.000000 
#    z 0.000000 0.000000 1.820520 
# 
# From -- ./inp_files/23550.got.cif
#   From: 2010.03.12/outbox.cif.g09.slc.cpg/sg22_12_cif.got.tgz:23550.got - 2010.04.14 02:24:06.
