data_PCOD8163502
_publ_section_title
;
Structure prediction by ZEFSAII (Michael W. Deem and Ramdas Pophale) SiO2 
 PCOD8163502
Probable space group: I 2 2 2
;
_chemical_formula_sum "Si O2"
_cell_formula_units_Z 48
_cell_length_a 14.401055
_cell_length_b 10.615776
_cell_length_c 14.629280
_cell_angle_alpha 90.000000
_cell_angle_beta 90.000000
_cell_angle_gamma 90.000000
_cell_volume 2236.500540
_symmetry_space_group_name_H-M "I 2 2 2"
_symmetry_group_IT_number 23
_symmetry_cell_setting 'orthorhombic'
loop_
_space_group_symop_operation_xyz
x,y,z
-x,-y,z
x,-y,-z
-x,y,-z
1/2+x,1/2+y,1/2+z
1/2-x,1/2-y,1/2+z
1/2+x,1/2-y,1/2-z
1/2-x,1/2+y,1/2-z
loop_
_atom_site_type_symbol
_atom_site_label
_atom_site_fract_x
_atom_site_fract_y
_atom_site_fract_z
Si Si1 0.159618 0.757723 0.169942
Si Si2 0.735739 0.858550 0.995549
Si Si3 0.698000 0.746246 0.677354
Si Si4 0.017341 0.855401 0.734153
Si Si5 0.604755 0.981606 0.684712
Si Si6 0.560834 0.118440 0.122432
O O1 0.189321 0.789819 0.067477
O O2 0.236065 0.800837 0.243023
O O3 0.060109 0.819738 0.190743
O O4 0.161534 0.607439 0.173839
O O5 0.631032 0.843144 0.958103
O O6 0.737700 0.813775 0.100057
O O7 0.768897 0.000000 0.000000
O O8 0.619000 0.652346 0.718229
O O9 0.650165 0.867442 0.628115
O O10 0.008606 0.749515 0.652716
O O11 0.000000 0.000000 0.699395
O O12 0.613047 0.935461 0.789443
O O13 0.500000 0.000000 0.651696
O O14 0.500000 0.000000 0.086284
#
# Coordination Sequence:
#
# PCOD8163502 Si02
#       6
#     8   8   8   8   8   8
#     4  12  23  43  72  97 143 186 233 292 355 426
#     4  12  26  42  69 108 137 183 239 293 352 418
#     4  11  25  43  66 107 144 179 236 293 356 419
#     4  11  23  42  71 106 142 188 229 295 364 414
#     4  10  19  43  71  93 131 193 235 277 355 423
#     4  10  20  45  71 102 136 187 245 287 341 421
#
# _framework density 21.462098999999998
#
# number of rings (size 3 to 8) (size 9 to 14) (size 15 to 20)
#    0.000    1.000    8.333    2.000    2.333    1.667 
#    0.000    2.500    0.000    1.000    0.000    0.000 
#    0.000    0.000    0.000    0.000    0.000    0.000 
#
# Total GULP energy -297433.524256 kJ/mol
# GULP energy per Si atom -12393.063511 kJ/mol
# Density = 2.141325 g / cm^3
# Si number density = 21.462099 Si / 1000 Ang^3
#
#
#
# Elastic Constant Matrix: (Units=GPa)
#
#
# Indices 1 2 3 4 5 6 
#
# 1 90.6784 18.3442 19.9424 0.0000 0.0000 0.0000
# 2 18.3442 159.1498 17.3781 0.0000 0.0000 0.0000
# 3 19.9424 17.3781 61.0700 0.0000 0.0000 0.0000
# 4 0.0000 0.0000 0.0000 12.3466 0.0000 0.0000
# 5 0.0000 0.0000 0.0000 0.0000 25.4417 0.0000
# 6 0.0000 0.0000 0.0000 0.0000 0.0000 36.5369
#
#
#
# Elastic Compliance Matrix: (Units=1/GPa)
#
#
# Indices 1 2 3 4 5 6 
#
# 1 0.012030 -0.000988 -0.003647 0.000000 0.000000 0.000000
# 2 -0.000988 0.006566 -0.001546 0.000000 0.000000 0.000000
# 3 -0.003647 -0.001546 0.018005 0.000000 0.000000 0.000000
# 4 0.000000 0.000000 0.000000 0.080994 0.000000 0.000000
# 5 0.000000 0.000000 0.000000 0.000000 0.039306 0.000000
# 6 0.000000 0.000000 0.000000 0.000000 0.000000 0.027370
#
#
# Mechanical properties :
#
#
# Convention : Reuss Voigt Hill
#
# Bulk Modulus (GPa) = 41.25559 46.91419 44.08489
# Shear Modulus (GPa) = 24.42443 31.88061 28.15252
#
# Velocity S-wave (km/s) = 3.37712 3.85832 3.62571
# Velocity P-wave (km/s) = 5.87119 6.46184 6.17358
#
# Compressibility (1/GPa) = 0.02423914
#
# Stress axis : x y z
#
# Youngs Moduli (GPa) = 83.12537 152.29760 55.53873
#
# Poissons Ratio (x) = 0.15053 0.20256
# Poissons Ratio (y) = 0.08216 0.08585
# Poissons Ratio (z) = 0.30317 0.23541
#
# Static dielectric constant tensor:
#      x y z
#    x 4.107090 0.000000 0.000000 
#    y 0.000000 4.302740 0.000000 
#    z 0.000000 0.000000 3.636980 
# 
# 
# High freq. dielectric constant tensor:
#      x y z
#    x 1.849990 0.000000 0.000000 
#    y 0.000000 1.855750 0.000000 
#    z 0.000000 0.000000 1.815880 
# 
# From -- ./inp_files/21530.got.cif
#   From: 2010.03.12/outbox.cif.g09.slc.cpg/sg23_11_cif.got.tgz:21530.got - 2010.04.14 02:50:06.
