data_PCOD8163497
_publ_section_title
;
Structure prediction by ZEFSAII (Michael W. Deem and Ramdas Pophale) SiO2 
 PCOD8163497
Probable space group: I 2 2 2
;
_chemical_formula_sum "Si O2"
_cell_formula_units_Z 48
_cell_length_a 9.402353
_cell_length_b 27.713103
_cell_length_c 8.741176
_cell_angle_alpha 90.000000
_cell_angle_beta 90.000000
_cell_angle_gamma 90.000000
_cell_volume 2277.674045
_symmetry_space_group_name_H-M "I 2 2 2"
_symmetry_group_IT_number 23
_symmetry_cell_setting 'orthorhombic'
loop_
_space_group_symop_operation_xyz
x,y,z
-x,-y,z
x,-y,-z
-x,y,-z
1/2+x,1/2+y,1/2+z
1/2-x,1/2-y,1/2+z
1/2+x,1/2-y,1/2-z
1/2-x,1/2+y,1/2-z
loop_
_atom_site_type_symbol
_atom_site_label
_atom_site_fract_x
_atom_site_fract_y
_atom_site_fract_z
Si Si1 0.081123 0.705441 0.844918
Si Si2 0.216351 0.563795 0.155699
Si Si3 0.583821 0.714811 0.158874
Si Si4 0.766282 0.954280 0.694377
Si Si5 0.043581 0.392561 0.327238
Si Si6 0.509384 0.613615 0.822011
O O1 0.245903 0.722390 0.868211
O O2 0.980969 0.745636 0.770764
O O3 0.085901 0.658894 0.738603
O O4 0.000000 0.691089 0.000000
O O5 0.261668 0.511278 0.215746
O O6 0.067988 0.579620 0.221974
O O7 0.327311 0.603399 0.221148
O O8 0.209429 0.562921 0.971817
O O9 0.552905 0.663565 0.246082
O O10 0.500000 0.719272 0.000000
O O11 0.676454 0.928596 0.826633
O O12 0.925235 0.934989 0.721634
O O13 0.000000 0.384452 0.500000
O O14 0.500000 0.622400 0.000000
#
# Coordination Sequence:
#
# PCOD8163497 Si02
#       6
#     8   8   8   8   8   8
#     4  12  26  45  72  97 133 172 217 271 329 395
#     4  10  21  36  67  95 126 170 215 268 320 390
#     4  11  24  44  70 102 134 168 216 269 331 393
#     4  10  19  40  63  96 127 166 219 266 324 380
#     4  12  26  41  61  91 132 173 221 265 322 383
#     4   9  19  37  65  96 129 161 211 266 321 385
#
# _framework density 21.074131000000001
#
# number of rings (size 3 to 8) (size 9 to 14) (size 15 to 20)
#    0.000    1.333    1.667    4.000    7.000    4.667 
#    0.000    0.833    0.000    2.000    0.000    0.000 
#    0.000    0.000    0.000    0.000    0.000    0.000 
#
# Total GULP energy -297491.953177 kJ/mol
# GULP energy per Si atom -12395.498049 kJ/mol
# Density = 2.102617 g / cm^3
# Si number density = 21.074131 Si / 1000 Ang^3
#
#
#
# Elastic Constant Matrix: (Units=GPa)
#
#
# Indices 1 2 3 4 5 6 
#
# 1 88.4718 30.5905 26.4751 -0.0005 -0.0001 -0.0002
# 2 30.5905 88.8540 9.9919 -0.0026 -0.0006 0.0002
# 3 26.4751 9.9919 67.9694 -0.0037 0.0058 -0.0015
# 4 -0.0005 -0.0026 -0.0037 22.7918 0.0008 -0.0006
# 5 -0.0001 -0.0006 0.0058 0.0008 16.3990 0.0004
# 6 -0.0002 0.0002 -0.0015 -0.0006 0.0004 36.0773
#
#
#
# Elastic Compliance Matrix: (Units=1/GPa)
#
#
# Indices 1 2 3 4 5 6 
#
# 1 0.014285 -0.004365 -0.004923 -0.000001 0.000002 0.000000
# 2 -0.004365 0.012777 -0.000178 0.000001 0.000001 0.000000
# 3 -0.004923 -0.000178 0.016656 0.000003 -0.000006 0.000001
# 4 -0.000001 0.000001 0.000003 0.043875 -0.000002 0.000001
# 5 0.000002 0.000001 -0.000006 -0.000002 0.060979 -0.000001
# 6 0.000000 0.000000 0.000001 0.000001 -0.000001 0.027718
#
#
# Mechanical properties :
#
#
# Convention : Reuss Voigt Hill
#
# Bulk Modulus (GPa) = 40.34287 42.15667 41.24977
# Shear Modulus (GPa) = 24.57183 26.93613 25.75398
#
# Velocity S-wave (km/s) = 3.41834 3.57902 3.49960
# Velocity P-wave (km/s) = 5.89618 6.09316 5.99548
#
# Compressibility (1/GPa) = 0.02478753
#
# Stress axis : x y z
#
# Youngs Moduli (GPa) = 70.00218 78.26522 60.03773
#
# Poissons Ratio (x) = 0.34159 0.29555
# Poissons Ratio (y) = 0.30553 0.01070
# Poissons Ratio (z) = 0.34460 0.01395
#
# Static dielectric constant tensor:
#      x y z
#    x 4.086660 0.000000 0.000000 
#    y 0.000000 4.170950 0.000000 
#    z 0.000000 0.000000 3.545200 
# 
# 
# High freq. dielectric constant tensor:
#      x y z
#    x 1.842740 0.000000 0.000000 
#    y 0.000000 1.843160 0.000000 
#    z 0.000000 0.000000 1.790490 
# 
# From -- ./inp_files/7351.got.cif
#   From: 2010.03.12/outbox.cif.g09.slc.cpg/sg23_4_cif.got.tgz:7351.got - 2010.04.14 02:50:06.
