data_PCOD8163951
_publ_section_title
;
Structure prediction by ZEFSAII (Michael W. Deem and Ramdas Pophale) SiO2 
 PCOD8163951
Probable space group: I 2 2 2
;
_chemical_formula_sum "Si O2"
_cell_formula_units_Z 64
_cell_length_a 29.368809
_cell_length_b 12.063724
_cell_length_c 8.510934
_cell_angle_alpha 90.000000
_cell_angle_beta 90.000000
_cell_angle_gamma 90.000000
_cell_volume 3015.400137
_symmetry_space_group_name_H-M "I 2 2 2"
_symmetry_group_IT_number 23
_symmetry_cell_setting 'orthorhombic'
loop_
_space_group_symop_operation_xyz
x,y,z
-x,-y,z
x,-y,-z
-x,y,-z
1/2+x,1/2+y,1/2+z
1/2-x,1/2-y,1/2+z
1/2+x,1/2-y,1/2-z
1/2-x,1/2+y,1/2-z
loop_
_atom_site_type_symbol
_atom_site_label
_atom_site_fract_x
_atom_site_fract_y
_atom_site_fract_z
Si Si1 0.094120 0.721364 0.813127
Si Si2 0.549369 0.000950 0.687058
Si Si3 0.551492 0.459050 0.324688
Si Si4 0.689812 0.081687 0.868608
Si Si5 0.617798 0.179972 0.665589
Si Si6 0.275637 0.466943 0.821604
Si Si7 0.866756 0.085110 0.318501
Si Si8 0.829229 0.217746 0.580628
O O1 0.069725 0.612887 0.747833
O O2 0.058652 0.825431 0.817725
O O3 0.136408 0.726872 0.698081
O O4 0.115939 0.696139 0.980922
O O5 0.500000 0.000000 0.763658
O O6 0.547984 0.000000 0.500000
O O7 0.574414 0.114405 0.737323
O O8 0.500000 0.500000 0.278603
O O9 0.562759 0.500000 0.500000
O O10 0.588925 0.508425 0.205669
O O11 0.659495 0.099407 0.713337
O O12 0.735838 0.023080 0.806850
O O13 0.693410 0.201507 0.952354
O O14 0.668451 0.000000 0.000000
O O15 0.620996 0.299564 0.739152
O O16 0.319437 0.533956 0.751785
O O17 0.287754 0.336150 0.823504
O O18 0.261069 0.500000 0.000000
O O19 0.856833 0.112884 0.501842
#
# Coordination Sequence:
#
# PCOD8163951 Si02
#       8
#     8   8   8   8   8   8   8   8
#     4  11  21  38  65  96 130 178 224 272 341 410
#     4   9  20  35  59  89 122 165 216 274 324 386
#     4  11  23  36  65 104 137 171 228 291 330 407
#     4  11  25  41  63  94 129 171 224 286 340 407
#     4  10  22  40  65  90 128 178 223 279 339 404
#     4  10  23  42  65  92 126 171 221 278 339 415
#     4  10  21  43  64  92 133 175 211 279 349 402
#     4  10  23  41  64  89 135 170 216 276 339 415
#
# _framework density 21.22438
#
# number of rings (size 3 to 8) (size 9 to 14) (size 15 to 20)
#    0.000    1.750    2.500    0.750    1.750    9.000 
#    0.000    1.250    0.000    4.875    0.000    0.000 
#    0.000    0.000    0.000    0.000    0.000    0.000 
#
# Total GULP energy -396482.054782 kJ/mol
# GULP energy per Si atom -12390.064212 kJ/mol
# Density = 2.117607 g / cm^3
# Si number density = 21.224380 Si / 1000 Ang^3
#
#
#
# Elastic Constant Matrix: (Units=GPa)
#
#
# Indices 1 2 3 4 5 6 
#
# 1 129.2558 54.5413 46.0949 0.0000 0.0000 0.0000
# 2 54.5413 119.6586 32.0804 0.0000 0.0000 0.0000
# 3 46.0949 32.0804 59.8324 0.0000 0.0000 0.0000
# 4 0.0000 0.0000 0.0000 31.2605 0.0000 0.0000
# 5 0.0000 0.0000 0.0000 0.0000 24.9796 0.0000
# 6 0.0000 0.0000 0.0000 0.0000 0.0000 39.1810
#
#
#
# Elastic Compliance Matrix: (Units=1/GPa)
#
#
# Indices 1 2 3 4 5 6 
#
# 1 0.011756 -0.003422 -0.007222 0.000000 0.000000 0.000000
# 2 -0.003422 0.010756 -0.003131 0.000000 0.000000 0.000000
# 3 -0.007222 -0.003131 0.023956 0.000000 0.000000 0.000000
# 4 0.000000 0.000000 0.000000 0.031989 0.000000 0.000000
# 5 0.000000 0.000000 0.000000 0.000000 0.040033 0.000000
# 6 0.000000 0.000000 0.000000 0.000000 0.000000 0.025523
#
#
# Mechanical properties :
#
#
# Convention : Reuss Voigt Hill
#
# Bulk Modulus (GPa) = 52.85900 63.79780 58.32840
# Shear Modulus (GPa) = 28.11058 30.81958 29.46508
#
# Velocity S-wave (km/s) = 3.64324 3.81476 3.72999
# Velocity P-wave (km/s) = 6.53120 7.03755 6.78910
#
# Compressibility (1/GPa) = 0.01891825
#
# Stress axis : x y z
#
# Youngs Moduli (GPa) = 85.06139 92.96816 41.74361
#
# Poissons Ratio (x) = 0.31817 0.30147
# Poissons Ratio (y) = 0.29111 0.13069
# Poissons Ratio (z) = 0.61432 0.29105
#
# Static dielectric constant tensor:
#      x y z
#    x 3.995120 0.000000 0.000000 
#    y 0.000000 4.221670 0.000000 
#    z 0.000000 0.000000 3.757620 
# 
# 
# High freq. dielectric constant tensor:
#      x y z
#    x 1.824040 0.000000 0.000000 
#    y 0.000000 1.856290 0.000000 
#    z 0.000000 0.000000 1.817230 
# 
# From -- ./inp_files/13494.got.cif
#   From: 2010.03.12/outbox.cif.g09.slc.cpg/sg23_7_cif.got.tgz:13494.got - 2010.04.14 02:50:06.
