data_PCOD8163053
_publ_section_title
;
Structure prediction by ZEFSAII (Michael W. Deem and Ramdas Pophale) SiO2 
 PCOD8163053
Probable space group: F 2 2 2
;
_chemical_formula_sum "Si O2"
_cell_formula_units_Z 116
_cell_length_a 18.540175
_cell_length_b 15.636216
_cell_length_c 19.673319
_cell_angle_alpha 90.000000
_cell_angle_beta 90.000000
_cell_angle_gamma 90.000000
_cell_volume 5703.259392
_symmetry_space_group_name_H-M "F 2 2 2"
_symmetry_group_IT_number 22
_symmetry_cell_setting 'orthorhombic'
loop_
_space_group_symop_operation_xyz
x,y,z
-x,-y,z
x,-y,-z
-x,y,-z
x,1/2+y,1/2+z
-x,1/2-y,1/2+z
x,1/2-y,1/2-z
-x,1/2+y,1/2-z
1/2+x,y,1/2+z
1/2-x,-y,1/2+z
1/2+x,-y,1/2-z
1/2-x,y,1/2-z
1/2+x,1/2+y,z
1/2-x,1/2-y,z
1/2+x,1/2-y,-z
1/2-x,1/2+y,-z
loop_
_atom_site_type_symbol
_atom_site_label
_atom_site_fract_x
_atom_site_fract_y
_atom_site_fract_z
Si Si1 0.923111 0.221911 0.527942
Si Si2 0.928618 0.538830 0.074259
Si Si3 0.500000 0.500000 0.000000
Si Si4 0.068283 0.376806 0.391431
Si Si5 0.850038 0.510509 0.695364
Si Si6 0.172489 0.715032 0.099788
Si Si7 0.931635 0.817888 0.811359
Si Si8 0.803753 0.535388 0.842407
O O1 0.938132 0.140600 0.575445
O O2 0.887917 0.299784 0.571487
O O3 0.869521 0.191202 0.468801
O O4 0.000000 0.255836 0.500000
O O5 0.850983 0.518513 0.105333
O O6 0.000000 0.500000 0.113042
O O7 0.929074 0.500000 0.000000
O O8 0.548882 0.556468 0.049505
O O9 0.112439 0.425403 0.333231
O O10 0.003294 0.327077 0.355204
O O11 0.907351 0.586565 0.708255
O O12 0.819781 0.493466 0.769902
O O13 0.782632 0.529789 0.644712
O O14 0.250000 0.750000 0.078615
O O15 0.132145 0.788381 0.140061
O O16 0.175572 0.634724 0.150726
O O17 0.943360 0.750000 0.750000
#
# Coordination Sequence:
#
# PCOD8163053 Si02
#       8
#    16  16   4  16  16  16  16  16
#     4  12  23  42  65  97 137 174 222 283 344 400
#     4  11  22  40  69 101 134 171 222 289 347 404
#     4  12  20  40  68  88 138 180 216 276 332 416
#     4  12  26  43  66 100 139 185 228 272 342 417
#     4  11  25  45  64  96 139 183 227 276 342 417
#     4  12  23  38  67 103 133 168 221 287 354 399
#     4  12  23  39  69 100 130 171 224 286 341 397
#     4  11  24  43  69  95 135 181 225 284 344 408
#
# _framework density 20.339247
#
# number of rings (size 3 to 8) (size 9 to 14) (size 15 to 20)
#    0.000    0.414    8.966    0.000    0.000    3.586 
#    1.241    0.000    0.000    1.655    0.000    0.000 
#    0.000    0.000    0.000    0.000    0.000    0.000 
#
# Total GULP energy -359481.385231 kJ/mol
# GULP energy per Si atom -12395.909836 kJ/mol
# Density = 2.029295 g / cm^3
# Si number density = 20.339247 Si / 1000 Ang^3
#
#
#
# Elastic Constant Matrix: (Units=GPa)
#
#
# Indices 1 2 3 4 5 6 
#
# 1 91.3339 27.3678 42.1649 0.0000 0.0000 0.0000
# 2 27.3678 133.3590 40.1480 0.0000 0.0000 0.0000
# 3 42.1649 40.1480 73.7111 0.0000 0.0000 0.0000
# 4 0.0000 0.0000 0.0000 41.7297 0.0000 0.0000
# 5 0.0000 0.0000 0.0000 0.0000 31.3154 0.0000
# 6 0.0000 0.0000 0.0000 0.0000 0.0000 30.6041
#
#
#
# Elastic Compliance Matrix: (Units=1/GPa)
#
#
# Indices 1 2 3 4 5 6 
#
# 1 0.014916 -0.000589 -0.008212 0.000000 0.000000 0.000000
# 2 -0.000589 0.008993 -0.004561 0.000000 0.000000 0.000000
# 3 -0.008212 -0.004561 0.020748 0.000000 0.000000 0.000000
# 4 0.000000 0.000000 0.000000 0.023964 0.000000 0.000000
# 5 0.000000 0.000000 0.000000 0.000000 0.031933 0.000000
# 6 0.000000 0.000000 0.000000 0.000000 0.000000 0.032675
#
#
# Mechanical properties :
#
#
# Convention : Reuss Voigt Hill
#
# Bulk Modulus (GPa) = 55.76184 57.52950 56.64567
# Shear Modulus (GPa) = 30.13305 33.31138 31.72221
#
# Velocity S-wave (km/s) = 3.85323 4.05135 3.95353
# Velocity P-wave (km/s) = 6.87546 7.08738 6.98222
#
# Compressibility (1/GPa) = 0.01793341
#
# Stress axis : x y z
#
# Youngs Moduli (GPa) = 67.04053 111.20346 48.19710
#
# Poissons Ratio (x) = 0.06549 0.39579
# Poissons Ratio (y) = 0.03948 0.21983
# Poissons Ratio (z) = 0.55052 0.50720
#
# Static dielectric constant tensor:
#      x y z
#    x 4.435420 0.000000 0.000000 
#    y 0.000000 3.772650 0.000000 
#    z 0.000000 0.000000 3.770560 
# 
# 
# High freq. dielectric constant tensor:
#      x y z
#    x 1.791270 0.000000 0.000000 
#    y 0.000000 1.802580 0.000000 
#    z 0.000000 0.000000 1.785350 
# 
# From -- ./inp_files/38138.got.cif
#   From: 2010.03.12/outbox.cif.g09.slc.cpg/sg22_20_cif.got.tgz:38138.got - 2010.04.14 02:24:06.
