data_PCOD8163992
_publ_section_title
;
Structure prediction by ZEFSAII (Michael W. Deem and Ramdas Pophale) SiO2 
 PCOD8163992
Probable space group: I 2 2 2
;
_chemical_formula_sum "Si O2"
_cell_formula_units_Z 48
_cell_length_a 12.100009
_cell_length_b 22.919138
_cell_length_c 8.811505
_cell_angle_alpha 90.000000
_cell_angle_beta 90.000000
_cell_angle_gamma 90.000000
_cell_volume 2443.622216
_symmetry_space_group_name_H-M "I 2 2 2"
_symmetry_group_IT_number 23
_symmetry_cell_setting 'orthorhombic'
loop_
_space_group_symop_operation_xyz
x,y,z
-x,-y,z
x,-y,-z
-x,y,-z
1/2+x,1/2+y,1/2+z
1/2-x,1/2-y,1/2+z
1/2+x,1/2-y,1/2-z
1/2-x,1/2+y,1/2-z
loop_
_atom_site_type_symbol
_atom_site_label
_atom_site_fract_x
_atom_site_fract_y
_atom_site_fract_z
Si Si1 0.858841 0.342699 0.261787
Si Si2 0.828397 0.993849 0.677401
Si Si3 0.000000 0.726029 0.500000
Si Si4 0.991898 0.906366 0.320297
Si Si5 0.610207 0.293230 0.260500
Si Si6 0.500000 0.788910 0.500000
Si Si7 0.614909 0.021069 0.827836
O O1 0.735539 0.316331 0.258231
O O2 0.921545 0.329516 0.103499
O O3 0.860177 0.411220 0.297558
O O4 0.923858 0.313677 0.397327
O O5 0.709678 0.984285 0.748135
O O6 0.891118 0.052020 0.730434
O O7 0.817118 0.000000 0.500000
O O8 0.894283 0.936360 0.729854
O O9 0.914450 0.763386 0.400683
O O10 0.000000 0.895178 0.500000
O O11 0.975745 0.846991 0.227730
O O12 0.583422 0.250536 0.400046
O O13 0.500000 0.000000 0.753237
O O14 0.615638 0.000000 0.000000
#
# Coordination Sequence:
#
# PCOD8163992 Si02
#       7
#     8   8   4   8   8   4   8
#     4  11  23  44  62  86 128 162 206 264 302 365
#     4   9  19  36  59  88 122 157 196 244 297 361
#     4  10  22  38  63  89 118 168 206 250 314 366
#     4   9  17  35  60  91 122 153 195 244 302 365
#     4  11  20  39  65  92 124 161 203 256 313 370
#     4  10  26  40  61  97 120 158 216 252 306 376
#     4  11  24  41  59  85 119 162 204 245 309 366
#
# _framework density 19.642970999999999
#
# number of rings (size 3 to 8) (size 9 to 14) (size 15 to 20)
#    0.000    1.833    2.500    3.000    0.000    3.000 
#    0.000    4.167    0.000    0.000    0.000    0.000 
#    0.000    0.000    0.000    0.000    0.000    0.000 
#
# Total GULP energy -297465.534484 kJ/mol
# GULP energy per Si atom -12394.397270 kJ/mol
# Density = 1.959826 g / cm^3
# Si number density = 19.642971 Si / 1000 Ang^3
#
#
#
# Elastic Constant Matrix: (Units=GPa)
#
#
# Indices 1 2 3 4 5 6 
#
# 1 162.0050 56.0790 47.1193 0.0004 0.0002 -0.0001
# 2 56.0790 103.6351 50.0978 0.0025 0.0002 -0.0003
# 3 47.1193 50.0978 79.7555 0.0312 0.0012 -0.0031
# 4 0.0004 0.0025 0.0312 -15.1047 -0.0034 -0.0003
# 5 0.0002 0.0002 0.0012 -0.0034 31.7855 0.0002
# 6 -0.0001 -0.0003 -0.0031 -0.0003 0.0002 29.3749
#
#
#
# Elastic Compliance Matrix: (Units=1/GPa)
#
#
# Indices 1 2 3 4 5 6 
#
# 1 0.008035 -0.002949 -0.002895 -0.000006 0.000000 0.000000
# 2 -0.002949 0.014939 -0.007642 -0.000013 0.000000 -0.000001
# 3 -0.002895 -0.007642 0.019049 0.000038 -0.000001 0.000002
# 4 -0.000006 -0.000013 0.000038 -0.066204 -0.000007 -0.000001
# 5 0.000000 0.000000 -0.000001 -0.000007 0.031461 0.000000
# 6 0.000000 -0.000001 0.000002 -0.000001 0.000000 0.034043
#
#
# Mechanical properties :
#
#
# Convention : Reuss Voigt Hill
#
# Bulk Modulus (GPa) = 66.43554 72.44309 69.43932
# Shear Modulus (GPa) = 68.20307 22.01774 45.11041
#
# Velocity S-wave (km/s) = 5.89888 3.35161 4.79740
# Velocity P-wave (km/s) = 8.96050 7.20678 8.13106
#
# Compressibility (1/GPa) = 0.01505218
#
# Stress axis : x y z
#
# Youngs Moduli (GPa) = 124.44974 66.93972 52.49668
#
# Poissons Ratio (x) = 0.19738 0.15199
# Poissons Ratio (y) = 0.36695 0.40116
# Poissons Ratio (z) = 0.36030 0.51153
#
# Static dielectric constant tensor:
#      x y z
#    x 4.757970 0.000010 -0.000210 
#    y 0.000010 3.677340 0.000020 
#    z -0.000210 0.000020 3.361820 
# 
# 
# High freq. dielectric constant tensor:
#      x y z
#    x 1.777880 0.000000 0.000000 
#    y 0.000000 1.773090 0.000000 
#    z 0.000000 0.000000 1.756940 
# 
# From -- ./inp_files/8706.got.cif
#   From: 2010.03.12/outbox.cif.g09.slc.cpg/sg23_5_cif.got.tgz:8706.got - 2010.04.14 02:50:06.
