data_PCOD8163983
_publ_section_title
;
Structure prediction by ZEFSAII (Michael W. Deem and Ramdas Pophale) SiO2 
 PCOD8163983
Probable space group: I 2 2 2
;
_chemical_formula_sum "Si O2"
_cell_formula_units_Z 64
_cell_length_a 26.134716
_cell_length_b 9.305631
_cell_length_c 13.378033
_cell_angle_alpha 90.000000
_cell_angle_beta 90.000000
_cell_angle_gamma 90.000000
_cell_volume 3253.537938
_symmetry_space_group_name_H-M "I 2 2 2"
_symmetry_group_IT_number 23
_symmetry_cell_setting 'orthorhombic'
loop_
_space_group_symop_operation_xyz
x,y,z
-x,-y,z
x,-y,-z
-x,y,-z
1/2+x,1/2+y,1/2+z
1/2-x,1/2-y,1/2+z
1/2+x,1/2-y,1/2-z
1/2-x,1/2+y,1/2-z
loop_
_atom_site_type_symbol
_atom_site_label
_atom_site_fract_x
_atom_site_fract_y
_atom_site_fract_z
Si Si1 0.378760 0.477116 0.882378
Si Si2 0.501252 0.828871 0.618011
Si Si3 0.402623 0.287216 0.271464
Si Si4 0.665169 0.016525 0.740636
Si Si5 0.837922 0.004821 0.116088
Si Si6 0.762036 0.073225 0.601327
Si Si7 0.732287 0.908237 0.901913
Si Si8 0.603992 0.742062 0.718742
O O1 0.407499 0.605804 0.823449
O O2 0.317454 0.487756 0.863130
O O3 0.398742 0.325184 0.832663
O O4 0.391950 0.500000 0.000000
O O5 0.500000 0.788205 0.500000
O O6 0.455403 0.769763 0.685366
O O7 0.548953 0.746413 0.666970
O O8 0.500000 0.000000 0.630789
O O9 0.378668 0.371695 0.363929
O O10 0.364857 0.161599 0.238395
O O11 0.681062 0.947153 0.844580
O O12 0.625045 0.901538 0.699075
O O13 0.716202 0.041450 0.676862
O O14 0.782568 0.046206 0.162392
O O15 0.855962 0.854253 0.158503
O O16 0.829525 0.000000 0.000000
O O17 0.767533 0.240132 0.576416
O O18 0.744340 0.000000 0.500000
O O19 0.729477 0.000000 0.000000
#
# Coordination Sequence:
#
# PCOD8163983 Si02
#       8
#     8   8   8   8   8   8   8   8
#     4  10  24  44  66  91 129 166 215 265 316 376
#     4  11  24  43  68  99 130 159 205 262 322 385
#     4  11  23  42  65  93 124 169 211 261 319 379
#     4  12  24  37  63  89 128 169 209 256 318 368
#     4  10  22  38  59  91 133 164 209 256 311 383
#     4  11  25  39  61  93 129 171 215 257 312 376
#     4  11  25  39  60  92 127 168 214 260 308 372
#     4  11  23  42  65  92 125 169 213 262 320 378
#
# _framework density 19.670895000000002
#
# number of rings (size 3 to 8) (size 9 to 14) (size 15 to 20)
#    0.000    1.125    3.750    2.250    7.000    3.000 
#    0.000    4.375    0.000    0.750    0.000    0.000 
#    0.000    0.000    0.000    0.000    0.000    0.000 
#
# Total GULP energy -396533.948931 kJ/mol
# GULP energy per Si atom -12391.685904 kJ/mol
# Density = 1.962612 g / cm^3
# Si number density = 19.670895 Si / 1000 Ang^3
#
#
#
# Elastic Constant Matrix: (Units=GPa)
#
#
# Indices 1 2 3 4 5 6 
#
# 1 93.1589 23.0910 50.9726 0.0000 0.0000 0.0000
# 2 23.0910 112.7456 50.9346 0.0000 0.0000 0.0000
# 3 50.9726 50.9346 85.4619 0.0000 0.0000 0.0000
# 4 0.0000 0.0000 0.0000 20.0267 0.0000 0.0000
# 5 0.0000 0.0000 0.0000 0.0000 -31.2323 0.0000
# 6 0.0000 0.0000 0.0000 0.0000 0.0000 39.4345
#
#
#
# Elastic Compliance Matrix: (Units=1/GPa)
#
#
# Indices 1 2 3 4 5 6 
#
# 1 0.016100 0.001424 -0.010451 0.000000 0.000000 0.000000
# 2 0.001424 0.012264 -0.008158 0.000000 0.000000 0.000000
# 3 -0.010451 -0.008158 0.022797 0.000000 0.000000 0.000000
# 4 0.000000 0.000000 0.000000 0.049933 0.000000 0.000000
# 5 0.000000 0.000000 0.000000 0.000000 -0.032018 0.000000
# 6 0.000000 0.000000 0.000000 0.000000 0.000000 0.025359
#
#
# Mechanical properties :
#
#
# Convention : Reuss Voigt Hill
#
# Bulk Modulus (GPa) = 59.56172 60.15142 59.85657
# Shear Modulus (GPa) = 37.20188 16.73699 26.96944
#
# Velocity S-wave (km/s) = 4.35353 2.92010 3.70676
# Velocity P-wave (km/s) = 7.45760 6.48187 6.98679
#
# Compressibility (1/GPa) = 0.01678931
#
# Stress axis : x y z
#
# Youngs Moduli (GPa) = 62.11221 81.54254 43.86526
#
# Poissons Ratio (x) = -0.11614 0.45845
# Poissons Ratio (y) = -0.08846 0.35787
# Poissons Ratio (z) = 0.64916 0.66526
#
# Static dielectric constant tensor:
#      x y z
#    x 4.008330 0.000000 0.000000 
#    y 0.000000 3.943830 0.000000 
#    z 0.000000 0.000000 3.693270 
# 
# 
# High freq. dielectric constant tensor:
#      x y z
#    x 1.766470 0.000000 0.000000 
#    y 0.000000 1.780630 0.000000 
#    z 0.000000 0.000000 1.764810 
# 
# From -- ./inp_files/22614.got.cif
#   From: 2010.03.12/outbox.cif.g09.slc.cpg/sg23_12_cif.got.tgz:22614.got - 2010.04.14 02:50:06.
