data_PCOD8163197
_publ_section_title
;
Structure prediction by ZEFSAII (Michael W. Deem and Ramdas Pophale) SiO2 
 PCOD8163197
Probable space group: I 2 2 2
;
_chemical_formula_sum "Si O2"
_cell_formula_units_Z 60
_cell_length_a 11.795883
_cell_length_b 17.992891
_cell_length_c 15.299280
_cell_angle_alpha 90.000000
_cell_angle_beta 90.000000
_cell_angle_gamma 90.000000
_cell_volume 3247.150353
_symmetry_space_group_name_H-M "I 2 2 2"
_symmetry_group_IT_number 23
_symmetry_cell_setting 'orthorhombic'
loop_
_space_group_symop_operation_xyz
x,y,z
-x,-y,z
x,-y,-z
-x,y,-z
1/2+x,1/2+y,1/2+z
1/2-x,1/2-y,1/2+z
1/2+x,1/2-y,1/2-z
1/2-x,1/2+y,1/2-z
loop_
_atom_site_type_symbol
_atom_site_label
_atom_site_fract_x
_atom_site_fract_y
_atom_site_fract_z
Si Si1 0.698704 0.155615 0.356568
Si Si2 0.611857 0.678941 0.668485
Si Si3 0.928645 0.302427 0.580597
Si Si4 0.000000 0.203854 0.000000
Si Si5 0.428449 0.300331 0.201062
Si Si6 0.182900 0.658046 0.227158
Si Si7 0.461372 0.919197 0.230386
Si Si8 0.789149 0.709002 0.953443
O O1 0.639529 0.232674 0.324983
O O2 0.830838 0.144402 0.332204
O O3 0.629512 0.087884 0.310534
O O4 0.701595 0.156008 0.461870
O O5 0.573894 0.656055 0.570078
O O6 0.513036 0.656248 0.735172
O O7 0.724118 0.634855 0.699214
O O8 0.914030 0.368984 0.650650
O O9 0.808700 0.272425 0.543172
O O10 0.000000 0.335451 0.500000
O O11 0.000604 0.234907 0.621489
O O12 0.912271 0.252400 0.056976
O O13 0.360401 0.240418 0.256438
O O14 0.236566 0.657236 0.130064
O O15 0.079990 0.603400 0.229199
O O16 0.500000 0.000000 0.197000
#
# Coordination Sequence:
#
# PCOD8163197 Si02
#       8
#     8   8   8   4   8   8   8   8
#     4  10  19  31  51  80 112 147 185 240 295 353
#     4  10  17  29  51  78 111 140 174 243 313 342
#     4  11  20  34  57  87 114 144 189 251 305 352
#     4  10  20  26  44  84 114 144 168 220 308 382
#     4  10  16  30  50  80 110 136 175 237 312 351
#     4  10  18  32  50  75 111 146 187 232 285 350
#     4  11  24  40  54  75 118 168 204 225 273 368
#     4  11  18  30  54  88 119 137 178 248 317 350
#
# _framework density 18.477740000000001
#
# number of rings (size 3 to 8) (size 9 to 14) (size 15 to 20)
#    0.000    1.600    6.667    1.600    1.867    0.267 
#    0.000    1.333    0.000    0.800    0.000    0.933 
#    0.000    0.000    0.000    0.000    0.000    0.000 
#
# Total GULP energy -371651.789788 kJ/mol
# GULP energy per Si atom -12388.392993 kJ/mol
# Density = 1.843568 g / cm^3
# Si number density = 18.477740 Si / 1000 Ang^3
#
#
#
# Elastic Constant Matrix: (Units=GPa)
#
#
# Indices 1 2 3 4 5 6 
#
# 1 114.0445 14.5106 42.3284 0.0000 0.0000 0.0000
# 2 14.5106 29.9928 13.7570 0.0000 0.0000 0.0000
# 3 42.3284 13.7570 117.0800 0.0000 0.0000 0.0000
# 4 0.0000 0.0000 0.0000 6.0673 0.0000 0.0000
# 5 0.0000 0.0000 0.0000 0.0000 39.8318 0.0000
# 6 0.0000 0.0000 0.0000 0.0000 0.0000 10.3126
#
#
#
# Elastic Compliance Matrix: (Units=1/GPa)
#
#
# Indices 1 2 3 4 5 6 
#
# 1 0.010467 -0.003518 -0.003371 0.000000 0.000000 0.000000
# 2 -0.003518 0.036423 -0.003008 0.000000 0.000000 0.000000
# 3 -0.003371 -0.003008 0.010113 0.000000 0.000000 0.000000
# 4 0.000000 0.000000 0.000000 0.164819 0.000000 0.000000
# 5 0.000000 0.000000 0.000000 0.000000 0.025106 0.000000
# 6 0.000000 0.000000 0.000000 0.000000 0.000000 0.096969
#
#
# Mechanical properties :
#
#
# Convention : Reuss Voigt Hill
#
# Bulk Modulus (GPa) = 26.87440 44.70101 35.78771
# Shear Modulus (GPa) = 13.29456 23.94375 18.61915
#
# Velocity S-wave (km/s) = 2.68524 3.60365 3.17780
# Velocity P-wave (km/s) = 4.91831 6.44666 5.73364
#
# Compressibility (1/GPa) = 0.03721013
#
# Stress axis : x y z
#
# Youngs Moduli (GPa) = 95.53608 27.45517 98.87977
#
# Poissons Ratio (x) = 0.09659 0.33331
# Poissons Ratio (y) = 0.33609 0.29742
# Poissons Ratio (z) = 0.32204 0.08258
#
# Static dielectric constant tensor:
#      x y z
#    x 3.997130 0.000000 0.000000 
#    y 0.000000 3.140240 0.000000 
#    z 0.000000 0.000000 3.575360 
# 
# 
# High freq. dielectric constant tensor:
#      x y z
#    x 1.744430 0.000000 0.000000 
#    y 0.000000 1.615580 0.000000 
#    z 0.000000 0.000000 1.735840 
# 
# From -- ./inp_files/17035.got.cif
#   From: 2010.03.12/outbox.cif.g09.slc.cpg/sg23_9_cif.got.tgz:17035.got - 2010.04.14 02:50:06.
