data_PCOD8163604
_publ_section_title
;
Structure prediction by ZEFSAII (Michael W. Deem and Ramdas Pophale) SiO2 
 PCOD8163604
Probable space group: I 2 2 2
;
_chemical_formula_sum "Si O2"
_cell_formula_units_Z 64
_cell_length_a 31.899558
_cell_length_b 8.501444
_cell_length_c 12.177308
_cell_angle_alpha 90.000000
_cell_angle_beta 90.000000
_cell_angle_gamma 90.000000
_cell_volume 3302.392237
_symmetry_space_group_name_H-M "I 2 2 2"
_symmetry_group_IT_number 23
_symmetry_cell_setting 'orthorhombic'
loop_
_space_group_symop_operation_xyz
x,y,z
-x,-y,z
x,-y,-z
-x,y,-z
1/2+x,1/2+y,1/2+z
1/2-x,1/2-y,1/2+z
1/2+x,1/2-y,1/2-z
1/2-x,1/2+y,1/2-z
loop_
_atom_site_type_symbol
_atom_site_label
_atom_site_fract_x
_atom_site_fract_y
_atom_site_fract_z
Si Si1 0.712387 0.168762 0.554663
Si Si2 0.002331 0.686399 0.127945
Si Si3 0.366756 0.682053 0.481891
Si Si4 0.417952 0.692019 0.276134
Si Si5 0.127664 0.613188 0.598807
Si Si6 0.802445 0.184607 0.493805
Si Si7 0.911347 0.819167 0.801334
Si Si8 0.333061 0.163874 0.214220
O O1 0.682159 0.276450 0.480867
O O2 0.759184 0.240787 0.552367
O O3 0.693460 0.162915 0.675326
O O4 0.713869 0.000000 0.500000
O O5 0.042358 0.746710 0.196613
O O6 0.000000 0.500000 0.137064
O O7 0.964819 0.769033 0.190968
O O8 0.000000 0.740291 0.000000
O O9 0.372994 0.500000 0.500000
O O10 0.386101 0.750968 0.370258
O O11 0.392584 0.748540 0.584337
O O12 0.408220 0.790522 0.164881
O O13 0.413175 0.503469 0.270909
O O14 0.109606 0.500000 0.500000
O O15 0.157297 0.746566 0.552210
O O16 0.157483 0.513697 0.678955
O O17 0.802432 0.244188 0.368672
O O18 0.806936 0.000000 0.500000
O O19 0.878952 0.747339 0.713678
#
# Coordination Sequence:
#
# PCOD8163604 Si02
#       8
#     8   8   8   8   8   8   8   8
#     4  10  21  35  55  83 114 148 195 245 291 352
#     4  11  22  34  55  90 127 157 188 231 286 356
#     4   9  19  32  51  82 118 152 189 230 284 352
#     4  11  20  35  59  83 117 161 190 238 295 338
#     4  10  22  39  59  82 110 153 203 245 293 355
#     4  10  22  39  57  82 112 149 198 247 292 353
#     4  10  20  36  56  85 120 154 193 231 285 361
#     4  10  21  38  58  81 114 153 191 245 301 346
#
# _framework density 19.379891000000001
#
# number of rings (size 3 to 8) (size 9 to 14) (size 15 to 20)
#    0.000    1.875    1.250    2.625    0.000    6.000 
#    0.000    1.250    0.000    8.625    0.000   11.375 
#    0.000    0.000    0.000    0.000    0.000    0.000 
#
# Total GULP energy -396549.153937 kJ/mol
# GULP energy per Si atom -12392.161061 kJ/mol
# Density = 1.933578 g / cm^3
# Si number density = 19.379891 Si / 1000 Ang^3
#
#
#
# Elastic Constant Matrix: (Units=GPa)
#
#
# Indices 1 2 3 4 5 6 
#
# 1 112.6433 38.3677 60.7434 0.0000 0.0000 0.0000
# 2 38.3677 73.2742 36.3516 0.0000 0.0000 0.0000
# 3 60.7434 36.3516 96.1032 0.0000 0.0000 0.0000
# 4 0.0000 0.0000 0.0000 25.0298 0.0000 0.0000
# 5 0.0000 0.0000 0.0000 0.0000 30.7158 0.0000
# 6 0.0000 0.0000 0.0000 0.0000 0.0000 16.9305
#
#
#
# Elastic Compliance Matrix: (Units=1/GPa)
#
#
# Indices 1 2 3 4 5 6 
#
# 1 0.014231 -0.003680 -0.007603 0.000000 0.000000 0.000000
# 2 -0.003680 0.017751 -0.004389 0.000000 0.000000 0.000000
# 3 -0.007603 -0.004389 0.016871 0.000000 0.000000 0.000000
# 4 0.000000 0.000000 0.000000 0.039952 0.000000 0.000000
# 5 0.000000 0.000000 0.000000 0.000000 0.032557 0.000000
# 6 0.000000 0.000000 0.000000 0.000000 0.000000 0.059065
#
#
# Mechanical properties :
#
#
# Convention : Reuss Voigt Hill
#
# Bulk Modulus (GPa) = 57.10840 61.43843 59.27341
# Shear Modulus (GPa) = 22.97720 24.30575 23.64147
#
# Velocity S-wave (km/s) = 3.44702 3.54527 3.49649
# Velocity P-wave (km/s) = 6.73605 6.96632 6.85215
#
# Compressibility (1/GPa) = 0.01751056
#
# Stress axis : x y z
#
# Youngs Moduli (GPa) = 70.26988 56.33353 59.27287
#
# Poissons Ratio (x) = 0.20729 0.45065
# Poissons Ratio (y) = 0.25857 0.26014
# Poissons Ratio (z) = 0.53426 0.24724
#
# Static dielectric constant tensor:
#      x y z
#    x 3.727910 0.000000 0.000000 
#    y 0.000000 3.508460 0.000000 
#    z 0.000000 0.000000 3.582130 
# 
# 
# High freq. dielectric constant tensor:
#      x y z
#    x 1.756800 0.000000 0.000000 
#    y 0.000000 1.762350 0.000000 
#    z 0.000000 0.000000 1.745540 
# 
# From -- ./inp_files/18817.got.cif
#   From: 2010.03.12/outbox.cif.g09.slc.cpg/sg23_10_cif.got.tgz:18817.got - 2010.04.14 02:50:06.
