data_PCOD8163271
_publ_section_title
;
Structure prediction by ZEFSAII (Michael W. Deem and Ramdas Pophale) SiO2 
 PCOD8163271
Probable space group: I 2 2 2
;
_chemical_formula_sum "Si O2"
_cell_formula_units_Z 48
_cell_length_a 15.057377
_cell_length_b 20.280233
_cell_length_c 8.895570
_cell_angle_alpha 90.000000
_cell_angle_beta 90.000000
_cell_angle_gamma 90.000000
_cell_volume 2716.414538
_symmetry_space_group_name_H-M "I 2 2 2"
_symmetry_group_IT_number 23
_symmetry_cell_setting 'orthorhombic'
loop_
_space_group_symop_operation_xyz
x,y,z
-x,-y,z
x,-y,-z
-x,y,-z
1/2+x,1/2+y,1/2+z
1/2-x,1/2-y,1/2+z
1/2+x,1/2-y,1/2-z
1/2-x,1/2+y,1/2-z
loop_
_atom_site_type_symbol
_atom_site_label
_atom_site_fract_x
_atom_site_fract_y
_atom_site_fract_z
Si Si1 0.997033 0.366262 0.827200
Si Si2 0.685865 0.923994 0.323783
Si Si3 0.239992 0.307284 0.631978
Si Si4 0.200193 0.186660 0.810055
Si Si5 0.190249 0.425519 0.172371
Si Si6 0.558175 0.248035 0.864502
O O1 0.910809 0.408554 0.785199
O O2 0.082384 0.411041 0.790251
O O3 0.995031 0.298692 0.733963
O O4 0.000000 0.345109 0.000000
O O5 0.747351 0.875632 0.224434
O O6 0.707980 0.910640 0.497776
O O7 0.708126 0.999033 0.282837
O O8 0.262303 0.245996 0.743792
O O9 0.306554 0.307535 0.490745
O O10 0.139017 0.297063 0.570956
O O11 0.240829 0.116395 0.769306
O O12 0.100685 0.193971 0.739819
O O13 0.500000 0.278698 0.000000
#
# Coordination Sequence:
#
# PCOD8163271 Si02
#       6
#     8   8   8   8   8   8
#     4   9  17  29  48  73 107 144 171 203 250 318
#     4   9  18  32  48  75 110 140 175 208 259 317
#     4   9  19  32  50  71 105 140 175 218 262 311
#     4  10  20  31  51  71 103 135 180 219 262 304
#     4  10  18  30  51  77 105 142 176 213 255 316
#     4   9  19  33  47  71 105 137 172 218 262 312
#
# _framework density 17.670352000000001
#
# number of rings (size 3 to 8) (size 9 to 14) (size 15 to 20)
#    1.000    1.667    0.000    2.500    2.333    2.667 
#    0.000    0.000    0.000    3.000    0.000    2.333 
#    0.000    0.000    0.000    0.000    0.000    0.000 
#
# Total GULP energy -297435.605563 kJ/mol
# GULP energy per Si atom -12393.150232 kJ/mol
# Density = 1.763013 g / cm^3
# Si number density = 17.670352 Si / 1000 Ang^3
#
#
#
# Elastic Constant Matrix: (Units=GPa)
#
#
# Indices 1 2 3 4 5 6 
#
# 1 22.7209 21.9293 23.6893 0.0000 0.0000 0.0000
# 2 21.9293 102.3877 46.2786 0.0000 0.0000 0.0000
# 3 23.6893 46.2786 89.4382 0.0000 0.0000 0.0000
# 4 0.0000 0.0000 0.0000 32.0453 0.0000 0.0000
# 5 0.0000 0.0000 0.0000 0.0000 30.1482 0.0000
# 6 0.0000 0.0000 0.0000 0.0000 0.0000 20.7272
#
#
#
# Elastic Compliance Matrix: (Units=1/GPa)
#
#
# Indices 1 2 3 4 5 6 
#
# 1 0.065557 -0.008083 -0.013182 0.000000 0.000000 0.000000
# 2 -0.008083 0.013745 -0.004971 0.000000 0.000000 0.000000
# 3 -0.013182 -0.004971 0.017245 0.000000 0.000000 0.000000
# 4 0.000000 0.000000 0.000000 0.031206 0.000000 0.000000
# 5 0.000000 0.000000 0.000000 0.000000 0.033170 0.000000
# 6 0.000000 0.000000 0.000000 0.000000 0.000000 0.048246
#
#
# Mechanical properties :
#
#
# Convention : Reuss Voigt Hill
#
# Bulk Modulus (GPa) = 22.68852 44.26012 33.47432
# Shear Modulus (GPa) = 18.09425 24.76077 21.42751
#
# Velocity S-wave (km/s) = 3.20345 3.74740 3.48605
# Velocity P-wave (km/s) = 5.15273 6.62013 5.93198
#
# Compressibility (1/GPa) = 0.04407515
#
# Stress axis : x y z
#
# Youngs Moduli (GPa) = 15.25389 72.75397 57.98926
#
# Poissons Ratio (x) = 0.58807 0.76439
# Poissons Ratio (y) = 0.12330 0.28828
# Poissons Ratio (z) = 0.20107 0.36168
#
# Static dielectric constant tensor:
#      x y z
#    x 2.934990 0.000000 0.000000 
#    y 0.000000 3.115600 0.000000 
#    z 0.000000 0.000000 3.190430 
# 
# 
# High freq. dielectric constant tensor:
#      x y z
#    x 1.642970 0.000000 0.000000 
#    y 0.000000 1.667240 0.000000 
#    z 0.000000 0.000000 1.683590 
# 
# From -- ./inp_files/11309.got.cif
#   From: 2010.03.12/outbox.cif.g09.slc.cpg/sg23_6_cif.got.tgz:11309.got - 2010.04.14 02:50:06.
