data_PCOD8163378
_publ_section_title
;
Structure prediction by ZEFSAII (Michael W. Deem and Ramdas Pophale) SiO2 
 PCOD8163378
Probable space group: I 2 2 2
;
_chemical_formula_sum "Si O2"
_cell_formula_units_Z 64
_cell_length_a 22.502264
_cell_length_b 9.454480
_cell_length_c 14.940597
_cell_angle_alpha 90.000000
_cell_angle_beta 90.000000
_cell_angle_gamma 90.000000
_cell_volume 3178.570252
_symmetry_space_group_name_H-M "I 2 2 2"
_symmetry_group_IT_number 23
_symmetry_cell_setting 'orthorhombic'
loop_
_space_group_symop_operation_xyz
x,y,z
-x,-y,z
x,-y,-z
-x,y,-z
1/2+x,1/2+y,1/2+z
1/2-x,1/2-y,1/2+z
1/2+x,1/2-y,1/2-z
1/2-x,1/2+y,1/2-z
loop_
_atom_site_type_symbol
_atom_site_label
_atom_site_fract_x
_atom_site_fract_y
_atom_site_fract_z
Si Si1 0.765002 0.429073 0.588812
Si Si2 0.171022 0.435798 0.099686
Si Si3 0.180470 0.864044 0.830084
Si Si4 0.096785 0.418033 0.414223
Si Si5 0.902380 0.089035 0.582414
Si Si6 0.277106 0.627724 0.139484
Si Si7 0.556523 0.919411 0.720003
Si Si8 0.944798 0.089693 0.775449
O O1 0.738904 0.500000 0.500000
O O2 0.728954 0.512570 0.664228
O O3 0.834500 0.457344 0.598704
O O4 0.749818 0.262960 0.588134
O O5 0.185585 0.267016 0.100224
O O6 0.225329 0.513130 0.149979
O O7 0.111869 0.460496 0.157410
O O8 0.163546 0.500000 0.000000
O O9 0.193227 0.806204 0.729802
O O10 0.114817 0.935064 0.834249
O O11 0.069948 0.500000 0.500000
O O12 0.086402 0.253962 0.434105
O O13 0.066322 0.468711 0.322491
O O14 0.831565 0.057698 0.585543
O O15 0.934026 0.038675 0.673508
O O16 0.929524 0.000000 0.500000
O O17 0.540968 0.754748 0.718535
O O18 0.500000 0.000000 0.679991
O O19 0.000000 0.000000 0.815211
#
# Coordination Sequence:
#
# PCOD8163378 Si02
#       8
#     8   8   8   8   8   8   8   8
#     4  10  19  33  53  79 110 139 168 212 269 327
#     4  11  22  37  58  84 113 148 190 234 280 331
#     4  10  20  36  56  78 110 143 177 226 274 325
#     4   9  19  35  54  80 114 148 181 224 281 344
#     4   9  18  32  51  78 111 140 173 219 269 329
#     4  10  19  33  54  82 112 142 178 217 269 331
#     4  10  22  39  56  77 109 146 190 240 284 329
#     4   9  20  37  54  75 103 140 183 228 275 323
#
# _framework density 20.134838999999999
#
# number of rings (size 3 to 8) (size 9 to 14) (size 15 to 20)
#    0.000    2.250    0.000    4.875    0.000    4.750 
#    0.000    5.000    0.000    1.875    0.000    0.000 
#    0.000    0.000    0.000    0.000    0.000    0.000 
#
# Total GULP energy -396668.564297 kJ/mol
# GULP energy per Si atom -12395.892634 kJ/mol
# Density = 2.008901 g / cm^3
# Si number density = 20.134839 Si / 1000 Ang^3
#
#
#
# Elastic Constant Matrix: (Units=GPa)
#
#
# Indices 1 2 3 4 5 6 
#
# 1 82.4780 48.0672 14.8695 0.0000 0.0000 0.0000
# 2 48.0672 62.8174 21.3435 0.0000 0.0000 0.0000
# 3 14.8695 21.3435 71.1277 0.0000 0.0000 0.0000
# 4 0.0000 0.0000 0.0000 32.2836 0.0000 0.0000
# 5 0.0000 0.0000 0.0000 0.0000 17.5854 0.0000
# 6 0.0000 0.0000 0.0000 0.0000 0.0000 34.0912
#
#
#
# Elastic Compliance Matrix: (Units=1/GPa)
#
#
# Indices 1 2 3 4 5 6 
#
# 1 0.021899 -0.016927 0.000501 0.000000 0.000000 0.000000
# 2 -0.016927 0.030811 -0.005707 0.000000 0.000000 0.000000
# 3 0.000501 -0.005707 0.015667 0.000000 0.000000 0.000000
# 4 0.000000 0.000000 0.000000 0.030975 0.000000 0.000000
# 5 0.000000 0.000000 0.000000 0.000000 0.056865 0.000000
# 6 0.000000 0.000000 0.000000 0.000000 0.000000 0.029333
#
#
# Mechanical properties :
#
#
# Convention : Reuss Voigt Hill
#
# Bulk Modulus (GPa) = 41.47442 42.77596 42.12519
# Shear Modulus (GPa) = 21.02135 25.60156 23.31145
#
# Velocity S-wave (km/s) = 3.23465 3.56969 3.40629
# Velocity P-wave (km/s) = 5.88164 6.18717 6.03634
#
# Compressibility (1/GPa) = 0.02411125
#
# Stress axis : x y z
#
# Youngs Moduli (GPa) = 45.66391 32.45615 63.82903
#
# Poissons Ratio (x) = 0.54940 -0.03200
# Poissons Ratio (y) = 0.77297 0.36426
# Poissons Ratio (z) = -0.02289 0.18522
#
# Static dielectric constant tensor:
#      x y z
#    x 3.549780 0.000000 0.000000 
#    y 0.000000 3.501490 0.000000 
#    z 0.000000 0.000000 3.667280 
# 
# 
# High freq. dielectric constant tensor:
#      x y z
#    x 1.785330 0.000000 0.000000 
#    y 0.000000 1.777910 0.000000 
#    z 0.000000 0.000000 1.777470 
# 
# From -- ./inp_files/10360.got.cif
#   From: 2010.03.12/outbox.cif.g09.slc.cpg/sg23_6_cif.got.tgz:10360.got - 2010.04.14 02:50:06.
