data_PCOD8163515
_publ_section_title
;
Structure prediction by ZEFSAII (Michael W. Deem and Ramdas Pophale) SiO2 
 PCOD8163515
Probable space group: I 2 2 2
;
_chemical_formula_sum "Si O2"
_cell_formula_units_Z 34
_cell_length_a 22.533223
_cell_length_b 5.142513
_cell_length_c 16.501949
_cell_angle_alpha 90.000000
_cell_angle_beta 90.000000
_cell_angle_gamma 90.000000
_cell_volume 1912.202816
_symmetry_space_group_name_H-M "I 2 2 2"
_symmetry_group_IT_number 23
_symmetry_cell_setting 'orthorhombic'
loop_
_space_group_symop_operation_xyz
x,y,z
-x,-y,z
x,-y,-z
-x,y,-z
1/2+x,1/2+y,1/2+z
1/2-x,1/2-y,1/2+z
1/2+x,1/2-y,1/2-z
1/2-x,1/2+y,1/2-z
loop_
_atom_site_type_symbol
_atom_site_label
_atom_site_fract_x
_atom_site_fract_y
_atom_site_fract_z
Si Si1 0.887812 0.839608 0.423666
Si Si2 0.196108 0.500000 0.500000
Si Si3 0.305921 0.011666 0.325761
Si Si4 0.827891 0.010210 0.731788
Si Si5 0.000000 0.000000 0.500000
Si Si6 0.725578 0.000000 0.500000
O O1 0.849306 0.570670 0.425035
O O2 0.878425 0.975282 0.337268
O O3 0.958573 0.815881 0.442479
O O4 0.859619 0.000000 0.500000
O O5 0.236794 0.743405 0.476796
O O6 0.235576 0.025313 0.311301
O O7 0.338640 0.244187 0.279334
O O8 0.334647 0.744344 0.295547
O O9 0.315819 0.050814 0.421875
#
# Coordination Sequence:
#
# PCOD8163515 Si02
#       6
#     8   4   8   8   2   4
#     4  10  21  36  55  74 104 141 179 222 257 313
#     4  12  20  31  56  72  98 152 174 217 254 306
#     4  10  21  32  48  76 101 139 175 215 248 331
#     4  10  20  32  49  73 105 131 180 212 263 300
#     4   8  22  42  52  82  96 148 188 220 256 328
#     4  12  21  34  52  77 106 143 186 207 264 316
#
# _framework density 17.780542000000001
#
# number of rings (size 3 to 8) (size 9 to 14) (size 15 to 20)
#    0.706    0.941    3.529    1.412    9.882    0.471 
#    0.000    0.000    0.000    0.000    0.000    0.000 
#    0.000    5.647    0.000    0.000    0.000    0.000 
#
# Total GULP energy -210637.587610 kJ/mol
# GULP energy per Si atom -12390.446330 kJ/mol
# Density = 1.774007 g / cm^3
# Si number density = 17.780542 Si / 1000 Ang^3
#
#
#
# Elastic Constant Matrix: (Units=GPa)
#
#
# Indices 1 2 3 4 5 6 
#
# 1 52.2869 12.1074 28.4989 0.0000 0.0000 0.0000
# 2 12.1074 82.4537 22.6249 0.0000 0.0000 0.0000
# 3 28.4989 22.6249 125.3412 0.0000 0.0000 0.0000
# 4 0.0000 0.0000 0.0000 27.8713 0.0000 0.0000
# 5 0.0000 0.0000 0.0000 0.0000 21.7217 0.0000
# 6 0.0000 0.0000 0.0000 0.0000 0.0000 10.3576
#
#
#
# Elastic Compliance Matrix: (Units=1/GPa)
#
#
# Indices 1 2 3 4 5 6 
#
# 1 0.022130 -0.001966 -0.004677 0.000000 0.000000 0.000000
# 2 -0.001966 0.012935 -0.001888 0.000000 0.000000 0.000000
# 3 -0.004677 -0.001888 0.009382 0.000000 0.000000 0.000000
# 4 0.000000 0.000000 0.000000 0.035879 0.000000 0.000000
# 5 0.000000 0.000000 0.000000 0.000000 0.046037 0.000000
# 6 0.000000 0.000000 0.000000 0.000000 0.000000 0.096547
#
#
# Mechanical properties :
#
#
# Convention : Reuss Voigt Hill
#
# Bulk Modulus (GPa) = 36.51594 42.94936 39.73265
# Shear Modulus (GPa) = 20.07228 25.11349 22.59288
#
# Velocity S-wave (km/s) = 3.36354 3.76229 3.56849
# Velocity P-wave (km/s) = 5.97211 6.56359 6.27483
#
# Compressibility (1/GPa) = 0.02738530
#
# Stress axis : x y z
#
# Youngs Moduli (GPa) = 45.18842 77.31132 106.58348
#
# Poissons Ratio (x) = 0.15201 0.49846
# Poissons Ratio (y) = 0.08885 0.20120
# Poissons Ratio (z) = 0.21133 0.14594
#
# Static dielectric constant tensor:
#      x y z
#    x 2.751670 0.000000 0.000000 
#    y 0.000000 3.508220 0.000000 
#    z 0.000000 0.000000 3.294010 
# 
# 
# High freq. dielectric constant tensor:
#      x y z
#    x 1.614920 0.000000 0.000000 
#    y 0.000000 1.701710 0.000000 
#    z 0.000000 0.000000 1.683250 
# 
# From -- ./inp_files/4833.got.cif
#   From: 2010.03.12/outbox.cif.g09.slc.cpg/sg23_3_cif.got.tgz:4833.got - 2010.04.14 02:50:06.
