data_PCOD8163303
_publ_section_title
;
Structure prediction by ZEFSAII (Michael W. Deem and Ramdas Pophale) SiO2 
 PCOD8163303
Probable space group: I 2 2 2
;
_chemical_formula_sum "Si O2"
_cell_formula_units_Z 56
_cell_length_a 20.824693
_cell_length_b 14.617733
_cell_length_c 9.390421
_cell_angle_alpha 90.000000
_cell_angle_beta 90.000000
_cell_angle_gamma 90.000000
_cell_volume 2858.536198
_symmetry_space_group_name_H-M "I 2 2 2"
_symmetry_group_IT_number 23
_symmetry_cell_setting 'orthorhombic'
loop_
_space_group_symop_operation_xyz
x,y,z
-x,-y,z
x,-y,-z
-x,y,-z
1/2+x,1/2+y,1/2+z
1/2-x,1/2-y,1/2+z
1/2+x,1/2-y,1/2-z
1/2-x,1/2+y,1/2-z
loop_
_atom_site_type_symbol
_atom_site_label
_atom_site_fract_x
_atom_site_fract_y
_atom_site_fract_z
Si Si1 0.199942 0.500000 0.500000
Si Si2 0.361472 0.269033 0.484016
Si Si3 0.729818 0.372957 0.314725
Si Si4 0.506484 0.104530 0.778321
Si Si5 0.329782 0.713577 0.835905
Si Si6 0.737141 0.104643 0.506980
Si Si7 0.500000 0.212968 0.500000
Si Si8 0.101151 0.653438 0.513512
O O1 0.245413 0.528770 0.368959
O O2 0.160318 0.587886 0.556353
O O3 0.331414 0.341260 0.594321
O O4 0.358665 0.305318 0.320672
O O5 0.325560 0.170490 0.497315
O O6 0.435610 0.269408 0.534684
O O7 0.786646 0.302578 0.337421
O O8 0.718235 0.379132 0.146188
O O9 0.522944 0.153911 0.633079
O O10 0.445606 0.155639 0.850218
O O11 0.500000 0.000000 0.738018
O O12 0.567221 0.104433 0.881286
O O13 0.286845 0.626135 0.879126
O O14 0.381634 0.742990 0.959220
O O15 0.712649 0.000000 0.500000
#
# Coordination Sequence:
#
# PCOD8163303 Si02
#       8
#     4   8   8   8   8   8   4   8
#     4  10  18  33  62  85 110 152 192 246 296 346
#     4  10  22  42  55  84 122 159 199 233 298 365
#     4   9  21  35  58  86 114 152 198 236 301 350
#     4  11  21  34  51  86 121 158 195 233 284 353
#     4   9  19  38  58  80 119 154 196 245 284 353
#     4  10  22  38  61  91 118 148 193 256 302 347
#     4  12  25  36  56  81 122 166 192 242 289 348
#     4  10  18  35  57  80 118 158 199 230 282 359
#
# _framework density 19.590447000000001
#
# number of rings (size 3 to 8) (size 9 to 14) (size 15 to 20)
#    0.000    2.000    2.857    0.643    4.000    2.286 
#    0.000    0.000    0.000    0.429    0.000    7.000 
#    0.000    0.000    0.000    0.000    0.000    0.000 
#
# Total GULP energy -346974.930579 kJ/mol
# GULP energy per Si atom -12391.961806 kJ/mol
# Density = 1.954586 g / cm^3
# Si number density = 19.590447 Si / 1000 Ang^3
#
#
#
# Elastic Constant Matrix: (Units=GPa)
#
#
# Indices 1 2 3 4 5 6 
#
# 1 101.9906 32.0942 27.5692 0.0000 0.0000 0.0000
# 2 32.0942 54.5427 16.1343 0.0000 0.0000 0.0000
# 3 27.5692 16.1343 77.4581 0.0000 0.0000 0.0000
# 4 0.0000 0.0000 0.0000 22.7994 0.0000 0.0000
# 5 0.0000 0.0000 0.0000 0.0000 19.7633 0.0000
# 6 0.0000 0.0000 0.0000 0.0000 0.0000 23.7211
#
#
#
# Elastic Compliance Matrix: (Units=1/GPa)
#
#
# Indices 1 2 3 4 5 6 
#
# 1 0.012721 -0.006550 -0.003163 0.000000 0.000000 0.000000
# 2 -0.006550 0.022910 -0.002441 0.000000 0.000000 0.000000
# 3 -0.003163 -0.002441 0.014545 0.000000 0.000000 0.000000
# 4 0.000000 0.000000 0.000000 0.043861 0.000000 0.000000
# 5 0.000000 0.000000 0.000000 0.000000 0.050599 0.000000
# 6 0.000000 0.000000 0.000000 0.000000 0.000000 0.042157
#
#
# Mechanical properties :
#
#
# Convention : Reuss Voigt Hill
#
# Bulk Modulus (GPa) = 38.65805 42.84299 40.75052
# Shear Modulus (GPa) = 22.75597 23.80300 23.27948
#
# Velocity S-wave (km/s) = 3.41190 3.48951 3.45092
# Velocity P-wave (km/s) = 5.94116 6.17676 6.06011
#
# Compressibility (1/GPa) = 0.02586783
#
# Stress axis : x y z
#
# Youngs Moduli (GPa) = 78.61067 43.64868 68.75404
#
# Poissons Ratio (x) = 0.28588 0.21750
# Poissons Ratio (y) = 0.51486 0.16783
# Poissons Ratio (z) = 0.24868 0.10655
#
# Static dielectric constant tensor:
#      x y z
#    x 3.558190 0.000000 0.000000 
#    y 0.000000 3.325170 0.000000 
#    z 0.000000 0.000000 3.885250 
# 
# 
# High freq. dielectric constant tensor:
#      x y z
#    x 1.747260 0.000000 0.000000 
#    y 0.000000 1.727160 0.000000 
#    z 0.000000 0.000000 1.775580 
# 
# From -- ./inp_files/12097.got.cif
#   From: 2010.03.12/outbox.cif.g09.slc.cpg/sg23_7_cif.got.tgz:12097.got - 2010.04.14 02:50:06.
