data_PCOD8163583
_publ_section_title
;
Structure prediction by ZEFSAII (Michael W. Deem and Ramdas Pophale) SiO2 
 PCOD8163583
Probable space group: I 2 2 2
;
_chemical_formula_sum "Si O2"
_cell_formula_units_Z 48
_cell_length_a 8.258604
_cell_length_b 29.282844
_cell_length_c 8.906551
_cell_angle_alpha 90.000000
_cell_angle_beta 90.000000
_cell_angle_gamma 90.000000
_cell_volume 2153.919436
_symmetry_space_group_name_H-M "I 2 2 2"
_symmetry_group_IT_number 23
_symmetry_cell_setting 'orthorhombic'
loop_
_space_group_symop_operation_xyz
x,y,z
-x,-y,z
x,-y,-z
-x,y,-z
1/2+x,1/2+y,1/2+z
1/2-x,1/2-y,1/2+z
1/2+x,1/2-y,1/2-z
1/2-x,1/2+y,1/2-z
loop_
_atom_site_type_symbol
_atom_site_label
_atom_site_fract_x
_atom_site_fract_y
_atom_site_fract_z
Si Si1 0.186656 0.686207 0.829101
Si Si2 0.308050 0.995354 0.332546
Si Si3 0.484579 0.252539 0.171283
Si Si4 0.794790 0.585801 0.671898
Si Si5 0.152406 0.159841 0.390550
Si Si6 0.177858 0.405036 0.330686
O O1 0.308359 0.727780 0.794978
O O2 0.015322 0.708798 0.780017
O O3 0.240148 0.643283 0.728339
O O4 0.191238 0.669480 0.002028
O O5 0.250906 0.946756 0.267090
O O6 0.500000 0.000000 0.336556
O O7 0.236118 0.000000 0.500000
O O8 0.241712 0.035652 0.226832
O O9 0.611275 0.293996 0.199107
O O10 0.500000 0.234851 0.000000
O O11 0.692902 0.621038 0.771469
O O12 0.751652 0.589744 0.497415
O O13 0.984894 0.594605 0.687311
O O14 0.000000 0.147179 0.500000
#
# Coordination Sequence:
#
# PCOD8163583 Si02
#       6
#     8   8   8   8   8   8
#     4  10  21  39  61  85 118 160 202 252 304 369
#     4   9  17  32  55  89 123 154 195 244 299 369
#     4   9  22  40  58  84 121 152 205 256 300 359
#     4  10  20  35  59  87 128 158 195 254 305 371
#     4   9  21  41  59  84 119 161 206 258 306 365
#     4  10  21  33  58  91 124 158 199 249 315 364
#
# _framework density 22.284956000000001
#
# number of rings (size 3 to 8) (size 9 to 14) (size 15 to 20)
#    0.000    2.833    0.000    1.500    4.667    5.333 
#    3.000   10.000    0.000   12.500    0.000   14.000 
#    0.000    0.000    0.000    0.000    0.000    0.000 
#
# Total GULP energy -297462.627934 kJ/mol
# GULP energy per Si atom -12394.276164 kJ/mol
# Density = 2.223423 g / cm^3
# Si number density = 22.284956 Si / 1000 Ang^3
#
#
#
# Elastic Constant Matrix: (Units=GPa)
#
#
# Indices 1 2 3 4 5 6 
#
# 1 13.1873 16.5233 21.9791 -0.0001 0.0000 0.0007
# 2 16.5233 138.5740 78.0539 -0.0002 -0.0010 0.0005
# 3 21.9791 78.0539 136.4633 -0.0049 -0.0022 0.0037
# 4 -0.0001 -0.0002 -0.0049 46.0017 -0.0015 0.0022
# 5 0.0000 -0.0010 -0.0022 -0.0015 30.4831 0.0003
# 6 0.0007 0.0005 0.0037 0.0022 0.0003 17.2980
#
#
#
# Elastic Compliance Matrix: (Units=1/GPa)
#
#
# Indices 1 2 3 4 5 6 
#
# 1 0.105473 -0.004438 -0.014450 -0.000001 -0.000001 -0.000001
# 2 -0.004438 0.010833 -0.005482 -0.000001 0.000000 0.000001
# 3 -0.014450 -0.005482 0.012791 0.000001 0.000001 -0.000002
# 4 -0.000001 -0.000001 0.000001 0.021738 0.000001 -0.000003
# 5 -0.000001 0.000000 0.000001 0.000001 0.032805 -0.000001
# 6 -0.000001 0.000001 -0.000002 -0.000003 -0.000001 0.057810
#
#
# Mechanical properties :
#
#
# Convention : Reuss Voigt Hill
#
# Bulk Modulus (GPa) = 12.44404 57.92636 35.18520
# Shear Modulus (GPa) = 15.77414 30.20112 22.98763
#
# Velocity S-wave (km/s) = 2.66341 3.68533 3.21523
# Velocity P-wave (km/s) = 3.88001 6.64521 5.44120
#
# Compressibility (1/GPa) = 0.08035974
#
# Stress axis : x y z
#
# Youngs Moduli (GPa) = 9.48106 92.31021 78.18255
#
# Poissons Ratio (x) = 0.40963 1.12971
# Poissons Ratio (y) = 0.04207 0.42856
# Poissons Ratio (z) = 0.13700 0.50600
#
# Static dielectric constant tensor:
#      x y z
#    x 3.606450 0.000000 0.000000 
#    y 0.000000 4.068300 0.000000 
#    z 0.000000 0.000000 4.031640 
# 
# 
# High freq. dielectric constant tensor:
#      x y z
#    x 1.844210 0.000000 0.000000 
#    y 0.000000 1.888730 0.000000 
#    z 0.000000 0.000000 1.877970 
# 
# From -- ./inp_files/7328.got.cif
#   From: 2010.03.12/outbox.cif.g09.slc.cpg/sg23_4_cif.got.tgz:7328.got - 2010.04.14 02:50:06.
