data_PCOD8163475
_publ_section_title
;
Structure prediction by ZEFSAII (Michael W. Deem and Ramdas Pophale) SiO2 
 PCOD8163475
Probable space group: I 2 2 2
;
_chemical_formula_sum "Si O2"
_cell_formula_units_Z 40
_cell_length_a 14.015182
_cell_length_b 9.268438
_cell_length_c 14.610313
_cell_angle_alpha 90.000000
_cell_angle_beta 90.000000
_cell_angle_gamma 90.000000
_cell_volume 1897.862790
_symmetry_space_group_name_H-M "I 2 2 2"
_symmetry_group_IT_number 23
_symmetry_cell_setting 'orthorhombic'
loop_
_space_group_symop_operation_xyz
x,y,z
-x,-y,z
x,-y,-z
-x,y,-z
1/2+x,1/2+y,1/2+z
1/2-x,1/2-y,1/2+z
1/2+x,1/2-y,1/2-z
1/2-x,1/2+y,1/2-z
loop_
_atom_site_type_symbol
_atom_site_label
_atom_site_fract_x
_atom_site_fract_y
_atom_site_fract_z
Si Si1 0.591743 0.414978 0.855887
Si Si2 0.680380 0.344509 0.259004
Si Si3 0.848254 0.370541 0.122885
Si Si4 0.501020 0.161992 0.240158
Si Si5 0.284479 0.173584 0.572472
O O1 0.500000 0.500000 0.897909
O O2 0.630724 0.502522 0.765538
O O3 0.562295 0.255635 0.828266
O O4 0.676615 0.393583 0.929447
O O5 0.774620 0.320136 0.200428
O O6 0.608691 0.215212 0.236610
O O7 0.707017 0.319395 0.366338
O O8 0.953854 0.327198 0.157759
O O9 0.850037 0.544009 0.111617
O O10 0.819217 0.288642 0.029571
O O11 0.500000 0.000000 0.202282
#
# Coordination Sequence:
#
# PCOD8163475 Si02
#       5
#     8   8   8   8   8
#     4   9  20  37  61  89 120 161 205 249 310 358
#     4  10  20  37  60  87 119 160 198 254 304 351
#     4  10  21  36  60  93 118 156 209 242 305 367
#     4  11  20  36  63  88 119 159 196 247 302 371
#     4  10  19  37  62  89 122 160 201 256 299 360
#
# _framework density 21.076339999999998
#
# number of rings (size 3 to 8) (size 9 to 14) (size 15 to 20)
#    0.000    2.000    4.000    0.000    0.000    0.800 
#    0.000   18.000    0.000    4.800    0.000    0.000 
#    0.000    0.000    0.000    0.000    0.000    0.000 
#
# Total GULP energy -247829.827542 kJ/mol
# GULP energy per Si atom -12391.491377 kJ/mol
# Density = 2.102837 g / cm^3
# Si number density = 21.076340 Si / 1000 Ang^3
#
#
#
# Elastic Constant Matrix: (Units=GPa)
#
#
# Indices 1 2 3 4 5 6 
#
# 1 56.7050 19.8167 -4.3721 0.0000 0.0000 0.0000
# 2 19.8167 95.2675 23.0608 0.0000 0.0000 0.0000
# 3 -4.3721 23.0608 76.9461 0.0000 0.0000 0.0000
# 4 0.0000 0.0000 0.0000 26.3239 0.0000 0.0000
# 5 0.0000 0.0000 0.0000 0.0000 22.4228 0.0000
# 6 0.0000 0.0000 0.0000 0.0000 0.0000 28.8017
#
#
#
# Elastic Compliance Matrix: (Units=1/GPa)
#
#
# Indices 1 2 3 4 5 6 
#
# 1 0.019453 -0.004652 0.002499 0.000000 0.000000 0.000000
# 2 -0.004652 0.012430 -0.003990 0.000000 0.000000 0.000000
# 3 0.002499 -0.003990 0.014334 0.000000 0.000000 0.000000
# 4 0.000000 0.000000 0.000000 0.037988 0.000000 0.000000
# 5 0.000000 0.000000 0.000000 0.000000 0.044597 0.000000
# 6 0.000000 0.000000 0.000000 0.000000 0.000000 0.034720
#
#
# Mechanical properties :
#
#
# Convention : Reuss Voigt Hill
#
# Bulk Modulus (GPa) = 29.46912 33.99216 31.73064
# Shear Modulus (GPa) = 26.72113 28.20390 27.46252
#
# Velocity S-wave (km/s) = 3.56452 3.66208 3.61363
# Velocity P-wave (km/s) = 5.56359 5.83474 5.70078
#
# Compressibility (1/GPa) = 0.03393383
#
# Stress axis : x y z
#
# Youngs Moduli (GPa) = 51.40490 80.45005 69.76507
#
# Poissons Ratio (x) = 0.37422 -0.17437
# Poissons Ratio (y) = 0.23911 0.27834
# Poissons Ratio (z) = -0.12848 0.32096
#
# Static dielectric constant tensor:
#      x y z
#    x 4.123210 0.000000 0.000000 
#    y 0.000000 3.745780 0.000000 
#    z 0.000000 0.000000 3.561200 
# 
# 
# High freq. dielectric constant tensor:
#      x y z
#    x 1.849370 0.000000 0.000000 
#    y 0.000000 1.807340 0.000000 
#    z 0.000000 0.000000 1.791920 
# 
# From -- ./inp_files/9558.got.cif
#   From: 2010.03.12/outbox.cif.g09.slc.cpg/sg23_5_cif.got.tgz:9558.got - 2010.04.14 02:50:06.
