data_PCOD8163149
_publ_section_title
;
Structure prediction by ZEFSAII (Michael W. Deem and Ramdas Pophale) SiO2 
 PCOD8163149
Probable space group: F 2 2 2
;
_chemical_formula_sum "Si O2"
_cell_formula_units_Z 80
_cell_length_a 24.658619
_cell_length_b 10.013593
_cell_length_c 15.716202
_cell_angle_alpha 90.000000
_cell_angle_beta 90.000000
_cell_angle_gamma 90.000000
_cell_volume 3880.666201
_symmetry_space_group_name_H-M "F 2 2 2"
_symmetry_group_IT_number 22
_symmetry_cell_setting 'orthorhombic'
loop_
_space_group_symop_operation_xyz
x,y,z
-x,-y,z
x,-y,-z
-x,y,-z
x,1/2+y,1/2+z
-x,1/2-y,1/2+z
x,1/2-y,1/2-z
-x,1/2+y,1/2-z
1/2+x,y,1/2+z
1/2-x,-y,1/2+z
1/2+x,-y,1/2-z
1/2-x,y,1/2-z
1/2+x,1/2+y,z
1/2-x,1/2-y,z
1/2+x,1/2-y,-z
1/2-x,1/2+y,-z
loop_
_atom_site_type_symbol
_atom_site_label
_atom_site_fract_x
_atom_site_fract_y
_atom_site_fract_z
Si Si1 0.712412 0.533431 0.833078
Si Si2 0.635131 0.781835 0.342952
Si Si3 0.562883 0.656615 0.001326
Si Si4 0.871641 0.262778 0.158065
Si Si5 0.818645 0.983675 0.406057
O O1 0.750000 0.519270 0.750000
O O2 0.667355 0.419497 0.838971
O O3 0.683111 0.675180 0.841231
O O4 0.754840 0.520306 0.910446
O O5 0.610041 0.750000 0.250000
O O6 0.586911 0.785722 0.411358
O O7 0.676187 0.665389 0.370315
O O8 0.573980 0.500000 0.000000
O O9 0.500000 0.692783 0.000000
O O10 0.589170 0.722965 0.918367
O O11 0.901622 0.250000 0.250000
O O12 0.853016 0.416333 0.153221
O O13 0.842934 0.000000 0.500000
#
# Coordination Sequence:
#
# PCOD8163149 Si02
#       5
#    16  16  16  16  16
#     4  12  24  40  64 101 138 188 216 261 322 408
#     4  12  24  44  68  98 137 175 223 272 332 397
#     4  11  26  49  72  96 127 174 233 289 334 386
#     4  12  24  44  68  98 137 175 223 272 332 397
#     4  12  26  38  62 102 142 175 221 269 327 399
#
# _framework density 20.615017000000002
#
# number of rings (size 3 to 8) (size 9 to 14) (size 15 to 20)
#    0.000    0.200    8.000    1.200    2.800    2.400 
#    0.000    2.000    0.000    0.000    0.000    0.000 
#    0.000    0.000    0.000    0.000    0.000    0.000 
#
# Total GULP energy -248031.936891 kJ/mol
# GULP energy per Si atom -12401.596845 kJ/mol
# Density = 2.056810 g / cm^3
# Si number density = 20.615017 Si / 1000 Ang^3
#
#
#
# Elastic Constant Matrix: (Units=GPa)
#
#
# Indices 1 2 3 4 5 6 
#
# 1 98.1912 21.5320 47.4921 0.0000 0.0000 0.0000
# 2 21.5320 78.6248 13.2710 0.0000 0.0000 0.0000
# 3 47.4921 13.2710 156.4276 0.0000 0.0000 0.0000
# 4 0.0000 0.0000 0.0000 30.7852 0.0000 0.0000
# 5 0.0000 0.0000 0.0000 0.0000 23.4400 0.0000
# 6 0.0000 0.0000 0.0000 0.0000 0.0000 16.0585
#
#
#
# Elastic Compliance Matrix: (Units=1/GPa)
#
#
# Indices 1 2 3 4 5 6 
#
# 1 0.012528 -0.002829 -0.003564 0.000000 0.000000 0.000000
# 2 -0.002829 0.013542 -0.000290 0.000000 0.000000 0.000000
# 3 -0.003564 -0.000290 0.007499 0.000000 0.000000 0.000000
# 4 0.000000 0.000000 0.000000 0.032483 0.000000 0.000000
# 5 0.000000 0.000000 0.000000 0.000000 0.042662 0.000000
# 6 0.000000 0.000000 0.000000 0.000000 0.000000 0.062272
#
#
# Mechanical properties :
#
#
# Convention : Reuss Voigt Hill
#
# Bulk Modulus (GPa) = 49.49493 55.31486 52.40489
# Shear Modulus (GPa) = 26.16594 30.78664 28.47629
#
# Velocity S-wave (km/s) = 3.56654 3.86866 3.72067
# Velocity P-wave (km/s) = 6.40481 6.84441 6.62825
#
# Compressibility (1/GPa) = 0.02020409
#
# Stress axis : x y z
#
# Youngs Moduli (GPa) = 79.81941 73.84198 133.34665
#
# Poissons Ratio (x) = 0.20893 0.47519
# Poissons Ratio (y) = 0.22585 0.03865
# Poissons Ratio (z) = 0.28444 0.02140
#
# Static dielectric constant tensor:
#      x y z
#    x 3.597980 0.000000 0.000000 
#    y 0.000000 3.830630 0.000000 
#    z 0.000000 0.000000 4.137540 
# 
# 
# High freq. dielectric constant tensor:
#      x y z
#    x 1.774870 0.000000 0.000000 
#    y 0.000000 1.821310 0.000000 
#    z 0.000000 0.000000 1.830010 
# 
# From -- ./inp_files/32258.got.cif
#   From: 2010.03.12/outbox.cif.g09.slc.cpg/sg22_17_cif.got.tgz:32258.got - 2010.04.14 02:24:06.
