data_PCOD8163036
_publ_section_title
;
Structure prediction by ZEFSAII (Michael W. Deem and Ramdas Pophale) SiO2 
 PCOD8163036
Probable space group: F 2 2 2
;
_chemical_formula_sum "Si O2"
_cell_formula_units_Z 56
_cell_length_a 14.944376
_cell_length_b 13.448958
_cell_length_c 11.633346
_cell_angle_alpha 90.000000
_cell_angle_beta 90.000000
_cell_angle_gamma 90.000000
_cell_volume 2338.142997
_symmetry_space_group_name_H-M "F 2 2 2"
_symmetry_group_IT_number 22
_symmetry_cell_setting 'orthorhombic'
loop_
_space_group_symop_operation_xyz
x,y,z
-x,-y,z
x,-y,-z
-x,y,-z
x,1/2+y,1/2+z
-x,1/2-y,1/2+z
x,1/2-y,1/2-z
-x,1/2+y,1/2-z
1/2+x,y,1/2+z
1/2-x,-y,1/2+z
1/2+x,-y,1/2-z
1/2-x,y,1/2-z
1/2+x,1/2+y,z
1/2-x,1/2-y,z
1/2+x,1/2-y,-z
1/2-x,1/2+y,-z
loop_
_atom_site_type_symbol
_atom_site_label
_atom_site_fract_x
_atom_site_fract_y
_atom_site_fract_z
Si Si1 0.027087 0.750000 0.250000
Si Si2 0.769012 0.141249 0.561143
Si Si3 0.336874 0.106891 0.826050
Si Si4 0.118358 0.097181 0.227731
O O1 0.094711 0.800780 0.341521
O O2 0.970184 0.840394 0.193564
O O3 0.750000 0.250000 0.509845
O O4 0.804461 0.075977 0.453711
O O5 0.840056 0.156829 0.664079
O O6 0.681635 0.090178 0.616169
O O7 0.250000 0.132752 0.750000
O O8 0.394081 0.016058 0.770793
#
# Coordination Sequence:
#
# PCOD8163036 Si02
#       4
#     8  16  16  16
#     4  12  25  47  68 114 152 186 250 315 371 430
#     4  11  21  45  77 103 144 198 249 291 375 444
#     4  12  26  45  73 109 150 194 246 307 374 446
#     4  11  23  45  77 105 143 200 251 306 362 451
#
# _framework density 23.950631000000001
#
# number of rings (size 3 to 8) (size 9 to 14) (size 15 to 20)
#    0.000    0.571    5.714    4.714    0.000    1.143 
#    5.143    2.857    0.000    3.429    0.000    0.000 
#    0.000    0.000    0.000    0.000    0.000    0.000 
#
# Total GULP energy -173480.698198 kJ/mol
# GULP energy per Si atom -12391.478443 kJ/mol
# Density = 2.389612 g / cm^3
# Si number density = 23.950631 Si / 1000 Ang^3
#
#
#
# Elastic Constant Matrix: (Units=GPa)
#
#
# Indices 1 2 3 4 5 6 
#
# 1 133.8106 73.8583 58.3689 0.0000 0.0000 0.0000
# 2 73.8583 124.5946 46.9606 0.0000 0.0000 0.0000
# 3 58.3689 46.9606 137.9195 0.0000 0.0000 0.0000
# 4 0.0000 0.0000 0.0000 17.5894 0.0000 0.0000
# 5 0.0000 0.0000 0.0000 0.0000 18.1705 0.0000
# 6 0.0000 0.0000 0.0000 0.0000 0.0000 47.9248
#
#
#
# Elastic Compliance Matrix: (Units=1/GPa)
#
#
# Indices 1 2 3 4 5 6 
#
# 1 0.012154 -0.006042 -0.003087 0.000000 0.000000 0.000000
# 2 -0.006042 0.012211 -0.001601 0.000000 0.000000 0.000000
# 3 -0.003087 -0.001601 0.009102 0.000000 0.000000 0.000000
# 4 0.000000 0.000000 0.000000 0.056852 0.000000 0.000000
# 5 0.000000 0.000000 0.000000 0.000000 0.055034 0.000000
# 6 0.000000 0.000000 0.000000 0.000000 0.000000 0.020866
#
#
# Mechanical properties :
#
#
# Convention : Reuss Voigt Hill
#
# Bulk Modulus (GPa) = 83.27162 83.85558 83.56360
# Shear Modulus (GPa) = 26.08496 31.21273 28.64884
#
# Velocity S-wave (km/s) = 3.30375 3.61392 3.46231
# Velocity P-wave (km/s) = 7.02827 7.24581 7.13787
#
# Compressibility (1/GPa) = 0.01200889
#
# Stress axis : x y z
#
# Youngs Moduli (GPa) = 82.27442 81.89480 109.86573
#
# Poissons Ratio (x) = 0.49478 0.33913
# Poissons Ratio (y) = 0.49707 0.17587
# Poissons Ratio (z) = 0.25396 0.13110
#
# Static dielectric constant tensor:
#      x y z
#    x 4.343400 0.000000 0.000000 
#    y 0.000000 4.407940 0.000000 
#    z 0.000000 0.000000 3.922020 
# 
# 
# High freq. dielectric constant tensor:
#      x y z
#    x 1.937340 0.000000 0.000000 
#    y 0.000000 1.979380 0.000000 
#    z 0.000000 0.000000 1.919770 
# 
# From -- ./inp_files/19052.got.cif
#   From: 2010.03.12/outbox.cif.g09.slc.cpg/sg22_10_cif.got.tgz:19052.got - 2010.04.14 02:24:06.
