data_PCOD8163747
_publ_section_title
;
Structure prediction by ZEFSAII (Michael W. Deem and Ramdas Pophale) SiO2 
 PCOD8163747
Probable space group: I 2 2 2
;
_chemical_formula_sum "Si O2"
_cell_formula_units_Z 54
_cell_length_a 13.480848
_cell_length_b 12.277374
_cell_length_c 15.496911
_cell_angle_alpha 90.000000
_cell_angle_beta 90.000000
_cell_angle_gamma 90.000000
_cell_volume 2564.884639
_symmetry_space_group_name_H-M "I 2 2 2"
_symmetry_group_IT_number 23
_symmetry_cell_setting 'orthorhombic'
loop_
_space_group_symop_operation_xyz
x,y,z
-x,-y,z
x,-y,-z
-x,y,-z
1/2+x,1/2+y,1/2+z
1/2-x,1/2-y,1/2+z
1/2+x,1/2-y,1/2-z
1/2-x,1/2+y,1/2-z
loop_
_atom_site_type_symbol
_atom_site_label
_atom_site_fract_x
_atom_site_fract_y
_atom_site_fract_z
Si Si1 0.439138 0.196614 0.209230
Si Si2 0.833171 0.848446 0.040348
Si Si3 0.164909 0.306528 0.885713
Si Si4 0.000000 0.000000 0.000000
Si Si5 0.336379 0.188546 0.809297
Si Si6 0.861724 0.480655 0.412576
Si Si7 0.220411 0.500000 0.000000
Si Si8 0.235656 0.835396 0.360609
O O1 0.416127 0.185337 0.310491
O O2 0.552896 0.232995 0.204753
O O3 0.425259 0.081142 0.160399
O O4 0.371506 0.284061 0.159355
O O5 0.735498 0.918387 0.054650
O O6 0.819898 0.747572 0.104798
O O7 0.850413 0.801047 0.943779
O O8 0.929145 0.924095 0.060296
O O9 0.272405 0.294178 0.838795
O O10 0.155418 0.415707 0.943488
O O11 0.287158 0.126052 0.727465
O O12 0.330486 0.099199 0.882358
O O13 0.926088 0.500000 0.500000
O O14 0.284963 0.569222 0.930688
#
# Coordination Sequence:
#
# PCOD8163747 Si02
#       8
#     8   8   8   2   8   8   4   8
#     4  10  23  37  61  90 119 162 201 250 311 359
#     4  10  21  38  60  91 118 158 195 252 306 359
#     4  10  21  42  62  85 129 156 204 255 298 366
#     4  12  20  32  64  94 114 156 194 240 308 382
#     4  11  21  38  62  88 121 161 197 255 307 357
#     4  11  20  39  57  89 119 149 206 254 304 348
#     4  10  20  42  66  84 118 172 194 250 310 344
#     4   9  22  41  60  86 127 156 204 251 298 363
#
# _framework density 21.053578999999999
#
# number of rings (size 3 to 8) (size 9 to 14) (size 15 to 20)
#    0.000    1.778    2.222    1.333    2.074    1.185 
#    0.000    2.222    0.000    0.000    0.000    0.000 
#    0.000    0.000    0.000    0.000    0.000    0.000 
#
# Total GULP energy -334526.659686 kJ/mol
# GULP energy per Si atom -12389.876285 kJ/mol
# Density = 2.100566 g / cm^3
# Si number density = 21.053579 Si / 1000 Ang^3
#
#
#
# Elastic Constant Matrix: (Units=GPa)
#
#
# Indices 1 2 3 4 5 6 
#
# 1 105.9521 37.2745 40.6007 0.0000 0.0000 0.0000
# 2 37.2745 91.5321 41.2279 0.0000 0.0000 0.0000
# 3 40.6007 41.2279 135.3206 0.0000 0.0000 0.0000
# 4 0.0000 0.0000 0.0000 41.0014 0.0000 0.0000
# 5 0.0000 0.0000 0.0000 0.0000 0.4290 0.0000
# 6 0.0000 0.0000 0.0000 0.0000 0.0000 9.2230
#
#
#
# Elastic Compliance Matrix: (Units=1/GPa)
#
#
# Indices 1 2 3 4 5 6 
#
# 1 0.011639 -0.003671 -0.002374 0.000000 0.000000 0.000000
# 2 -0.003671 0.013820 -0.003109 0.000000 0.000000 0.000000
# 3 -0.002374 -0.003109 0.009049 0.000000 0.000000 0.000000
# 4 0.000000 0.000000 0.000000 0.024389 0.000000 0.000000
# 5 0.000000 0.000000 0.000000 0.000000 2.330830 -0.000001
# 6 0.000000 0.000000 0.000000 0.000000 -0.000001 0.108425
#
#
# Mechanical properties :
#
#
# Convention : Reuss Voigt Hill
#
# Bulk Modulus (GPa) = 61.72276 63.44568 62.58422
# Shear Modulus (GPa) = 1.98266 24.37747 13.18006
#
# Velocity S-wave (km/s) = 0.97148 3.40645 2.50476
# Velocity P-wave (km/s) = 5.53525 6.75815 6.17704
#
# Compressibility (1/GPa) = 0.01620148
#
# Stress axis : x y z
#
# Youngs Moduli (GPa) = 85.91642 72.35676 110.50451
#
# Poissons Ratio (x) = 0.26559 0.26232
# Poissons Ratio (y) = 0.31536 0.34360
# Poissons Ratio (z) = 0.20395 0.22498
#
# Static dielectric constant tensor:
#      x y z
#    x 3.577670 0.000000 0.000000 
#    y 0.000000 3.986450 0.000000 
#    z 0.000000 0.000000 4.121520 
# 
# 
# High freq. dielectric constant tensor:
#      x y z
#    x 1.810350 0.000000 0.000000 
#    y 0.000000 1.818090 0.000000 
#    z 0.000000 0.000000 1.841640 
# 
# From -- ./inp_files/21628.got.cif
#   From: 2010.03.12/outbox.cif.g09.slc.cpg/sg23_11_cif.got.tgz:21628.got - 2010.04.14 02:50:06.
