data_PCOD8163146
_publ_section_title
;
Structure prediction by ZEFSAII (Michael W. Deem and Ramdas Pophale) SiO2 
 PCOD8163146
Probable space group: F 2 2 2
;
_chemical_formula_sum "Si O2"
_cell_formula_units_Z 48
_cell_length_a 8.363033
_cell_length_b 16.063178
_cell_length_c 14.630925
_cell_angle_alpha 90.000000
_cell_angle_beta 90.000000
_cell_angle_gamma 90.000000
_cell_volume 1965.472929
_symmetry_space_group_name_H-M "F 2 2 2"
_symmetry_group_IT_number 22
_symmetry_cell_setting 'orthorhombic'
loop_
_space_group_symop_operation_xyz
x,y,z
-x,-y,z
x,-y,-z
-x,y,-z
x,1/2+y,1/2+z
-x,1/2-y,1/2+z
x,1/2-y,1/2-z
-x,1/2+y,1/2-z
1/2+x,y,1/2+z
1/2-x,-y,1/2+z
1/2+x,-y,1/2-z
1/2-x,y,1/2-z
1/2+x,1/2+y,z
1/2-x,1/2-y,z
1/2+x,1/2-y,-z
1/2-x,1/2+y,-z
loop_
_atom_site_type_symbol
_atom_site_label
_atom_site_fract_x
_atom_site_fract_y
_atom_site_fract_z
Si Si1 0.743414 0.000000 0.000000
Si Si2 0.390798 0.567920 0.820304
Si Si3 0.566651 0.266343 0.145194
Si Si4 0.000000 0.857822 0.500000
O O1 0.837483 0.015082 0.907490
O O2 0.648100 0.916095 0.977881
O O3 0.500000 0.500000 0.765013
O O4 0.250000 0.596961 0.750000
O O5 0.495457 0.641655 0.865698
O O6 0.544745 0.250000 0.250000
O O7 0.750000 0.250000 0.113451
O O8 0.460751 0.201354 0.086903
#
# Coordination Sequence:
#
# PCOD8163146 Si02
#       4
#     8  16  16   8
#     4  11  27  48  76 112 154 202 248 308 378 452
#     4  12  29  48  79 112 155 202 253 311 381 452
#     4  11  27  48  76 111 153 201 255 314 375 447
#     4  11  26  46  77 110 156 198 253 308 374 449
#
# _framework density 24.421603999999999
#
# number of rings (size 3 to 8) (size 9 to 14) (size 15 to 20)
#    0.000    0.667    0.000    4.500   23.333    3.333 
#    0.000    0.000    0.000    0.000    0.000    0.000 
#    0.000    0.000    0.000    0.000    0.000    0.000 
#
# Total GULP energy -148704.390541 kJ/mol
# GULP energy per Si atom -12392.032545 kJ/mol
# Density = 2.436602 g / cm^3
# Si number density = 24.421604 Si / 1000 Ang^3
#
#
#
# Elastic Constant Matrix: (Units=GPa)
#
#
# Indices 1 2 3 4 5 6 
#
# 1 127.1285 85.3735 41.7204 0.0000 0.0000 0.0000
# 2 85.3735 217.2967 49.0946 0.0000 0.0000 0.0000
# 3 41.7204 49.0946 116.4632 0.0000 0.0000 0.0000
# 4 0.0000 0.0000 0.0000 41.1142 0.0000 0.0000
# 5 0.0000 0.0000 0.0000 0.0000 18.2201 0.0000
# 6 0.0000 0.0000 0.0000 0.0000 0.0000 -2.0486
#
#
#
# Elastic Compliance Matrix: (Units=1/GPa)
#
#
# Indices 1 2 3 4 5 6 
#
# 1 0.011260 -0.003882 -0.002397 0.000000 0.000000 0.000000
# 2 -0.003882 0.006425 -0.001318 0.000000 0.000000 0.000000
# 3 -0.002397 -0.001318 0.010001 0.000000 0.000000 0.000000
# 4 0.000000 0.000000 0.000000 0.024322 0.000000 0.000000
# 5 0.000000 0.000000 0.000000 0.000000 0.054884 0.000000
# 6 0.000000 0.000000 0.000000 0.000000 0.000000 -0.488147
#
#
# Mechanical properties :
#
#
# Convention : Reuss Voigt Hill
#
# Bulk Modulus (GPa) = 80.05515 90.36283 85.20899
# Shear Modulus (GPa) = -13.81608 30.43715 8.31054
#
# Velocity S-wave (km/s) = -2.38109 3.53416 1.84671
# Velocity P-wave (km/s) = 5.02913 7.33043 6.28599
#
# Compressibility (1/GPa) = 0.01249139
#
# Stress axis : x y z
#
# Youngs Moduli (GPa) = 88.81082 155.64125 99.99448
#
# Poissons Ratio (x) = 0.60425 0.23969
# Poissons Ratio (y) = 0.34479 0.13176
# Poissons Ratio (z) = 0.21288 0.20509
#
# Static dielectric constant tensor:
#      x y z
#    x 4.746070 0.000000 0.000000 
#    y 0.000000 7.107210 0.000000 
#    z 0.000000 0.000000 4.284270 
# 
# 
# High freq. dielectric constant tensor:
#      x y z
#    x 1.971220 0.000000 0.000000 
#    y 0.000000 1.995220 0.000000 
#    z 0.000000 0.000000 1.974050 
# 
# From -- ./inp_files/9232.got.cif
#   From: 2010.03.12/outbox.cif.g09.slc.cpg/sg22_5_cif.got.tgz:9232.got - 2010.04.14 02:24:06.
