data_PCOD8163162
_publ_section_title
;
Structure prediction by ZEFSAII (Michael W. Deem and Ramdas Pophale) SiO2 
 PCOD8163162
Probable space group: F 2 2 2
;
_chemical_formula_sum "Si O2"
_cell_formula_units_Z 72
_cell_length_a 12.093646
_cell_length_b 12.093645
_cell_length_c 23.891736
_cell_angle_alpha 90.000000
_cell_angle_beta 90.000000
_cell_angle_gamma 90.000000
_cell_volume 3494.315988
_symmetry_space_group_name_H-M "F 2 2 2"
_symmetry_group_IT_number 22
_symmetry_cell_setting 'orthorhombic'
loop_
_space_group_symop_operation_xyz
x,y,z
-x,-y,z
x,-y,-z
-x,y,-z
x,1/2+y,1/2+z
-x,1/2-y,1/2+z
x,1/2-y,1/2-z
-x,1/2+y,1/2-z
1/2+x,y,1/2+z
1/2-x,-y,1/2+z
1/2+x,-y,1/2-z
1/2-x,y,1/2-z
1/2+x,1/2+y,z
1/2-x,1/2-y,z
1/2+x,1/2-y,-z
1/2-x,1/2+y,-z
loop_
_atom_site_type_symbol
_atom_site_label
_atom_site_fract_x
_atom_site_fract_y
_atom_site_fract_z
Si Si1 0.841073 0.414526 0.292223
Si Si2 0.750000 0.250000 0.500000
Si Si3 0.914151 0.340077 0.580324
Si Si4 0.840077 0.914151 0.919676
Si Si5 0.414526 0.341073 0.207777
O O1 0.750000 0.365359 0.250000
O O2 0.802430 0.394633 0.355889
O O3 0.853473 0.544549 0.280690
O O4 0.955451 0.353472 0.280690
O O5 0.859044 0.249297 0.539592
O O6 0.749297 0.359044 0.460408
O O7 0.852598 0.456306 0.567997
O O8 0.894632 0.302430 0.644111
O O9 0.043694 0.352597 0.567997
O O10 0.365359 0.250000 0.250000
#
# Coordination Sequence:
#
# PCOD8163162 Si02
#       5
#    16   8  16  16  16
#     4   9  19  35  55  80 110 142 178 224 277 331
#     4  12  20  30  58  82  96 138 196 232 260 310
#     4   9  20  38  56  78 110 145 183 227 276 332
#     4   9  20  38  56  78 110 145 183 227 276 332
#     4   9  19  35  55  80 110 142 178 224 277 331
#
# _framework density 20.604892
#
# number of rings (size 3 to 8) (size 9 to 14) (size 15 to 20)
#    0.000    2.667    0.000    4.000    0.000    9.778 
#    0.000    0.000    0.000   10.667    0.000    0.000 
#    0.000    0.000    0.000    0.000    0.000    0.000 
#
# Total GULP energy -223158.498865 kJ/mol
# GULP energy per Si atom -12397.694381 kJ/mol
# Density = 2.055799 g / cm^3
# Si number density = 20.604892 Si / 1000 Ang^3
#
#
#
# Elastic Constant Matrix: (Units=GPa)
#
#
# Indices 1 2 3 4 5 6 
#
# 1 75.6266 29.5113 66.6825 0.0000 0.0000 0.0000
# 2 29.5113 75.6280 66.6836 0.0000 0.0000 0.0000
# 3 66.6825 66.6836 147.1803 0.0000 0.0000 0.0000
# 4 0.0000 0.0000 0.0000 48.9940 0.0000 0.0000
# 5 0.0000 0.0000 0.0000 0.0000 48.9940 0.0000
# 6 0.0000 0.0000 0.0000 0.0000 0.0000 27.6944
#
#
#
# Elastic Compliance Matrix: (Units=1/GPa)
#
#
# Indices 1 2 3 4 5 6 
#
# 1 0.022024 0.000340 -0.010132 0.000000 0.000000 0.000000
# 2 0.000340 0.022024 -0.010133 0.000000 0.000000 0.000000
# 3 -0.010132 -0.010133 0.015976 0.000000 0.000000 0.000000
# 4 0.000000 0.000000 0.000000 0.020411 0.000000 0.000000
# 5 0.000000 0.000000 0.000000 0.000000 0.020411 0.000000
# 6 0.000000 0.000000 0.000000 0.000000 0.000000 0.036108
#
#
# Mechanical properties :
#
#
# Convention : Reuss Voigt Hill
#
# Bulk Modulus (GPa) = 49.56860 69.35441 59.46151
# Shear Modulus (GPa) = 27.24359 34.17363 30.70861
#
# Velocity S-wave (km/s) = 3.64014 4.07691 3.86470
# Velocity P-wave (km/s) = 6.46347 7.47622 6.98821
#
# Compressibility (1/GPa) = 0.02017406
#
# Stress axis : x y z
#
# Youngs Moduli (GPa) = 45.40417 45.40452 62.59434
#
# Poissons Ratio (x) = -0.01543 0.63424
# Poissons Ratio (y) = -0.01543 0.63424
# Poissons Ratio (z) = 0.46006 0.46006
#
# Static dielectric constant tensor:
#      x y z
#    x 3.503040 0.000000 0.000000 
#    y 0.000000 3.503040 0.000000 
#    z 0.000000 0.000000 3.913970 
# 
# 
# High freq. dielectric constant tensor:
#      x y z
#    x 1.781590 0.000000 0.000000 
#    y 0.000000 1.781590 0.000000 
#    z 0.000000 0.000000 1.827830 
# 
# From -- ./inp_files/32219.got.cif
#   From: 2010.03.12/outbox.cif.g09.slc.cpg/sg22_17_cif.got.tgz:32219.got - 2010.04.14 02:24:06.
