data_PCOD8163510
_publ_section_title
;
Structure prediction by ZEFSAII (Michael W. Deem and Ramdas Pophale) SiO2 
 PCOD8163510
Probable space group: I 2 2 2
;
_chemical_formula_sum "Si O2"
_cell_formula_units_Z 58
_cell_length_a 24.374708
_cell_length_b 14.500472
_cell_length_c 8.438923
_cell_angle_alpha 90.000000
_cell_angle_beta 90.000000
_cell_angle_gamma 90.000000
_cell_volume 2982.693206
_symmetry_space_group_name_H-M "I 2 2 2"
_symmetry_group_IT_number 23
_symmetry_cell_setting 'orthorhombic'
loop_
_space_group_symop_operation_xyz
x,y,z
-x,-y,z
x,-y,-z
-x,y,-z
1/2+x,1/2+y,1/2+z
1/2-x,1/2-y,1/2+z
1/2+x,1/2-y,1/2-z
1/2-x,1/2+y,1/2-z
loop_
_atom_site_type_symbol
_atom_site_label
_atom_site_fract_x
_atom_site_fract_y
_atom_site_fract_z
Si Si1 0.051858 0.671935 0.085821
Si Si2 0.345216 0.661220 0.152565
Si Si3 0.210370 0.522213 0.681722
Si Si4 0.000000 0.500000 0.000000
Si Si5 0.372244 0.711526 0.803739
Si Si6 0.216974 0.331276 0.843654
Si Si7 0.836600 0.026733 0.179200
Si Si8 0.649699 0.175646 0.359068
O O1 0.076248 0.727616 0.237493
O O2 0.032257 0.567225 0.125117
O O3 0.098015 0.645623 0.959289
O O4 0.000000 0.725018 0.000000
O O5 0.281187 0.686612 0.159809
O O6 0.354130 0.554744 0.199987
O O7 0.370413 0.728410 0.283193
O O8 0.375529 0.686187 0.988791
O O9 0.198347 0.500000 0.500000
O O10 0.200622 0.434678 0.794063
O O11 0.273155 0.554809 0.704591
O O12 0.167320 0.601295 0.727645
O O13 0.314703 0.762838 0.774636
O O14 0.374051 0.615048 0.711068
O O15 0.200828 0.310416 0.023725
O O16 0.848010 0.000000 0.000000
#
# Coordination Sequence:
#
# PCOD8163510 Si02
#       8
#     8   8   8   2   8   8   8   8
#     4   9  22  40  64  82 105 144 193 247 295 362
#     4  11  21  34  52  87 125 155 192 242 283 339
#     4  10  20  31  49  83 123 156 192 239 283 341
#     4   8  20  44  68  82 110 136 204 242 308 356
#     4  11  21  35  59  84 114 156 201 241 293 345
#     4  10  20  31  52  78 120 164 196 229 282 352
#     4  10  20  35  54  82 124 163 195 228 279 346
#     4  11  21  34  55  80 112 155 198 231 287 355
#
# _framework density 19.445512000000001
#
# number of rings (size 3 to 8) (size 9 to 14) (size 15 to 20)
#    0.414    1.379    0.000    5.793    3.862    4.414 
#    0.000    0.690    0.000    4.552    0.000    3.862 
#    0.000    0.000    0.000    0.000    0.000    0.000 
#
# Total GULP energy -359349.108023 kJ/mol
# GULP energy per Si atom -12391.348553 kJ/mol
# Density = 1.940125 g / cm^3
# Si number density = 19.445512 Si / 1000 Ang^3
#
#
#
# Elastic Constant Matrix: (Units=GPa)
#
#
# Indices 1 2 3 4 5 6 
#
# 1 57.9996 33.6716 30.6519 0.0000 0.0000 0.0000
# 2 33.6716 96.2477 30.8737 0.0000 0.0000 0.0000
# 3 30.6519 30.8737 94.2107 0.0000 0.0000 0.0000
# 4 0.0000 0.0000 0.0000 31.8188 0.0000 0.0000
# 5 0.0000 0.0000 0.0000 0.0000 9.8535 0.0000
# 6 0.0000 0.0000 0.0000 0.0000 0.0000 32.0901
#
#
#
# Elastic Compliance Matrix: (Units=1/GPa)
#
#
# Indices 1 2 3 4 5 6 
#
# 1 0.024070 -0.006603 -0.005667 0.000000 0.000000 0.000000
# 2 -0.006603 0.013422 -0.002250 0.000000 0.000000 0.000000
# 3 -0.005667 -0.002250 0.013196 0.000000 0.000000 0.000000
# 4 0.000000 0.000000 0.000000 0.031428 0.000000 0.000000
# 5 0.000000 0.000000 0.000000 0.000000 0.101487 0.000000
# 6 0.000000 0.000000 0.000000 0.000000 0.000000 0.031162
#
#
# Mechanical properties :
#
#
# Convention : Reuss Voigt Hill
#
# Bulk Modulus (GPa) = 46.19661 48.76137 47.47899
# Shear Modulus (GPa) = 19.91867 24.96986 22.44426
#
# Velocity S-wave (km/s) = 3.20399 3.58731 3.40106
# Velocity P-wave (km/s) = 6.12339 6.50298 6.31604
#
# Compressibility (1/GPa) = 0.02164661
#
# Stress axis : x y z
#
# Youngs Moduli (GPa) = 41.54575 74.50706 75.78143
#
# Poissons Ratio (x) = 0.49195 0.42949
# Poissons Ratio (y) = 0.27431 0.17052
# Poissons Ratio (z) = 0.23546 0.16765
#
# Static dielectric constant tensor:
#      x y z
#    x 3.339620 0.000000 0.000000 
#    y 0.000000 3.680370 0.000000 
#    z 0.000000 0.000000 3.575810 
# 
# 
# High freq. dielectric constant tensor:
#      x y z
#    x 1.717250 0.000000 0.000000 
#    y 0.000000 1.770150 0.000000 
#    z 0.000000 0.000000 1.755840 
# 
# From -- ./inp_files/13108.got.cif
#   From: 2010.03.12/outbox.cif.g09.slc.cpg/sg23_7_cif.got.tgz:13108.got - 2010.04.14 02:50:06.
