data_PCOD8163313
_publ_section_title
;
Structure prediction by ZEFSAII (Michael W. Deem and Ramdas Pophale) SiO2 
 PCOD8163313
Probable space group: I 2 2 2
;
_chemical_formula_sum "Si O2"
_cell_formula_units_Z 40
_cell_length_a 8.743861
_cell_length_b 27.027787
_cell_length_c 7.877905
_cell_angle_alpha 90.000000
_cell_angle_beta 90.000000
_cell_angle_gamma 90.000000
_cell_volume 1861.763330
_symmetry_space_group_name_H-M "I 2 2 2"
_symmetry_group_IT_number 23
_symmetry_cell_setting 'orthorhombic'
loop_
_space_group_symop_operation_xyz
x,y,z
-x,-y,z
x,-y,-z
-x,y,-z
1/2+x,1/2+y,1/2+z
1/2-x,1/2-y,1/2+z
1/2+x,1/2-y,1/2-z
1/2-x,1/2+y,1/2-z
loop_
_atom_site_type_symbol
_atom_site_label
_atom_site_fract_x
_atom_site_fract_y
_atom_site_fract_z
Si Si1 0.887061 0.194943 0.761984
Si Si2 0.939710 0.549952 0.808897
Si Si3 0.106369 0.641845 0.846438
Si Si4 0.782885 0.782041 0.867758
Si Si5 0.651836 0.405588 0.079638
O O1 0.783286 0.226076 0.629136
O O2 0.895528 0.138248 0.706513
O O3 0.058372 0.216341 0.765403
O O4 0.805788 0.198101 0.943841
O O5 0.753998 0.554139 0.815658
O O6 0.000000 0.500000 0.713349
O O7 0.012391 0.600646 0.733918
O O8 0.000000 0.548189 0.000000
O O9 0.151459 0.686257 0.724386
O O10 0.256360 0.616079 0.920877
O O11 0.000000 0.662617 0.000000
O O12 0.500000 0.430893 0.000000
#
# Coordination Sequence:
#
# PCOD8163313 Si02
#       5
#     8   8   8   8   8
#     4  11  25  37  57  84 119 161 209 254 300 363
#     4   8  17  34  57  86 117 145 189 245 307 365
#     4   9  19  35  58  79 119 155 195 243 303 355
#     4  11  24  39  56  83 120 165 209 251 303 361
#     4  10  18  35  58  84 115 153 196 253 301 361
#
# _framework density 21.485007
#
# number of rings (size 3 to 8) (size 9 to 14) (size 15 to 20)
#    0.000    2.600    2.000    1.200    8.400    0.000 
#    0.000    8.000    0.000    2.400    0.000    2.800 
#    0.000    0.000    0.000    0.000    0.000    0.000 
#
# Total GULP energy -247870.728416 kJ/mol
# GULP energy per Si atom -12393.536421 kJ/mol
# Density = 2.143611 g / cm^3
# Si number density = 21.485007 Si / 1000 Ang^3
#
#
#
# Elastic Constant Matrix: (Units=GPa)
#
#
# Indices 1 2 3 4 5 6 
#
# 1 147.1574 46.9476 31.1900 -0.0006 -0.0089 -0.0030
# 2 46.9476 89.4395 18.9109 0.0033 -0.0003 0.0004
# 3 31.1900 18.9109 42.4179 0.0034 -0.0023 -0.0059
# 4 -0.0006 0.0033 0.0034 9.3642 0.0036 0.0009
# 5 -0.0089 -0.0003 -0.0023 0.0036 28.3281 -0.0017
# 6 -0.0030 0.0004 -0.0059 0.0009 -0.0017 29.5283
#
#
#
# Elastic Compliance Matrix: (Units=1/GPa)
#
#
# Indices 1 2 3 4 5 6 
#
# 1 0.009030 -0.003683 -0.004998 0.000004 0.000002 0.000000
# 2 -0.003683 0.013847 -0.003465 -0.000004 -0.000001 -0.000001
# 3 -0.004998 -0.003465 0.028794 -0.000009 0.000001 0.000005
# 4 0.000004 -0.000004 -0.000009 0.106790 -0.000014 -0.000003
# 5 0.000002 -0.000001 0.000001 -0.000014 0.035301 0.000002
# 6 0.000000 -0.000001 0.000005 -0.000003 0.000002 0.033866
#
#
# Mechanical properties :
#
#
# Convention : Reuss Voigt Hill
#
# Bulk Modulus (GPa) = 36.52362 52.56798 44.54580
# Shear Modulus (GPa) = 19.15382 25.57521 22.36451
#
# Velocity S-wave (km/s) = 2.98903 3.45392 3.22985
# Velocity P-wave (km/s) = 5.38042 6.35819 5.88963
#
# Compressibility (1/GPa) = 0.02737954
#
# Stress axis : x y z
#
# Youngs Moduli (GPa) = 110.74579 72.21961 34.72898
#
# Poissons Ratio (x) = 0.26599 0.17356
# Poissons Ratio (y) = 0.40789 0.12033
# Poissons Ratio (z) = 0.55346 0.25024
#
# Static dielectric constant tensor:
#      x y z
#    x 4.248280 0.000060 0.000010 
#    y 0.000060 4.956770 0.000030 
#    z 0.000010 0.000030 3.380650 
# 
# 
# High freq. dielectric constant tensor:
#      x y z
#    x 1.863610 0.000000 0.000000 
#    y 0.000000 1.831780 0.000000 
#    z 0.000000 0.000000 1.793900 
# 
# From -- ./inp_files/7092.got.cif
#   From: 2010.03.12/outbox.cif.g09.slc.cpg/sg23_4_cif.got.tgz:7092.got - 2010.04.14 02:50:06.
