data_PCOD8163700
_publ_section_title
;
Structure prediction by ZEFSAII (Michael W. Deem and Ramdas Pophale) SiO2 
 PCOD8163700
Probable space group: I 2 2 2
;
_chemical_formula_sum "Si O2"
_cell_formula_units_Z 36
_cell_length_a 13.149000
_cell_length_b 4.994693
_cell_length_c 24.921910
_cell_angle_alpha 90.000000
_cell_angle_beta 90.000000
_cell_angle_gamma 90.000000
_cell_volume 1636.751879
_symmetry_space_group_name_H-M "I 2 2 2"
_symmetry_group_IT_number 23
_symmetry_cell_setting 'orthorhombic'
loop_
_space_group_symop_operation_xyz
x,y,z
-x,-y,z
x,-y,-z
-x,y,-z
1/2+x,1/2+y,1/2+z
1/2-x,1/2-y,1/2+z
1/2+x,1/2-y,1/2-z
1/2-x,1/2+y,1/2-z
loop_
_atom_site_type_symbol
_atom_site_label
_atom_site_fract_x
_atom_site_fract_y
_atom_site_fract_z
Si Si1 0.438416 0.250738 0.890630
Si Si2 0.117637 0.075007 0.057730
Si Si3 0.500000 0.000000 0.786986
Si Si4 0.288859 0.900150 0.608416
Si Si5 0.196929 0.624744 0.229616
O O1 0.500000 0.500000 0.910696
O O2 0.441243 0.213684 0.825527
O O3 0.325091 0.321396 0.910234
O O4 0.500000 0.000000 0.917347
O O5 0.155319 0.882283 0.104617
O O6 0.152903 0.378176 0.071823
O O7 0.000000 0.000000 0.054113
O O8 0.167001 0.000000 0.000000
O O9 0.419594 0.853118 0.748703
O O10 0.294434 0.995094 0.669760
O O11 0.242967 0.921194 0.231872
#
# Coordination Sequence:
#
# PCOD8163700 Si02
#       5
#     8   8   4   8   8
#     4  10  20  39  61  92 129 178 211 254 323 388
#     4  11  26  47  69  95 130 169 223 287 349 396
#     4  10  24  36  60  86 140 178 208 256 320 372
#     4  12  23  42  69  99 128 179 227 271 330 404
#     4  12  24  40  59  95 138 175 220 260 311 398
#
# _framework density 21.994779000000001
#
# number of rings (size 3 to 8) (size 9 to 14) (size 15 to 20)
#    0.667    0.222    2.222    5.333    3.111    1.778 
#    0.000    0.000    0.000   10.000    0.000    0.000 
#    0.000    0.000    0.000    0.000    0.000    0.000 
#
# Total GULP energy -223003.527323 kJ/mol
# GULP energy per Si atom -12389.084851 kJ/mol
# Density = 2.194472 g / cm^3
# Si number density = 21.994779 Si / 1000 Ang^3
#
#
#
# Elastic Constant Matrix: (Units=GPa)
#
#
# Indices 1 2 3 4 5 6 
#
# 1 136.0291 44.6159 16.1605 0.0000 0.0000 0.0000
# 2 44.6159 123.9147 9.2869 0.0000 0.0000 0.0000
# 3 16.1605 9.2869 59.0123 0.0000 0.0000 0.0000
# 4 0.0000 0.0000 0.0000 18.7208 0.0000 0.0000
# 5 0.0000 0.0000 0.0000 0.0000 26.4669 0.0000
# 6 0.0000 0.0000 0.0000 0.0000 0.0000 41.5961
#
#
#
# Elastic Compliance Matrix: (Units=1/GPa)
#
#
# Indices 1 2 3 4 5 6 
#
# 1 0.008536 -0.002933 -0.001876 0.000000 0.000000 0.000000
# 2 -0.002933 0.009174 -0.000641 0.000000 0.000000 0.000000
# 3 -0.001876 -0.000641 0.017560 0.000000 0.000000 0.000000
# 4 0.000000 0.000000 0.000000 0.053417 0.000000 0.000000
# 5 0.000000 0.000000 0.000000 0.000000 0.037783 0.000000
# 6 0.000000 0.000000 0.000000 0.000000 0.000000 0.024041
#
#
# Mechanical properties :
#
#
# Convention : Reuss Voigt Hill
#
# Bulk Modulus (GPa) = 41.03174 51.00920 46.02047
# Shear Modulus (GPa) = 29.49268 33.94961 31.72115
#
# Velocity S-wave (km/s) = 3.66580 3.93304 3.80177
# Velocity P-wave (km/s) = 6.05088 6.62321 6.34350
#
# Compressibility (1/GPa) = 0.02437137
#
# Stress axis : x y z
#
# Youngs Moduli (GPa) = 117.14814 109.00287 56.94699
#
# Poissons Ratio (x) = 0.31969 0.10684
# Poissons Ratio (y) = 0.34358 0.03648
# Poissons Ratio (z) = 0.21978 0.06983
#
# Static dielectric constant tensor:
#      x y z
#    x 3.678370 0.000000 0.000000 
#    y 0.000000 3.813900 0.000000 
#    z 0.000000 0.000000 3.700910 
# 
# 
# High freq. dielectric constant tensor:
#      x y z
#    x 1.876830 0.000000 0.000000 
#    y 0.000000 1.870400 0.000000 
#    z 0.000000 0.000000 1.841450 
# 
# From -- ./inp_files/28200.got.cif
#   From: 2010.03.12/outbox.cif.g09.slc.cpg/sg23_15_cif.got.tgz:28200.got - 2010.04.14 02:50:06.
