data_PCOD8163632
_publ_section_title
;
Structure prediction by ZEFSAII (Michael W. Deem and Ramdas Pophale) SiO2 
 PCOD8163632
Probable space group: I 2 2 2
;
_chemical_formula_sum "Si O2"
_cell_formula_units_Z 64
_cell_length_a 18.568798
_cell_length_b 11.497695
_cell_length_c 16.118247
_cell_angle_alpha 90.000000
_cell_angle_beta 90.000000
_cell_angle_gamma 90.000000
_cell_volume 3441.219557
_symmetry_space_group_name_H-M "I 2 2 2"
_symmetry_group_IT_number 23
_symmetry_cell_setting 'orthorhombic'
loop_
_space_group_symop_operation_xyz
x,y,z
-x,-y,z
x,-y,-z
-x,y,-z
1/2+x,1/2+y,1/2+z
1/2-x,1/2-y,1/2+z
1/2+x,1/2-y,1/2-z
1/2-x,1/2+y,1/2-z
loop_
_atom_site_type_symbol
_atom_site_label
_atom_site_fract_x
_atom_site_fract_y
_atom_site_fract_z
Si Si1 0.720738 0.907948 0.850681
Si Si2 0.478619 0.623706 0.735847
Si Si3 0.675491 0.363164 0.786046
Si Si4 0.189773 0.055327 0.417002
Si Si5 0.126119 0.786990 0.715671
Si Si6 0.713372 0.746731 0.477404
Si Si7 0.568034 0.377508 0.547107
Si Si8 0.240882 0.159133 0.155204
O O1 0.797504 0.904883 0.803552
O O2 0.656548 0.845217 0.797616
O O3 0.730386 0.844797 0.938250
O O4 0.712031 0.044824 0.866591
O O5 0.500000 0.500000 0.772915
O O6 0.409621 0.655939 0.790278
O O7 0.543007 0.716116 0.754172
O O8 0.457944 0.604835 0.640468
O O9 0.708376 0.449464 0.855457
O O10 0.704046 0.233759 0.792815
O O11 0.134434 0.142546 0.370946
O O12 0.262994 0.124877 0.444788
O O13 0.154069 0.000000 0.500000
O O14 0.170352 0.857848 0.786517
O O15 0.631849 0.716386 0.452127
O O16 0.718049 0.732917 0.575420
O O17 0.589758 0.500000 0.500000
O O18 0.500000 0.321588 0.500000
#
# Coordination Sequence:
#
# PCOD8163632 Si02
#       8
#     8   8   8   8   8   8   8   8
#     4  10  20  37  57  84 116 150 198 238 293 346
#     4  12  20  36  56  84 122 153 189 246 296 358
#     4  11  22  36  59  84 112 159 198 237 296 349
#     4  11  21  40  57  83 116 149 200 243 292 342
#     4  10  23  36  58  86 118 155 192 244 297 349
#     4  11  22  33  60  90 118 147 191 248 295 356
#     4  11  21  32  53  90 124 153 187 239 308 362
#     4  11  20  37  60  85 117 154 195 241 292 357
#
# _framework density 18.598057000000001
#
# number of rings (size 3 to 8) (size 9 to 14) (size 15 to 20)
#    0.000    1.125    6.250    1.875    0.000    0.000 
#    0.000    1.875    0.000    0.375    0.000    1.750 
#    0.000    0.000    0.000    0.000    0.000    0.000 
#
# Total GULP energy -396481.765133 kJ/mol
# GULP energy per Si atom -12390.055160 kJ/mol
# Density = 1.855573 g / cm^3
# Si number density = 18.598057 Si / 1000 Ang^3
#
#
#
# Elastic Constant Matrix: (Units=GPa)
#
#
# Indices 1 2 3 4 5 6 
#
# 1 114.3466 36.8765 29.8505 0.0000 0.0000 0.0000
# 2 36.8765 73.2800 18.0788 0.0000 0.0000 0.0000
# 3 29.8505 18.0788 90.0897 0.0000 0.0000 0.0000
# 4 0.0000 0.0000 0.0000 19.5599 0.0000 0.0000
# 5 0.0000 0.0000 0.0000 0.0000 15.2923 0.0000
# 6 0.0000 0.0000 0.0000 0.0000 0.0000 22.8348
#
#
#
# Elastic Compliance Matrix: (Units=1/GPa)
#
#
# Indices 1 2 3 4 5 6 
#
# 1 0.011018 -0.004886 -0.002670 0.000000 0.000000 0.000000
# 2 -0.004886 0.016524 -0.001697 0.000000 0.000000 0.000000
# 3 -0.002670 -0.001697 0.012325 0.000000 0.000000 0.000000
# 4 0.000000 0.000000 0.000000 0.051125 0.000000 0.000000
# 5 0.000000 0.000000 0.000000 0.000000 0.065393 0.000000
# 6 0.000000 0.000000 0.000000 0.000000 0.000000 0.043793
#
#
# Mechanical properties :
#
#
# Convention : Reuss Voigt Hill
#
# Bulk Modulus (GPa) = 46.81461 49.70311 48.25886
# Shear Modulus (GPa) = 22.14311 24.39810 23.27060
#
# Velocity S-wave (km/s) = 3.45427 3.62589 3.54112
# Velocity P-wave (km/s) = 6.41371 6.65675 6.53636
#
# Compressibility (1/GPa) = 0.02136085
#
# Stress axis : x y z
#
# Youngs Moduli (GPa) = 90.75977 60.51939 81.13343
#
# Poissons Ratio (x) = 0.29569 0.21665
# Poissons Ratio (y) = 0.44344 0.13768
# Poissons Ratio (z) = 0.24236 0.10270
#
# Static dielectric constant tensor:
#      x y z
#    x 3.367400 0.000000 0.000000 
#    y 0.000000 3.468750 0.000000 
#    z 0.000000 0.000000 3.569510 
# 
# 
# High freq. dielectric constant tensor:
#      x y z
#    x 1.695040 0.000000 0.000000 
#    y 0.000000 1.710210 0.000000 
#    z 0.000000 0.000000 1.734950 
# 
# From -- ./inp_files/22165.got.cif
#   From: 2010.03.12/outbox.cif.g09.slc.cpg/sg23_12_cif.got.tgz:22165.got - 2010.04.14 02:50:06.
