data_PCOD8163977
_publ_section_title
;
Structure prediction by ZEFSAII (Michael W. Deem and Ramdas Pophale) SiO2 
 PCOD8163977
Probable space group: I 2 2 2
;
_chemical_formula_sum "Si O2"
_cell_formula_units_Z 40
_cell_length_a 11.219987
_cell_length_b 9.060438
_cell_length_c 22.423615
_cell_angle_alpha 90.000000
_cell_angle_beta 90.000000
_cell_angle_gamma 90.000000
_cell_volume 2279.539777
_symmetry_space_group_name_H-M "I 2 2 2"
_symmetry_group_IT_number 23
_symmetry_cell_setting 'orthorhombic'
loop_
_space_group_symop_operation_xyz
x,y,z
-x,-y,z
x,-y,-z
-x,y,-z
1/2+x,1/2+y,1/2+z
1/2-x,1/2-y,1/2+z
1/2+x,1/2-y,1/2-z
1/2-x,1/2+y,1/2-z
loop_
_atom_site_type_symbol
_atom_site_label
_atom_site_fract_x
_atom_site_fract_y
_atom_site_fract_z
Si Si1 0.295914 0.162828 0.186105
Si Si2 0.486022 0.667784 0.130024
Si Si3 0.800512 0.500000 0.500000
Si Si4 0.780884 0.665393 0.302020
Si Si5 0.362945 0.489263 0.389105
Si Si6 0.000000 0.732123 0.500000
O O1 0.401377 0.238205 0.150265
O O2 0.254638 0.264395 0.239902
O O3 0.183186 0.142429 0.141067
O O4 0.337433 0.998872 0.208214
O O5 0.500000 0.500000 0.151062
O O6 0.370501 0.730690 0.162521
O O7 0.470632 0.671218 0.058361
O O8 0.716267 0.547014 0.446200
O O9 0.884915 0.635803 0.517385
O O10 0.660847 0.644531 0.342148
O O11 0.500000 0.500000 0.407024
#
# Coordination Sequence:
#
# PCOD8163977 Si02
#       6
#     8   8   4   8   8   4
#     4  10  22  37  58  89 122 159 198 247 306 367
#     4  12  23  38  62  88 124 162 201 259 306 364
#     4  11  19  38  66  84 125 147 212 252 316 375
#     4  10  22  37  58  89 122 159 198 247 306 367
#     4  10  22  37  60  89 119 161 202 244 305 373
#     4  11  19  38  60  96 114 154 202 266 308 368
#
# _framework density 17.547401000000001
#
# number of rings (size 3 to 8) (size 9 to 14) (size 15 to 20)
#    1.200    0.200    4.000    2.400    5.600    0.000 
#    0.000    0.000    0.000    0.000    0.000    2.800 
#    0.000    0.000    0.000    0.000    0.000    0.000 
#
# Total GULP energy -247843.043907 kJ/mol
# GULP energy per Si atom -12392.152195 kJ/mol
# Density = 1.750746 g / cm^3
# Si number density = 17.547401 Si / 1000 Ang^3
#
#
#
# Elastic Constant Matrix: (Units=GPa)
#
#
# Indices 1 2 3 4 5 6 
#
# 1 97.3793 14.8421 16.2266 0.0000 0.0000 0.0000
# 2 14.8421 95.1607 11.9928 0.0000 0.0000 0.0000
# 3 16.2266 11.9928 85.6227 0.0000 0.0000 0.0000
# 4 0.0000 0.0000 0.0000 34.1785 0.0000 0.0000
# 5 0.0000 0.0000 0.0000 0.0000 25.9692 0.0000
# 6 0.0000 0.0000 0.0000 0.0000 0.0000 25.9355
#
#
#
# Elastic Compliance Matrix: (Units=1/GPa)
#
#
# Indices 1 2 3 4 5 6 
#
# 1 0.010797 -0.001452 -0.001843 0.000000 0.000000 0.000000
# 2 -0.001452 0.010893 -0.001251 0.000000 0.000000 0.000000
# 3 -0.001843 -0.001251 0.012204 0.000000 0.000000 0.000000
# 4 0.000000 0.000000 0.000000 0.029258 0.000000 0.000000
# 5 0.000000 0.000000 0.000000 0.000000 0.038507 0.000000
# 6 0.000000 0.000000 0.000000 0.000000 0.000000 0.038557
#
#
# Mechanical properties :
#
#
# Convention : Reuss Voigt Hill
#
# Bulk Modulus (GPa) = 40.31754 40.47618 40.39686
# Shear Modulus (GPa) = 31.73103 32.89004 32.31054
#
# Velocity S-wave (km/s) = 4.25703 4.33408 4.29573
# Velocity P-wave (km/s) = 6.86945 6.93992 6.90477
#
# Compressibility (1/GPa) = 0.02480310
#
# Stress axis : x y z
#
# Youngs Moduli (GPa) = 92.61405 91.80560 81.94331
#
# Poissons Ratio (x) = 0.13329 0.15101
# Poissons Ratio (y) = 0.13446 0.10247
# Poissons Ratio (z) = 0.17068 0.11481
#
# Static dielectric constant tensor:
#      x y z
#    x 3.188340 0.000000 0.000000 
#    y 0.000000 3.150820 0.000000 
#    z 0.000000 0.000000 3.308570 
# 
# 
# High freq. dielectric constant tensor:
#      x y z
#    x 1.669990 0.000000 0.000000 
#    y 0.000000 1.665200 0.000000 
#    z 0.000000 0.000000 1.692050 
# 
# From -- ./inp_files/14629.got.cif
#   From: 2010.03.12/outbox.cif.g09.slc.cpg/sg23_8_cif.got.tgz:14629.got - 2010.04.14 02:50:06.
