data_PCOD8163545
_publ_section_title
;
Structure prediction by ZEFSAII (Michael W. Deem and Ramdas Pophale) SiO2 
 PCOD8163545
Probable space group: I 2 2 2
;
_chemical_formula_sum "Si O2"
_cell_formula_units_Z 40
_cell_length_a 19.911938
_cell_length_b 22.355260
_cell_length_c 4.952046
_cell_angle_alpha 90.000000
_cell_angle_beta 90.000000
_cell_angle_gamma 90.000000
_cell_volume 2204.336677
_symmetry_space_group_name_H-M "I 2 2 2"
_symmetry_group_IT_number 23
_symmetry_cell_setting 'orthorhombic'
loop_
_space_group_symop_operation_xyz
x,y,z
-x,-y,z
x,-y,-z
-x,y,-z
1/2+x,1/2+y,1/2+z
1/2-x,1/2-y,1/2+z
1/2+x,1/2-y,1/2-z
1/2-x,1/2+y,1/2-z
loop_
_atom_site_type_symbol
_atom_site_label
_atom_site_fract_x
_atom_site_fract_y
_atom_site_fract_z
Si Si1 0.744119 0.669956 0.452721
Si Si2 0.827590 0.211345 0.552052
Si Si3 0.156205 0.567409 0.481112
Si Si4 0.423376 0.892503 0.454736
Si Si5 0.543728 0.234299 0.255751
O O1 0.798982 0.721902 0.430673
O O2 0.710519 0.667772 0.744319
O O3 0.781985 0.607576 0.413076
O O4 0.683902 0.681394 0.239213
O O5 0.905683 0.216107 0.635296
O O6 0.183451 0.500000 0.500000
O O7 0.095717 0.570418 0.691872
O O8 0.127585 0.589966 0.194552
O O9 0.500000 0.910898 0.500000
O O10 0.417411 0.821507 0.393734
O O11 0.500000 0.263467 0.500000
O O12 0.500000 0.211023 0.000000
#
# Coordination Sequence:
#
# PCOD8163545 Si02
#       5
#     8   8   8   8   8
#     4  10  21  34  53  77 102 140 183 220 270 317
#     4  10  20  34  56  76 105 137 178 221 269 334
#     4  12  24  38  54  75 108 145 193 232 261 308
#     4  11  23  36  53  73 106 148 191 229 259 303
#     4  11  21  34  56  82 112 142 178 223 274 323
#
# _framework density 18.146049999999999
#
# number of rings (size 3 to 8) (size 9 to 14) (size 15 to 20)
#    0.000    1.200    2.000    6.000    5.600    2.400 
#    0.000    0.000    0.000    0.000    0.000    0.000 
#    0.000   12.000    0.000    0.000    0.000    0.000 
#
# Total GULP energy -247962.234145 kJ/mol
# GULP energy per Si atom -12398.111707 kJ/mol
# Density = 1.810475 g / cm^3
# Si number density = 18.146050 Si / 1000 Ang^3
#
#
#
# Elastic Constant Matrix: (Units=GPa)
#
#
# Indices 1 2 3 4 5 6 
#
# 1 60.8071 41.5150 16.3634 0.0000 0.0000 0.0000
# 2 41.5150 80.4272 12.0498 0.0000 0.0000 0.0000
# 3 16.3634 12.0498 82.6845 0.0000 0.0000 0.0000
# 4 0.0000 0.0000 0.0000 9.7472 0.0000 0.0000
# 5 0.0000 0.0000 0.0000 0.0000 24.7569 0.0000
# 6 0.0000 0.0000 0.0000 0.0000 0.0000 20.4472
#
#
#
# Elastic Compliance Matrix: (Units=1/GPa)
#
#
# Indices 1 2 3 4 5 6 
#
# 1 0.026243 -0.013053 -0.003291 0.000000 0.000000 0.000000
# 2 -0.013053 0.019204 -0.000215 0.000000 0.000000 0.000000
# 3 -0.003291 -0.000215 0.012777 0.000000 0.000000 0.000000
# 4 0.000000 0.000000 0.000000 0.102594 0.000000 0.000000
# 5 0.000000 0.000000 0.000000 0.000000 0.040393 0.000000
# 6 0.000000 0.000000 0.000000 0.000000 0.000000 0.048907
#
#
# Mechanical properties :
#
#
# Convention : Reuss Voigt Hill
#
# Bulk Modulus (GPa) = 39.83411 40.41945 40.12678
# Shear Modulus (GPa) = 17.14657 21.25630 19.20144
#
# Velocity S-wave (km/s) = 3.07729 3.42629 3.25647
# Velocity P-wave (km/s) = 5.88438 6.16242 6.02500
#
# Compressibility (1/GPa) = 0.02510412
#
# Stress axis : x y z
#
# Youngs Moduli (GPa) = 38.10568 52.07368 78.26629
#
# Poissons Ratio (x) = 0.67971 0.25759
# Poissons Ratio (y) = 0.49739 0.01686
# Poissons Ratio (z) = 0.12542 0.01122
#
# Static dielectric constant tensor:
#      x y z
#    x 3.297430 0.000000 0.000000 
#    y 0.000000 2.984380 0.000000 
#    z 0.000000 0.000000 3.678750 
# 
# 
# High freq. dielectric constant tensor:
#      x y z
#    x 1.688450 0.000000 0.000000 
#    y 0.000000 1.652220 0.000000 
#    z 0.000000 0.000000 1.732380 
# 
# From -- ./inp_files/3117.got.cif
#   From: 2010.03.12/outbox.cif.g09.slc.cpg/sg23_2_cif.got.tgz:3117.got - 2010.04.14 02:50:06.
