data_PCOD8163854
_publ_section_title
;
Structure prediction by ZEFSAII (Michael W. Deem and Ramdas Pophale) SiO2 
 PCOD8163854
Probable space group: I 2 2 2
;
_chemical_formula_sum "Si O2"
_cell_formula_units_Z 64
_cell_length_a 17.437586
_cell_length_b 12.009300
_cell_length_c 15.310637
_cell_angle_alpha 90.000000
_cell_angle_beta 90.000000
_cell_angle_gamma 90.000000
_cell_volume 3206.249512
_symmetry_space_group_name_H-M "I 2 2 2"
_symmetry_group_IT_number 23
_symmetry_cell_setting 'orthorhombic'
loop_
_space_group_symop_operation_xyz
x,y,z
-x,-y,z
x,-y,-z
-x,y,-z
1/2+x,1/2+y,1/2+z
1/2-x,1/2-y,1/2+z
1/2+x,1/2-y,1/2-z
1/2-x,1/2+y,1/2-z
loop_
_atom_site_type_symbol
_atom_site_label
_atom_site_fract_x
_atom_site_fract_y
_atom_site_fract_z
Si Si1 0.414937 0.876075 0.029089
Si Si2 0.267726 0.399919 0.213435
Si Si3 0.363232 0.785685 0.200054
Si Si4 0.782826 0.227433 0.453291
Si Si5 0.143862 0.882251 0.967775
Si Si6 0.241684 0.631029 0.124633
Si Si7 0.622047 0.704945 0.346658
Si Si8 0.966261 0.120267 0.804554
O O1 0.412380 0.863474 0.134697
O O2 0.500000 0.845827 0.000000
O O3 0.358995 0.787542 0.985304
O O4 0.391488 0.000000 0.000000
O O5 0.178476 0.363749 0.227645
O O6 0.306154 0.327157 0.137818
O O7 0.267890 0.525736 0.179306
O O8 0.322922 0.386773 0.297855
O O9 0.293385 0.737410 0.145109
O O10 0.409912 0.680016 0.236605
O O11 0.715906 0.314922 0.430802
O O12 0.751096 0.128906 0.518734
O O13 0.076811 0.895780 0.896447
O O14 0.109640 0.823195 0.052319
O O15 0.175824 0.000000 0.000000
O O16 0.157008 0.669863 0.156878
O O17 0.537211 0.705910 0.307555
O O18 0.000000 0.000000 0.773471
#
# Coordination Sequence:
#
# PCOD8163854 Si02
#       8
#     8   8   8   8   8   8   8   8
#     4  10  23  44  66  92 128 165 207 268 323 379
#     4  11  21  40  63  89 122 168 214 267 318 378
#     4  10  23  41  61  94 125 157 216 266 311 390
#     4  10  21  38  65  88 123 169 217 259 313 388
#     4  11  21  37  60  91 123 165 206 255 318 375
#     4   9  21  40  57  85 123 162 210 262 317 377
#     4  10  23  34  57  91 120 157 211 260 308 386
#     4  12  22  38  61  93 131 165 200 264 328 374
#
# _framework density 19.961016000000001
#
# number of rings (size 3 to 8) (size 9 to 14) (size 15 to 20)
#    0.000    1.625    2.500    2.625    1.750    2.000 
#    2.250    0.000    0.000    0.000    0.000    0.000 
#    0.000    0.000    0.000    0.000    0.000    0.000 
#
# Total GULP energy -396559.366075 kJ/mol
# GULP energy per Si atom -12392.480190 kJ/mol
# Density = 1.991558 g / cm^3
# Si number density = 19.961016 Si / 1000 Ang^3
#
#
#
# Elastic Constant Matrix: (Units=GPa)
#
#
# Indices 1 2 3 4 5 6 
#
# 1 84.6935 22.2705 22.1422 0.0000 0.0000 0.0000
# 2 22.2705 85.0690 35.7950 0.0000 0.0000 0.0000
# 3 22.1422 35.7950 89.9530 0.0000 0.0000 0.0000
# 4 0.0000 0.0000 0.0000 29.6393 0.0000 0.0000
# 5 0.0000 0.0000 0.0000 0.0000 25.3072 0.0000
# 6 0.0000 0.0000 0.0000 0.0000 0.0000 29.0066
#
#
#
# Elastic Compliance Matrix: (Units=1/GPa)
#
#
# Indices 1 2 3 4 5 6 
#
# 1 0.013040 -0.002478 -0.002224 0.000000 0.000000 0.000000
# 2 -0.002478 0.014590 -0.005196 0.000000 0.000000 0.000000
# 3 -0.002224 -0.005196 0.013732 0.000000 0.000000 0.000000
# 4 0.000000 0.000000 0.000000 0.033739 0.000000 0.000000
# 5 0.000000 0.000000 0.000000 0.000000 0.039514 0.000000
# 6 0.000000 0.000000 0.000000 0.000000 0.000000 0.034475
#
#
# Mechanical properties :
#
#
# Convention : Reuss Voigt Hill
#
# Bulk Modulus (GPa) = 46.36757 46.68123 46.52440
# Shear Modulus (GPa) = 28.39694 28.75782 28.57738
#
# Velocity S-wave (km/s) = 3.77586 3.79977 3.78783
# Velocity P-wave (km/s) = 6.50299 6.53360 6.51832
#
# Compressibility (1/GPa) = 0.02156680
#
# Stress axis : x y z
#
# Youngs Moduli (GPa) = 76.68530 68.53900 72.82310
#
# Poissons Ratio (x) = 0.16985 0.16194
# Poissons Ratio (y) = 0.19004 0.37838
# Poissons Ratio (z) = 0.17053 0.35612
#
# Static dielectric constant tensor:
#      x y z
#    x 3.709090 0.000000 0.000000 
#    y 0.000000 3.474160 0.000000 
#    z 0.000000 0.000000 3.768820 
# 
# 
# High freq. dielectric constant tensor:
#      x y z
#    x 1.777620 0.000000 0.000000 
#    y 0.000000 1.766260 0.000000 
#    z 0.000000 0.000000 1.785600 
# 
# From -- ./inp_files/22166.got.cif
#   From: 2010.03.12/outbox.cif.g09.slc.cpg/sg23_12_cif.got.tgz:22166.got - 2010.04.14 02:50:06.
