data_PCOD8163868
_publ_section_title
;
Structure prediction by ZEFSAII (Michael W. Deem and Ramdas Pophale) SiO2 
 PCOD8163868
Probable space group: I 2 2 2
;
_chemical_formula_sum "Si O2"
_cell_formula_units_Z 64
_cell_length_a 9.043335
_cell_length_b 32.863461
_cell_length_c 10.647132
_cell_angle_alpha 90.000000
_cell_angle_beta 90.000000
_cell_angle_gamma 90.000000
_cell_volume 3164.277451
_symmetry_space_group_name_H-M "I 2 2 2"
_symmetry_group_IT_number 23
_symmetry_cell_setting 'orthorhombic'
loop_
_space_group_symop_operation_xyz
x,y,z
-x,-y,z
x,-y,-z
-x,y,-z
1/2+x,1/2+y,1/2+z
1/2-x,1/2-y,1/2+z
1/2+x,1/2-y,1/2-z
1/2-x,1/2+y,1/2-z
loop_
_atom_site_type_symbol
_atom_site_label
_atom_site_fract_x
_atom_site_fract_y
_atom_site_fract_z
Si Si1 0.174802 0.302795 0.000001
Si Si2 0.171891 0.716885 0.499999
Si Si3 0.173564 0.339652 0.265776
Si Si4 0.673564 0.160348 0.765773
Si Si5 0.825087 0.077358 0.761971
Si Si6 0.174913 0.077358 0.761970
Si Si7 0.826346 0.045214 0.500000
Si Si8 0.660506 1.000000 0.142178
O O1 0.236097 0.257702 0.000000
O O2 0.229250 0.325254 0.872399
O O3 0.229250 0.325253 0.127604
O O4 0.000000 0.299658 0.000000
O O5 0.214053 0.692925 0.627106
O O6 0.214053 0.692926 0.372889
O O7 0.000000 0.727932 0.500000
O O8 0.257385 0.380364 0.307995
O O9 1.000000 0.348752 0.264053
O O10 0.757388 0.119637 0.807994
O O11 0.776191 0.071442 0.618087
O O12 0.000000 0.077848 0.782698
O O13 0.757927 0.039682 0.835103
O O14 0.223809 0.071442 0.618086
O O15 0.242071 0.039681 0.835101
O O16 0.000000 0.038545 0.500000
O O17 0.752528 0.000000 0.500000
O O18 0.500000 0.000000 0.214904
O O19 0.617196 0.000000 0.000000
#
# Coordination Sequence:
#
# PCOD8163868 Si02
#       8
#     8   8   8   8   8   8   8   8
#     4  10  21  39  63  88 118 153 198 246 288 351
#     4  10  22  39  61  85 117 156 192 237 304 364
#     4  10  22  39  58  86 122 158 192 240 301 356
#     4  10  22  39  58  86 122 158 192 240 301 356
#     4  11  22  38  62  89 117 153 199 246 289 346
#     4  11  22  38  62  89 117 153 199 246 289 346
#     4   9  17  34  56  81 115 147 180 237 300 339
#     4  11  25  42  59  80 116 163 200 241 298 351
#
# _framework density 20.225784999999998
#
# number of rings (size 3 to 8) (size 9 to 14) (size 15 to 20)
#    0.000    1.750    1.250    2.625    1.750    3.000 
#    0.000    2.500    0.000    0.000    0.000    0.000 
#    0.000    0.000    0.000    0.000    0.000    0.000 
#
# Total GULP energy -396742.816170 kJ/mol
# GULP energy per Si atom -12398.213005 kJ/mol
# Density = 2.017975 g / cm^3
# Si number density = 20.225785 Si / 1000 Ang^3
#
#
#
# Elastic Constant Matrix: (Units=GPa)
#
#
# Indices 1 2 3 4 5 6 
#
# 1 68.7556 56.4308 28.6762 -0.0006 0.0000 0.0000
# 2 56.4308 152.1269 36.7849 -0.0023 0.0002 -0.0004
# 3 28.6762 36.7849 107.1052 -0.0018 0.0002 -0.0007
# 4 -0.0006 -0.0023 -0.0018 -5.4268 0.0001 -0.0004
# 5 0.0000 0.0002 0.0002 0.0001 18.7360 -0.0002
# 6 0.0000 -0.0004 -0.0007 -0.0004 -0.0002 65.0172
#
#
#
# Elastic Compliance Matrix: (Units=1/GPa)
#
#
# Indices 1 2 3 4 5 6 
#
# 1 0.021967 -0.007336 -0.003362 0.000002 0.000000 0.000000
# 2 -0.007336 0.009618 -0.001339 -0.000003 0.000000 0.000000
# 3 -0.003362 -0.001339 0.010697 -0.000003 0.000000 0.000000
# 4 0.000002 -0.000003 -0.000003 -0.184272 0.000001 -0.000001
# 5 0.000000 0.000000 0.000000 0.000001 0.053373 0.000000
# 6 0.000000 0.000000 0.000000 -0.000001 0.000000 0.015381
#
#
# Mechanical properties :
#
#
# Convention : Reuss Voigt Hill
#
# Bulk Modulus (GPa) = 54.92026 63.53015 59.22520
# Shear Modulus (GPa) = -116.03075 29.40500 -43.31287
#
# Velocity S-wave (km/s) = -7.58237 3.81706 -4.63262
# Velocity P-wave (km/s) = 7.03163 7.13479 0.85481
#
# Compressibility (1/GPa) = 0.01820822
#
# Stress axis : x y z
#
# Youngs Moduli (GPa) = 45.52239 103.96674 93.48619
#
# Poissons Ratio (x) = 0.76267 0.31431
# Poissons Ratio (y) = 0.33394 0.12521
# Poissons Ratio (z) = 0.15305 0.13925
#
# Static dielectric constant tensor:
#      x y z
#    x 3.492710 0.000000 0.000000 
#    y 0.000000 3.638560 -0.000030 
#    z 0.000000 -0.000030 3.557800 
# 
# 
# High freq. dielectric constant tensor:
#      x y z
#    x 1.780640 0.000000 0.000000 
#    y 0.000000 1.798850 0.000000 
#    z 0.000000 0.000000 1.799790 
# 
# From -- ./inp_files/14992.got.cif
#   From: 2010.03.12/outbox.cif.g09.slc.cpg/sg23_8_cif.got.tgz:14992.got - 2010.04.14 02:50:06.
