data_PCOD8163489
_publ_section_title
;
Structure prediction by ZEFSAII (Michael W. Deem and Ramdas Pophale) SiO2 
 PCOD8163489
Probable space group: I 2 2 2
;
_chemical_formula_sum "Si O2"
_cell_formula_units_Z 64
_cell_length_a 19.683321
_cell_length_b 15.567922
_cell_length_c 9.112883
_cell_angle_alpha 90.000000
_cell_angle_beta 90.000000
_cell_angle_gamma 90.000000
_cell_volume 2792.446212
_symmetry_space_group_name_H-M "I 2 2 2"
_symmetry_group_IT_number 23
_symmetry_cell_setting 'orthorhombic'
loop_
_space_group_symop_operation_xyz
x,y,z
-x,-y,z
x,-y,-z
-x,y,-z
1/2+x,1/2+y,1/2+z
1/2-x,1/2-y,1/2+z
1/2+x,1/2-y,1/2-z
1/2-x,1/2+y,1/2-z
loop_
_atom_site_type_symbol
_atom_site_label
_atom_site_fract_x
_atom_site_fract_y
_atom_site_fract_z
Si Si1 0.363542 0.393324 0.483820
Si Si2 0.327547 0.387083 0.957979
Si Si3 0.740337 0.383433 0.759214
Si Si4 0.346344 0.096083 0.968140
Si Si5 0.429402 0.755988 0.942365
Si Si6 0.020403 0.789574 0.151682
Si Si7 0.565074 0.441467 0.250721
Si Si8 0.260259 0.687017 0.320735
O O1 0.306319 0.423246 0.369308
O O2 0.427592 0.364325 0.391077
O O3 0.390167 0.466416 0.603179
O O4 0.329435 0.316608 0.582531
O O5 0.282476 0.431576 0.089165
O O6 0.367563 0.308441 0.033317
O O7 0.384785 0.449918 0.888880
O O8 0.274288 0.354045 0.838004
O O9 0.816247 0.399813 0.698312
O O10 0.732835 0.282339 0.793355
O O11 0.413845 0.154618 0.975286
O O12 0.296190 0.131373 0.094546
O O13 0.368860 0.000000 0.000000
O O14 0.442497 0.772495 0.767543
O O15 0.500000 0.716051 0.000000
O O16 0.956630 0.841432 0.222790
O O17 0.000000 0.740011 0.000000
O O18 0.500000 0.500000 0.222702
#
# Coordination Sequence:
#
# PCOD8163489 Si02
#       8
#     8   8   8   8   8   8   8   8
#     4   9  19  33  57  89 122 167 226 253 322 389
#     4  11  20  38  68  98 128 176 229 267 329 398
#     4  11  19  39  69  96 121 171 224 279 330 395
#     4  11  25  44  67 100 134 168 224 286 343 391
#     4  12  22  40  68  94 132 167 221 277 328 405
#     4  10  20  35  59  90 125 171 223 257 310 393
#     4  10  22  39  54  87 141 181 214 270 329 390
#     4  10  19  38  65  97 127 169 220 281 336 393
#
# _framework density 22.918972
#
# number of rings (size 3 to 8) (size 9 to 14) (size 15 to 20)
#    0.000    1.500    5.000    0.750    0.000    2.500 
#   13.500    3.750    0.000    0.000    0.000    2.625 
#    0.000    0.000    0.000    0.000    0.000    0.000 
#
# Total GULP energy -396498.108837 kJ/mol
# GULP energy per Si atom -12390.565901 kJ/mol
# Density = 2.286681 g / cm^3
# Si number density = 22.918972 Si / 1000 Ang^3
#
#
#
# Elastic Constant Matrix: (Units=GPa)
#
#
# Indices 1 2 3 4 5 6 
#
# 1 63.1356 6.4752 34.9748 0.0000 0.0000 0.0000
# 2 6.4752 52.5900 16.6832 0.0000 0.0000 0.0000
# 3 34.9748 16.6832 158.8256 0.0000 0.0000 0.0000
# 4 0.0000 0.0000 0.0000 26.0885 0.0000 0.0000
# 5 0.0000 0.0000 0.0000 0.0000 33.6143 0.0000
# 6 0.0000 0.0000 0.0000 0.0000 0.0000 37.4307
#
#
#
# Elastic Compliance Matrix: (Units=1/GPa)
#
#
# Indices 1 2 3 4 5 6 
#
# 1 0.018090 -0.000997 -0.003879 0.000000 0.000000 0.000000
# 2 -0.000997 0.019725 -0.001852 0.000000 0.000000 0.000000
# 3 -0.003879 -0.001852 0.007345 0.000000 0.000000 0.000000
# 4 0.000000 0.000000 0.000000 0.038331 0.000000 0.000000
# 5 0.000000 0.000000 0.000000 0.000000 0.029749 0.000000
# 6 0.000000 0.000000 0.000000 0.000000 0.000000 0.026716
#
#
# Mechanical properties :
#
#
# Convention : Reuss Voigt Hill
#
# Bulk Modulus (GPa) = 31.54182 43.42419 37.48300
# Shear Modulus (GPa) = 30.49135 33.85456 32.17295
#
# Velocity S-wave (km/s) = 3.65142 3.84753 3.75076
# Velocity P-wave (km/s) = 5.61866 6.22302 5.92854
#
# Compressibility (1/GPa) = 0.03170394
#
# Stress axis : x y z
#
# Youngs Moduli (GPa) = 55.27942 50.69606 136.14792
#
# Poissons Ratio (x) = 0.05054 0.52810
# Poissons Ratio (y) = 0.05511 0.25221
# Poissons Ratio (z) = 0.21442 0.09391
#
# Static dielectric constant tensor:
#      x y z
#    x 4.344440 0.000000 0.000000 
#    y 0.000000 3.774790 0.000000 
#    z 0.000000 0.000000 4.732910 
# 
# 
# High freq. dielectric constant tensor:
#      x y z
#    x 1.902130 0.000000 0.000000 
#    y 0.000000 1.859760 0.000000 
#    z 0.000000 0.000000 1.931990 
# 
# From -- ./inp_files/12175.got.cif
#   From: 2010.03.12/outbox.cif.g09.slc.cpg/sg23_7_cif.got.tgz:12175.got - 2010.04.14 02:50:06.
