data_PCOD8163147
_publ_section_title
;
Structure prediction by ZEFSAII (Michael W. Deem and Ramdas Pophale) SiO2 
 PCOD8163147
Probable space group: F 2 2 2
;
_chemical_formula_sum "Si O2"
_cell_formula_units_Z 64
_cell_length_a 20.134261
_cell_length_b 13.639413
_cell_length_c 10.288516
_cell_angle_alpha 90.000000
_cell_angle_beta 90.000000
_cell_angle_gamma 90.000000
_cell_volume 2825.427132
_symmetry_space_group_name_H-M "F 2 2 2"
_symmetry_group_IT_number 22
_symmetry_cell_setting 'orthorhombic'
loop_
_space_group_symop_operation_xyz
x,y,z
-x,-y,z
x,-y,-z
-x,y,-z
x,1/2+y,1/2+z
-x,1/2-y,1/2+z
x,1/2-y,1/2-z
-x,1/2+y,1/2-z
1/2+x,y,1/2+z
1/2-x,-y,1/2+z
1/2+x,-y,1/2-z
1/2-x,y,1/2-z
1/2+x,1/2+y,z
1/2-x,1/2-y,z
1/2+x,1/2-y,-z
1/2-x,1/2+y,-z
loop_
_atom_site_type_symbol
_atom_site_label
_atom_site_fract_x
_atom_site_fract_y
_atom_site_fract_z
Si Si1 0.492191 0.614397 0.354100
Si Si2 0.750000 0.982336 0.250000
Si Si3 0.402578 0.750000 0.750000
Si Si4 0.650066 0.357990 0.228900
Si Si5 0.695553 0.328887 0.953958
O O1 0.500000 0.500000 0.357911
O O2 0.500000 0.658180 0.500000
O O3 0.552044 0.654694 0.267595
O O4 0.423843 0.643890 0.285521
O O5 0.728408 0.914879 0.369449
O O6 0.691278 0.055264 0.199471
O O7 0.357546 0.733576 0.874574
O O8 0.680906 0.250000 0.250000
O O9 0.656991 0.378848 0.074563
O O10 0.750000 0.250000 0.000735
#
# Coordination Sequence:
#
# PCOD8163147 Si02
#       5
#    16   8   8  16  16
#     4  11  26  47  72 105 145 195 242 302 367 443
#     4  12  24  46  70 114 144 198 244 302 368 430
#     4  12  23  46  76 105 148 188 248 300 366 433
#     4  12  26  47  71 107 147 192 245 302 367 439
#     4  12  25  47  75 107 148 193 246 305 368 435
#
# _framework density 22.651441999999999
#
# number of rings (size 3 to 8) (size 9 to 14) (size 15 to 20)
#    0.000    0.250    3.750    5.625    0.000    0.000 
#    9.000    1.250    0.000    0.000    0.000    0.000 
#    0.000    0.000    0.000    0.000    0.000    0.000 
#
# Total GULP energy -198403.409253 kJ/mol
# GULP energy per Si atom -12400.213078 kJ/mol
# Density = 2.259989 g / cm^3
# Si number density = 22.651442 Si / 1000 Ang^3
#
#
#
# Elastic Constant Matrix: (Units=GPa)
#
#
# Indices 1 2 3 4 5 6 
#
# 1 157.2303 45.3112 68.8961 0.0000 0.0000 0.0000
# 2 45.3112 121.2906 37.5234 0.0000 0.0000 0.0000
# 3 68.8961 37.5234 140.3262 0.0000 0.0000 0.0000
# 4 0.0000 0.0000 0.0000 36.5746 0.0000 0.0000
# 5 0.0000 0.0000 0.0000 0.0000 46.5199 0.0000
# 6 0.0000 0.0000 0.0000 0.0000 0.0000 95.6047
#
#
#
# Elastic Compliance Matrix: (Units=1/GPa)
#
#
# Indices 1 2 3 4 5 6 
#
# 1 0.008554 -0.002067 -0.003647 0.000000 0.000000 0.000000
# 2 -0.002067 0.009488 -0.001522 0.000000 0.000000 0.000000
# 3 -0.003647 -0.001522 0.009324 0.000000 0.000000 0.000000
# 4 0.000000 0.000000 0.000000 0.027341 0.000000 0.000000
# 5 0.000000 0.000000 0.000000 0.000000 0.021496 0.000000
# 6 0.000000 0.000000 0.000000 0.000000 0.000000 0.010460
#
#
# Mechanical properties :
#
#
# Convention : Reuss Voigt Hill
#
# Bulk Modulus (GPa) = 77.56180 80.25649 78.90914
# Shear Modulus (GPa) = 47.42348 53.54760 50.48554
#
# Velocity S-wave (km/s) = 4.58057 4.86735 4.72614
# Velocity P-wave (km/s) = 7.89248 8.19123 8.04324
#
# Compressibility (1/GPa) = 0.01289295
#
# Stress axis : x y z
#
# Youngs Moduli (GPa) = 116.90597 105.39821 107.25258
#
# Poissons Ratio (x) = 0.21789 0.39114
# Poissons Ratio (y) = 0.24168 0.16325
# Poissons Ratio (z) = 0.42635 0.16042
#
# Static dielectric constant tensor:
#      x y z
#    x 4.189260 0.000000 0.000000 
#    y 0.000000 4.305370 0.000000 
#    z 0.000000 0.000000 4.302410 
# 
# 
# High freq. dielectric constant tensor:
#      x y z
#    x 1.899990 0.000000 0.000000 
#    y 0.000000 1.911730 0.000000 
#    z 0.000000 0.000000 1.895280 
# 
# From -- ./inp_files/20873.got.cif
#   From: 2010.03.12/outbox.cif.g09.slc.cpg/sg22_11_cif.got.tgz:20873.got - 2010.04.14 02:24:06.
