data_PCOD8163727
_publ_section_title
;
Structure prediction by ZEFSAII (Michael W. Deem and Ramdas Pophale) SiO2 
 PCOD8163727
Probable space group: I 2 2 2
;
_chemical_formula_sum "Si O2"
_cell_formula_units_Z 58
_cell_length_a 24.685784
_cell_length_b 11.768819
_cell_length_c 9.912915
_cell_angle_alpha 90.000000
_cell_angle_beta 90.000000
_cell_angle_gamma 90.000000
_cell_volume 2879.925084
_symmetry_space_group_name_H-M "I 2 2 2"
_symmetry_group_IT_number 23
_symmetry_cell_setting 'orthorhombic'
loop_
_space_group_symop_operation_xyz
x,y,z
-x,-y,z
x,-y,-z
-x,y,-z
1/2+x,1/2+y,1/2+z
1/2-x,1/2-y,1/2+z
1/2+x,1/2-y,1/2-z
1/2-x,1/2+y,1/2-z
loop_
_atom_site_type_symbol
_atom_site_label
_atom_site_fract_x
_atom_site_fract_y
_atom_site_fract_z
Si Si1 0.806939 0.276797 0.297050
Si Si2 0.209013 0.267775 0.395692
Si Si3 0.000000 0.000000 0.000000
Si Si4 0.093864 0.876997 0.314479
Si Si5 0.482554 0.694958 0.319289
Si Si6 0.551296 0.063742 0.362547
Si Si7 0.397539 0.366041 0.874522
Si Si8 0.856790 0.484058 0.651575
O O1 0.780489 0.256338 0.444034
O O2 0.762611 0.269330 0.181001
O O3 0.851640 0.182191 0.262472
O O4 0.835002 0.398941 0.288684
O O5 0.161891 0.182655 0.349366
O O6 0.193115 0.396221 0.357320
O O7 0.036164 0.086390 0.090168
O O8 0.044403 0.826739 0.227229
O O9 0.085172 0.854147 0.471423
O O10 0.100278 0.011715 0.303577
O O11 0.470979 0.810502 0.401340
O O12 0.443911 0.709218 0.191783
O O13 0.598695 0.065322 0.252829
O O14 0.500000 0.000000 0.296439
O O15 0.569838 0.000000 0.500000
O O16 0.881173 0.500000 0.500000
#
# Coordination Sequence:
#
# PCOD8163727 Si02
#       8
#     8   8   2   8   8   8   8   8
#     4  10  23  40  63  92 127 163 209 262 310 369
#     4  10  22  42  62  93 123 164 209 262 311 369
#     4  12  24  36  56  92 136 168 200 256 312 390
#     4  10  21  39  66  95 123 160 209 258 308 373
#     4  12  22  41  62  90 130 165 206 254 319 370
#     4  11  24  42  62  90 128 171 211 256 311 383
#     4  10  20  40  66  93 124 158 208 261 308 369
#     4  10  22  43  65  91 125 160 216 268 308 367
#
# _framework density 20.139413999999999
#
# number of rings (size 3 to 8) (size 9 to 14) (size 15 to 20)
#    0.000    1.517    2.759    2.069    1.931    2.483 
#    4.966    0.000    0.000    0.000    0.000    0.000 
#    0.000    0.000    0.000    0.000    0.000    0.000 
#
# Total GULP energy -359438.122150 kJ/mol
# GULP energy per Si atom -12394.418005 kJ/mol
# Density = 2.009358 g / cm^3
# Si number density = 20.139414 Si / 1000 Ang^3
#
#
#
# Elastic Constant Matrix: (Units=GPa)
#
#
# Indices 1 2 3 4 5 6 
#
# 1 97.8362 24.9911 60.6928 0.0000 0.0000 0.0000
# 2 24.9911 95.9975 33.6676 0.0000 0.0000 0.0000
# 3 60.6928 33.6676 85.0742 0.0000 0.0000 0.0000
# 4 0.0000 0.0000 0.0000 25.6069 0.0000 0.0000
# 5 0.0000 0.0000 0.0000 0.0000 28.7238 0.0000
# 6 0.0000 0.0000 0.0000 0.0000 0.0000 20.2491
#
#
#
# Elastic Compliance Matrix: (Units=1/GPa)
#
#
# Indices 1 2 3 4 5 6 
#
# 1 0.018340 -0.000216 -0.012999 0.000000 0.000000 0.000000
# 2 -0.000216 0.012098 -0.004634 0.000000 0.000000 0.000000
# 3 -0.012999 -0.004634 0.022862 0.000000 0.000000 0.000000
# 4 0.000000 0.000000 0.000000 0.039052 0.000000 0.000000
# 5 0.000000 0.000000 0.000000 0.000000 0.034814 0.000000
# 6 0.000000 0.000000 0.000000 0.000000 0.000000 0.049385
#
#
# Mechanical properties :
#
#
# Convention : Reuss Voigt Hill
#
# Bulk Modulus (GPa) = 56.80706 57.51235 57.15970
# Shear Modulus (GPa) = 22.92365 25.55303 24.23834
#
# Velocity S-wave (km/s) = 3.37745 3.56590 3.47295
# Velocity P-wave (km/s) = 6.59376 6.75080 6.67274
#
# Compressibility (1/GPa) = 0.01760345
#
# Stress axis : x y z
#
# Youngs Moduli (GPa) = 54.52588 82.65639 43.74149
#
# Poissons Ratio (x) = 0.01783 0.56858
# Poissons Ratio (y) = 0.01176 0.20270
# Poissons Ratio (z) = 0.70876 0.38303
#
# Static dielectric constant tensor:
#      x y z
#    x 3.602240 0.000000 0.000000 
#    y 0.000000 4.030870 0.000000 
#    z 0.000000 0.000000 3.688600 
# 
# 
# High freq. dielectric constant tensor:
#      x y z
#    x 1.768970 0.000000 0.000000 
#    y 0.000000 1.807410 0.000000 
#    z 0.000000 0.000000 1.790300 
# 
# From -- ./inp_files/13050.got.cif
#   From: 2010.03.12/outbox.cif.g09.slc.cpg/sg23_7_cif.got.tgz:13050.got - 2010.04.14 02:50:06.
