data_PCOD8163189
_publ_section_title
;
Structure prediction by ZEFSAII (Michael W. Deem and Ramdas Pophale) SiO2 
 PCOD8163189
Probable space group: I 2 2 2
;
_chemical_formula_sum "Si O2"
_cell_formula_units_Z 56
_cell_length_a 18.992842
_cell_length_b 19.004146
_cell_length_c 9.301856
_cell_angle_alpha 90.000000
_cell_angle_beta 90.000000
_cell_angle_gamma 90.000000
_cell_volume 3357.437413
_symmetry_space_group_name_H-M "I 2 2 2"
_symmetry_group_IT_number 23
_symmetry_cell_setting 'orthorhombic'
loop_
_space_group_symop_operation_xyz
x,y,z
-x,-y,z
x,-y,-z
-x,y,-z
1/2+x,1/2+y,1/2+z
1/2-x,1/2-y,1/2+z
1/2+x,1/2-y,1/2-z
1/2-x,1/2+y,1/2-z
loop_
_atom_site_type_symbol
_atom_site_label
_atom_site_fract_x
_atom_site_fract_y
_atom_site_fract_z
Si Si1 0.867374 0.738859 0.286261
Si Si2 0.017260 0.301065 0.657621
Si Si3 0.782275 0.484440 0.332408
Si Si4 0.436466 0.038361 0.154562
Si Si5 0.345524 0.736266 0.884063
Si Si6 0.279159 0.341558 0.614230
Si Si7 0.741358 0.634945 0.286114
O O1 0.859986 0.768759 0.446767
O O2 0.847328 0.802117 0.178205
O O3 0.817239 0.671430 0.265872
O O4 0.946879 0.712590 0.247969
O O5 0.042812 0.380731 0.644909
O O6 0.083848 0.254006 0.707587
O O7 0.000000 0.273724 0.500000
O O8 0.790793 0.500000 0.500000
O O9 0.860540 0.469018 0.268968
O O10 0.731080 0.417622 0.310182
O O11 0.749541 0.552127 0.254128
O O12 0.500000 0.000000 0.242778
O O13 0.432347 0.000000 0.000000
O O14 0.290092 0.797326 0.848055
O O15 0.314748 0.662308 0.829905
O O16 0.289347 0.349699 0.444041
#
# Coordination Sequence:
#
# PCOD8163189 Si02
#       7
#     8   8   8   8   8   8   8
#     4   9  18  28  45  66  95 121 154 185 230 276
#     4  10  16  26  41  67  97 126 144 185 231 278
#     4   9  16  25  43  67  92 119 150 193 232 268
#     4  10  15  20  38  68 101 119 141 178 240 283
#     4   9  17  29  44  65  94 122 150 187 230 275
#     4   9  16  30  45  65  91 122 154 191 226 273
#     4   9  17  29  46  66  92 119 156 190 229 271
#
# _framework density 16.679387999999999
#
# number of rings (size 3 to 8) (size 9 to 14) (size 15 to 20)
#    0.000    2.714    2.857    0.857    4.000    0.000 
#    0.000    1.429    0.000    0.857    0.000    6.000 
#    0.000    0.000    0.000    0.000    0.000    0.000 
#
# Total GULP energy -346936.403213 kJ/mol
# GULP energy per Si atom -12390.585829 kJ/mol
# Density = 1.664143 g / cm^3
# Si number density = 16.679388 Si / 1000 Ang^3
#
#
#
# Elastic Constant Matrix: (Units=GPa)
#
#
# Indices 1 2 3 4 5 6 
#
# 1 94.0849 46.8721 18.6617 0.0000 0.0000 0.0000
# 2 46.8721 108.8964 20.4006 0.0000 0.0000 0.0000
# 3 18.6617 20.4006 19.0686 0.0000 0.0000 0.0000
# 4 0.0000 0.0000 0.0000 21.0558 0.0000 0.0000
# 5 0.0000 0.0000 0.0000 0.0000 13.4965 0.0000
# 6 0.0000 0.0000 0.0000 0.0000 0.0000 21.7653
#
#
#
# Elastic Compliance Matrix: (Units=1/GPa)
#
#
# Indices 1 2 3 4 5 6 
#
# 1 0.014813 -0.004578 -0.009600 0.000000 0.000000 0.000000
# 2 -0.004578 0.012900 -0.009321 0.000000 0.000000 0.000000
# 3 -0.009600 -0.009321 0.071809 0.000000 0.000000 0.000000
# 4 0.000000 0.000000 0.000000 0.047493 0.000000 0.000000
# 5 0.000000 0.000000 0.000000 0.000000 0.074093 0.000000
# 6 0.000000 0.000000 0.000000 0.000000 0.000000 0.045945
#
#
# Mechanical properties :
#
#
# Convention : Reuss Voigt Hill
#
# Bulk Modulus (GPa) = 19.03840 43.76874 31.40357
# Shear Modulus (GPa) = 15.08037 20.33790 17.70914
#
# Velocity S-wave (km/s) = 3.01014 3.49570 3.26197
# Velocity P-wave (km/s) = 4.84978 6.52621 5.74942
#
# Compressibility (1/GPa) = 0.05252543
#
# Stress axis : x y z
#
# Youngs Moduli (GPa) = 67.50660 77.52236 13.92590
#
# Poissons Ratio (x) = 0.35487 0.13369
# Poissons Ratio (y) = 0.30902 0.12980
# Poissons Ratio (z) = 0.64805 0.72255
#
# Static dielectric constant tensor:
#      x y z
#    x 3.470090 0.000000 0.000000 
#    y 0.000000 3.214200 0.000000 
#    z 0.000000 0.000000 2.726850 
# 
# 
# High freq. dielectric constant tensor:
#      x y z
#    x 1.641870 0.000000 0.000000 
#    y 0.000000 1.640220 0.000000 
#    z 0.000000 0.000000 1.587740 
# 
# From -- ./inp_files/11358.got.cif
#   From: 2010.03.12/outbox.cif.g09.slc.cpg/sg23_6_cif.got.tgz:11358.got - 2010.04.14 02:50:06.
