data_PCOD8163248
_publ_section_title
;
Structure prediction by ZEFSAII (Michael W. Deem and Ramdas Pophale) SiO2 
 PCOD8163248
Probable space group: I 2 2 2
;
_chemical_formula_sum "Si O2"
_cell_formula_units_Z 56
_cell_length_a 19.104608
_cell_length_b 18.824206
_cell_length_c 8.620575
_cell_angle_alpha 90.000000
_cell_angle_beta 90.000000
_cell_angle_gamma 90.000000
_cell_volume 3100.209427
_symmetry_space_group_name_H-M "I 2 2 2"
_symmetry_group_IT_number 23
_symmetry_cell_setting 'orthorhombic'
loop_
_space_group_symop_operation_xyz
x,y,z
-x,-y,z
x,-y,-z
-x,y,-z
1/2+x,1/2+y,1/2+z
1/2-x,1/2-y,1/2+z
1/2+x,1/2-y,1/2-z
1/2-x,1/2+y,1/2-z
loop_
_atom_site_type_symbol
_atom_site_label
_atom_site_fract_x
_atom_site_fract_y
_atom_site_fract_z
Si Si1 0.485138 0.301430 0.168878
Si Si2 0.256046 0.871731 0.684285
Si Si3 0.348430 0.236905 0.165685
Si Si4 0.229933 0.346771 0.175818
Si Si5 0.566085 0.538024 0.165738
Si Si6 0.286091 0.517164 0.679735
Si Si7 0.864284 0.235807 0.697145
O O1 0.423433 0.254397 0.246435
O O2 0.455339 0.380486 0.145944
O O3 0.559305 0.291581 0.256524
O O4 0.500000 0.269607 0.000000
O O5 0.322699 0.840195 0.777489
O O6 0.267828 0.868793 0.501766
O O7 0.247414 0.953281 0.725284
O O8 0.186255 0.830076 0.734797
O O9 0.292553 0.294400 0.224984
O O10 0.357282 0.242053 0.981629
O O11 0.237227 0.415219 0.285510
O O12 0.156950 0.305743 0.205637
O O13 0.500000 0.500000 0.249046
O O14 0.634455 0.531998 0.269558
O O15 0.579961 0.500000 0.000000
O O16 0.285014 0.500000 0.500000
#
# Coordination Sequence:
#
# PCOD8163248 Si02
#       7
#     8   8   8   8   8   8   8
#     4  10  17  32  55  83 108 151 184 224 264 331
#     4  10  20  35  56  79 107 146 189 233 279 337
#     4   9  18  33  54  77 110 141 188 225 274 324
#     4  10  19  36  56  78 107 146 191 233 278 335
#     4  11  20  33  56  79 117 153 190 214 268 341
#     4  12  24  35  54  81 115 147 187 237 285 327
#     4   9  19  33  55  81 108 144 189 228 274 327
#
# _framework density 18.063298
#
# number of rings (size 3 to 8) (size 9 to 14) (size 15 to 20)
#    0.000    1.857    2.857    3.000    2.000    1.429 
#    0.000    0.714    0.000    0.857    0.000    6.000 
#    0.000    0.000    0.000    0.000    0.000    0.000 
#
# Total GULP energy -347063.472399 kJ/mol
# GULP energy per Si atom -12395.124014 kJ/mol
# Density = 1.802218 g / cm^3
# Si number density = 18.063298 Si / 1000 Ang^3
#
#
#
# Elastic Constant Matrix: (Units=GPa)
#
#
# Indices 1 2 3 4 5 6 
#
# 1 111.2598 55.9234 21.1981 0.0000 0.0000 0.0000
# 2 55.9234 108.7948 29.8180 0.0000 0.0000 0.0000
# 3 21.1981 29.8180 49.1272 0.0000 0.0000 0.0000
# 4 0.0000 0.0000 0.0000 24.5291 0.0000 0.0000
# 5 0.0000 0.0000 0.0000 0.0000 23.1138 0.0000
# 6 0.0000 0.0000 0.0000 0.0000 0.0000 31.5469
#
#
#
# Elastic Compliance Matrix: (Units=1/GPa)
#
#
# Indices 1 2 3 4 5 6 
#
# 1 0.012244 -0.005813 -0.001755 0.000000 0.000000 0.000000
# 2 -0.005813 0.013785 -0.005859 0.000000 0.000000 0.000000
# 3 -0.001755 -0.005859 0.024669 0.000000 0.000000 0.000000
# 4 0.000000 0.000000 0.000000 0.040768 0.000000 0.000000
# 5 0.000000 0.000000 0.000000 0.000000 0.043264 0.000000
# 6 0.000000 0.000000 0.000000 0.000000 0.000000 0.031699
#
#
# Mechanical properties :
#
#
# Convention : Reuss Voigt Hill
#
# Bulk Modulus (GPa) = 41.93836 53.67341 47.80589
# Shear Modulus (GPa) = 24.84710 26.65413 25.75061
#
# Velocity S-wave (km/s) = 3.71287 3.84552 3.77978
# Velocity P-wave (km/s) = 6.45356 7.03533 6.75072
#
# Compressibility (1/GPa) = 0.02384452
#
# Stress axis : x y z
#
# Youngs Moduli (GPa) = 81.67210 72.54119 40.53714
#
# Poissons Ratio (x) = 0.42166 0.07115
# Poissons Ratio (y) = 0.47474 0.23750
# Poissons Ratio (z) = 0.14335 0.42501
#
# Static dielectric constant tensor:
#      x y z
#    x 3.735100 0.000000 0.000000 
#    y 0.000000 3.398330 0.000000 
#    z 0.000000 0.000000 3.175480 
# 
# 
# High freq. dielectric constant tensor:
#      x y z
#    x 1.695330 0.000000 0.000000 
#    y 0.000000 1.695600 0.000000 
#    z 0.000000 0.000000 1.680610 
# 
# From -- ./inp_files/12141.got.cif
#   From: 2010.03.12/outbox.cif.g09.slc.cpg/sg23_7_cif.got.tgz:12141.got - 2010.04.14 02:50:06.
