data_PCOD8163760
_publ_section_title
;
Structure prediction by ZEFSAII (Michael W. Deem and Ramdas Pophale) SiO2 
 PCOD8163760
Probable space group: I 2 2 2
;
_chemical_formula_sum "Si O2"
_cell_formula_units_Z 36
_cell_length_a 15.414431
_cell_length_b 13.282293
_cell_length_c 8.665514
_cell_angle_alpha 90.000000
_cell_angle_beta 90.000000
_cell_angle_gamma 90.000000
_cell_volume 1774.168575
_symmetry_space_group_name_H-M "I 2 2 2"
_symmetry_group_IT_number 23
_symmetry_cell_setting 'orthorhombic'
loop_
_space_group_symop_operation_xyz
x,y,z
-x,-y,z
x,-y,-z
-x,y,-z
1/2+x,1/2+y,1/2+z
1/2-x,1/2-y,1/2+z
1/2+x,1/2-y,1/2-z
1/2-x,1/2+y,1/2-z
loop_
_atom_site_type_symbol
_atom_site_label
_atom_site_fract_x
_atom_site_fract_y
_atom_site_fract_z
Si Si1 0.616374 0.095336 0.247902
Si Si2 0.500000 0.000000 0.000000
Si Si3 0.388816 0.681090 0.173208
Si Si4 0.000000 0.500000 0.000000
Si Si5 0.058510 0.900154 0.339886
Si Si6 0.208565 0.999113 0.819355
O O1 0.646853 0.209508 0.217098
O O2 0.559388 0.075167 0.399654
O O3 0.701840 0.027033 0.263792
O O4 0.560033 0.071711 0.099089
O O5 0.488470 0.675927 0.237030
O O6 0.320513 0.608964 0.257508
O O7 0.396815 0.648478 0.992561
O O8 0.134243 0.919546 0.218591
O O9 0.000000 0.000000 0.375681
O O10 0.224357 0.000000 0.000000
#
# Coordination Sequence:
#
# PCOD8163760 Si02
#       6
#     8   2   8   2   8   8
#     4  11  24  44  64  90 123 168 212 260 319 379
#     4  10  20  46  64  78 132 158 204 258 308 382
#     4  10  21  40  65  92 122 168 211 247 321 375
#     4  10  28  46  64  86 128 170 212 274 320 374
#     4   9  19  39  66  92 125 165 203 260 312 367
#     4  11  23  39  60  99 131 157 207 267 309 366
#
# _framework density 20.291194999999998
#
# number of rings (size 3 to 8) (size 9 to 14) (size 15 to 20)
#    0.000    1.778    1.111    6.000    3.111    7.556 
#    8.000    0.000    0.000    0.000    0.000    0.000 
#    0.000    0.000    0.000    0.000    0.000    0.000 
#
# Total GULP energy -223016.434537 kJ/mol
# GULP energy per Si atom -12389.801919 kJ/mol
# Density = 2.024501 g / cm^3
# Si number density = 20.291195 Si / 1000 Ang^3
#
#
#
# Elastic Constant Matrix: (Units=GPa)
#
#
# Indices 1 2 3 4 5 6 
#
# 1 132.8970 45.3226 49.7359 0.0000 0.0000 0.0000
# 2 45.3226 120.8717 47.4609 0.0000 0.0000 0.0000
# 3 49.7359 47.4609 90.1337 0.0000 0.0000 0.0000
# 4 0.0000 0.0000 0.0000 19.9411 0.0000 0.0000
# 5 0.0000 0.0000 0.0000 0.0000 67.3834 0.0000
# 6 0.0000 0.0000 0.0000 0.0000 0.0000 23.4332
#
#
#
# Elastic Compliance Matrix: (Units=1/GPa)
#
#
# Indices 1 2 3 4 5 6 
#
# 1 0.009839 -0.001963 -0.004395 0.000000 0.000000 0.000000
# 2 -0.001963 0.010821 -0.004615 0.000000 0.000000 0.000000
# 3 -0.004395 -0.004615 0.015950 0.000000 0.000000 0.000000
# 4 0.000000 0.000000 0.000000 0.050148 0.000000 0.000000
# 5 0.000000 0.000000 0.000000 0.000000 0.014840 0.000000
# 6 0.000000 0.000000 0.000000 0.000000 0.000000 0.042674
#
#
# Mechanical properties :
#
#
# Convention : Reuss Voigt Hill
#
# Bulk Modulus (GPa) = 68.19687 69.88238 69.03962
# Shear Modulus (GPa) = 29.22131 35.57710 32.39921
#
# Velocity S-wave (km/s) = 3.79898 4.19182 4.00022
# Velocity P-wave (km/s) = 7.27496 7.61203 7.44540
#
# Compressibility (1/GPa) = 0.01466343
#
# Stress axis : x y z
#
# Youngs Moduli (GPa) = 101.63441 92.40900 62.69616
#
# Poissons Ratio (x) = 0.18144 0.27557
# Poissons Ratio (y) = 0.19956 0.28933
# Poissons Ratio (z) = 0.44672 0.42644
#
# Static dielectric constant tensor:
#      x y z
#    x 4.000270 0.000000 0.000000 
#    y 0.000000 3.650470 0.000000 
#    z 0.000000 0.000000 3.604780 
# 
# 
# High freq. dielectric constant tensor:
#      x y z
#    x 1.804880 0.000000 0.000000 
#    y 0.000000 1.782140 0.000000 
#    z 0.000000 0.000000 1.784650 
# 
# From -- ./inp_files/9503.got.cif
#   From: 2010.03.12/outbox.cif.g09.slc.cpg/sg23_5_cif.got.tgz:9503.got - 2010.04.14 02:50:06.
