data_PCOD8163392
_publ_section_title
;
Structure prediction by ZEFSAII (Michael W. Deem and Ramdas Pophale) SiO2 
 PCOD8163392
Probable space group: I 2 2 2
;
_chemical_formula_sum "Si O2"
_cell_formula_units_Z 60
_cell_length_a 11.338380
_cell_length_b 11.624840
_cell_length_c 21.424127
_cell_angle_alpha 90.000000
_cell_angle_beta 90.000000
_cell_angle_gamma 90.000000
_cell_volume 2823.846766
_symmetry_space_group_name_H-M "I 2 2 2"
_symmetry_group_IT_number 23
_symmetry_cell_setting 'orthorhombic'
loop_
_space_group_symop_operation_xyz
x,y,z
-x,-y,z
x,-y,-z
-x,y,-z
1/2+x,1/2+y,1/2+z
1/2-x,1/2-y,1/2+z
1/2+x,1/2-y,1/2-z
1/2-x,1/2+y,1/2-z
loop_
_atom_site_type_symbol
_atom_site_label
_atom_site_fract_x
_atom_site_fract_y
_atom_site_fract_z
Si Si1 0.979693 0.706270 0.897536
Si Si2 0.840154 0.624250 0.007957
Si Si3 0.678394 0.665131 0.834895
Si Si4 0.140378 0.860330 0.180888
Si Si5 0.369915 0.460812 0.079451
Si Si6 0.211688 0.442267 0.720198
Si Si7 0.083016 0.782391 0.316984
Si Si8 0.500000 0.000000 0.301257
O O1 0.971352 0.835169 0.865594
O O2 0.103514 0.692045 0.933272
O O3 0.974983 0.612832 0.841802
O O4 0.868988 0.694098 0.945362
O O5 0.700594 0.596839 0.020769
O O6 0.903356 0.500000 0.000000
O O7 0.779826 0.756386 0.843772
O O8 0.692978 0.573197 0.891289
O O9 0.691471 0.605082 0.767908
O O10 0.554088 0.731384 0.833740
O O11 0.100466 0.847555 0.251852
O O12 0.212747 0.978489 0.172168
O O13 0.500000 0.500000 0.058546
O O14 0.361435 0.363733 0.131544
O O15 0.146422 0.341357 0.681866
O O16 0.114331 0.518702 0.757095
#
# Coordination Sequence:
#
# PCOD8163392 Si02
#       8
#     8   8   8   8   8   8   8   4
#     4  11  21  34  56  90 124 161 212 262 309 378
#     4  11  21  35  59  87 122 166 214 261 323 378
#     4  10  19  34  51  81 122 157 198 256 303 375
#     4  11  22  34  54  86 123 165 202 256 312 372
#     4  10  21  38  59  86 125 164 208 265 322 384
#     4  11  22  34  58  87 126 169 205 244 317 388
#     4  10  21  35  54  84 118 165 205 246 317 380
#     4  12  18  35  58  92 120 165 202 250 308 392
#
# _framework density 21.247612
#
# number of rings (size 3 to 8) (size 9 to 14) (size 15 to 20)
#    0.000    1.333    5.333    2.800    0.000    1.333 
#    0.000    0.000    0.000    0.800    0.000    1.867 
#    0.000    5.333    0.000    0.133    0.000    0.000 
#
# Total GULP energy -371695.836579 kJ/mol
# GULP energy per Si atom -12389.861219 kJ/mol
# Density = 2.119925 g / cm^3
# Si number density = 21.247612 Si / 1000 Ang^3
#
#
#
# Elastic Constant Matrix: (Units=GPa)
#
#
# Indices 1 2 3 4 5 6 
#
# 1 81.9687 23.6650 18.2170 0.0000 0.0000 0.0000
# 2 23.6650 81.9039 34.8332 0.0000 0.0000 0.0000
# 3 18.2170 34.8332 76.2364 0.0000 0.0000 0.0000
# 4 0.0000 0.0000 0.0000 24.6327 0.0000 0.0000
# 5 0.0000 0.0000 0.0000 0.0000 26.5378 0.0000
# 6 0.0000 0.0000 0.0000 0.0000 0.0000 26.6729
#
#
#
# Elastic Compliance Matrix: (Units=1/GPa)
#
#
# Indices 1 2 3 4 5 6 
#
# 1 0.013505 -0.003140 -0.001792 0.000000 0.000000 0.000000
# 2 -0.003140 0.015884 -0.006507 0.000000 0.000000 0.000000
# 3 -0.001792 -0.006507 0.016519 0.000000 0.000000 0.000000
# 4 0.000000 0.000000 0.000000 0.040596 0.000000 0.000000
# 5 0.000000 0.000000 0.000000 0.000000 0.037682 0.000000
# 6 0.000000 0.000000 0.000000 0.000000 0.000000 0.037491
#
#
# Mechanical properties :
#
#
# Convention : Reuss Voigt Hill
#
# Bulk Modulus (GPa) = 43.42453 43.72659 43.57556
# Shear Modulus (GPa) = 26.01019 26.46160 26.23589
#
# Velocity S-wave (km/s) = 3.50258 3.53284 3.51774
# Velocity P-wave (km/s) = 6.06952 6.10455 6.08706
#
# Compressibility (1/GPa) = 0.02302846
#
# Stress axis : x y z
#
# Youngs Moduli (GPa) = 74.04902 62.95591 60.53749
#
# Poissons Ratio (x) = 0.19766 0.10851
# Poissons Ratio (y) = 0.23249 0.39394
# Poissons Ratio (z) = 0.13273 0.40968
#
# Static dielectric constant tensor:
#      x y z
#    x 4.012380 0.000000 0.000000 
#    y 0.000000 3.780470 0.000000 
#    z 0.000000 0.000000 3.906310 
# 
# 
# High freq. dielectric constant tensor:
#      x y z
#    x 1.849640 0.000000 0.000000 
#    y 0.000000 1.801220 0.000000 
#    z 0.000000 0.000000 1.824610 
# 
# From -- ./inp_files/26748.got.cif
#   From: 2010.03.12/outbox.cif.g09.slc.cpg/sg23_14_cif.got.tgz:26748.got - 2010.04.14 02:50:06.
