data_PCOD8163587
_publ_section_title
;
Structure prediction by ZEFSAII (Michael W. Deem and Ramdas Pophale) SiO2 
 PCOD8163587
Probable space group: I 2 2 2
;
_chemical_formula_sum "Si O2"
_cell_formula_units_Z 56
_cell_length_a 8.870394
_cell_length_b 19.778106
_cell_length_c 15.014764
_cell_angle_alpha 90.000000
_cell_angle_beta 90.000000
_cell_angle_gamma 90.000000
_cell_volume 2634.184082
_symmetry_space_group_name_H-M "I 2 2 2"
_symmetry_group_IT_number 23
_symmetry_cell_setting 'orthorhombic'
loop_
_space_group_symop_operation_xyz
x,y,z
-x,-y,z
x,-y,-z
-x,y,-z
1/2+x,1/2+y,1/2+z
1/2-x,1/2-y,1/2+z
1/2+x,1/2-y,1/2-z
1/2-x,1/2+y,1/2-z
loop_
_atom_site_type_symbol
_atom_site_label
_atom_site_fract_x
_atom_site_fract_y
_atom_site_fract_z
Si Si1 0.109568 0.607866 0.573709
Si Si2 0.629252 0.554016 0.824635
Si Si3 0.442573 0.073980 0.402501
Si Si4 0.178064 0.008565 0.139192
Si Si5 0.981054 0.670982 0.747115
Si Si6 0.157382 0.142860 0.045786
Si Si7 0.138166 0.189993 0.236128
O O1 0.233454 0.556219 0.608184
O O2 0.006972 0.632304 0.654845
O O3 0.212236 0.666954 0.524687
O O4 0.000000 0.575452 0.500000
O O5 0.500000 0.500000 0.858207
O O6 0.757201 0.571010 0.898902
O O7 0.720951 0.521491 0.742222
O O8 0.557434 0.624957 0.784988
O O9 0.500000 0.097017 0.500000
O O10 0.522871 0.124868 0.332322
O O11 0.500000 0.000000 0.379444
O O12 0.225552 0.071667 0.079605
O O13 0.000000 0.000000 0.131384
O O14 0.071032 0.739715 0.733698
O O15 0.809908 0.689528 0.764783
O O16 0.128477 0.191441 0.128949
O O17 0.000000 0.131584 0.000000
#
# Coordination Sequence:
#
# PCOD8163587 Si02
#       7
#     8   8   8   8   8   8   8
#     4  12  24  40  61  97 141 177 209 272 332 402
#     4   9  20  41  69  99 128 168 219 274 334 395
#     4  10  22  44  69  95 127 167 226 287 334 384
#     4  10  20  35  60  97 139 173 211 255 325 406
#     4  11  25  45  65  96 134 179 225 276 334 392
#     4  11  22  38  60  96 135 174 217 264 321 404
#     4  10  24  43  63  96 135 175 228 266 326 402
#
# _framework density 21.258953000000002
#
# number of rings (size 3 to 8) (size 9 to 14) (size 15 to 20)
#    0.000    1.571    2.857    1.286    2.000    2.857 
#    5.143    1.429    0.000    0.857    0.000    0.000 
#    0.000    0.000    0.000    0.000    0.000    0.000 
#
# Total GULP energy -346898.617477 kJ/mol
# GULP energy per Si atom -12389.236338 kJ/mol
# Density = 2.121057 g / cm^3
# Si number density = 21.258953 Si / 1000 Ang^3
#
#
#
# Elastic Constant Matrix: (Units=GPa)
#
#
# Indices 1 2 3 4 5 6 
#
# 1 75.7512 35.0277 29.3126 0.0000 0.0000 0.0000
# 2 35.0277 93.8355 42.3407 0.0000 0.0000 0.0000
# 3 29.3126 42.3407 118.1537 0.0001 0.0000 0.0000
# 4 0.0000 0.0000 0.0001 2.5030 0.0000 0.0000
# 5 0.0000 0.0000 0.0000 0.0000 10.2448 0.0000
# 6 0.0000 0.0000 0.0000 0.0000 0.0000 30.8210
#
#
#
# Elastic Compliance Matrix: (Units=1/GPa)
#
#
# Indices 1 2 3 4 5 6 
#
# 1 0.016438 -0.005125 -0.002242 0.000000 0.000000 0.000000
# 2 -0.005125 0.014310 -0.003857 0.000000 0.000000 0.000000
# 3 -0.002242 -0.003857 0.010402 0.000000 0.000000 0.000000
# 4 0.000000 0.000000 0.000000 0.399515 0.000001 0.000000
# 5 0.000000 0.000000 0.000000 0.000001 0.097611 0.000000
# 6 0.000000 0.000000 0.000000 0.000000 0.000000 0.032445
#
#
# Mechanical properties :
#
#
# Convention : Reuss Voigt Hill
#
# Bulk Modulus (GPa) = 53.46459 55.67801 54.57130
# Shear Modulus (GPa) = 8.34165 20.78439 14.56302
#
# Velocity S-wave (km/s) = 1.98301 3.13017 2.62015
# Velocity P-wave (km/s) = 5.51787 6.26987 5.90585
#
# Compressibility (1/GPa) = 0.01870397
#
# Stress axis : x y z
#
# Youngs Moduli (GPa) = 60.83383 69.88037 96.13765
#
# Poissons Ratio (x) = 0.35812 0.21551
# Poissons Ratio (y) = 0.31175 0.37077
# Poissons Ratio (z) = 0.13637 0.26951
#
# Static dielectric constant tensor:
#      x y z
#    x 3.932570 0.000000 0.000000 
#    y 0.000000 3.826110 0.000000 
#    z 0.000000 0.000000 4.051260 
# 
# 
# High freq. dielectric constant tensor:
#      x y z
#    x 1.839980 0.000000 0.000000 
#    y 0.000000 1.807870 0.000000 
#    z 0.000000 0.000000 1.836600 
# 
# From -- ./inp_files/20216.got.cif
#   From: 2010.03.12/outbox.cif.g09.slc.cpg/sg23_11_cif.got.tgz:20216.got - 2010.04.14 02:50:06.
