data_PCOD8163731
_publ_section_title
;
Structure prediction by ZEFSAII (Michael W. Deem and Ramdas Pophale) SiO2 
 PCOD8163731
Probable space group: I 2 2 2
;
_chemical_formula_sum "Si O2"
_cell_formula_units_Z 40
_cell_length_a 8.550107
_cell_length_b 23.207090
_cell_length_c 8.448533
_cell_angle_alpha 90.000000
_cell_angle_beta 90.000000
_cell_angle_gamma 90.000000
_cell_volume 1676.384131
_symmetry_space_group_name_H-M "I 2 2 2"
_symmetry_group_IT_number 23
_symmetry_cell_setting 'orthorhombic'
loop_
_space_group_symop_operation_xyz
x,y,z
-x,-y,z
x,-y,-z
-x,y,-z
1/2+x,1/2+y,1/2+z
1/2-x,1/2-y,1/2+z
1/2+x,1/2-y,1/2-z
1/2-x,1/2+y,1/2-z
loop_
_atom_site_type_symbol
_atom_site_label
_atom_site_fract_x
_atom_site_fract_y
_atom_site_fract_z
Si Si1 0.826485 0.488581 0.181496
Si Si2 0.670740 0.444606 0.577642
Si Si3 0.898465 0.366243 0.151857
Si Si4 0.820399 0.326588 0.645637
Si Si5 0.671696 0.288010 0.969976
O O1 0.690108 0.532898 0.241930
O O2 0.794934 0.420276 0.215596
O O3 0.000000 0.500000 0.251708
O O4 0.822578 0.500000 0.000000
O O5 0.763822 0.500000 0.500000
O O6 0.500000 0.442221 0.500000
O O7 0.746526 0.382252 0.561025
O O8 0.787396 0.315110 0.097784
O O9 0.007435 0.341830 0.291493
O O10 0.000000 0.387907 0.000000
O O11 0.827472 0.280294 0.504639
O O12 0.717287 0.301981 0.790129
O O13 0.500000 0.313754 0.000000
#
# Coordination Sequence:
#
# PCOD8163731 Si02
#       5
#     8   8   8   8   8
#     4  11  19  42  78 109 135 187 250 301 356 437
#     4  11  27  46  67 106 153 189 234 307 375 433
#     4  10  20  40  71 106 138 183 245 297 359 435
#     4  11  24  46  69  98 141 193 244 291 360 443
#     4  11  25  42  69 105 143 188 238 304 363 423
#
# _framework density 23.860880999999999
#
# number of rings (size 3 to 8) (size 9 to 14) (size 15 to 20)
#    0.000    1.200    4.000    2.400    0.000   10.800 
#    0.000    2.000    0.000    0.000    0.000    0.000 
#    0.000    0.000    0.000    0.000    0.000    0.000 
#
# Total GULP energy -247796.289557 kJ/mol
# GULP energy per Si atom -12389.814478 kJ/mol
# Density = 2.380657 g / cm^3
# Si number density = 23.860881 Si / 1000 Ang^3
#
#
#
# Elastic Constant Matrix: (Units=GPa)
#
#
# Indices 1 2 3 4 5 6 
#
# 1 128.0682 47.1519 51.3353 0.0002 0.0007 0.0003
# 2 47.1519 167.9576 43.4086 0.0004 0.0010 0.0006
# 3 51.3353 43.4086 60.1428 -0.0005 0.0026 0.0023
# 4 0.0002 0.0004 -0.0005 38.1692 0.0004 0.0008
# 5 0.0007 0.0010 0.0026 0.0004 29.5368 -0.0001
# 6 0.0003 0.0006 0.0023 0.0008 -0.0001 26.0834
#
#
#
# Elastic Compliance Matrix: (Units=1/GPa)
#
#
# Indices 1 2 3 4 5 6 
#
# 1 0.011975 -0.000885 -0.009583 0.000000 0.000001 0.000001
# 2 -0.000885 0.007385 -0.004574 0.000000 0.000000 0.000000
# 3 -0.009583 -0.004574 0.028108 0.000000 -0.000002 -0.000002
# 4 0.000000 0.000000 0.000000 0.026199 0.000000 -0.000001
# 5 0.000001 0.000000 -0.000002 0.000000 0.033856 0.000000
# 6 0.000001 0.000000 -0.000002 -0.000001 0.000000 0.038339
#
#
# Mechanical properties :
#
#
# Convention : Reuss Voigt Hill
#
# Bulk Modulus (GPa) = 57.52592 71.10670 64.31631
# Shear Modulus (GPa) = 27.51166 33.04273 30.27720
#
# Velocity S-wave (km/s) = 3.39927 3.72534 3.56603
# Velocity P-wave (km/s) = 6.29031 6.95481 6.63089
#
# Compressibility (1/GPa) = 0.01738347
#
# Stress axis : x y z
#
# Youngs Moduli (GPa) = 83.50408 135.41620 35.57702
#
# Poissons Ratio (x) = 0.11988 0.34093
# Poissons Ratio (y) = 0.07393 0.16274
# Poissons Ratio (z) = 0.80020 0.61943
#
# Static dielectric constant tensor:
#      x y z
#    x 4.313870 0.000010 0.000000 
#    y 0.000010 5.196340 -0.000010 
#    z 0.000000 -0.000010 4.394400 
# 
# 
# High freq. dielectric constant tensor:
#      x y z
#    x 1.923670 0.000000 0.000000 
#    y 0.000000 1.969940 0.000000 
#    z 0.000000 0.000000 1.954260 
# 
# From -- ./inp_files/6887.got.cif
#   From: 2010.03.12/outbox.cif.g09.slc.cpg/sg23_4_cif.got.tgz:6887.got - 2010.04.14 02:50:06.
