data_PCOD8163396
_publ_section_title
;
Structure prediction by ZEFSAII (Michael W. Deem and Ramdas Pophale) SiO2 
 PCOD8163396
Probable space group: I 2 2 2
;
_chemical_formula_sum "Si O2"
_cell_formula_units_Z 26
_cell_length_a 9.310059
_cell_length_b 20.440978
_cell_length_c 7.333046
_cell_angle_alpha 90.000000
_cell_angle_beta 90.000000
_cell_angle_gamma 90.000000
_cell_volume 1395.527867
_symmetry_space_group_name_H-M "I 2 2 2"
_symmetry_group_IT_number 23
_symmetry_cell_setting 'orthorhombic'
loop_
_space_group_symop_operation_xyz
x,y,z
-x,-y,z
x,-y,-z
-x,y,-z
1/2+x,1/2+y,1/2+z
1/2-x,1/2-y,1/2+z
1/2+x,1/2-y,1/2-z
1/2-x,1/2+y,1/2-z
loop_
_atom_site_type_symbol
_atom_site_label
_atom_site_fract_x
_atom_site_fract_y
_atom_site_fract_z
Si Si1 0.358836 0.618417 0.677457
Si Si2 0.000000 0.000000 0.000000
Si Si3 0.157412 0.667868 0.966454
Si Si4 0.345843 0.311716 0.681825
O O1 0.402012 0.544075 0.632407
O O2 0.246289 0.617154 0.842265
O O3 0.497444 0.661133 0.736719
O O4 0.288561 0.650619 0.497165
O O5 0.141210 0.735200 0.856992
O O6 0.234022 0.677101 0.158480
O O7 0.000000 0.637743 0.000000
#
# Coordination Sequence:
#
# PCOD8163396 Si02
#       4
#     8   2   8   8
#     4  10  21  39  59  84 115 159 203 233 280 349
#     4   8  20  44  66  74 108 170 212 228 262 352
#     4  12  20  32  55  92 126 148 184 243 305 344
#     4  10  19  34  54  85 121 157 187 234 293 350
#
# _framework density 18.630942999999998
#
# number of rings (size 3 to 8) (size 9 to 14) (size 15 to 20)
#    0.000    1.846    6.154    0.923    0.000    1.231 
#    0.000   12.308    0.000   22.154    0.000    0.000 
#    0.000    0.000    0.000    0.000    0.000    0.000 
#
# Total GULP energy -161207.740863 kJ/mol
# GULP energy per Si atom -12400.595451 kJ/mol
# Density = 1.858854 g / cm^3
# Si number density = 18.630943 Si / 1000 Ang^3
#
#
#
# Elastic Constant Matrix: (Units=GPa)
#
#
# Indices 1 2 3 4 5 6 
#
# 1 135.1773 32.7384 81.9641 0.0003 0.0015 0.0006
# 2 32.7384 91.1835 17.7159 -0.0002 0.0000 0.0002
# 3 81.9641 17.7159 97.1884 0.0015 0.0017 0.0015
# 4 0.0003 -0.0002 0.0015 18.5312 -0.0004 -0.0003
# 5 0.0015 0.0000 0.0017 -0.0004 26.8548 -0.0010
# 6 0.0006 0.0002 0.0015 -0.0003 -0.0010 16.4412
#
#
#
# Elastic Compliance Matrix: (Units=1/GPa)
#
#
# Indices 1 2 3 4 5 6 
#
# 1 0.016013 -0.003240 -0.012914 0.000001 0.000000 0.000001
# 2 -0.003240 0.012025 0.000541 0.000000 0.000000 0.000000
# 3 -0.012914 0.000541 0.021081 -0.000001 -0.000001 -0.000002
# 4 0.000001 0.000000 -0.000001 0.053963 0.000001 0.000001
# 5 0.000000 0.000000 -0.000001 0.000001 0.037237 0.000002
# 6 0.000001 0.000000 -0.000002 0.000001 0.000002 0.060823
#
#
# Mechanical properties :
#
#
# Convention : Reuss Voigt Hill
#
# Bulk Modulus (GPa) = 55.88808 65.37622 60.63215
# Shear Modulus (GPa) = 20.97907 25.10750 23.04329
#
# Velocity S-wave (km/s) = 3.35928 3.67498 3.52067
# Velocity P-wave (km/s) = 6.71632 7.29203 7.01008
#
# Compressibility (1/GPa) = 0.01789290
#
# Stress axis : x y z
#
# Youngs Moduli (GPa) = 62.45117 83.15865 47.43508
#
# Poissons Ratio (x) = 0.26945 0.61256
# Poissons Ratio (y) = 0.20235 -0.02564
# Poissons Ratio (z) = 0.80647 -0.04496
#
# Static dielectric constant tensor:
#      x y z
#    x 3.491270 0.000000 -0.000030 
#    y 0.000000 3.239000 0.000000 
#    z -0.000030 0.000000 3.523850 
# 
# 
# High freq. dielectric constant tensor:
#      x y z
#    x 1.715450 0.000000 0.000000 
#    y 0.000000 1.698310 0.000000 
#    z 0.000000 0.000000 1.733390 
# 
# From -- ./inp_files/6340.got.cif
#   From: 2010.03.12/outbox.cif.g09.slc.cpg/sg23_4_cif.got.tgz:6340.got - 2010.04.14 02:50:06.
