data_PCOD8163360
_publ_section_title
;
Structure prediction by ZEFSAII (Michael W. Deem and Ramdas Pophale) SiO2 
 PCOD8163360
Probable space group: I 2 2 2
;
_chemical_formula_sum "Si O2"
_cell_formula_units_Z 24
_cell_length_a 14.142653
_cell_length_b 17.987329
_cell_length_c 4.958979
_cell_angle_alpha 90.000000
_cell_angle_beta 90.000000
_cell_angle_gamma 90.000000
_cell_volume 1261.507489
_symmetry_space_group_name_H-M "I 2 2 2"
_symmetry_group_IT_number 23
_symmetry_cell_setting 'orthorhombic'
loop_
_space_group_symop_operation_xyz
x,y,z
-x,-y,z
x,-y,-z
-x,y,-z
1/2+x,1/2+y,1/2+z
1/2-x,1/2-y,1/2+z
1/2+x,1/2-y,1/2-z
1/2-x,1/2+y,1/2-z
loop_
_atom_site_type_symbol
_atom_site_label
_atom_site_fract_x
_atom_site_fract_y
_atom_site_fract_z
Si Si1 0.000000 0.404578 0.000000
Si Si2 0.809869 0.546665 0.233213
Si Si3 0.703603 0.215648 0.139136
Si Si4 0.000000 0.688822 0.500000
O O1 0.044256 0.356600 0.753443
O O2 0.919605 0.452759 0.854985
O O3 0.797097 0.500000 0.500000
O O4 0.774857 0.631046 0.268634
O O5 0.754132 0.500000 0.000000
O O6 0.742579 0.272148 0.360028
O O7 0.591164 0.233867 0.108866
#
# Coordination Sequence:
#
# PCOD8163360 Si02
#       4
#     4   8   8   4
#     4  10  19  32  50  78 114 144 167 206 267 346
#     4  11  21  33  51  79 111 145 177 216 269 331
#     4  11  22  37  55  80 113 147 182 223 266 320
#     4  10  20  36  55  80 111 146 182 216 266 326
#
# _framework density 19.024858999999999
#
# number of rings (size 3 to 8) (size 9 to 14) (size 15 to 20)
#    0.000    1.333    0.000   10.500    0.000    6.667 
#    0.000    0.000    0.000    0.000    0.000   17.500 
#    0.000    0.000    0.000    0.000    0.000    0.000 
#
# Total GULP energy -148668.523050 kJ/mol
# GULP energy per Si atom -12389.043588 kJ/mol
# Density = 1.898156 g / cm^3
# Si number density = 19.024859 Si / 1000 Ang^3
#
#
#
# Elastic Constant Matrix: (Units=GPa)
#
#
# Indices 1 2 3 4 5 6 
#
# 1 77.6394 38.2760 32.7261 0.0000 0.0000 0.0000
# 2 38.2760 76.9335 26.0843 0.0000 0.0000 0.0000
# 3 32.7261 26.0843 133.9467 0.0000 0.0000 0.0000
# 4 0.0000 0.0000 0.0000 49.5746 0.0000 0.0000
# 5 0.0000 0.0000 0.0000 0.0000 28.0975 0.0000
# 6 0.0000 0.0000 0.0000 0.0000 0.0000 16.6573
#
#
#
# Elastic Compliance Matrix: (Units=1/GPa)
#
#
# Indices 1 2 3 4 5 6 
#
# 1 0.018025 -0.008003 -0.002845 0.000000 0.000000 0.000000
# 2 -0.008003 0.017470 -0.001447 0.000000 0.000000 0.000000
# 3 -0.002845 -0.001447 0.008443 0.000000 0.000000 0.000000
# 4 0.000000 0.000000 0.000000 0.020172 0.000000 0.000000
# 5 0.000000 0.000000 0.000000 0.000000 0.035590 0.000000
# 6 0.000000 0.000000 0.000000 0.000000 0.000000 0.060034
#
#
# Mechanical properties :
#
#
# Convention : Reuss Voigt Hill
#
# Bulk Modulus (GPa) = 51.68635 53.63249 52.65942
# Shear Modulus (GPa) = 26.20910 31.62809 28.91860
#
# Velocity S-wave (km/s) = 3.71566 4.08175 3.90300
# Velocity P-wave (km/s) = 6.75537 7.10396 6.93185
#
# Compressibility (1/GPa) = 0.01934747
#
# Stress axis : x y z
#
# Youngs Moduli (GPa) = 55.47879 57.23946 118.44702
#
# Poissons Ratio (x) = 0.45809 0.33703
# Poissons Ratio (y) = 0.44400 0.17137
# Poissons Ratio (z) = 0.15786 0.08281
#
# Static dielectric constant tensor:
#      x y z
#    x 3.101280 0.000000 0.000000 
#    y 0.000000 3.642730 0.000000 
#    z 0.000000 0.000000 3.811330 
# 
# 
# High freq. dielectric constant tensor:
#      x y z
#    x 1.686200 0.000000 0.000000 
#    y 0.000000 1.728180 0.000000 
#    z 0.000000 0.000000 1.783020 
# 
# From -- ./inp_files/1160.got.cif
#   From: 2010.03.12/outbox.cif.g09.slc.cpg/sg23_1_cif.got.tgz:1160.got - 2010.04.14 02:50:06.
