data_PCOD8163252
_publ_section_title
;
Structure prediction by ZEFSAII (Michael W. Deem and Ramdas Pophale) SiO2 
 PCOD8163252
Probable space group: I 2 2 2
;
_chemical_formula_sum "Si O2"
_cell_formula_units_Z 44
_cell_length_a 24.473341
_cell_length_b 10.785006
_cell_length_c 8.917629
_cell_angle_alpha 90.000000
_cell_angle_beta 90.000000
_cell_angle_gamma 90.000000
_cell_volume 2353.764741
_symmetry_space_group_name_H-M "I 2 2 2"
_symmetry_group_IT_number 23
_symmetry_cell_setting 'orthorhombic'
loop_
_space_group_symop_operation_xyz
x,y,z
-x,-y,z
x,-y,-z
-x,y,-z
1/2+x,1/2+y,1/2+z
1/2-x,1/2-y,1/2+z
1/2+x,1/2-y,1/2-z
1/2-x,1/2+y,1/2-z
loop_
_atom_site_type_symbol
_atom_site_label
_atom_site_fract_x
_atom_site_fract_y
_atom_site_fract_z
Si Si1 0.724987 0.830600 0.263503
Si Si2 0.752881 0.500000 0.000000
Si Si3 0.925029 0.912887 0.252168
Si Si4 0.659945 0.384071 0.841691
Si Si5 0.658190 0.757499 0.854425
Si Si6 0.500000 0.500000 0.500000
Si Si7 0.000000 0.000000 0.500000
Si Si8 0.689432 0.000000 0.000000
O O1 0.710293 0.894917 0.423288
O O2 0.674269 0.736591 0.254942
O O3 0.782875 0.759975 0.276796
O O4 0.726050 0.920457 0.116863
O O5 0.716030 0.538062 0.143929
O O6 0.889533 0.785621 0.240639
O O7 0.961389 0.914629 0.102841
O O8 0.887555 0.037626 0.263035
O O9 0.964002 0.909033 0.397094
O O10 0.647163 0.341819 0.011917
O O11 0.652168 0.900528 0.907981
#
# Coordination Sequence:
#
# PCOD8163252 Si02
#       8
#     8   4   8   8   8   2   2   4
#     4  10  20  32  54  84 126 158 195 232 271 362
#     4  10  17  34  46  79 118 159 192 215 278 338
#     4  11  19  40  58  89 110 152 194 262 304 357
#     4  10  17  33  56  80 108 157 198 228 282 350
#     4  10  19  34  57  82 118 156 198 237 280 355
#     4  10  28  36  56  98 118 130 210 254 336 334
#     4  10  18  34  72  76 100 146 212 268 294 336
#     4  10  22  35  50  89 120 161 203 228 276 358
#
# _framework density 18.693456000000001
#
# number of rings (size 3 to 8) (size 9 to 14) (size 15 to 20)
#    0.000    1.818    5.455    1.091    0.000    0.727 
#    9.818    0.000    0.000    0.545    0.000    5.091 
#    0.000    0.000    0.000    0.000    0.000    0.000 
#
# Total GULP energy -272554.793174 kJ/mol
# GULP energy per Si atom -12388.854235 kJ/mol
# Density = 1.865091 g / cm^3
# Si number density = 18.693456 Si / 1000 Ang^3
#
#
#
# Elastic Constant Matrix: (Units=GPa)
#
#
# Indices 1 2 3 4 5 6 
#
# 1 91.2092 48.8343 50.1434 0.0000 0.0000 0.0000
# 2 48.8343 109.0365 40.9757 0.0000 0.0000 0.0000
# 3 50.1434 40.9757 86.6379 0.0000 0.0000 0.0000
# 4 0.0000 0.0000 0.0000 32.8846 0.0000 0.0000
# 5 0.0000 0.0000 0.0000 0.0000 27.1668 0.0000
# 6 0.0000 0.0000 0.0000 0.0000 0.0000 8.2022
#
#
#
# Elastic Compliance Matrix: (Units=1/GPa)
#
#
# Indices 1 2 3 4 5 6 
#
# 1 0.018132 -0.005080 -0.008092 0.000000 0.000000 0.000000
# 2 -0.005080 0.012577 -0.003008 0.000000 0.000000 0.000000
# 3 -0.008092 -0.003008 0.017648 0.000000 0.000000 0.000000
# 4 0.000000 0.000000 0.000000 0.030409 0.000000 0.000000
# 5 0.000000 0.000000 0.000000 0.000000 0.036810 0.000000
# 6 0.000000 0.000000 0.000000 0.000000 0.000000 0.121918
#
#
# Mechanical properties :
#
#
# Convention : Reuss Voigt Hill
#
# Bulk Modulus (GPa) = 62.50956 62.97671 62.74314
# Shear Modulus (GPa) = 18.16946 23.44606 20.80776
#
# Velocity S-wave (km/s) = 3.12102 3.54537 3.33994
# Velocity P-wave (km/s) = 6.81906 7.10787 6.96496
#
# Compressibility (1/GPa) = 0.01599755
#
# Stress axis : x y z
#
# Youngs Moduli (GPa) = 55.15026 79.51089 56.66278
#
# Poissons Ratio (x) = 0.40392 0.45850
# Poissons Ratio (y) = 0.28017 0.17045
# Poissons Ratio (z) = 0.44626 0.23918
#
# Static dielectric constant tensor:
#      x y z
#    x 3.291380 0.000000 0.000000 
#    y 0.000000 3.617380 0.000000 
#    z 0.000000 0.000000 3.500110 
# 
# 
# High freq. dielectric constant tensor:
#      x y z
#    x 1.691150 0.000000 0.000000 
#    y 0.000000 1.718560 0.000000 
#    z 0.000000 0.000000 1.726910 
# 
# From -- ./inp_files/12565.got.cif
#   From: 2010.03.12/outbox.cif.g09.slc.cpg/sg23_7_cif.got.tgz:12565.got - 2010.04.14 02:50:06.
