data_PCOD8163261
_publ_section_title
;
Structure prediction by ZEFSAII (Michael W. Deem and Ramdas Pophale) SiO2 
 PCOD8163261
Probable space group: I 2 2 2
;
_chemical_formula_sum "Si O2"
_cell_formula_units_Z 64
_cell_length_a 18.606735
_cell_length_b 20.723784
_cell_length_c 9.092954
_cell_angle_alpha 90.000000
_cell_angle_beta 90.000000
_cell_angle_gamma 90.000000
_cell_volume 3506.260858
_symmetry_space_group_name_H-M "I 2 2 2"
_symmetry_group_IT_number 23
_symmetry_cell_setting 'orthorhombic'
loop_
_space_group_symop_operation_xyz
x,y,z
-x,-y,z
x,-y,-z
-x,y,-z
1/2+x,1/2+y,1/2+z
1/2-x,1/2-y,1/2+z
1/2+x,1/2-y,1/2-z
1/2-x,1/2+y,1/2-z
loop_
_atom_site_type_symbol
_atom_site_label
_atom_site_fract_x
_atom_site_fract_y
_atom_site_fract_z
Si Si1 0.829604 0.627976 0.827743
Si Si2 0.321426 0.500000 0.833590
Si Si3 0.337928 0.639830 0.166076
Si Si4 0.676093 1.000000 0.826781
Si Si5 0.918962 0.250082 0.825953
Si Si6 0.837928 0.139830 0.333924
Si Si7 0.418962 0.750082 0.674047
Si Si8 0.829604 0.372024 0.827743
O O1 0.746206 0.641649 0.792626
O O2 0.858489 0.564624 0.742982
O O3 0.874849 0.688474 0.766897
O O4 0.842195 0.616906 0.000000
O O5 0.367204 0.434144 0.815463
O O6 0.260122 0.500000 0.711197
O O7 0.367204 0.565856 0.815463
O O8 0.286709 0.500000 0.000000
O O9 0.382577 0.684333 0.273738
O O10 0.349558 0.664384 0.000000
O O11 0.641511 0.935376 0.757018
O O12 0.663482 0.000000 0.000000
O O13 0.874849 0.311526 0.766897
O O14 1.000000 0.254092 0.764885
O O15 0.917981 0.249019 0.000000
O O16 0.882577 0.184333 0.226262
O O17 0.753794 0.141649 0.292626
#
# Coordination Sequence:
#
# PCOD8163261 Si02
#       8
#     8   8   8   8   8   8   8   8
#     4   9  18  34  53  72  99 133 165 198 242 298
#     4   8  16  32  51  74 103 131 161 197 243 298
#     4   9  17  31  53  76  97 126 163 204 247 290
#     4  10  18  28  49  80 103 121 157 207 251 288
#     4  10  21  35  50  71 100 133 168 205 245 290
#     4   9  17  31  53  76  97 126 163 204 247 290
#     4  10  21  35  50  71 100 133 168 205 245 290
#     4   9  18  34  53  72  99 133 165 198 242 298
#
# _framework density 18.253063999999998
#
# number of rings (size 3 to 8) (size 9 to 14) (size 15 to 20)
#    0.000    2.750    0.000    3.375    0.000    5.500 
#    0.000    1.250    0.000    7.500    0.000    0.000 
#    0.000    0.000    0.000    0.000    0.000    0.000 
#
# Total GULP energy -396661.107395 kJ/mol
# GULP energy per Si atom -12395.659606 kJ/mol
# Density = 1.821152 g / cm^3
# Si number density = 18.253064 Si / 1000 Ang^3
#
#
#
# Elastic Constant Matrix: (Units=GPa)
#
#
# Indices 1 2 3 4 5 6 
#
# 1 72.2405 61.8289 24.8144 0.0000 0.0000 0.0000
# 2 61.8289 169.6931 43.9552 0.0000 0.0000 0.0000
# 3 24.8144 43.9552 46.8792 0.0000 0.0000 0.0000
# 4 0.0000 0.0000 0.0000 34.8127 0.0000 0.0000
# 5 0.0000 0.0000 0.0000 0.0000 17.8525 0.0000
# 6 0.0000 0.0000 0.0000 0.0000 0.0000 2.4205
#
#
#
# Elastic Compliance Matrix: (Units=1/GPa)
#
#
# Indices 1 2 3 4 5 6 
#
# 1 0.021039 -0.006315 -0.005216 0.000000 0.000000 0.000000
# 2 -0.006315 0.009679 -0.005732 0.000000 0.000000 0.000000
# 3 -0.005216 -0.005732 0.029467 0.000000 0.000000 0.000000
# 4 0.000000 0.000000 0.000000 0.028725 0.000000 0.000000
# 5 0.000000 0.000000 0.000000 0.000000 0.056015 0.000000
# 6 0.000000 0.000000 0.000000 0.000000 0.000000 0.413140
#
#
# Mechanical properties :
#
#
# Convention : Reuss Voigt Hill
#
# Bulk Modulus (GPa) = 38.97254 61.11218 50.04236
# Shear Modulus (GPa) = 8.31750 21.56475 14.94112
#
# Velocity S-wave (km/s) = 2.13697 3.44093 2.86414
# Velocity P-wave (km/s) = 5.24275 7.02423 6.19783
#
# Compressibility (1/GPa) = 0.02565909
#
# Stress axis : x y z
#
# Youngs Moduli (GPa) = 47.53139 103.32045 33.93617
#
# Poissons Ratio (x) = 0.65243 0.17700
# Poissons Ratio (y) = 0.30014 0.19454
# Poissons Ratio (z) = 0.24791 0.59228
#
# Static dielectric constant tensor:
#      x y z
#    x 3.121060 0.000000 0.000000 
#    y 0.000000 3.754500 0.000000 
#    z 0.000000 0.000000 3.150360 
# 
# 
# High freq. dielectric constant tensor:
#      x y z
#    x 1.664500 0.000000 0.000000 
#    y 0.000000 1.730690 0.000000 
#    z 0.000000 0.000000 1.693810 
# 
# From -- ./inp_files/11417.got.cif
#   From: 2010.03.12/outbox.cif.g09.slc.cpg/sg23_6_cif.got.tgz:11417.got - 2010.04.14 02:50:06.
