data_PCOD8163770
_publ_section_title
;
Structure prediction by ZEFSAII (Michael W. Deem and Ramdas Pophale) SiO2 
 PCOD8163770
Probable space group: I 2 2 2
;
_chemical_formula_sum "Si O2"
_cell_formula_units_Z 64
_cell_length_a 12.111348
_cell_length_b 9.737275
_cell_length_c 29.017977
_cell_angle_alpha 90.000000
_cell_angle_beta 90.000000
_cell_angle_gamma 90.000000
_cell_volume 3422.134312
_symmetry_space_group_name_H-M "I 2 2 2"
_symmetry_group_IT_number 23
_symmetry_cell_setting 'orthorhombic'
loop_
_space_group_symop_operation_xyz
x,y,z
-x,-y,z
x,-y,-z
-x,y,-z
1/2+x,1/2+y,1/2+z
1/2-x,1/2-y,1/2+z
1/2+x,1/2-y,1/2-z
1/2-x,1/2+y,1/2-z
loop_
_atom_site_type_symbol
_atom_site_label
_atom_site_fract_x
_atom_site_fract_y
_atom_site_fract_z
Si Si1 0.507238 0.837231 0.052296
Si Si2 0.915308 0.884047 0.269867
Si Si3 0.246400 0.945149 0.807924
Si Si4 0.060125 0.361233 0.758272
Si Si5 0.762810 0.370919 0.409261
Si Si6 0.376780 0.337659 0.507262
Si Si7 0.728599 0.193221 0.075514
Si Si8 0.270251 0.759284 0.673378
O O1 0.620910 0.795922 0.078083
O O2 0.401222 0.766447 0.076231
O O3 0.500000 0.000000 0.054114
O O4 0.500000 0.785231 0.000000
O O5 0.866071 0.928995 0.220580
O O6 0.819302 0.868294 0.307843
O O7 0.971798 0.737817 0.264592
O O8 0.000000 0.000000 0.287172
O O9 0.348101 0.883669 0.780260
O O10 0.235496 0.856766 0.855076
O O11 0.269693 0.105028 0.816093
O O12 0.112149 0.291610 0.803613
O O13 0.000000 0.500000 0.773615
O O14 0.666813 0.303332 0.441023
O O15 0.765806 0.530208 0.421144
O O16 0.378065 0.500000 0.500000
O O17 0.500000 0.277766 0.500000
O O18 0.293842 0.264712 0.470843
O O19 0.784347 0.272473 0.118384
#
# Coordination Sequence:
#
# PCOD8163770 Si02
#       8
#     8   8   8   8   8   8   8   8
#     4   9  14  23  42  65 101 139 176 219 271 329
#     4  11  22  38  56  77 112 151 188 236 290 338
#     4  10  21  34  52  81 111 147 195 235 280 352
#     4  11  22  37  58  78 112 149 188 238 289 336
#     4   9  17  27  43  71 102 145 185 221 277 336
#     4   9  16  27  41  65 105 150 180 218 271 341
#     4   9  17  28  45  71 105 140 183 219 278 339
#     4  10  21  35  54  83 107 147 193 231 285 348
#
# _framework density 18.701778999999998
#
# number of rings (size 3 to 8) (size 9 to 14) (size 15 to 20)
#    0.000    2.250    3.750    0.000    1.750    1.500 
#    2.250    0.000    0.000    0.000    0.000    0.000 
#    0.000   17.000    0.000    0.000    0.000    0.000 
#
# Total GULP energy -396669.958009 kJ/mol
# GULP energy per Si atom -12395.936188 kJ/mol
# Density = 1.865921 g / cm^3
# Si number density = 18.701779 Si / 1000 Ang^3
#
#
#
# Elastic Constant Matrix: (Units=GPa)
#
#
# Indices 1 2 3 4 5 6 
#
# 1 101.7719 8.7931 40.7071 0.0000 0.0000 0.0000
# 2 8.7931 36.3123 13.6744 0.0000 0.0000 0.0000
# 3 40.7071 13.6744 126.8165 0.0000 0.0000 0.0000
# 4 0.0000 0.0000 0.0000 16.2035 0.0000 0.0000
# 5 0.0000 0.0000 0.0000 0.0000 22.8531 0.0000
# 6 0.0000 0.0000 0.0000 0.0000 0.0000 21.5571
#
#
#
# Elastic Compliance Matrix: (Units=1/GPa)
#
#
# Indices 1 2 3 4 5 6 
#
# 1 0.011344 -0.001434 -0.003487 0.000000 0.000000 0.000000
# 2 -0.001434 0.028886 -0.002654 0.000000 0.000000 0.000000
# 3 -0.003487 -0.002654 0.009291 0.000000 0.000000 0.000000
# 4 0.000000 0.000000 0.000000 0.061715 0.000000 0.000000
# 5 0.000000 0.000000 0.000000 0.000000 0.043758 0.000000
# 6 0.000000 0.000000 0.000000 0.000000 0.000000 0.046388
#
#
# Mechanical properties :
#
#
# Convention : Reuss Voigt Hill
#
# Bulk Modulus (GPa) = 29.09469 43.47220 36.28344
# Shear Modulus (GPa) = 21.93082 25.57115 23.75099
#
# Velocity S-wave (km/s) = 3.42813 3.70173 3.56755
# Velocity P-wave (km/s) = 5.59110 6.44716 6.03433
#
# Compressibility (1/GPa) = 0.03437054
#
# Stress axis : x y z
#
# Youngs Moduli (GPa) = 88.14861 34.61925 107.63243
#
# Poissons Ratio (x) = 0.04964 0.37530
# Poissons Ratio (y) = 0.12641 0.28570
# Poissons Ratio (z) = 0.30736 0.09189
#
# Static dielectric constant tensor:
#      x y z
#    x 3.658910 0.000000 0.000000 
#    y 0.000000 2.890820 0.000000 
#    z 0.000000 0.000000 3.577880 
# 
# 
# High freq. dielectric constant tensor:
#      x y z
#    x 1.738120 0.000000 0.000000 
#    y 0.000000 1.660390 0.000000 
#    z 0.000000 0.000000 1.728590 
# 
# From -- ./inp_files/14978.got.cif
#   From: 2010.03.12/outbox.cif.g09.slc.cpg/sg23_8_cif.got.tgz:14978.got - 2010.04.14 02:50:06.
