data_PCOD8163562
_publ_section_title
;
Structure prediction by ZEFSAII (Michael W. Deem and Ramdas Pophale) SiO2 
 PCOD8163562
Probable space group: I 2 2 2
;
_chemical_formula_sum "Si O2"
_cell_formula_units_Z 64
_cell_length_a 8.700921
_cell_length_b 25.296711
_cell_length_c 15.885406
_cell_angle_alpha 90.000000
_cell_angle_beta 90.000000
_cell_angle_gamma 90.000000
_cell_volume 3496.452267
_symmetry_space_group_name_H-M "I 2 2 2"
_symmetry_group_IT_number 23
_symmetry_cell_setting 'orthorhombic'
loop_
_space_group_symop_operation_xyz
x,y,z
-x,-y,z
x,-y,-z
-x,y,-z
1/2+x,1/2+y,1/2+z
1/2-x,1/2-y,1/2+z
1/2+x,1/2-y,1/2-z
1/2-x,1/2+y,1/2-z
loop_
_atom_site_type_symbol
_atom_site_label
_atom_site_fract_x
_atom_site_fract_y
_atom_site_fract_z
Si Si1 0.680264 0.513283 0.408145
Si Si2 0.167662 0.359865 0.822146
Si Si3 0.903142 0.393913 0.584858
Si Si4 0.913546 0.707422 0.084339
Si Si5 0.895023 0.452661 0.285712
Si Si6 0.719790 0.231833 0.791161
Si Si7 0.838367 0.824887 0.471989
Si Si8 0.117838 0.725005 0.636993
O O1 0.500000 0.500000 0.402063
O O2 0.744560 0.500000 0.500000
O O3 0.741123 0.574133 0.402209
O O4 0.752373 0.475981 0.337216
O O5 0.150008 0.420832 0.797733
O O6 0.236223 0.328350 0.741533
O O7 0.287304 0.363384 0.897689
O O8 0.015455 0.329067 0.854355
O O9 0.869193 0.332250 0.595370
O O10 0.000000 0.405307 0.500000
O O11 0.014266 0.410618 0.659176
O O12 0.846613 0.757229 0.136431
O O13 0.773041 0.671174 0.052578
O O14 0.000000 0.728233 0.000000
O O15 0.000000 0.500000 0.253920
O O16 0.754545 0.270117 0.711049
O O17 0.549261 0.241171 0.827052
O O18 0.842184 0.764533 0.438787
O O19 0.000000 0.847181 0.500000
#
# Coordination Sequence:
#
# PCOD8163562 Si02
#       8
#     8   8   8   8   8   8   8   8
#     4  10  21  39  57  81 119 146 188 243 296 337
#     4  10  21  37  56  83 113 149 196 239 285 343
#     4  11  20  35  58  83 110 157 200 232 277 346
#     4  10  20  35  53  75 113 154 194 233 285 334
#     4  10  20  37  62  83 108 148 194 235 287 346
#     4  11  19  35  52  78 118 153 189 236 278 336
#     4  10  20  35  56  82 114 157 187 234 288 349
#     4  11  22  34  55  83 122 156 196 232 281 342
#
# _framework density 18.304268
#
# number of rings (size 3 to 8) (size 9 to 14) (size 15 to 20)
#    0.000    1.625    5.000    0.375    0.000    0.000 
#    4.500    1.250    5.500    3.375    0.000    0.875 
#    0.000    0.000    0.000    0.000    0.000    0.000 
#
# Total GULP energy -396529.686947 kJ/mol
# GULP energy per Si atom -12391.552717 kJ/mol
# Density = 1.826261 g / cm^3
# Si number density = 18.304268 Si / 1000 Ang^3
#
#
#
# Elastic Constant Matrix: (Units=GPa)
#
#
# Indices 1 2 3 4 5 6 
#
# 1 118.0521 45.8805 48.7343 0.0000 0.0000 0.0000
# 2 45.8805 98.2539 52.6276 0.0001 0.0000 0.0000
# 3 48.7343 52.6276 95.2372 0.0002 -0.0004 0.0000
# 4 0.0000 0.0001 0.0002 20.6585 -0.0002 0.0000
# 5 0.0000 0.0000 -0.0004 -0.0002 40.9963 0.0001
# 6 0.0000 0.0000 0.0000 0.0000 0.0001 19.9886
#
#
#
# Elastic Compliance Matrix: (Units=1/GPa)
#
#
# Indices 1 2 3 4 5 6 
#
# 1 0.011374 -0.003116 -0.004098 0.000000 0.000000 0.000000
# 2 -0.003116 0.015310 -0.006866 0.000000 0.000000 0.000000
# 3 -0.004098 -0.006866 0.016391 0.000000 0.000000 0.000000
# 4 0.000000 0.000000 0.000000 0.048406 0.000000 0.000000
# 5 0.000000 0.000000 0.000000 0.000000 0.024392 0.000000
# 6 0.000000 0.000000 0.000000 0.000000 0.000000 0.050029
#
#
# Mechanical properties :
#
#
# Convention : Reuss Voigt Hill
#
# Bulk Modulus (GPa) = 67.04609 67.33644 67.19126
# Shear Modulus (GPa) = 25.12128 27.28206 26.20167
#
# Velocity S-wave (km/s) = 3.70865 3.86486 3.78756
# Velocity P-wave (km/s) = 7.41936 7.53547 7.47764
#
# Compressibility (1/GPa) = 0.01491511
#
# Stress axis : x y z
#
# Youngs Moduli (GPa) = 87.92250 65.31551 61.00792
#
# Poissons Ratio (x) = 0.20352 0.25003
# Poissons Ratio (y) = 0.27396 0.41888
# Poissons Ratio (z) = 0.36033 0.44845
#
# Static dielectric constant tensor:
#      x y z
#    x 3.551990 0.000000 0.000000 
#    y 0.000000 3.005350 0.000000 
#    z 0.000000 0.000000 3.533910 
# 
# 
# High freq. dielectric constant tensor:
#      x y z
#    x 1.715540 0.000000 0.000000 
#    y 0.000000 1.676670 0.000000 
#    z 0.000000 0.000000 1.719180 
# 
# From -- ./inp_files/24030.got.cif
#   From: 2010.03.12/outbox.cif.g09.slc.cpg/sg23_13_cif.got.tgz:24030.got - 2010.04.14 02:50:06.
