data_PCOD8163923
_publ_section_title
;
Structure prediction by ZEFSAII (Michael W. Deem and Ramdas Pophale) SiO2 
 PCOD8163923
Probable space group: I 2 2 2
;
_chemical_formula_sum "Si O2"
_cell_formula_units_Z 38
_cell_length_a 6.700127
_cell_length_b 21.375586
_cell_length_c 13.127311
_cell_angle_alpha 90.000000
_cell_angle_beta 90.000000
_cell_angle_gamma 90.000000
_cell_volume 1880.082204
_symmetry_space_group_name_H-M "I 2 2 2"
_symmetry_group_IT_number 23
_symmetry_cell_setting 'orthorhombic'
loop_
_space_group_symop_operation_xyz
x,y,z
-x,-y,z
x,-y,-z
-x,y,-z
1/2+x,1/2+y,1/2+z
1/2-x,1/2-y,1/2+z
1/2+x,1/2-y,1/2-z
1/2-x,1/2+y,1/2-z
loop_
_atom_site_type_symbol
_atom_site_label
_atom_site_fract_x
_atom_site_fract_y
_atom_site_fract_z
Si Si1 0.000000 0.000000 0.674633
Si Si2 0.196089 0.459302 0.338578
Si Si3 0.922889 0.718807 0.886805
Si Si4 0.756253 0.325941 0.733627
Si Si5 0.500000 0.500000 0.500000
Si Si6 0.931259 0.866950 0.391285
O O1 0.197878 0.010221 0.741448
O O2 0.945795 0.058217 0.603095
O O3 0.137975 0.387586 0.313363
O O4 0.354567 0.457110 0.431486
O O5 0.000000 0.500000 0.366313
O O6 0.796010 0.780359 0.859669
O O7 0.794298 0.655602 0.875976
O O8 0.102380 0.712081 0.808571
O O9 0.000000 0.727758 0.000000
O O10 0.558926 0.343607 0.795850
O O11 0.000000 0.839007 0.500000
#
# Coordination Sequence:
#
# PCOD8163923 Si02
#       6
#     4   8   8   8   2   8
#     4   9  21  37  63  88 126 166 208 260 324 374
#     4  10  21  41  62  90 126 166 212 266 319 374
#     4  12  24  41  65  97 131 174 218 262 322 384
#     4  11  24  41  64  94 131 169 212 269 317 381
#     4  10  22  40  62  94 118 168 216 268 312 382
#     4  11  21  40  63  92 127 166 212 264 318 379
#
# _framework density 20.211880000000001
#
# number of rings (size 3 to 8) (size 9 to 14) (size 15 to 20)
#    0.000    1.263    4.211    1.895    1.474    0.000 
#    0.000    4.211    0.000    0.000    0.000    0.000 
#    0.000    0.000    0.000    0.000    0.000    0.000 
#
# Total GULP energy -235629.474211 kJ/mol
# GULP energy per Si atom -12401.551274 kJ/mol
# Density = 2.016588 g / cm^3
# Si number density = 20.211880 Si / 1000 Ang^3
#
#
#
# Elastic Constant Matrix: (Units=GPa)
#
#
# Indices 1 2 3 4 5 6 
#
# 1 100.9003 52.7236 44.7010 0.0000 0.0000 0.0000
# 2 52.7236 127.8448 52.6889 0.0000 0.0000 0.0000
# 3 44.7010 52.6889 103.5171 -0.0003 -0.0001 0.0000
# 4 0.0000 0.0000 -0.0003 20.3023 -0.0001 0.0000
# 5 0.0000 0.0000 -0.0001 -0.0001 35.1864 0.0000
# 6 0.0000 0.0000 0.0000 0.0000 0.0000 32.7085
#
#
#
# Elastic Compliance Matrix: (Units=1/GPa)
#
#
# Indices 1 2 3 4 5 6 
#
# 1 0.013754 -0.004080 -0.003862 0.000000 0.000000 0.000000
# 2 -0.004080 0.011109 -0.003892 0.000000 0.000000 0.000000
# 3 -0.003862 -0.003892 0.013309 0.000000 0.000000 0.000000
# 4 0.000000 0.000000 0.000000 0.049256 0.000000 0.000000
# 5 0.000000 0.000000 0.000000 0.000000 0.028420 0.000000
# 6 0.000000 0.000000 0.000000 0.000000 0.000000 0.030573
#
#
# Mechanical properties :
#
#
# Convention : Reuss Voigt Hill
#
# Bulk Modulus (GPa) = 68.95613 70.27656 69.61635
# Shear Modulus (GPa) = 28.58367 29.78268 29.18317
#
# Velocity S-wave (km/s) = 3.76467 3.84281 3.80394
# Velocity P-wave (km/s) = 7.28613 7.38478 7.33562
#
# Compressibility (1/GPa) = 0.01450197
#
# Stress axis : x y z
#
# Youngs Moduli (GPa) = 72.70591 90.01817 75.13565
#
# Poissons Ratio (x) = 0.36731 0.29021
# Poissons Ratio (y) = 0.29667 0.29245
# Poissons Ratio (z) = 0.28082 0.35038
#
# Static dielectric constant tensor:
#      x y z
#    x 3.643240 0.000000 0.000000 
#    y 0.000000 3.719410 0.000000 
#    z 0.000000 0.000000 3.717330 
# 
# 
# High freq. dielectric constant tensor:
#      x y z
#    x 1.787920 0.000000 0.000000 
#    y 0.000000 1.789510 0.000000 
#    z 0.000000 0.000000 1.796170 
# 
# From -- ./inp_files/4395.got.cif
#   From: 2010.03.12/outbox.cif.g09.slc.cpg/sg23_3_cif.got.tgz:4395.got - 2010.04.14 02:50:06.
