data_PCOD8163767
_publ_section_title
;
Structure prediction by ZEFSAII (Michael W. Deem and Ramdas Pophale) SiO2 
 PCOD8163767
Probable space group: I 2 2 2
;
_chemical_formula_sum "Si O2"
_cell_formula_units_Z 64
_cell_length_a 9.000051
_cell_length_b 14.055971
_cell_length_c 29.728428
_cell_angle_alpha 90.000000
_cell_angle_beta 90.000000
_cell_angle_gamma 90.000000
_cell_volume 3760.778608
_symmetry_space_group_name_H-M "I 2 2 2"
_symmetry_group_IT_number 23
_symmetry_cell_setting 'orthorhombic'
loop_
_space_group_symop_operation_xyz
x,y,z
-x,-y,z
x,-y,-z
-x,y,-z
1/2+x,1/2+y,1/2+z
1/2-x,1/2-y,1/2+z
1/2+x,1/2-y,1/2-z
1/2-x,1/2+y,1/2-z
loop_
_atom_site_type_symbol
_atom_site_label
_atom_site_fract_x
_atom_site_fract_y
_atom_site_fract_z
Si Si1 0.078419 0.095065 0.804431
Si Si2 0.837572 0.501876 0.740879
Si Si3 0.165940 0.612301 0.995992
Si Si4 0.331215 0.784059 0.662230
Si Si5 0.828805 0.188318 0.751987
Si Si6 0.818863 0.102600 0.405464
Si Si7 0.857382 0.362698 0.816843
Si Si8 0.161842 0.879847 0.584059
O O1 0.241055 0.068363 0.788844
O O2 0.096496 0.177870 0.841657
O O3 0.988771 0.138257 0.761075
O O4 0.000000 0.000000 0.824291
O O5 0.794119 0.610962 0.735764
O O6 0.832247 0.464243 0.792543
O O7 0.000000 0.500000 0.720001
O O8 0.229591 0.643826 0.947925
O O9 0.155152 0.500000 0.000000
O O10 0.280562 0.647284 0.034318
O O11 0.000000 0.656505 0.000000
O O12 0.201468 0.784920 0.700185
O O13 0.467139 0.855991 0.672143
O O14 0.254019 0.810760 0.616088
O O15 0.806819 0.279073 0.783403
O O16 0.744425 0.144870 0.360860
O O17 0.987077 0.139249 0.410606
O O18 0.806023 0.988937 0.403710
#
# Coordination Sequence:
#
# PCOD8163767 Si02
#       8
#     8   8   8   8   8   8   8   8
#     4   9  21  36  50  67  99 139 175 214 271 304
#     4  11  20  33  50  69  94 134 172 214 252 304
#     4   9  17  33  52  70  98 134 169 207 250 302
#     4  11  20  34  50  72 100 133 178 216 257 308
#     4  10  21  34  49  68  99 135 171 213 259 299
#     4  10  21  33  48  72 105 136 170 212 255 308
#     4  11  22  33  47  71 100 133 174 213 252 301
#     4  10  21  32  50  74  99 136 175 210 257 303
#
# _framework density 17.017752000000002
#
# number of rings (size 3 to 8) (size 9 to 14) (size 15 to 20)
#    0.000    1.875    2.500    1.875    1.750    3.500 
#    0.000    0.000    0.000    0.000    0.000    0.000 
#    0.000   23.500    0.000   29.625    0.000    0.375 
#
# Total GULP energy -396637.731449 kJ/mol
# GULP energy per Si atom -12394.929108 kJ/mol
# Density = 1.697902 g / cm^3
# Si number density = 17.017752 Si / 1000 Ang^3
#
#
#
# Elastic Constant Matrix: (Units=GPa)
#
#
# Indices 1 2 3 4 5 6 
#
# 1 125.5807 29.3557 50.0960 0.0000 0.0000 0.0000
# 2 29.3557 54.4353 18.7509 0.0000 0.0000 0.0000
# 3 50.0960 18.7509 88.1568 0.0000 0.0000 0.0000
# 4 0.0000 0.0000 0.0000 18.8578 0.0000 0.0000
# 5 0.0000 0.0000 0.0000 0.0000 30.3511 0.0000
# 6 0.0000 0.0000 0.0000 0.0000 0.0000 21.4808
#
#
#
# Elastic Compliance Matrix: (Units=1/GPa)
#
#
# Indices 1 2 3 4 5 6 
#
# 1 0.011089 -0.004111 -0.005427 0.000000 0.000000 0.000000
# 2 -0.004111 0.021347 -0.002205 0.000000 0.000000 0.000000
# 3 -0.005427 -0.002205 0.014896 0.000000 0.000000 0.000000
# 4 0.000000 0.000000 0.000000 0.053029 0.000000 0.000000
# 5 0.000000 0.000000 0.000000 0.000000 0.032948 0.000000
# 6 0.000000 0.000000 0.000000 0.000000 0.000000 0.046553
#
#
# Mechanical properties :
#
#
# Convention : Reuss Voigt Hill
#
# Bulk Modulus (GPa) = 41.93326 51.61980 46.77653
# Shear Modulus (GPa) = 23.66366 25.46928 24.56647
#
# Velocity S-wave (km/s) = 3.73302 3.87283 3.80357
# Velocity P-wave (km/s) = 6.57837 7.09909 6.84369
#
# Compressibility (1/GPa) = 0.02384742
#
# Stress axis : x y z
#
# Youngs Moduli (GPa) = 90.18111 46.84605 67.13085
#
# Poissons Ratio (x) = 0.19256 0.36432
# Poissons Ratio (y) = 0.37069 0.14799
# Poissons Ratio (z) = 0.48941 0.10327
#
# Static dielectric constant tensor:
#      x y z
#    x 3.462060 0.000000 0.000000 
#    y 0.000000 3.110600 0.000000 
#    z 0.000000 0.000000 3.012280 
# 
# 
# High freq. dielectric constant tensor:
#      x y z
#    x 1.677910 0.000000 0.000000 
#    y 0.000000 1.634000 0.000000 
#    z 0.000000 0.000000 1.627660 
# 
# From -- ./inp_files/20419.got.cif
#   From: 2010.03.12/outbox.cif.g09.slc.cpg/sg23_11_cif.got.tgz:20419.got - 2010.04.14 02:50:06.
