data_PCOD8163903
_publ_section_title
;
Structure prediction by ZEFSAII (Michael W. Deem and Ramdas Pophale) SiO2 
 PCOD8163903
Probable space group: I 2 2 2
;
_chemical_formula_sum "Si O2"
_cell_formula_units_Z 58
_cell_length_a 8.424073
_cell_length_b 14.916105
_cell_length_c 22.313347
_cell_angle_alpha 90.000000
_cell_angle_beta 90.000000
_cell_angle_gamma 90.000000
_cell_volume 2803.769279
_symmetry_space_group_name_H-M "I 2 2 2"
_symmetry_group_IT_number 23
_symmetry_cell_setting 'orthorhombic'
loop_
_space_group_symop_operation_xyz
x,y,z
-x,-y,z
x,-y,-z
-x,y,-z
1/2+x,1/2+y,1/2+z
1/2-x,1/2-y,1/2+z
1/2+x,1/2-y,1/2-z
1/2-x,1/2+y,1/2-z
loop_
_atom_site_type_symbol
_atom_site_label
_atom_site_fract_x
_atom_site_fract_y
_atom_site_fract_z
Si Si1 0.324430 0.296536 0.776970
Si Si2 0.380403 0.926973 0.899068
Si Si3 0.379840 0.775832 0.100443
Si Si4 0.820784 0.858982 0.709228
Si Si5 0.000000 0.000000 0.500000
Si Si6 0.648141 0.348601 0.928899
Si Si7 0.321676 0.027010 0.231042
Si Si8 0.815499 0.187509 0.988508
O O1 0.280179 0.261619 0.843611
O O2 0.304324 0.215300 0.730702
O O3 0.504853 0.327299 0.773124
O O4 0.208472 0.377754 0.761659
O O5 0.486839 0.844324 0.875213
O O6 0.293100 0.968056 0.840784
O O7 0.250961 0.892823 0.946828
O O8 0.500000 0.000000 0.928505
O O9 0.474015 0.696478 0.067147
O O10 0.265519 0.823388 0.053211
O O11 0.797556 0.869288 0.638457
O O12 0.796290 0.953583 0.741816
O O13 0.125059 0.056928 0.538879
O O14 0.780015 0.285059 0.960085
O O15 0.500000 0.000000 0.246613
O O16 0.000000 0.174076 0.000000
#
# Coordination Sequence:
#
# PCOD8163903 Si02
#       8
#     8   8   8   8   2   8   8   8
#     4  11  22  39  63  90 130 167 210 256 323 381
#     4  10  21  43  66  87 122 176 225 254 307 397
#     4  10  21  40  65  89 124 176 214 253 308 403
#     4  11  24  40  65  96 128 170 213 265 320 388
#     4  12  20  40  78  88 114 172 222 242 296 380
#     4  10  22  40  67  93 124 170 218 248 309 401
#     4  11  23  40  63  94 130 169 214 266 322 386
#     4  11  23  41  65  98 128 160 210 282 332 360
#
# _framework density 20.686437999999999
#
# number of rings (size 3 to 8) (size 9 to 14) (size 15 to 20)
#    0.000    1.379    1.379    6.621    3.862    4.414 
#    0.000    4.483    0.000    3.310    0.000    0.000 
#    0.000    0.000    0.000    0.000    0.000    0.000 
#
# Total GULP energy -359696.135025 kJ/mol
# GULP energy per Si atom -12403.315001 kJ/mol
# Density = 2.063935 g / cm^3
# Si number density = 20.686438 Si / 1000 Ang^3
#
#
#
# Elastic Constant Matrix: (Units=GPa)
#
#
# Indices 1 2 3 4 5 6 
#
# 1 92.7988 33.8195 69.9767 0.0000 0.0000 0.0000
# 2 33.8195 115.6082 58.5318 0.0000 0.0000 0.0000
# 3 69.9767 58.5318 148.6837 0.0000 0.0000 0.0000
# 4 0.0000 0.0000 0.0000 46.0183 0.0000 0.0000
# 5 0.0000 0.0000 0.0000 0.0000 34.7566 0.0000
# 6 0.0000 0.0000 0.0000 0.0000 0.0000 35.8447
#
#
#
# Elastic Compliance Matrix: (Units=1/GPa)
#
#
# Indices 1 2 3 4 5 6 
#
# 1 0.016824 -0.001140 -0.007469 0.000000 0.000000 0.000000
# 2 -0.001140 0.010880 -0.003747 0.000000 0.000000 0.000000
# 3 -0.007469 -0.003747 0.011716 0.000000 0.000000 0.000000
# 4 0.000000 0.000000 0.000000 0.021731 0.000000 0.000000
# 5 0.000000 0.000000 0.000000 0.000000 0.028772 0.000000
# 6 0.000000 0.000000 0.000000 0.000000 0.000000 0.027898
#
#
# Mechanical properties :
#
#
# Convention : Reuss Voigt Hill
#
# Bulk Modulus (GPa) = 67.98870 75.74962 71.86916
# Shear Modulus (GPa) = 33.91335 36.30809 35.11072
#
# Velocity S-wave (km/s) = 4.05334 4.19401 4.12428
# Velocity P-wave (km/s) = 7.40566 7.75568 7.58269
#
# Compressibility (1/GPa) = 0.01470833
#
# Stress axis : x y z
#
# Youngs Moduli (GPa) = 59.43992 91.90905 85.35368
#
# Poissons Ratio (x) = 0.10477 0.63752
# Poissons Ratio (y) = 0.06776 0.31980
# Poissons Ratio (z) = 0.44397 0.34436
#
# Static dielectric constant tensor:
#      x y z
#    x 3.518210 0.000000 0.000000 
#    y 0.000000 4.017940 0.000000 
#    z 0.000000 0.000000 3.813730 
# 
# 
# High freq. dielectric constant tensor:
#      x y z
#    x 1.786800 0.000000 0.000000 
#    y 0.000000 1.823130 0.000000 
#    z 0.000000 0.000000 1.820950 
# 
# From -- ./inp_files/28076.got.cif
#   From: 2010.03.12/outbox.cif.g09.slc.cpg/sg23_15_cif.got.tgz:28076.got - 2010.04.14 02:50:06.
