data_PCOD8163061
_publ_section_title
;
Structure prediction by ZEFSAII (Michael W. Deem and Ramdas Pophale) SiO2 
 PCOD8163061
Probable space group: F 2 2 2
;
_chemical_formula_sum "Si O2"
_cell_formula_units_Z 112
_cell_length_a 12.958683
_cell_length_b 19.983402
_cell_length_c 20.031713
_cell_angle_alpha 90.000000
_cell_angle_beta 90.000000
_cell_angle_gamma 90.000000
_cell_volume 5187.383789
_symmetry_space_group_name_H-M "F 2 2 2"
_symmetry_group_IT_number 22
_symmetry_cell_setting 'orthorhombic'
loop_
_space_group_symop_operation_xyz
x,y,z
-x,-y,z
x,-y,-z
-x,y,-z
x,1/2+y,1/2+z
-x,1/2-y,1/2+z
x,1/2-y,1/2-z
-x,1/2+y,1/2-z
1/2+x,y,1/2+z
1/2-x,-y,1/2+z
1/2+x,-y,1/2-z
1/2-x,y,1/2-z
1/2+x,1/2+y,z
1/2-x,1/2-y,z
1/2+x,1/2-y,-z
1/2-x,1/2+y,-z
loop_
_atom_site_type_symbol
_atom_site_label
_atom_site_fract_x
_atom_site_fract_y
_atom_site_fract_z
Si Si1 0.725492 0.963891 0.144955
Si Si2 0.586653 0.554282 0.235403
Si Si3 0.223274 0.855003 0.963180
Si Si4 0.413887 0.733694 0.554562
Si Si5 0.251113 0.892285 0.392989
Si Si6 0.078676 0.300137 0.847486
Si Si7 0.077577 0.652152 0.299463
O O1 0.636610 0.930791 0.191581
O O2 0.827904 0.976044 0.187677
O O3 0.753398 0.915734 0.085010
O O4 0.692778 0.036129 0.114297
O O5 0.500000 0.500000 0.248456
O O6 0.536445 0.618876 0.197952
O O7 0.328113 0.814525 0.974639
O O8 0.135931 0.806861 0.930569
O O9 0.190609 0.884692 0.035642
O O10 0.500000 0.746574 0.500000
O O11 0.465200 0.696503 0.618748
O O12 0.168581 0.831545 0.392477
O O13 0.334158 0.892722 0.332785
O O14 0.093068 0.340288 0.779347
O O15 0.091717 0.221285 0.837928
#
# Coordination Sequence:
#
# PCOD8163061 Si02
#       7
#    16  16  16  16  16  16  16
#     4  11  25  42  68 100 138 185 237 288 361 437
#     4  11  22  44  67  96 136 185 229 293 359 424
#     4  11  25  42  68 100 138 185 237 288 361 437
#     4  11  22  44  67  96 136 185 229 293 359 424
#     4  12  23  41  66  98 142 182 236 289 355 440
#     4  11  23  39  66  99 132 176 233 292 350 413
#     4  11  23  39  66  99 132 176 233 292 350 413
#
# _framework density 21.590845000000002
#
# number of rings (size 3 to 8) (size 9 to 14) (size 15 to 20)
#    0.000    0.857    2.857    4.714    4.000    1.143 
#    0.000    0.000    0.000    6.857    0.000    0.000 
#    0.000    0.000    0.000    0.000    0.000    0.000 
#
# Total GULP energy -347018.225919 kJ/mol
# GULP energy per Si atom -12393.508069 kJ/mol
# Density = 2.154170 g / cm^3
# Si number density = 21.590845 Si / 1000 Ang^3
#
#
#
# Elastic Constant Matrix: (Units=GPa)
#
#
# Indices 1 2 3 4 5 6 
#
# 1 116.9299 42.0361 53.1082 0.0000 0.0000 0.0000
# 2 42.0361 80.5962 87.3079 0.0000 0.0000 0.0000
# 3 53.1082 87.3079 102.9313 0.0000 0.0000 0.0000
# 4 0.0000 0.0000 0.0000 30.7344 0.0000 0.0000
# 5 0.0000 0.0000 0.0000 0.0000 37.5673 0.0000
# 6 0.0000 0.0000 0.0000 0.0000 0.0000 36.7598
#
#
#
# Elastic Compliance Matrix: (Units=1/GPa)
#
#
# Indices 1 2 3 4 5 6 
#
# 1 0.011345 0.005223 -0.010284 0.000000 0.000000 0.000000
# 2 0.005223 0.155306 -0.134428 0.000000 0.000000 0.000000
# 3 -0.010284 -0.134428 0.129045 0.000000 0.000000 0.000000
# 4 0.000000 0.000000 0.000000 0.032537 0.000000 0.000000
# 5 0.000000 0.000000 0.000000 0.000000 0.026619 0.000000
# 6 0.000000 0.000000 0.000000 0.000000 0.000000 0.027204
#
#
# Mechanical properties :
#
#
# Convention : Reuss Voigt Hill
#
# Bulk Modulus (GPa) = 59.81247 73.92908 66.87078
# Shear Modulus (GPa) = 7.50068 28.87930 18.18999
#
# Velocity S-wave (km/s) = 1.86589 3.66125 2.90571
# Velocity P-wave (km/s) = 5.69253 7.22415 6.50358
#
# Compressibility (1/GPa) = 0.01671892
#
# Stress axis : x y z
#
# Youngs Moduli (GPa) = 88.14200 6.43891 7.74922
#
# Poissons Ratio (x) = -0.03363 0.07969
# Poissons Ratio (y) = -0.46040 1.04171
# Poissons Ratio (z) = 0.90648 0.86557
#
# Static dielectric constant tensor:
#      x y z
#    x 4.071160 0.000000 0.000000 
#    y 0.000000 3.937870 0.000000 
#    z 0.000000 0.000000 3.969230 
# 
# 
# High freq. dielectric constant tensor:
#      x y z
#    x 1.842580 0.000000 0.000000 
#    y 0.000000 1.852770 0.000000 
#    z 0.000000 0.000000 1.853240 
# 
# From -- ./inp_files/48268.got.cif
#   From: 2010.03.12/outbox.cif.g09.slc.cpg/sg22_25_cif.got.tgz:48268.got - 2010.04.14 02:24:06.
