data_PCOD8163728
_publ_section_title
;
Structure prediction by ZEFSAII (Michael W. Deem and Ramdas Pophale) SiO2 
 PCOD8163728
Probable space group: I 2 2 2
;
_chemical_formula_sum "Si O2"
_cell_formula_units_Z 34
_cell_length_a 11.855866
_cell_length_b 5.299212
_cell_length_c 22.981258
_cell_angle_alpha 90.000000
_cell_angle_beta 90.000000
_cell_angle_gamma 90.000000
_cell_volume 1443.837691
_symmetry_space_group_name_H-M "I 2 2 2"
_symmetry_group_IT_number 23
_symmetry_cell_setting 'orthorhombic'
loop_
_space_group_symop_operation_xyz
x,y,z
-x,-y,z
x,-y,-z
-x,y,-z
1/2+x,1/2+y,1/2+z
1/2-x,1/2-y,1/2+z
1/2+x,1/2-y,1/2-z
1/2-x,1/2+y,1/2-z
loop_
_atom_site_type_symbol
_atom_site_label
_atom_site_fract_x
_atom_site_fract_y
_atom_site_fract_z
Si Si1 0.115054 0.568642 0.256002
Si Si2 0.000000 0.500000 0.500000
Si Si3 0.670062 0.568364 0.817772
Si Si4 0.449979 0.254796 0.435404
Si Si5 0.691330 0.672830 0.944831
O O1 0.202345 0.551273 0.204067
O O2 0.131016 0.353757 0.305283
O O3 0.000000 0.500000 0.223529
O O4 0.102848 0.843736 0.285941
O O5 0.915939 0.650021 0.457255
O O6 0.661845 0.516378 0.886631
O O7 0.500000 0.500000 0.401744
O O8 0.500000 0.255908 0.500000
O O9 0.314241 0.297360 0.434774
O O10 0.500000 0.000000 0.405280
O O11 0.707356 0.500000 0.000000
#
# Coordination Sequence:
#
# PCOD8163728 Si02
#       5
#     8   2   8   8   8
#     4  10  22  46  72 101 136 178 238 299 362 412
#     4  12  30  44  66 102 152 208 242 286 360 472
#     4  10  25  43  72 104 136 184 237 294 353 431
#     4  10  20  40  67  91 129 186 229 292 346 407
#     4  12  27  46  68 107 153 196 249 292 369 450
#
# _framework density 23.548352000000001
#
# number of rings (size 3 to 8) (size 9 to 14) (size 15 to 20)
#    0.000    1.412    2.353    2.471    4.941    2.824 
#    0.000    4.706    0.000    0.000    0.000    0.000 
#    0.000    0.000    0.000    0.000    0.000    0.000 
#
# Total GULP energy -210599.431192 kJ/mol
# GULP energy per Si atom -12388.201835 kJ/mol
# Density = 2.349475 g / cm^3
# Si number density = 23.548352 Si / 1000 Ang^3
#
#
#
# Elastic Constant Matrix: (Units=GPa)
#
#
# Indices 1 2 3 4 5 6 
#
# 1 177.6418 55.9176 11.9273 0.0000 0.0000 0.0000
# 2 55.9176 175.3982 28.8849 0.0000 0.0000 0.0000
# 3 11.9273 28.8849 110.5907 0.0000 0.0000 0.0000
# 4 0.0000 0.0000 0.0000 5.2902 0.0000 0.0000
# 5 0.0000 0.0000 0.0000 0.0000 -10.8269 0.0000
# 6 0.0000 0.0000 0.0000 0.0000 0.0000 71.2340
#
#
#
# Elastic Compliance Matrix: (Units=1/GPa)
#
#
# Indices 1 2 3 4 5 6 
#
# 1 0.006260 -0.001969 -0.000161 0.000000 0.000000 0.000000
# 2 -0.001969 0.006577 -0.001505 0.000000 0.000000 0.000000
# 3 -0.000161 -0.001505 0.009453 0.000000 0.000000 0.000000
# 4 0.000000 0.000000 0.000000 0.189027 0.000000 0.000000
# 5 0.000000 0.000000 0.000000 0.000000 -0.092362 0.000000
# 6 0.000000 0.000000 0.000000 0.000000 0.000000 0.014038
#
#
# Mechanical properties :
#
#
# Convention : Reuss Voigt Hill
#
# Bulk Modulus (GPa) = 66.58263 73.01003 69.79633
# Shear Modulus (GPa) = 34.41859 37.59952 36.00906
#
# Velocity S-wave (km/s) = 3.82725 4.00020 3.91468
# Velocity P-wave (km/s) = 6.91858 7.23927 7.08074
#
# Compressibility (1/GPa) = 0.01501893
#
# Stress axis : x y z
#
# Youngs Moduli (GPa) = 159.74519 152.04432 105.78766
#
# Poissons Ratio (x) = 0.29941 0.01701
# Poissons Ratio (y) = 0.31457 0.15926
# Poissons Ratio (z) = 0.02569 0.22890
#
# Static dielectric constant tensor:
#      x y z
#    x 5.287270 0.000000 0.000000 
#    y 0.000000 6.386150 0.000000 
#    z 0.000000 0.000000 3.627950 
# 
# 
# High freq. dielectric constant tensor:
#      x y z
#    x 1.957890 0.000000 0.000000 
#    y 0.000000 1.938400 0.000000 
#    z 0.000000 0.000000 1.905040 
# 
# From -- ./inp_files/4293.got.cif
#   From: 2010.03.12/outbox.cif.g09.slc.cpg/sg23_3_cif.got.tgz:4293.got - 2010.04.14 02:50:06.
