data_PCOD8163363
_publ_section_title
;
Structure prediction by ZEFSAII (Michael W. Deem and Ramdas Pophale) SiO2 
 PCOD8163363
Probable space group: I 2 2 2
;
_chemical_formula_sum "Si O2"
_cell_formula_units_Z 40
_cell_length_a 12.295447
_cell_length_b 8.911055
_cell_length_c 16.716221
_cell_angle_alpha 90.000000
_cell_angle_beta 90.000000
_cell_angle_gamma 90.000000
_cell_volume 1831.519515
_symmetry_space_group_name_H-M "I 2 2 2"
_symmetry_group_IT_number 23
_symmetry_cell_setting 'orthorhombic'
loop_
_space_group_symop_operation_xyz
x,y,z
-x,-y,z
x,-y,-z
-x,y,-z
1/2+x,1/2+y,1/2+z
1/2-x,1/2-y,1/2+z
1/2+x,1/2-y,1/2-z
1/2-x,1/2+y,1/2-z
loop_
_atom_site_type_symbol
_atom_site_label
_atom_site_fract_x
_atom_site_fract_y
_atom_site_fract_z
Si Si1 0.908922 0.699684 0.658087
Si Si2 0.758494 0.411286 0.918114
Si Si3 0.336627 0.336592 0.485122
Si Si4 0.349398 0.128719 0.876647
Si Si5 0.840033 0.309804 0.169240
O O1 0.850919 0.844462 0.620958
O O2 0.842258 0.547810 0.641390
O O3 0.917442 0.708677 0.754581
O O4 0.029190 0.692057 0.621717
O O5 0.816369 0.516536 0.852694
O O6 0.728621 0.500000 0.000000
O O7 0.842787 0.275526 0.939192
O O8 0.388162 0.500000 0.500000
O O9 0.206469 0.347485 0.463784
O O10 0.399220 0.266980 0.407956
O O11 0.275159 0.223121 0.813532
#
# Coordination Sequence:
#
# PCOD8163363 Si02
#       5
#     8   8   8   8   8
#     4  11  19  35  52  75 116 146 185 214 264 341
#     4  10  19  32  51  77 111 145 173 225 270 325
#     4   9  17  36  51  80 112 142 172 219 282 334
#     4   9  21  33  52  78 106 148 176 209 281 316
#     4   9  20  34  51  80 110 143 184 222 265 317
#
# _framework density 21.839787999999999
#
# number of rings (size 3 to 8) (size 9 to 14) (size 15 to 20)
#    1.200    1.200    2.000    1.200    0.000    1.600 
#    3.600    0.000    0.000    0.000    0.000   68.600 
#   18.000    0.000    0.000    0.000    0.000    0.000 
#
# Total GULP energy -247763.552374 kJ/mol
# GULP energy per Si atom -12388.177619 kJ/mol
# Density = 2.179008 g / cm^3
# Si number density = 21.839788 Si / 1000 Ang^3
#
#
#
# Elastic Constant Matrix: (Units=GPa)
#
#
# Indices 1 2 3 4 5 6 
#
# 1 37.0681 10.9696 8.1341 0.0000 0.0000 0.0000
# 2 10.9696 129.3087 22.6228 0.0000 0.0000 0.0000
# 3 8.1341 22.6228 72.6214 0.0000 0.0000 0.0000
# 4 0.0000 0.0000 0.0000 32.6838 0.0000 0.0000
# 5 0.0000 0.0000 0.0000 0.0000 18.7767 0.0000
# 6 0.0000 0.0000 0.0000 0.0000 0.0000 4.9669
#
#
#
# Elastic Compliance Matrix: (Units=1/GPa)
#
#
# Indices 1 2 3 4 5 6 
#
# 1 0.028110 -0.001939 -0.002544 0.000000 0.000000 0.000000
# 2 -0.001939 0.008313 -0.002372 0.000000 0.000000 0.000000
# 3 -0.002544 -0.002372 0.014794 0.000000 0.000000 0.000000
# 4 0.000000 0.000000 0.000000 0.030596 0.000000 0.000000
# 5 0.000000 0.000000 0.000000 0.000000 0.053257 0.000000
# 6 0.000000 0.000000 0.000000 0.000000 0.000000 0.201335
#
#
# Mechanical properties :
#
#
# Convention : Reuss Voigt Hill
#
# Bulk Modulus (GPa) = 26.66357 35.82792 31.24574
# Shear Modulus (GPa) = 13.78859 24.43692 19.11276
#
# Velocity S-wave (km/s) = 2.51540 3.34865 2.96148
# Velocity P-wave (km/s) = 4.54659 5.60284 5.10212
#
# Compressibility (1/GPa) = 0.03750435
#
# Stress axis : x y z
#
# Youngs Moduli (GPa) = 35.57501 120.29317 67.59467
#
# Poissons Ratio (x) = 0.23331 0.17198
# Poissons Ratio (y) = 0.06900 0.16036
# Poissons Ratio (z) = 0.09051 0.28539
#
# Static dielectric constant tensor:
#      x y z
#    x 3.258640 0.000000 0.000000 
#    y 0.000000 4.301700 0.000000 
#    z 0.000000 0.000000 3.800670 
# 
# 
# High freq. dielectric constant tensor:
#      x y z
#    x 1.809090 0.000000 0.000000 
#    y 0.000000 1.877930 0.000000 
#    z 0.000000 0.000000 1.851090 
# 
# From -- ./inp_files/9761.got.cif
#   From: 2010.03.12/outbox.cif.g09.slc.cpg/sg23_5_cif.got.tgz:9761.got - 2010.04.14 02:50:06.
