data_PCOD8163256
_publ_section_title
;
Structure prediction by ZEFSAII (Michael W. Deem and Ramdas Pophale) SiO2 
 PCOD8163256
Probable space group: I 2 2 2
;
_chemical_formula_sum "Si O2"
_cell_formula_units_Z 44
_cell_length_a 13.981736
_cell_length_b 9.067202
_cell_length_c 18.639372
_cell_angle_alpha 90.000000
_cell_angle_beta 90.000000
_cell_angle_gamma 90.000000
_cell_volume 2363.010572
_symmetry_space_group_name_H-M "I 2 2 2"
_symmetry_group_IT_number 23
_symmetry_cell_setting 'orthorhombic'
loop_
_space_group_symop_operation_xyz
x,y,z
-x,-y,z
x,-y,-z
-x,y,-z
1/2+x,1/2+y,1/2+z
1/2-x,1/2-y,1/2+z
1/2+x,1/2-y,1/2-z
1/2-x,1/2+y,1/2-z
loop_
_atom_site_type_symbol
_atom_site_label
_atom_site_fract_x
_atom_site_fract_y
_atom_site_fract_z
Si Si1 0.500000 0.701401 0.500000
Si Si2 0.000000 0.000000 0.129712
Si Si3 0.000000 0.500000 0.159552
Si Si4 0.987114 0.335461 0.704088
Si Si5 0.361908 0.621362 0.751669
Si Si6 0.162053 0.399723 0.939351
Si Si7 0.206401 0.818974 0.681432
O O1 0.536615 0.620788 0.572380
O O2 0.593986 0.788332 0.479924
O O3 0.915005 0.061288 0.180208
O O4 0.987981 0.645947 0.209065
O O5 0.903708 0.495325 0.113989
O O6 0.889151 0.274634 0.673461
O O7 0.000000 0.500000 0.668936
O O8 0.068449 0.209914 0.692621
O O9 0.278930 0.737324 0.734370
O O10 0.314763 0.483390 0.791576
O O11 0.247619 0.321750 0.897379
O O12 0.210906 0.500000 0.000000
#
# Coordination Sequence:
#
# PCOD8163256 Si02
#       7
#     4   4   4   8   8   8   8
#     4  11  21  36  58  84 131 169 196 252 317 384
#     4  11  22  36  60  90 125 172 194 256 333 358
#     4  10  17  36  60  86 124 161 200 248 342 361
#     4  10  21  38  63  92 126 162 198 272 328 363
#     4  12  22  39  61  94 132 162 208 270 315 378
#     4  12  22  35  60  88 126 173 203 247 308 396
#     4  12  23  37  60  95 126 166 220 251 317 384
#
# _framework density 18.620315999999999
#
# number of rings (size 3 to 8) (size 9 to 14) (size 15 to 20)
#    0.545    0.182    7.273    2.182    0.000    1.455 
#    0.000    0.000    0.000    2.182    0.000    1.273 
#    0.000    0.000    0.000    0.000    0.000    0.000 
#
# Total GULP energy -272569.651184 kJ/mol
# GULP energy per Si atom -12389.529599 kJ/mol
# Density = 1.857794 g / cm^3
# Si number density = 18.620316 Si / 1000 Ang^3
#
#
#
# Elastic Constant Matrix: (Units=GPa)
#
#
# Indices 1 2 3 4 5 6 
#
# 1 137.9630 67.6807 39.3438 0.0000 0.0000 0.0000
# 2 67.6807 121.7848 39.7888 0.0000 0.0000 0.0000
# 3 39.3438 39.7888 65.4981 0.0000 0.0000 0.0000
# 4 0.0000 0.0000 0.0000 -30.2959 0.0000 0.0000
# 5 0.0000 0.0000 0.0000 0.0000 29.2792 0.0000
# 6 0.0000 0.0000 0.0000 0.0000 0.0000 -9.9904
#
#
#
# Elastic Compliance Matrix: (Units=1/GPa)
#
#
# Indices 1 2 3 4 5 6 
#
# 1 0.010560 -0.004736 -0.003466 0.000000 0.000000 0.000000
# 2 -0.004736 0.012369 -0.004669 0.000000 0.000000 0.000000
# 3 -0.003466 -0.004669 0.020186 0.000000 0.000000 0.000000
# 4 0.000000 0.000000 0.000000 -0.033008 0.000000 0.000000
# 5 0.000000 0.000000 0.000000 0.000000 0.034154 0.000000
# 6 0.000000 0.000000 0.000000 0.000000 0.000000 -0.100096
#
#
# Mechanical properties :
#
#
# Convention : Reuss Voigt Hill
#
# Bulk Modulus (GPa) = 57.56252 68.76362 63.16307
# Shear Modulus (GPa) = -205.74396 9.69410 -98.02493
#
# Velocity S-wave (km/s) = -10.52303 2.28418 -7.26350
# Velocity P-wave (km/s) = 10.80114 6.63070 6.02903
#
# Compressibility (1/GPa) = 0.01737241
#
# Stress axis : x y z
#
# Youngs Moduli (GPa) = 94.69423 80.84920 49.53964
#
# Poissons Ratio (x) = 0.38293 0.17171
# Poissons Ratio (y) = 0.44850 0.23129
# Poissons Ratio (z) = 0.32823 0.37746
#
# Static dielectric constant tensor:
#      x y z
#    x 3.572830 0.000000 0.000000 
#    y 0.000000 3.797640 0.000000 
#    z 0.000000 0.000000 3.789420 
# 
# 
# High freq. dielectric constant tensor:
#      x y z
#    x 1.712820 0.000000 0.000000 
#    y 0.000000 1.745740 0.000000 
#    z 0.000000 0.000000 1.693880 
# 
# From -- ./inp_files/24699.got.cif
#   From: 2010.03.12/outbox.cif.g09.slc.cpg/sg23_13_cif.got.tgz:24699.got - 2010.04.14 02:50:06.
