data_PCOD8163371
_publ_section_title
;
Structure prediction by ZEFSAII (Michael W. Deem and Ramdas Pophale) SiO2 
 PCOD8163371
Probable space group: I 2 2 2
;
_chemical_formula_sum "Si O2"
_cell_formula_units_Z 48
_cell_length_a 12.868084
_cell_length_b 12.290569
_cell_length_c 13.866036
_cell_angle_alpha 90.000000
_cell_angle_beta 90.000000
_cell_angle_gamma 90.000000
_cell_volume 2192.997820
_symmetry_space_group_name_H-M "I 2 2 2"
_symmetry_group_IT_number 23
_symmetry_cell_setting 'orthorhombic'
loop_
_space_group_symop_operation_xyz
x,y,z
-x,-y,z
x,-y,-z
-x,y,-z
1/2+x,1/2+y,1/2+z
1/2-x,1/2-y,1/2+z
1/2+x,1/2-y,1/2-z
1/2-x,1/2+y,1/2-z
loop_
_atom_site_type_symbol
_atom_site_label
_atom_site_fract_x
_atom_site_fract_y
_atom_site_fract_z
Si Si1 0.179956 0.182558 0.594987
Si Si2 0.584087 0.091710 0.186951
Si Si3 0.777746 0.006107 0.729285
Si Si4 0.500000 0.737068 0.500000
Si Si5 0.000000 0.690383 0.500000
Si Si6 0.167718 0.398748 0.943196
Si Si7 0.625387 0.703044 0.678958
O O1 0.071753 0.238408 0.570233
O O2 0.226540 0.136762 0.496052
O O3 0.259354 0.266095 0.644246
O O4 0.159103 0.084427 0.669525
O O5 0.576390 0.198361 0.257191
O O6 0.500000 0.000000 0.220134
O O7 0.702961 0.047268 0.189646
O O8 0.567414 0.118714 0.074075
O O9 0.694378 0.070504 0.664906
O O10 0.865170 0.089244 0.765692
O O11 0.583710 0.805416 0.440955
O O12 0.556008 0.671316 0.585445
O O13 0.117480 0.500000 0.000000
#
# Coordination Sequence:
#
# PCOD8163371 Si02
#       7
#     8   8   8   4   4   8   8
#     4   9  21  37  62  92 124 165 212 264 318 374
#     4  11  23  38  64  95 125 165 213 263 314 375
#     4  10  20  39  62  90 128 168 209 260 321 379
#     4  10  19  32  60  94 123 158 204 254 310 374
#     4  12  23  42  67  96 126 166 216 266 320 378
#     4   9  17  33  58  90 122 157 203 259 311 370
#     4  10  21  39  62  94 129 167 210 260 317 377
#
# _framework density 21.887846
#
# number of rings (size 3 to 8) (size 9 to 14) (size 15 to 20)
#    0.000    2.000    0.000    4.500    0.000    0.000 
#    0.000   12.083    0.000    4.000    0.000    4.667 
#    0.000    0.000    0.000    0.000    0.000    0.000 
#
# Total GULP energy -297499.619186 kJ/mol
# GULP energy per Si atom -12395.817466 kJ/mol
# Density = 2.183803 g / cm^3
# Si number density = 21.887846 Si / 1000 Ang^3
#
#
#
# Elastic Constant Matrix: (Units=GPa)
#
#
# Indices 1 2 3 4 5 6 
#
# 1 83.8245 53.3563 53.0334 0.0000 0.0000 0.0000
# 2 53.3563 103.3527 59.8733 0.0000 0.0000 0.0000
# 3 53.0334 59.8733 134.5499 0.0000 0.0000 0.0000
# 4 0.0000 0.0000 0.0000 32.1059 0.0000 0.0000
# 5 0.0000 0.0000 0.0000 0.0000 106.1751 0.0000
# 6 0.0000 0.0000 0.0000 0.0000 0.0000 77.5521
#
#
#
# Elastic Compliance Matrix: (Units=1/GPa)
#
#
# Indices 1 2 3 4 5 6 
#
# 1 0.019464 -0.007550 -0.004312 0.000000 0.000000 0.000000
# 2 -0.007550 0.015965 -0.004128 0.000000 0.000000 0.000000
# 3 -0.004312 -0.004128 0.010969 0.000000 0.000000 0.000000
# 4 0.000000 0.000000 0.000000 0.031147 0.000000 0.000000
# 5 0.000000 0.000000 0.000000 0.000000 0.009418 0.000000
# 6 0.000000 0.000000 0.000000 0.000000 0.000000 0.012895
#
#
# Mechanical properties :
#
#
# Convention : Reuss Voigt Hill
#
# Bulk Modulus (GPa) = 69.36475 72.69478 71.02977
# Shear Modulus (GPa) = 36.59149 53.53088 45.06118
#
# Velocity S-wave (km/s) = 4.09317 4.95076 4.54225
# Velocity P-wave (km/s) = 7.35517 8.12185 7.74800
#
# Compressibility (1/GPa) = 0.01441654
#
# Stress axis : x y z
#
# Youngs Moduli (GPa) = 51.37788 62.63682 91.16781
#
# Poissons Ratio (x) = 0.47293 0.39310
# Poissons Ratio (y) = 0.38792 0.37637
# Poissons Ratio (z) = 0.22153 0.25858
#
# Static dielectric constant tensor:
#      x y z
#    x 3.713530 0.000000 0.000000 
#    y 0.000000 3.922100 0.000000 
#    z 0.000000 0.000000 3.837220 
# 
# 
# High freq. dielectric constant tensor:
#      x y z
#    x 1.847300 0.000000 0.000000 
#    y 0.000000 1.850040 0.000000 
#    z 0.000000 0.000000 1.865020 
# 
# From -- ./inp_files/21560.got.cif
#   From: 2010.03.12/outbox.cif.g09.slc.cpg/sg23_11_cif.got.tgz:21560.got - 2010.04.14 02:50:06.
