data_PCOD8163457
_publ_section_title
;
Structure prediction by ZEFSAII (Michael W. Deem and Ramdas Pophale) SiO2 
 PCOD8163457
Probable space group: I 2 2 2
;
_chemical_formula_sum "Si O2"
_cell_formula_units_Z 28
_cell_length_a 11.375847
_cell_length_b 14.070825
_cell_length_c 8.871646
_cell_angle_alpha 90.000000
_cell_angle_beta 90.000000
_cell_angle_gamma 90.000000
_cell_volume 1420.062661
_symmetry_space_group_name_H-M "I 2 2 2"
_symmetry_group_IT_number 23
_symmetry_cell_setting 'orthorhombic'
loop_
_space_group_symop_operation_xyz
x,y,z
-x,-y,z
x,-y,-z
-x,y,-z
1/2+x,1/2+y,1/2+z
1/2-x,1/2-y,1/2+z
1/2+x,1/2-y,1/2-z
1/2-x,1/2+y,1/2-z
loop_
_atom_site_type_symbol
_atom_site_label
_atom_site_fract_x
_atom_site_fract_y
_atom_site_fract_z
Si Si1 0.620539 0.539285 0.237800
Si Si2 0.637223 0.288024 0.970412
Si Si3 0.797004 0.162473 0.790861
Si Si4 0.500000 0.641075 0.500000
O O1 0.500000 0.500000 0.162601
O O2 0.672801 0.617553 0.124390
O O3 0.708904 0.451256 0.264496
O O4 0.591495 0.579448 0.402895
O O5 0.680803 0.196069 0.878192
O O6 0.500000 0.279869 0.000000
O O7 0.704029 0.287435 0.128862
O O8 0.915634 0.197076 0.882179
#
# Coordination Sequence:
#
# PCOD8163457 Si02
#       4
#     8   8   8   4
#     4  10  19  37  63  93 121 166 219 267 310 380
#     4  12  23  38  63  98 129 168 218 270 328 384
#     4  11  23  35  62  94 129 161 217 278 321 372
#     4  10  19  36  64  92 123 164 223 268 312 382
#
# _framework density 19.717438000000001
#
# number of rings (size 3 to 8) (size 9 to 14) (size 15 to 20)
#    0.000    1.143    5.714    6.429    0.000    0.000 
#    0.000    0.000    0.000   13.714    0.000    0.000 
#    0.000    0.000    0.000    0.000    0.000    0.000 
#
# Total GULP energy -173495.531972 kJ/mol
# GULP energy per Si atom -12392.537998 kJ/mol
# Density = 1.967256 g / cm^3
# Si number density = 19.717438 Si / 1000 Ang^3
#
#
#
# Elastic Constant Matrix: (Units=GPa)
#
#
# Indices 1 2 3 4 5 6 
#
# 1 58.2804 56.5344 42.8061 0.0000 0.0000 0.0000
# 2 56.5344 106.8180 51.6954 0.0000 0.0000 0.0000
# 3 42.8061 51.6954 156.6624 0.0000 0.0000 0.0000
# 4 0.0000 0.0000 0.0000 31.5029 0.0000 0.0000
# 5 0.0000 0.0000 0.0000 0.0000 30.9581 0.0000
# 6 0.0000 0.0000 0.0000 0.0000 0.0000 37.0727
#
#
#
# Elastic Compliance Matrix: (Units=1/GPa)
#
#
# Indices 1 2 3 4 5 6 
#
# 1 0.037669 -0.017798 -0.004420 0.000000 0.000000 0.000000
# 2 -0.017798 0.019550 -0.001588 0.000000 0.000000 0.000000
# 3 -0.004420 -0.001588 0.008115 0.000000 0.000000 0.000000
# 4 0.000000 0.000000 0.000000 0.031743 0.000000 0.000000
# 5 0.000000 0.000000 0.000000 0.000000 0.032302 0.000000
# 6 0.000000 0.000000 0.000000 0.000000 0.000000 0.026974
#
#
# Mechanical properties :
#
#
# Convention : Reuss Voigt Hill
#
# Bulk Modulus (GPa) = 56.42449 69.31471 62.86960
# Shear Modulus (GPa) = 23.82403 31.28839 27.55621
#
# Velocity S-wave (km/s) = 3.47979 3.98784 3.74244
# Velocity P-wave (km/s) = 6.69507 7.51226 7.11541
#
# Compressibility (1/GPa) = 0.01772280
#
# Stress axis : x y z
#
# Youngs Moduli (GPa) = 26.54674 51.15093 123.23139
#
# Poissons Ratio (x) = 0.91038 0.54465
# Poissons Ratio (y) = 0.47248 0.19570
# Poissons Ratio (z) = 0.11733 0.08123
#
# Static dielectric constant tensor:
#      x y z
#    x 3.250300 0.000000 0.000000 
#    y 0.000000 3.567760 0.000000 
#    z 0.000000 0.000000 4.064760 
# 
# 
# High freq. dielectric constant tensor:
#      x y z
#    x 1.719400 0.000000 0.000000 
#    y 0.000000 1.743300 0.000000 
#    z 0.000000 0.000000 1.808680 
# 
# From -- ./inp_files/7709.got.cif
#   From: 2010.03.12/outbox.cif.g09.slc.cpg/sg23_4_cif.got.tgz:7709.got - 2010.04.14 02:50:06.
