data_PCOD8163057
_publ_section_title
;
Structure prediction by ZEFSAII (Michael W. Deem and Ramdas Pophale) SiO2 
 PCOD8163057
Probable space group: F 2 2 2
;
_chemical_formula_sum "Si O2"
_cell_formula_units_Z 80
_cell_length_a 16.831217
_cell_length_b 13.664141
_cell_length_c 16.219709
_cell_angle_alpha 90.000000
_cell_angle_beta 90.000000
_cell_angle_gamma 90.000000
_cell_volume 3730.275538
_symmetry_space_group_name_H-M "F 2 2 2"
_symmetry_group_IT_number 22
_symmetry_cell_setting 'orthorhombic'
loop_
_space_group_symop_operation_xyz
x,y,z
-x,-y,z
x,-y,-z
-x,y,-z
x,1/2+y,1/2+z
-x,1/2-y,1/2+z
x,1/2-y,1/2-z
-x,1/2+y,1/2-z
1/2+x,y,1/2+z
1/2-x,-y,1/2+z
1/2+x,-y,1/2-z
1/2-x,y,1/2-z
1/2+x,1/2+y,z
1/2-x,1/2-y,z
1/2+x,1/2-y,-z
1/2-x,1/2+y,-z
loop_
_atom_site_type_symbol
_atom_site_label
_atom_site_fract_x
_atom_site_fract_y
_atom_site_fract_z
Si Si1 0.829591 0.397098 0.797181
Si Si2 0.843158 0.940268 0.582980
Si Si3 0.750000 0.750000 0.083739
Si Si4 0.950005 0.249732 0.084142
Si Si5 0.449155 0.250000 0.250000
Si Si6 0.671873 0.398032 0.037997
O O1 0.750000 0.427398 0.750000
O O2 0.867625 0.492729 0.839496
O O3 0.810461 0.314447 0.864219
O O4 0.895324 0.347884 0.738329
O O5 0.892330 0.842117 0.581345
O O6 0.749613 0.917215 0.593334
O O7 0.859573 0.000000 0.500000
O O8 0.693558 0.679062 0.032569
O O9 0.898297 0.150131 0.091852
O O10 0.000814 0.258475 0.166685
O O11 0.000000 0.247423 0.000000
O O12 0.640644 0.500000 0.000000
#
# Coordination Sequence:
#
# PCOD8163057 Si02
#       6
#    16  16   8  16   8  16
#     4  12  24  41  72 101 132 176 239 298 335 407
#     4  11  22  43  72 100 126 179 241 287 340 409
#     4  12  17  42  72 103 132 164 234 297 344 387
#     4  12  27  46  68  98 152 188 219 287 353 424
#     4  12  27  44  65 102 146 192 222 280 359 422
#     4  11  22  41  76 103 129 180 242 285 343 411
#
# _framework density 21.446137
#
# number of rings (size 3 to 8) (size 9 to 14) (size 15 to 20)
#    0.000    0.400    8.000    2.400    0.000    4.800 
#    0.000    5.000    0.000    0.000    0.000    0.000 
#    0.000    0.000    0.000    0.000    0.000    0.000 
#
# Total GULP energy -248012.098291 kJ/mol
# GULP energy per Si atom -12400.604915 kJ/mol
# Density = 2.139732 g / cm^3
# Si number density = 21.446137 Si / 1000 Ang^3
#
#
#
# Elastic Constant Matrix: (Units=GPa)
#
#
# Indices 1 2 3 4 5 6 
#
# 1 95.2465 49.7982 34.5200 0.0000 0.0000 0.0000
# 2 49.7982 141.0782 37.0393 0.0000 0.0000 0.0000
# 3 34.5200 37.0393 95.9527 0.0000 0.0000 0.0000
# 4 0.0000 0.0000 0.0000 46.1012 0.0000 0.0000
# 5 0.0000 0.0000 0.0000 0.0000 26.2852 0.0000
# 6 0.0000 0.0000 0.0000 0.0000 0.0000 -8.7529
#
#
#
# Elastic Compliance Matrix: (Units=1/GPa)
#
#
# Indices 1 2 3 4 5 6 
#
# 1 0.013825 -0.003977 -0.003438 0.000000 0.000000 0.000000
# 2 -0.003977 0.009032 -0.002056 0.000000 0.000000 0.000000
# 3 -0.003438 -0.002056 0.012452 0.000000 0.000000 0.000000
# 4 0.000000 0.000000 0.000000 0.021691 0.000000 0.000000
# 5 0.000000 0.000000 0.000000 0.000000 0.038044 0.000000
# 6 0.000000 0.000000 0.000000 0.000000 0.000000 -0.114248
#
#
# Mechanical properties :
#
#
# Convention : Reuss Voigt Hill
#
# Bulk Modulus (GPa) = 61.10015 63.88804 62.49409
# Shear Modulus (GPa) = 962.61769 26.78804 494.70286
#
# Velocity S-wave (km/s) = 21.20915 3.53807 15.20437
# Velocity P-wave (km/s) = 25.06636 6.82241 18.36938
#
# Compressibility (1/GPa) = 0.01636657
#
# Stress axis : x y z
#
# Youngs Moduli (GPa) = 72.33486 110.71974 80.30671
#
# Poissons Ratio (x) = 0.44035 0.27612
# Poissons Ratio (y) = 0.28769 0.16508
# Poissons Ratio (z) = 0.24871 0.22760
#
# Static dielectric constant tensor:
#      x y z
#    x 6.028690 0.000000 0.000000 
#    y 0.000000 4.150560 0.000000 
#    z 0.000000 0.000000 3.882030 
# 
# 
# High freq. dielectric constant tensor:
#      x y z
#    x 1.841650 0.000000 0.000000 
#    y 0.000000 1.858100 0.000000 
#    z 0.000000 0.000000 1.830780 
# 
# From -- ./inp_files/37862.got.cif
#   From: 2010.03.12/outbox.cif.g09.slc.cpg/sg22_19_cif.got.tgz:37862.got - 2010.04.14 02:24:06.
