data_PCOD8163301
_publ_section_title
;
Structure prediction by ZEFSAII (Michael W. Deem and Ramdas Pophale) SiO2 
 PCOD8163301
Probable space group: I 2 2 2
;
_chemical_formula_sum "Si O2"
_cell_formula_units_Z 56
_cell_length_a 14.549309
_cell_length_b 11.605418
_cell_length_c 15.130661
_cell_angle_alpha 90.000000
_cell_angle_beta 90.000000
_cell_angle_gamma 90.000000
_cell_volume 2554.824404
_symmetry_space_group_name_H-M "I 2 2 2"
_symmetry_group_IT_number 23
_symmetry_cell_setting 'orthorhombic'
loop_
_space_group_symop_operation_xyz
x,y,z
-x,-y,z
x,-y,-z
-x,y,-z
1/2+x,1/2+y,1/2+z
1/2-x,1/2-y,1/2+z
1/2+x,1/2-y,1/2-z
1/2-x,1/2+y,1/2-z
loop_
_atom_site_type_symbol
_atom_site_label
_atom_site_fract_x
_atom_site_fract_y
_atom_site_fract_z
Si Si1 0.731593 0.629391 0.984080
Si Si2 0.570720 0.163784 0.569215
Si Si3 0.308753 0.277204 0.167199
Si Si4 0.393112 0.516030 0.758656
Si Si5 0.476087 0.869034 0.772275
Si Si6 0.341804 0.272713 0.807698
Si Si7 0.905974 0.927506 0.926867
O O1 0.831953 0.603154 0.944369
O O2 0.678985 0.707275 0.911225
O O3 0.689019 0.500000 0.000000
O O4 0.736972 0.714700 0.069806
O O5 0.500000 0.107152 0.500000
O O6 0.534361 0.144125 0.667554
O O7 0.578702 0.297802 0.543493
O O8 0.365556 0.396212 0.165088
O O9 0.381099 0.171520 0.180039
O O10 0.235490 0.288484 0.247402
O O11 0.500000 0.500000 0.766259
O O12 0.342327 0.396335 0.762541
O O13 0.357274 0.573619 0.667531
O O14 0.561030 0.791235 0.803123
O O15 0.500000 0.000000 0.798454
O O16 0.000000 0.000000 0.915581
O O17 0.847135 0.000000 0.000000
#
# Coordination Sequence:
#
# PCOD8163301 Si02
#       7
#     8   8   8   8   8   8   8
#     4  12  28  46  74 110 146 195 258 315 379 451
#     4  12  24  42  66 110 146 192 249 309 388 450
#     4  12  26  48  72 110 150 192 256 310 377 449
#     4  11  21  42  70  98 135 190 248 308 363 432
#     4  12  28  49  75 105 153 207 248 310 386 455
#     4  12  26  47  75 107 151 195 250 315 373 446
#     4  10  18  33  60  97 136 173 235 296 362 437
#
# _framework density 21.919314
#
# number of rings (size 3 to 8) (size 9 to 14) (size 15 to 20)
#    0.000    0.429    7.143    1.714    8.000    0.571 
#    0.000    2.857    0.000    0.000    0.000    0.000 
#    0.000    0.000    0.000    0.000    0.000    0.000 
#
# Total GULP energy -346957.680794 kJ/mol
# GULP energy per Si atom -12391.345743 kJ/mol
# Density = 2.186942 g / cm^3
# Si number density = 21.919314 Si / 1000 Ang^3
#
#
#
# Elastic Constant Matrix: (Units=GPa)
#
#
# Indices 1 2 3 4 5 6 
#
# 1 74.5486 6.3784 38.7150 0.0000 0.0000 0.0000
# 2 6.3784 91.5747 16.8249 0.0000 0.0000 0.0000
# 3 38.7150 16.8249 127.3087 0.0000 0.0000 0.0000
# 4 0.0000 0.0000 0.0000 36.5869 0.0000 0.0000
# 5 0.0000 0.0000 0.0000 0.0000 36.8190 0.0000
# 6 0.0000 0.0000 0.0000 0.0000 0.0000 62.4215
#
#
#
# Elastic Compliance Matrix: (Units=1/GPa)
#
#
# Indices 1 2 3 4 5 6 
#
# 1 0.015934 -0.000225 -0.004816 0.000000 0.000000 0.000000
# 2 -0.000225 0.011195 -0.001411 0.000000 0.000000 0.000000
# 3 -0.004816 -0.001411 0.009506 0.000000 0.000000 0.000000
# 4 0.000000 0.000000 0.000000 0.027332 0.000000 0.000000
# 5 0.000000 0.000000 0.000000 0.000000 0.027160 0.000000
# 6 0.000000 0.000000 0.000000 0.000000 0.000000 0.016020
#
#
# Mechanical properties :
#
#
# Convention : Reuss Voigt Hill
#
# Bulk Modulus (GPa) = 42.13867 46.36317 44.25092
# Shear Modulus (GPa) = 39.07411 42.59974 40.83692
#
# Velocity S-wave (km/s) = 4.22671 4.41327 4.32100
# Velocity P-wave (km/s) = 6.56401 6.86782 6.71763
#
# Compressibility (1/GPa) = 0.02373117
#
# Stress axis : x y z
#
# Youngs Moduli (GPa) = 62.75748 89.32579 105.19725
#
# Poissons Ratio (x) = 0.02010 0.50662
# Poissons Ratio (y) = 0.01412 0.14844
# Poissons Ratio (z) = 0.30224 0.12605
#
# Static dielectric constant tensor:
#      x y z
#    x 3.901610 0.000000 0.000000 
#    y 0.000000 4.051560 0.000000 
#    z 0.000000 0.000000 -1.327010 
# 
# 
# High freq. dielectric constant tensor:
#      x y z
#    x 1.847660 0.000000 0.000000 
#    y 0.000000 1.872460 0.000000 
#    z 0.000000 0.000000 1.869420 
# 
# From -- ./inp_files/20916.got.cif
#   From: 2010.03.12/outbox.cif.g09.slc.cpg/sg23_11_cif.got.tgz:20916.got - 2010.04.14 02:50:06.
