data_PCOD8163842
_publ_section_title
;
Structure prediction by ZEFSAII (Michael W. Deem and Ramdas Pophale) SiO2 
 PCOD8163842
Probable space group: I 2 2 2
;
_chemical_formula_sum "Si O2"
_cell_formula_units_Z 58
_cell_length_a 14.833617
_cell_length_b 23.542215
_cell_length_c 7.608980
_cell_angle_alpha 90.000000
_cell_angle_beta 90.000000
_cell_angle_gamma 90.000000
_cell_volume 2657.179086
_symmetry_space_group_name_H-M "I 2 2 2"
_symmetry_group_IT_number 23
_symmetry_cell_setting 'orthorhombic'
loop_
_space_group_symop_operation_xyz
x,y,z
-x,-y,z
x,-y,-z
-x,y,-z
1/2+x,1/2+y,1/2+z
1/2-x,1/2-y,1/2+z
1/2+x,1/2-y,1/2-z
1/2-x,1/2+y,1/2-z
loop_
_atom_site_type_symbol
_atom_site_label
_atom_site_fract_x
_atom_site_fract_y
_atom_site_fract_z
Si Si1 0.702164 0.380944 0.174647
Si Si2 0.730763 0.937345 0.978274
Si Si3 0.513462 0.357911 0.306687
Si Si4 0.500759 0.760735 0.204859
Si Si5 0.703767 0.770689 0.213562
Si Si6 0.360075 0.421109 0.173727
Si Si7 0.827108 0.321475 0.661633
Si Si8 0.000000 0.000000 0.500000
O O1 0.753992 0.416341 0.323375
O O2 0.595601 0.388884 0.209447
O O3 0.736506 0.315974 0.175869
O O4 0.714403 0.408918 0.979915
O O5 0.818457 0.944345 0.855834
O O6 0.675468 0.889394 0.868828
O O7 0.684363 0.000000 0.000000
O O8 0.500000 0.383436 0.500000
O O9 0.538640 0.291601 0.315392
O O10 0.417628 0.363383 0.206116
O O11 0.600129 0.774054 0.281889
O O12 0.429010 0.811730 0.231495
O O13 0.500000 0.743911 0.000000
O O14 0.750307 0.707400 0.213582
O O15 0.699768 0.788847 0.013639
O O16 0.435416 0.466327 0.129053
#
# Coordination Sequence:
#
# PCOD8163842 Si02
#       8
#     8   8   8   8   8   8   8   2
#     4  11  22  42  60  89 127 168 212 263 318 389
#     4  11  25  42  62  89 125 169 221 269 319 386
#     4  12  22  36  56  92 130 169 207 260 318 384
#     4  10  21  38  61  91 129 166 208 260 324 394
#     4  10  22  36  63  93 126 165 210 262 327 392
#     4  12  24  39  61  84 128 171 211 254 323 374
#     4  10  22  39  62  91 130 170 211 268 330 388
#     4  12  24  36  58  88 112 168 212 248 300 392
#
# _framework density 21.827658
#
# number of rings (size 3 to 8) (size 9 to 14) (size 15 to 20)
#    0.000    1.103    4.138    2.483    5.793    0.000 
#    0.000    0.000    0.000   10.345    0.000    0.000 
#    0.000   12.138    0.000    0.000    0.000    0.000 
#
# Total GULP energy -359265.079302 kJ/mol
# GULP energy per Si atom -12388.451010 kJ/mol
# Density = 2.177798 g / cm^3
# Si number density = 21.827658 Si / 1000 Ang^3
#
#
#
# Elastic Constant Matrix: (Units=GPa)
#
#
# Indices 1 2 3 4 5 6 
#
# 1 99.7601 31.0489 11.9946 0.0001 0.0002 0.0001
# 2 31.0489 122.7419 17.2513 -0.0002 0.0004 0.0002
# 3 11.9946 17.2513 65.9090 -0.0002 0.0012 0.0040
# 4 0.0001 -0.0002 -0.0002 26.0150 0.0001 0.0005
# 5 0.0002 0.0004 0.0012 0.0001 17.6764 0.0000
# 6 0.0001 0.0002 0.0040 0.0005 0.0000 35.8557
#
#
#
# Elastic Compliance Matrix: (Units=1/GPa)
#
#
# Indices 1 2 3 4 5 6 
#
# 1 0.010990 -0.002594 -0.001321 0.000000 0.000000 0.000000
# 2 -0.002594 0.009071 -0.001902 0.000000 0.000000 0.000000
# 3 -0.001321 -0.001902 0.015911 0.000000 -0.000001 -0.000002
# 4 0.000000 0.000000 0.000000 0.038439 0.000000 -0.000001
# 5 0.000000 0.000000 -0.000001 0.000000 0.056572 0.000000
# 6 0.000000 0.000000 -0.000002 -0.000001 0.000000 0.027890
#
#
# Mechanical properties :
#
#
# Convention : Reuss Voigt Hill
#
# Bulk Modulus (GPa) = 41.09007 45.44448 43.26727
# Shear Modulus (GPa) = 27.99229 31.11718 29.55473
#
# Velocity S-wave (km/s) = 3.58498 3.77979 3.68367
# Velocity P-wave (km/s) = 6.00014 6.31775 6.16099
#
# Compressibility (1/GPa) = 0.02433678
#
# Stress axis : x y z
#
# Youngs Moduli (GPa) = 90.98878 110.24373 62.85078
#
# Poissons Ratio (x) = 0.28602 0.08303
# Poissons Ratio (y) = 0.23607 0.11955
# Poissons Ratio (z) = 0.12020 0.20969
#
# Static dielectric constant tensor:
#      x y z
#    x 3.941130 0.000000 0.000000 
#    y 0.000000 4.061890 -0.000010 
#    z 0.000000 -0.000010 3.863410 
# 
# 
# High freq. dielectric constant tensor:
#      x y z
#    x 1.829250 0.000000 0.000000 
#    y 0.000000 1.845540 0.000000 
#    z 0.000000 0.000000 1.865740 
# 
# From -- ./inp_files/10327.got.cif
#   From: 2010.03.12/outbox.cif.g09.slc.cpg/sg23_6_cif.got.tgz:10327.got - 2010.04.14 02:50:06.
