data_PCOD8163888
_publ_section_title
;
Structure prediction by ZEFSAII (Michael W. Deem and Ramdas Pophale) SiO2 
 PCOD8163888
Probable space group: I 2 2 2
;
_chemical_formula_sum "Si O2"
_cell_formula_units_Z 58
_cell_length_a 19.731121
_cell_length_b 8.237516
_cell_length_c 16.712929
_cell_angle_alpha 90.000000
_cell_angle_beta 90.000000
_cell_angle_gamma 90.000000
_cell_volume 2716.443017
_symmetry_space_group_name_H-M "I 2 2 2"
_symmetry_group_IT_number 23
_symmetry_cell_setting 'orthorhombic'
loop_
_space_group_symop_operation_xyz
x,y,z
-x,-y,z
x,-y,-z
-x,y,-z
1/2+x,1/2+y,1/2+z
1/2-x,1/2-y,1/2+z
1/2+x,1/2-y,1/2-z
1/2-x,1/2+y,1/2-z
loop_
_atom_site_type_symbol
_atom_site_label
_atom_site_fract_x
_atom_site_fract_y
_atom_site_fract_z
Si Si1 0.673074 0.102575 0.742655
Si Si2 0.813131 0.034682 0.211693
Si Si3 0.950144 0.853529 0.234320
Si Si4 0.500000 0.000000 0.000000
Si Si5 0.479516 0.688415 0.582967
Si Si6 0.149910 0.373422 0.934052
Si Si7 0.762145 0.356659 0.560618
Si Si8 0.400303 0.874236 0.133545
O O1 0.667364 0.296266 0.755094
O O2 0.654712 0.041186 0.652952
O O3 0.751844 0.055763 0.744988
O O4 0.624512 0.025830 0.811092
O O5 0.789603 0.065868 0.122384
O O6 0.877109 0.917053 0.207804
O O7 0.982005 0.743403 0.161904
O O8 0.943529 0.746532 0.312762
O O9 0.000000 0.000000 0.256288
O O10 0.550287 0.094996 0.059037
O O11 0.500000 0.500000 0.581777
O O12 0.500000 0.775085 0.500000
O O13 0.399698 0.721088 0.585736
O O14 0.220593 0.300838 0.970850
O O15 0.122120 0.500000 0.000000
O O16 0.780969 0.500000 0.500000
O O17 0.832056 0.291987 0.599082
#
# Coordination Sequence:
#
# PCOD8163888 Si02
#       8
#     8   8   8   2   8   8   8   8
#     4  10  22  43  68  98 125 174 213 281 319 397
#     4  10  21  39  69  98 129 164 224 259 331 387
#     4  11  23  42  69  98 130 179 215 271 327 403
#     4  12  28  48  66  96 126 176 216 284 336 412
#     4  10  23  40  61  94 137 181 214 248 316 409
#     4  11  25  39  62 100 138 165 217 269 322 374
#     4  10  21  41  66  96 126 175 215 266 322 396
#     4  11  26  45  71  91 129 168 230 270 340 393
#
# _framework density 21.351451999999998
#
# number of rings (size 3 to 8) (size 9 to 14) (size 15 to 20)
#    0.000    1.517    0.690    5.793    9.655    2.483 
#    0.000    1.724    0.000    0.000    0.000    0.000 
#    0.000    0.000    0.000    0.000    0.000    0.000 
#
# Total GULP energy -359256.024429 kJ/mol
# GULP energy per Si atom -12388.138773 kJ/mol
# Density = 2.130286 g / cm^3
# Si number density = 21.351452 Si / 1000 Ang^3
#
#
#
# Elastic Constant Matrix: (Units=GPa)
#
#
# Indices 1 2 3 4 5 6 
#
# 1 144.1075 36.4161 76.7909 0.0000 0.0000 0.0000
# 2 36.4161 58.3362 44.8634 0.0000 0.0000 0.0000
# 3 76.7909 44.8634 128.6983 0.0000 0.0000 0.0000
# 4 0.0000 0.0000 0.0000 29.8908 0.0000 0.0000
# 5 0.0000 0.0000 0.0000 0.0000 39.0796 0.0000
# 6 0.0000 0.0000 0.0000 0.0000 0.0000 30.1510
#
#
#
# Elastic Compliance Matrix: (Units=1/GPa)
#
#
# Indices 1 2 3 4 5 6 
#
# 1 0.010405 -0.002351 -0.005389 0.000000 0.000000 0.000000
# 2 -0.002351 0.023952 -0.006947 0.000000 0.000000 0.000000
# 3 -0.005389 -0.006947 0.013407 0.000000 0.000000 0.000000
# 4 0.000000 0.000000 0.000000 0.033455 0.000000 0.000000
# 5 0.000000 0.000000 0.000000 0.000000 0.025589 0.000000
# 6 0.000000 0.000000 0.000000 0.000000 0.000000 0.033166
#
#
# Mechanical properties :
#
#
# Convention : Reuss Voigt Hill
#
# Bulk Modulus (GPa) = 54.37464 71.92031 63.14748
# Shear Modulus (GPa) = 28.49366 31.36238 29.92802
#
# Velocity S-wave (km/s) = 3.65705 3.83673 3.74797
# Velocity P-wave (km/s) = 6.58436 7.30647 6.95480
#
# Compressibility (1/GPa) = 0.01839093
#
# Stress axis : x y z
#
# Youngs Moduli (GPa) = 96.10855 41.75014 74.58745
#
# Poissons Ratio (x) = 0.09815 0.40194
# Poissons Ratio (y) = 0.22595 0.51814
# Poissons Ratio (z) = 0.51791 0.29003
#
# Static dielectric constant tensor:
#      x y z
#    x 4.361170 0.000000 0.000000 
#    y 0.000000 4.112900 0.000000 
#    z 0.000000 0.000000 4.315550 
# 
# 
# High freq. dielectric constant tensor:
#      x y z
#    x 1.859680 0.000000 0.000000 
#    y 0.000000 1.811490 0.000000 
#    z 0.000000 0.000000 1.844300 
# 
# From -- ./inp_files/25089.got.cif
#   From: 2010.03.12/outbox.cif.g09.slc.cpg/sg23_13_cif.got.tgz:25089.got - 2010.04.14 02:50:06.
