data_PCOD8163861
_publ_section_title
;
Structure prediction by ZEFSAII (Michael W. Deem and Ramdas Pophale) SiO2 
 PCOD8163861
Probable space group: I 2 2 2
;
_chemical_formula_sum "Si O2"
_cell_formula_units_Z 52
_cell_length_a 19.289645
_cell_length_b 17.125672
_cell_length_c 8.315933
_cell_angle_alpha 90.000000
_cell_angle_beta 90.000000
_cell_angle_gamma 90.000000
_cell_volume 2747.152943
_symmetry_space_group_name_H-M "I 2 2 2"
_symmetry_group_IT_number 23
_symmetry_cell_setting 'orthorhombic'
loop_
_space_group_symop_operation_xyz
x,y,z
-x,-y,z
x,-y,-z
-x,y,-z
1/2+x,1/2+y,1/2+z
1/2-x,1/2-y,1/2+z
1/2+x,1/2-y,1/2-z
1/2-x,1/2+y,1/2-z
loop_
_atom_site_type_symbol
_atom_site_label
_atom_site_fract_x
_atom_site_fract_y
_atom_site_fract_z
Si Si1 0.816370 0.172420 0.488017
Si Si2 0.188393 0.704843 0.759722
Si Si3 0.539058 0.347058 0.854127
Si Si4 0.263007 0.948700 0.155592
Si Si5 0.607432 0.417362 0.569638
Si Si6 0.728633 0.500000 0.000000
Si Si7 0.057097 0.771082 0.877052
O O1 0.808233 0.215911 0.657267
O O2 0.753370 0.200821 0.378357
O O3 0.889207 0.195230 0.405515
O O4 0.816736 0.078708 0.518790
O O5 0.187251 0.626851 0.650512
O O6 0.116584 0.706024 0.858909
O O7 0.553340 0.408364 0.714178
O O8 0.482980 0.283692 0.791138
O O9 0.500000 0.390612 0.000000
O O10 0.184979 0.916018 0.139525
O O11 0.271931 0.992233 0.330437
O O12 0.282904 0.000000 0.000000
O O13 0.588437 0.500000 0.500000
O O14 0.595062 0.350045 0.438938
O O15 0.000000 0.738831 0.000000
#
# Coordination Sequence:
#
# PCOD8163861 Si02
#       7
#     8   8   8   8   8   4   8
#     4  11  24  38  61  90 120 160 206 260 304 380
#     4  11  22  39  62  89 117 165 215 245 321 365
#     4  11  21  39  51  85 121 155 207 250 300 360
#     4  10  22  39  64  90 126 160 208 271 313 362
#     4  10  21  39  54  80 121 173 204 243 308 369
#     4  10  22  40  55  90 131 160 206 256 314 360
#     4  10  23  37  57  84 126 160 204 253 298 379
#
# _framework density 18.928687
#
# number of rings (size 3 to 8) (size 9 to 14) (size 15 to 20)
#    0.000    1.538    4.615    0.923    8.615    2.769 
#    2.769    0.000    0.000    0.000    0.000   28.000 
#    0.000    0.000    0.000    0.000    0.000    0.000 
#
# Total GULP energy -322214.918344 kJ/mol
# GULP energy per Si atom -12392.881475 kJ/mol
# Density = 1.888560 g / cm^3
# Si number density = 18.928687 Si / 1000 Ang^3
#
#
#
# Elastic Constant Matrix: (Units=GPa)
#
#
# Indices 1 2 3 4 5 6 
#
# 1 126.1574 58.3323 54.3320 0.0000 0.0000 0.0000
# 2 58.3323 87.0773 50.1476 0.0000 0.0000 0.0000
# 3 54.3320 50.1476 113.8034 0.0000 0.0000 0.0000
# 4 0.0000 0.0000 0.0000 29.7281 0.0000 0.0000
# 5 0.0000 0.0000 0.0000 0.0000 27.1713 0.0000
# 6 0.0000 0.0000 0.0000 0.0000 0.0000 21.0217
#
#
#
# Elastic Compliance Matrix: (Units=1/GPa)
#
#
# Indices 1 2 3 4 5 6 
#
# 1 0.012193 -0.006453 -0.002977 0.000000 0.000000 0.000000
# 2 -0.006453 0.018805 -0.005206 0.000000 0.000000 0.000000
# 3 -0.002977 -0.005206 0.012502 0.000000 0.000000 0.000000
# 4 0.000000 0.000000 0.000000 0.033638 0.000000 0.000000
# 5 0.000000 0.000000 0.000000 0.000000 0.036804 0.000000
# 6 0.000000 0.000000 0.000000 0.000000 0.000000 0.047570
#
#
# Mechanical properties :
#
#
# Convention : Reuss Voigt Hill
#
# Bulk Modulus (GPa) = 70.28528 72.51799 71.40164
# Shear Modulus (GPa) = 25.57206 26.53264 26.05235
#
# Velocity S-wave (km/s) = 3.67954 3.74801 3.71393
# Velocity P-wave (km/s) = 7.43399 7.55807 7.49629
#
# Compressibility (1/GPa) = 0.01422773
#
# Stress axis : x y z
#
# Youngs Moduli (GPa) = 82.01668 53.17823 79.98456
#
# Poissons Ratio (x) = 0.34316 0.23815
# Poissons Ratio (y) = 0.52925 0.41636
# Poissons Ratio (z) = 0.24420 0.27682
#
# Static dielectric constant tensor:
#      x y z
#    x 3.509920 0.000000 0.000000 
#    y 0.000000 3.321970 0.000000 
#    z 0.000000 0.000000 3.822570 
# 
# 
# High freq. dielectric constant tensor:
#      x y z
#    x 1.725290 0.000000 0.000000 
#    y 0.000000 1.702100 0.000000 
#    z 0.000000 0.000000 1.759810 
# 
# From -- ./inp_files/11213.got.cif
#   From: 2010.03.12/outbox.cif.g09.slc.cpg/sg23_6_cif.got.tgz:11213.got - 2010.04.14 02:50:06.
