data_PCOD8163918
_publ_section_title
;
Structure prediction by ZEFSAII (Michael W. Deem and Ramdas Pophale) SiO2 
 PCOD8163918
Probable space group: I 2 2 2
;
_chemical_formula_sum "Si O2"
_cell_formula_units_Z 52
_cell_length_a 11.280344
_cell_length_b 8.028661
_cell_length_c 24.148692
_cell_angle_alpha 90.000000
_cell_angle_beta 90.000000
_cell_angle_gamma 90.000000
_cell_volume 2187.051839
_symmetry_space_group_name_H-M "I 2 2 2"
_symmetry_group_IT_number 23
_symmetry_cell_setting 'orthorhombic'
loop_
_space_group_symop_operation_xyz
x,y,z
-x,-y,z
x,-y,-z
-x,y,-z
1/2+x,1/2+y,1/2+z
1/2-x,1/2-y,1/2+z
1/2+x,1/2-y,1/2-z
1/2-x,1/2+y,1/2-z
loop_
_atom_site_type_symbol
_atom_site_label
_atom_site_fract_x
_atom_site_fract_y
_atom_site_fract_z
Si Si1 0.494242 0.314309 0.607679
Si Si2 0.765110 0.180293 0.059106
Si Si3 0.166393 0.288019 0.326829
Si Si4 0.748378 0.022553 0.264802
Si Si5 0.263424 0.200329 0.062078
Si Si6 0.426438 0.331013 0.155542
Si Si7 0.500000 0.000000 0.681042
O O1 0.500000 0.500000 0.636181
O O2 0.591753 0.323202 0.558433
O O3 0.367933 0.261249 0.583714
O O4 0.535747 0.166507 0.647720
O O5 0.716516 0.274419 0.113834
O O6 0.711098 0.995641 0.063942
O O7 0.723933 0.264546 0.001635
O O8 0.236535 0.450376 0.302518
O O9 0.023997 0.312018 0.331085
O O10 0.194300 0.153668 0.278697
O O11 0.832670 0.161369 0.294111
O O12 0.614075 0.048050 0.283913
O O13 0.359976 0.295367 0.098197
O O14 0.500000 0.500000 0.147604
#
# Coordination Sequence:
#
# PCOD8163918 Si02
#       7
#     8   8   8   8   8   8   4
#     4  10  21  40  72 107 145 183 230 299 360 424
#     4  10  22  41  69 109 139 184 240 290 352 440
#     4  11  26  44  69  96 139 181 240 289 353 426
#     4  11  26  45  67 100 136 181 237 294 352 424
#     4  10  21  42  72 102 147 184 227 295 366 419
#     4  10  24  47  67 101 140 182 234 294 358 435
#     4  12  22  42  73 106 136 183 242 292 360 432
#
# _framework density 23.776299999999999
#
# number of rings (size 3 to 8) (size 9 to 14) (size 15 to 20)
#    0.000    1.538    3.077    0.462    4.308    3.077 
#    0.000   13.846    0.000    0.000    0.000    0.000 
#    0.000    0.000    0.000    0.000    0.000    0.000 
#
# Total GULP energy -322231.367383 kJ/mol
# GULP energy per Si atom -12393.514130 kJ/mol
# Density = 2.372218 g / cm^3
# Si number density = 23.776300 Si / 1000 Ang^3
#
#
#
# Elastic Constant Matrix: (Units=GPa)
#
#
# Indices 1 2 3 4 5 6 
#
# 1 172.5472 18.9422 71.4462 0.0000 0.0000 0.0000
# 2 18.9422 58.1887 23.9601 0.0000 0.0000 0.0000
# 3 71.4462 23.9601 139.3350 0.0000 0.0000 0.0000
# 4 0.0000 0.0000 0.0000 29.0469 0.0000 0.0000
# 5 0.0000 0.0000 0.0000 0.0000 31.6010 0.0000
# 6 0.0000 0.0000 0.0000 0.0000 0.0000 33.4739
#
#
#
# Elastic Compliance Matrix: (Units=1/GPa)
#
#
# Indices 1 2 3 4 5 6 
#
# 1 0.007402 -0.000911 -0.003639 0.000000 0.000000 0.000000
# 2 -0.000911 0.018607 -0.002732 0.000000 0.000000 0.000000
# 3 -0.003639 -0.002732 0.009513 0.000000 0.000000 0.000000
# 4 0.000000 0.000000 0.000000 0.034427 0.000000 0.000000
# 5 0.000000 0.000000 0.000000 0.000000 0.031645 0.000000
# 6 0.000000 0.000000 0.000000 0.000000 0.000000 0.029874
#
#
# Mechanical properties :
#
#
# Convention : Reuss Voigt Hill
#
# Bulk Modulus (GPa) = 47.71682 66.52978 57.12330
# Shear Modulus (GPa) = 32.67568 35.87252 34.27410
#
# Velocity S-wave (km/s) = 3.71117 3.88848 3.80086
# Velocity P-wave (km/s) = 6.20293 6.94281 6.58328
#
# Compressibility (1/GPa) = 0.02095697
#
# Stress axis : x y z
#
# Youngs Moduli (GPa) = 135.09255 53.74249 105.12209
#
# Poissons Ratio (x) = 0.04898 0.38253
# Poissons Ratio (y) = 0.12311 0.28724
# Poissons Ratio (z) = 0.49160 0.14685
#
# Static dielectric constant tensor:
#      x y z
#    x 4.513130 0.000000 0.000000 
#    y 0.000000 4.148520 0.000000 
#    z 0.000000 0.000000 4.318490 
# 
# 
# High freq. dielectric constant tensor:
#      x y z
#    x 1.956790 0.000000 0.000000 
#    y 0.000000 1.928120 0.000000 
#    z 0.000000 0.000000 1.934980 
# 
# From -- ./inp_files/29433.got.cif
#   From: 2010.03.12/outbox.cif.g09.slc.cpg/sg23_15_cif.got.tgz:29433.got - 2010.04.14 02:50:06.
