data_PCOD8163971
_publ_section_title
;
Structure prediction by ZEFSAII (Michael W. Deem and Ramdas Pophale) SiO2 
 PCOD8163971
Probable space group: I 2 2 2
;
_chemical_formula_sum "Si O2"
_cell_formula_units_Z 56
_cell_length_a 22.790891
_cell_length_b 10.988113
_cell_length_c 10.617791
_cell_angle_alpha 90.000000
_cell_angle_beta 90.000000
_cell_angle_gamma 90.000000
_cell_volume 2659.001568
_symmetry_space_group_name_H-M "I 2 2 2"
_symmetry_group_IT_number 23
_symmetry_cell_setting 'orthorhombic'
loop_
_space_group_symop_operation_xyz
x,y,z
-x,-y,z
x,-y,-z
-x,y,-z
1/2+x,1/2+y,1/2+z
1/2-x,1/2-y,1/2+z
1/2+x,1/2-y,1/2-z
1/2-x,1/2+y,1/2-z
loop_
_atom_site_type_symbol
_atom_site_label
_atom_site_fract_x
_atom_site_fract_y
_atom_site_fract_z
Si Si1 0.967898 0.206516 0.131856
Si Si2 0.915537 0.245392 0.756715
Si Si3 0.247483 0.309102 0.967996
Si Si4 0.120892 0.360715 0.994410
Si Si5 0.372763 0.490492 0.351549
Si Si6 0.667113 0.103393 0.097682
Si Si7 0.741936 0.525948 0.206960
O O1 0.926437 0.098531 0.180236
O O2 0.013728 0.228668 0.246152
O O3 0.928645 0.328043 0.109264
O O4 0.000000 0.167955 0.000000
O O5 0.905914 0.335885 0.871117
O O6 0.888883 0.311294 0.633061
O O7 0.884535 0.117366 0.781686
O O8 0.283405 0.184800 0.969426
O O9 0.262193 0.387774 0.843391
O O10 0.178069 0.278001 0.968021
O O11 0.263718 0.380406 0.093554
O O12 0.141437 0.500000 0.000000
O O13 0.367018 0.500000 0.500000
O O14 0.311067 0.441763 0.300083
O O15 0.695801 0.043709 0.222331
O O16 0.646148 0.000000 0.000000
#
# Coordination Sequence:
#
# PCOD8163971 Si02
#       7
#     8   8   8   8   8   8   8
#     4  10  22  36  66 102 135 173 220 285 339 394
#     4  11  23  40  61  98 140 170 224 283 333 414
#     4  11  23  44  62  97 138 170 227 275 339 422
#     4  11  20  38  61  94 136 173 217 280 344 396
#     4  12  21  39  66 105 137 172 221 286 350 403
#     4  12  26  40  67  99 140 185 222 275 348 425
#     4  11  24  40  66  97 134 179 216 282 344 410
#
# _framework density 21.060538000000001
#
# number of rings (size 3 to 8) (size 9 to 14) (size 15 to 20)
#    0.000    0.857    7.143    1.714    4.000    2.571 
#    2.571    0.000    0.000    0.857    3.714    0.000 
#    0.000    0.000    0.000    0.000    0.000    0.000 
#
# Total GULP energy -347189.677205 kJ/mol
# GULP energy per Si atom -12399.631329 kJ/mol
# Density = 2.101260 g / cm^3
# Si number density = 21.060538 Si / 1000 Ang^3
#
#
#
# Elastic Constant Matrix: (Units=GPa)
#
#
# Indices 1 2 3 4 5 6 
#
# 1 133.9149 24.0117 40.8831 0.0000 0.0000 0.0000
# 2 24.0117 89.6118 36.9238 0.0000 0.0000 0.0000
# 3 40.8831 36.9238 72.4493 0.0000 0.0000 0.0000
# 4 0.0000 0.0000 0.0000 33.0348 0.0000 0.0000
# 5 0.0000 0.0000 0.0000 0.0000 23.4323 0.0000
# 6 0.0000 0.0000 0.0000 0.0000 0.0000 35.7555
#
#
#
# Elastic Compliance Matrix: (Units=1/GPa)
#
#
# Indices 1 2 3 4 5 6 
#
# 1 0.009033 -0.000405 -0.004891 0.000000 0.000000 0.000000
# 2 -0.000405 0.014144 -0.006980 0.000000 0.000000 0.000000
# 3 -0.004891 -0.006980 0.020120 0.000000 0.000000 0.000000
# 4 0.000000 0.000000 0.000000 0.030271 0.000000 0.000000
# 5 0.000000 0.000000 0.000000 0.000000 0.042676 0.000000
# 6 0.000000 0.000000 0.000000 0.000000 0.000000 0.027968
#
#
# Mechanical properties :
#
#
# Convention : Reuss Voigt Hill
#
# Bulk Modulus (GPa) = 53.34697 55.51257 54.42977
# Shear Modulus (GPa) = 28.56946 31.38835 29.97891
#
# Velocity S-wave (km/s) = 3.68712 3.86474 3.77697
# Velocity P-wave (km/s) = 6.59634 6.80667 6.70233
#
# Compressibility (1/GPa) = 0.01874521
#
# Stress axis : x y z
#
# Youngs Moduli (GPa) = 110.70210 70.70256 49.70195
#
# Poissons Ratio (x) = 0.02865 0.24309
# Poissons Ratio (y) = 0.04486 0.34691
# Poissons Ratio (z) = 0.54144 0.49348
#
# Static dielectric constant tensor:
#      x y z
#    x 4.139040 0.000000 0.000000 
#    y 0.000000 4.027590 0.000000 
#    z 0.000000 0.000000 3.661270 
# 
# 
# High freq. dielectric constant tensor:
#      x y z
#    x 1.832720 0.000000 0.000000 
#    y 0.000000 1.832390 0.000000 
#    z 0.000000 0.000000 1.792470 
# 
# From -- ./inp_files/17988.got.cif
#   From: 2010.03.12/outbox.cif.g09.slc.cpg/sg23_9_cif.got.tgz:17988.got - 2010.04.14 02:50:06.
