data_PCOD8163911
_publ_section_title
;
Structure prediction by ZEFSAII (Michael W. Deem and Ramdas Pophale) SiO2 
 PCOD8163911
Probable space group: I 2 2 2
;
_chemical_formula_sum "Si O2"
_cell_formula_units_Z 56
_cell_length_a 14.849129
_cell_length_b 16.476965
_cell_length_c 11.228330
_cell_angle_alpha 90.000000
_cell_angle_beta 90.000000
_cell_angle_gamma 90.000000
_cell_volume 2747.219544
_symmetry_space_group_name_H-M "I 2 2 2"
_symmetry_group_IT_number 23
_symmetry_cell_setting 'orthorhombic'
loop_
_space_group_symop_operation_xyz
x,y,z
-x,-y,z
x,-y,-z
-x,y,-z
1/2+x,1/2+y,1/2+z
1/2-x,1/2-y,1/2+z
1/2+x,1/2-y,1/2-z
1/2-x,1/2+y,1/2-z
loop_
_atom_site_type_symbol
_atom_site_label
_atom_site_fract_x
_atom_site_fract_y
_atom_site_fract_z
Si Si1 0.991565 0.328343 0.861482
Si Si2 0.846562 0.922894 0.653608
Si Si3 0.006204 0.198825 0.669038
Si Si4 0.829876 0.391792 0.726881
Si Si5 0.830014 0.895875 0.381657
Si Si6 0.406316 0.160025 0.020134
Si Si7 0.347531 0.082589 0.248006
O O1 0.890677 0.356971 0.833046
O O2 0.011738 0.244569 0.794145
O O3 0.060412 0.397274 0.816788
O O4 0.000000 0.311869 0.000000
O O5 0.943730 0.886207 0.679695
O O6 0.775055 0.880058 0.742386
O O7 0.811759 0.905533 0.521028
O O8 0.861020 0.018447 0.674824
O O9 0.057913 0.251581 0.567040
O O10 0.902136 0.176042 0.640163
O O11 0.854001 0.341783 0.606152
O O12 0.845272 0.487659 0.723242
O O13 0.734244 0.876805 0.320685
O O14 0.341993 0.121324 0.117120
O O15 0.500000 0.109549 0.000000
#
# Coordination Sequence:
#
# PCOD8163911 Si02
#       7
#     8   8   8   8   8   8   8
#     4  11  24  39  57  90 122 166 199 252 327 374
#     4  10  22  39  65  95 119 162 214 264 312 367
#     4  11  23  42  63  88 128 163 213 260 314 382
#     4  11  22  39  62  91 125 159 206 259 308 378
#     4  10  21  40  67  92 121 163 212 265 310 367
#     4  11  21  39  61  94 124 167 202 248 318 374
#     4  10  22  38  62  93 123 160 208 256 312 372
#
# _framework density 20.384246999999998
#
# number of rings (size 3 to 8) (size 9 to 14) (size 15 to 20)
#    0.000    1.429    2.857    3.429    0.000    6.286 
#    5.143    0.000    0.000    0.857    0.000    0.000 
#    0.000    0.000    0.000    0.000    0.000    0.000 
#
# Total GULP energy -346978.290633 kJ/mol
# GULP energy per Si atom -12392.081808 kJ/mol
# Density = 2.033785 g / cm^3
# Si number density = 20.384247 Si / 1000 Ang^3
#
#
#
# Elastic Constant Matrix: (Units=GPa)
#
#
# Indices 1 2 3 4 5 6 
#
# 1 64.1461 18.1020 28.4669 0.0000 0.0000 0.0000
# 2 18.1020 66.6342 33.0556 0.0000 0.0000 0.0000
# 3 28.4669 33.0556 120.4225 0.0000 0.0000 0.0000
# 4 0.0000 0.0000 0.0000 21.9930 0.0000 0.0000
# 5 0.0000 0.0000 0.0000 0.0000 30.3438 0.0000
# 6 0.0000 0.0000 0.0000 0.0000 0.0000 9.4809
#
#
#
# Elastic Compliance Matrix: (Units=1/GPa)
#
#
# Indices 1 2 3 4 5 6 
#
# 1 0.017993 -0.003216 -0.003371 0.000000 0.000000 0.000000
# 2 -0.003216 0.017948 -0.004166 0.000000 0.000000 0.000000
# 3 -0.003371 -0.004166 0.010245 0.000000 0.000000 0.000000
# 4 0.000000 0.000000 0.000000 0.045469 0.000000 0.000000
# 5 0.000000 0.000000 0.000000 0.000000 0.032956 0.000000
# 6 0.000000 0.000000 0.000000 0.000000 0.000000 0.105476
#
#
# Mechanical properties :
#
#
# Convention : Reuss Voigt Hill
#
# Bulk Modulus (GPa) = 40.51974 45.60576 43.06275
# Shear Modulus (GPa) = 19.24427 23.80210 21.52318
#
# Velocity S-wave (km/s) = 3.07591 3.42083 3.25295
# Velocity P-wave (km/s) = 5.70404 6.16639 5.93972
#
# Compressibility (1/GPa) = 0.02467933
#
# Stress axis : x y z
#
# Youngs Moduli (GPa) = 55.57795 55.71717 97.61301
#
# Poissons Ratio (x) = 0.17918 0.32901
# Poissons Ratio (y) = 0.17873 0.40669
# Poissons Ratio (z) = 0.18733 0.23214
#
# Static dielectric constant tensor:
#      x y z
#    x 3.830030 0.000000 0.000000 
#    y 0.000000 3.707450 0.000000 
#    z 0.000000 0.000000 4.050080 
# 
# 
# High freq. dielectric constant tensor:
#      x y z
#    x 1.797010 0.000000 0.000000 
#    y 0.000000 1.797380 0.000000 
#    z 0.000000 0.000000 1.792510 
# 
# From -- ./inp_files/16800.got.cif
#   From: 2010.03.12/outbox.cif.g09.slc.cpg/sg23_9_cif.got.tgz:16800.got - 2010.04.14 02:50:06.
