data_PCOD8163585
_publ_section_title
;
Structure prediction by ZEFSAII (Michael W. Deem and Ramdas Pophale) SiO2 
 PCOD8163585
Probable space group: I 2 2 2
;
_chemical_formula_sum "Si O2"
_cell_formula_units_Z 52
_cell_length_a 14.331233
_cell_length_b 19.273256
_cell_length_c 8.084413
_cell_angle_alpha 90.000000
_cell_angle_beta 90.000000
_cell_angle_gamma 90.000000
_cell_volume 2232.991854
_symmetry_space_group_name_H-M "I 2 2 2"
_symmetry_group_IT_number 23
_symmetry_cell_setting 'orthorhombic'
loop_
_space_group_symop_operation_xyz
x,y,z
-x,-y,z
x,-y,-z
-x,y,-z
1/2+x,1/2+y,1/2+z
1/2-x,1/2-y,1/2+z
1/2+x,1/2-y,1/2-z
1/2-x,1/2+y,1/2-z
loop_
_atom_site_type_symbol
_atom_site_label
_atom_site_fract_x
_atom_site_fract_y
_atom_site_fract_z
Si Si1 0.633229 0.625842 0.354275
Si Si2 0.986938 0.638648 0.304750
Si Si3 0.976845 0.204355 0.689843
Si Si4 0.792990 0.628432 0.123880
Si Si5 0.785886 0.000000 0.000000
Si Si6 0.207604 0.789361 0.869088
Si Si7 0.677821 0.089261 0.741165
O O1 0.530420 0.644420 0.291029
O O2 0.703261 0.598002 0.214001
O O3 0.638605 0.561171 0.477540
O O4 0.670017 0.694026 0.447963
O O5 0.005039 0.718463 0.250152
O O6 0.065283 0.588054 0.229607
O O7 0.000000 0.631380 0.500000
O O8 0.886379 0.615023 0.233325
O O9 0.000000 0.192901 0.500000
O O10 0.867472 0.194384 0.724680
O O11 0.766916 0.709547 0.113820
O O12 0.791868 0.588777 0.949750
O O13 0.719075 0.976104 0.154915
O O14 0.296549 0.837621 0.830669
#
# Coordination Sequence:
#
# PCOD8163585 Si02
#       7
#     8   8   8   8   4   8   8
#     4  11  22  40  59  83 122 162 197 243 295 355
#     4  10  20  36  61  95 127 151 185 242 313 372
#     4  10  20  35  61  96 124 149 190 246 308 369
#     4  11  21  35  64  95 119 151 197 250 309 368
#     4  10  26  44  60  78 114 170 214 244 292 350
#     4  10  20  35  60  95 125 154 188 242 315 370
#     4  11  22  40  60  86 123 161 202 248 293 356
#
# _framework density 23.287140999999998
#
# number of rings (size 3 to 8) (size 9 to 14) (size 15 to 20)
#    0.000    1.538    0.000    6.462    0.000    5.538 
#    0.000    9.615    0.000    7.385    0.000    0.000 
#    0.000    0.000    0.000    0.000    0.000    0.000 
#
# Total GULP energy -322223.368681 kJ/mol
# GULP energy per Si atom -12393.206488 kJ/mol
# Density = 2.323414 g / cm^3
# Si number density = 23.287141 Si / 1000 Ang^3
#
#
#
# Elastic Constant Matrix: (Units=GPa)
#
#
# Indices 1 2 3 4 5 6 
#
# 1 50.0660 5.5328 -9.4064 0.0000 0.0000 0.0000
# 2 5.5328 50.1175 1.2035 0.0000 0.0000 0.0000
# 3 -9.4064 1.2035 101.1253 0.0000 0.0000 0.0000
# 4 0.0000 0.0000 0.0000 26.5966 0.0000 0.0000
# 5 0.0000 0.0000 0.0000 0.0000 39.4706 0.0000
# 6 0.0000 0.0000 0.0000 0.0000 0.0000 25.8077
#
#
#
# Elastic Compliance Matrix: (Units=1/GPa)
#
#
# Indices 1 2 3 4 5 6 
#
# 1 0.020595 -0.002320 0.001943 0.000000 0.000000 0.000000
# 2 -0.002320 0.020220 -0.000456 0.000000 0.000000 0.000000
# 3 0.001943 -0.000456 0.010075 0.000000 0.000000 0.000000
# 4 0.000000 0.000000 0.000000 0.037599 0.000000 0.000000
# 5 0.000000 0.000000 0.000000 0.000000 0.025335 0.000000
# 6 0.000000 0.000000 0.000000 0.000000 0.000000 0.038748
#
#
# Mechanical properties :
#
#
# Convention : Reuss Voigt Hill
#
# Bulk Modulus (GPa) = 20.31554 21.77428 21.04491
# Shear Modulus (GPa) = 29.30022 31.97358 30.63690
#
# Velocity S-wave (km/s) = 3.55098 3.70944 3.63108
# Velocity P-wave (km/s) = 5.05524 5.26472 5.16104
#
# Compressibility (1/GPa) = 0.04922341
#
# Stress axis : x y z
#
# Youngs Moduli (GPa) = 48.55512 49.45547 99.25636
#
# Poissons Ratio (x) = 0.11475 -0.19289
# Poissons Ratio (y) = 0.11266 0.04531
# Poissons Ratio (z) = -0.09436 0.02257
#
# Static dielectric constant tensor:
#      x y z
#    x 4.137780 0.000000 0.000000 
#    y 0.000000 3.989090 0.000000 
#    z 0.000000 0.000000 4.391270 
# 
# 
# High freq. dielectric constant tensor:
#      x y z
#    x 1.916160 0.000000 0.000000 
#    y 0.000000 1.902140 0.000000 
#    z 0.000000 0.000000 1.930050 
# 
# From -- ./inp_files/10166.got.cif
#   From: 2010.03.12/outbox.cif.g09.slc.cpg/sg23_6_cif.got.tgz:10166.got - 2010.04.14 02:50:06.
