data_PCOD8163795
_publ_section_title
;
Structure prediction by ZEFSAII (Michael W. Deem and Ramdas Pophale) SiO2 
 PCOD8163795
Probable space group: I 2 2 2
;
_chemical_formula_sum "Si O2"
_cell_formula_units_Z 64
_cell_length_a 8.716166
_cell_length_b 29.855562
_cell_length_c 11.989265
_cell_angle_alpha 90.000000
_cell_angle_beta 90.000000
_cell_angle_gamma 90.000000
_cell_volume 3119.918887
_symmetry_space_group_name_H-M "I 2 2 2"
_symmetry_group_IT_number 23
_symmetry_cell_setting 'orthorhombic'
loop_
_space_group_symop_operation_xyz
x,y,z
-x,-y,z
x,-y,-z
-x,y,-z
1/2+x,1/2+y,1/2+z
1/2-x,1/2-y,1/2+z
1/2+x,1/2-y,1/2-z
1/2-x,1/2+y,1/2-z
loop_
_atom_site_type_symbol
_atom_site_label
_atom_site_fract_x
_atom_site_fract_y
_atom_site_fract_z
Si Si1 0.076936 0.278297 0.261359
Si Si2 0.902840 0.044012 0.729000
Si Si3 0.181593 0.095706 0.812380
Si Si4 0.244290 0.807016 0.793804
Si Si5 0.854796 0.638089 0.122441
Si Si6 0.802332 0.384231 0.126130
Si Si7 0.833180 0.493543 0.630257
Si Si8 0.671456 0.165973 0.032845
O O1 0.107421 0.226545 0.235385
O O2 0.127641 0.310295 0.159231
O O3 0.149915 0.293583 0.379337
O O4 0.895574 0.279273 0.268624
O O5 0.799948 0.069764 0.634102
O O6 0.008111 0.078559 0.798544
O O7 0.783744 0.029182 0.821458
O O8 0.000000 0.000000 0.682788
O O9 0.221318 0.115984 0.693045
O O10 0.294802 0.055977 0.836643
O O11 0.213693 0.130078 0.912269
O O12 0.230641 0.851157 0.718080
O O13 0.236924 0.819089 0.923873
O O14 0.013766 0.610446 0.145768
O O15 0.791775 0.636745 0.996938
O O16 0.832303 0.500000 0.500000
O O17 0.000000 0.500000 0.682763
O O18 0.500000 0.147093 0.000000
#
# Coordination Sequence:
#
# PCOD8163795 Si02
#       8
#     8   8   8   8   8   8   8   8
#     4   9  20  38  57  87 122 154 206 253 308 357
#     4  10  23  41  59  93 128 154 199 265 318 368
#     4  10  21  38  60  87 124 154 200 254 312 361
#     4  10  21  36  60  86 117 159 203 256 303 367
#     4   9  20  40  64  86 118 168 214 254 291 386
#     4  10  21  39  63  87 119 166 212 252 312 368
#     4  10  22  37  62  88 116 163 199 244 302 374
#     4   9  20  37  60  85 117 164 204 247 298 376
#
# _framework density 20.513354
#
# number of rings (size 3 to 8) (size 9 to 14) (size 15 to 20)
#    0.000    2.375    0.000    1.500    5.250    4.750 
#    0.000    5.625    0.000    6.750    0.000    0.000 
#    0.000    0.000    0.000    0.000    0.000    0.000 
#
# Total GULP energy -396564.223584 kJ/mol
# GULP energy per Si atom -12392.631987 kJ/mol
# Density = 2.046666 g / cm^3
# Si number density = 20.513354 Si / 1000 Ang^3
#
#
#
# Elastic Constant Matrix: (Units=GPa)
#
#
# Indices 1 2 3 4 5 6 
#
# 1 78.6907 44.2606 29.1907 0.0002 -0.0003 -0.0002
# 2 44.2606 78.1917 42.3800 0.0003 -0.0003 0.0002
# 3 29.1907 42.3800 120.3552 -0.0067 -0.0005 0.0013
# 4 0.0002 0.0003 -0.0067 59.1264 -0.0016 0.0007
# 5 -0.0003 -0.0003 -0.0005 -0.0016 22.5998 -0.0008
# 6 -0.0002 0.0002 0.0013 0.0007 -0.0008 40.1130
#
#
#
# Elastic Compliance Matrix: (Units=1/GPa)
#
#
# Indices 1 2 3 4 5 6 
#
# 1 0.018741 -0.010066 -0.001001 0.000000 0.000000 0.000000
# 2 -0.010066 0.021212 -0.005028 -0.000001 0.000000 0.000000
# 3 -0.001001 -0.005028 0.010322 0.000001 0.000000 0.000000
# 4 0.000000 -0.000001 0.000001 0.016913 0.000001 0.000000
# 5 0.000000 0.000000 0.000000 0.000001 0.044248 0.000001
# 6 0.000000 0.000000 0.000000 0.000000 0.000001 0.024930
#
#
# Mechanical properties :
#
#
# Convention : Reuss Voigt Hill
#
# Bulk Modulus (GPa) = 55.29295 56.54446 55.91871
# Shear Modulus (GPa) = 28.63958 35.12826 31.88392
#
# Velocity S-wave (km/s) = 3.74055 4.14268 3.94674
# Velocity P-wave (km/s) = 6.75787 7.10682 6.93454
#
# Compressibility (1/GPa) = 0.01808549
#
# Stress axis : x y z
#
# Youngs Moduli (GPa) = 53.35911 47.14308 96.88071
#
# Poissons Ratio (x) = 0.47453 0.09697
# Poissons Ratio (y) = 0.53710 0.48711
# Poissons Ratio (z) = 0.05341 0.23703
#
# Static dielectric constant tensor:
#      x y z
#    x 3.535720 0.000000 -0.000010 
#    y 0.000000 3.725290 0.000000 
#    z -0.000010 0.000000 3.689330 
# 
# 
# High freq. dielectric constant tensor:
#      x y z
#    x 1.805370 0.000000 0.000000 
#    y 0.000000 1.795950 0.000000 
#    z 0.000000 0.000000 1.800110 
# 
# From -- ./inp_files/14981.got.cif
#   From: 2010.03.12/outbox.cif.g09.slc.cpg/sg23_8_cif.got.tgz:14981.got - 2010.04.14 02:50:06.
