data_PCOD8163383
_publ_section_title
;
Structure prediction by ZEFSAII (Michael W. Deem and Ramdas Pophale) SiO2 
 PCOD8163383
Probable space group: I 2 2 2
;
_chemical_formula_sum "Si O2"
_cell_formula_units_Z 50
_cell_length_a 19.202805
_cell_length_b 9.538223
_cell_length_c 13.021124
_cell_angle_alpha 90.000000
_cell_angle_beta 90.000000
_cell_angle_gamma 90.000000
_cell_volume 2384.957357
_symmetry_space_group_name_H-M "I 2 2 2"
_symmetry_group_IT_number 23
_symmetry_cell_setting 'orthorhombic'
loop_
_space_group_symop_operation_xyz
x,y,z
-x,-y,z
x,-y,-z
-x,y,-z
1/2+x,1/2+y,1/2+z
1/2-x,1/2-y,1/2+z
1/2+x,1/2-y,1/2-z
1/2-x,1/2+y,1/2-z
loop_
_atom_site_type_symbol
_atom_site_label
_atom_site_fract_x
_atom_site_fract_y
_atom_site_fract_z
Si Si1 0.733443 0.843682 0.161629
Si Si2 0.575351 0.042765 0.319565
Si Si3 0.184099 0.685076 0.122934
Si Si4 0.500000 0.500000 0.500000
Si Si5 0.317143 0.650438 0.011210
Si Si6 0.377849 0.684784 0.434250
Si Si7 0.372172 0.924241 0.103678
O O1 0.725495 0.772947 0.273586
O O2 0.814508 0.872335 0.135477
O O3 0.697444 0.994943 0.141953
O O4 0.694491 0.726170 0.096082
O O5 0.602771 0.164239 0.392116
O O6 0.573092 0.077002 0.197458
O O7 0.500000 0.000000 0.357922
O O8 0.622824 0.911142 0.339183
O O9 0.241681 0.607245 0.055037
O O10 0.149832 0.808806 0.053086
O O11 0.447979 0.591336 0.428258
O O12 0.357206 0.760007 0.084156
O O13 0.357586 0.500000 0.000000
O O14 0.401684 0.000000 0.000000
#
# Coordination Sequence:
#
# PCOD8163383 Si02
#       7
#     8   8   8   2   8   8   8
#     4   9  20  37  61  90 121 162 210 272 321 375
#     4  11  22  39  62  89 118 166 216 262 306 390
#     4  10  20  37  62  89 119 156 212 271 318 366
#     4  12  28  40  54  88 140 198 198 242 336 420
#     4  10  19  33  56  91 124 152 193 262 332 372
#     4  11  23  40  59  91 130 172 215 257 328 401
#     4   9  20  38  62  94 121 157 212 265 331 371
#
# _framework density 20.964735999999998
#
# number of rings (size 3 to 8) (size 9 to 14) (size 15 to 20)
#    0.000    1.920    0.000    4.320    5.600    2.240 
#    2.880    0.000    0.000    0.000    0.000    1.120 
#    0.000    0.000    0.000    0.000    0.000    0.000 
#
# Total GULP energy -309739.601454 kJ/mol
# GULP energy per Si atom -12389.584058 kJ/mol
# Density = 2.091702 g / cm^3
# Si number density = 20.964736 Si / 1000 Ang^3
#
#
#
# Elastic Constant Matrix: (Units=GPa)
#
#
# Indices 1 2 3 4 5 6 
#
# 1 71.0716 26.6594 32.7323 0.0000 0.0000 0.0000
# 2 26.6594 88.5436 17.1956 0.0000 0.0000 0.0000
# 3 32.7323 17.1956 123.4187 0.0000 0.0000 0.0000
# 4 0.0000 0.0000 0.0000 20.1315 0.0000 0.0000
# 5 0.0000 0.0000 0.0000 0.0000 15.7736 0.0000
# 6 0.0000 0.0000 0.0000 0.0000 0.0000 16.5055
#
#
#
# Elastic Compliance Matrix: (Units=1/GPa)
#
#
# Indices 1 2 3 4 5 6 
#
# 1 0.017630 -0.004522 -0.004046 0.000000 0.000000 0.000000
# 2 -0.004522 0.012768 -0.000580 0.000000 0.000000 0.000000
# 3 -0.004046 -0.000580 0.009256 0.000000 0.000000 0.000000
# 4 0.000000 0.000000 0.000000 0.049673 0.000000 0.000000
# 5 0.000000 0.000000 0.000000 0.000000 0.063397 0.000000
# 6 0.000000 0.000000 0.000000 0.000000 0.000000 0.060586
#
#
# Mechanical properties :
#
#
# Convention : Reuss Voigt Hill
#
# Bulk Modulus (GPa) = 46.81863 48.46760 47.64312
# Shear Modulus (GPa) = 20.94456 24.24523 22.59490
#
# Velocity S-wave (km/s) = 3.16418 3.40439 3.28648
# Velocity P-wave (km/s) = 5.97746 6.21466 6.09721
#
# Compressibility (1/GPa) = 0.02135902
#
# Stress axis : x y z
#
# Youngs Moduli (GPa) = 56.72171 78.32031 108.03587
#
# Poissons Ratio (x) = 0.35420 0.43707
# Poissons Ratio (y) = 0.25652 0.06261
# Poissons Ratio (z) = 0.22947 0.04539
#
# Static dielectric constant tensor:
#      x y z
#    x 3.645930 0.000000 0.000000 
#    y 0.000000 4.558530 0.000000 
#    z 0.000000 0.000000 4.190720 
# 
# 
# High freq. dielectric constant tensor:
#      x y z
#    x 1.795860 0.000000 0.000000 
#    y 0.000000 1.814680 0.000000 
#    z 0.000000 0.000000 1.833840 
# 
# From -- ./inp_files/22053.got.cif
#   From: 2010.03.12/outbox.cif.g09.slc.cpg/sg23_12_cif.got.tgz:22053.got - 2010.04.14 02:50:06.
