data_PCOD8163878
_publ_section_title
;
Structure prediction by ZEFSAII (Michael W. Deem and Ramdas Pophale) SiO2 
 PCOD8163878
Probable space group: I 2 2 2
;
_chemical_formula_sum "Si O2"
_cell_formula_units_Z 48
_cell_length_a 8.789909
_cell_length_b 29.192251
_cell_length_c 8.750906
_cell_angle_alpha 90.000000
_cell_angle_beta 90.000000
_cell_angle_gamma 90.000000
_cell_volume 2245.458238
_symmetry_space_group_name_H-M "I 2 2 2"
_symmetry_group_IT_number 23
_symmetry_cell_setting 'orthorhombic'
loop_
_space_group_symop_operation_xyz
x,y,z
-x,-y,z
x,-y,-z
-x,y,-z
1/2+x,1/2+y,1/2+z
1/2-x,1/2-y,1/2+z
1/2+x,1/2-y,1/2-z
1/2-x,1/2+y,1/2-z
loop_
_atom_site_type_symbol
_atom_site_label
_atom_site_fract_x
_atom_site_fract_y
_atom_site_fract_z
Si Si1 0.706020 0.189079 0.313034
Si Si2 0.148079 0.844052 0.600743
Si Si3 0.994156 0.243753 0.322595
Si Si4 0.331307 0.494401 0.319165
Si Si5 0.329774 0.915026 0.801236
Si Si6 0.827738 0.596742 0.338032
O O1 0.717344 0.172174 0.487139
O O2 0.542784 0.212391 0.278588
O O3 0.741396 0.145583 0.205947
O O4 0.825587 0.229236 0.272432
O O5 0.100627 0.800777 0.704212
O O6 0.213243 0.882862 0.710333
O O7 0.000000 0.859959 0.500000
O O8 0.000000 0.258571 0.500000
O O9 0.500000 0.500000 0.249315
O O10 0.337611 0.500000 0.500000
O O11 0.217172 0.533300 0.256412
O O12 0.270810 0.444716 0.267748
O O13 0.505530 0.906901 0.760341
O O14 0.318600 0.906282 0.980815
#
# Coordination Sequence:
#
# PCOD8163878 Si02
#       6
#     8   8   8   8   8   8
#     4  10  22  41  64  89 126 162 214 257 320 385
#     4   9  22  42  62  90 129 170 209 264 328 383
#     4   9  22  41  60  86 125 159 212 264 312 369
#     4   9  19  36  62  95 127 160 210 266 317 372
#     4  10  21  39  65  89 134 163 207 268 320 384
#     4  10  22  37  64  97 122 167 216 262 319 382
#
# _framework density 21.376484000000001
#
# number of rings (size 3 to 8) (size 9 to 14) (size 15 to 20)
#    0.000    2.833    0.000    0.500    9.333    4.000 
#    3.000    7.500    0.000    2.000    0.000    0.000 
#    0.000    0.000    0.000    0.000    0.000    0.000 
#
# Total GULP energy -297464.618469 kJ/mol
# GULP energy per Si atom -12394.359103 kJ/mol
# Density = 2.132783 g / cm^3
# Si number density = 21.376484 Si / 1000 Ang^3
#
#
#
# Elastic Constant Matrix: (Units=GPa)
#
#
# Indices 1 2 3 4 5 6 
#
# 1 84.2981 41.5089 33.1626 -0.0041 -0.0028 -0.0018
# 2 41.5089 119.4238 29.7899 -0.0036 -0.0024 -0.0032
# 3 33.1626 29.7899 28.0467 0.0025 -0.0052 -0.0042
# 4 -0.0041 -0.0036 0.0025 22.0543 -0.0030 -0.0021
# 5 -0.0028 -0.0024 -0.0052 -0.0030 30.9814 0.0008
# 6 -0.0018 -0.0032 -0.0042 -0.0021 0.0008 42.2100
#
#
#
# Elastic Compliance Matrix: (Units=1/GPa)
#
#
# Indices 1 2 3 4 5 6 
#
# 1 0.022403 -0.001604 -0.024786 0.000007 -0.000002 -0.000002
# 2 -0.001604 0.011507 -0.010325 0.000003 -0.000001 0.000000
# 3 -0.024786 -0.010325 0.075929 -0.000015 0.000010 0.000006
# 4 0.000007 0.000003 -0.000015 0.045343 0.000004 0.000002
# 5 -0.000002 -0.000001 0.000010 0.000004 0.032277 -0.000001
# 6 -0.000002 0.000000 0.000006 0.000002 -0.000001 0.023691
#
#
# Mechanical properties :
#
#
# Convention : Reuss Voigt Hill
#
# Bulk Modulus (GPa) = 27.46630 48.96572 38.21601
# Shear Modulus (GPa) = 16.85111 27.53628 22.19369
#
# Velocity S-wave (km/s) = 2.81072 3.59298 3.22565
# Velocity P-wave (km/s) = 4.83841 6.33789 5.63822
#
# Compressibility (1/GPa) = 0.03640826
#
# Stress axis : x y z
#
# Youngs Moduli (GPa) = 44.63639 86.90622 13.17024
#
# Poissons Ratio (x) = 0.13940 0.32644
# Poissons Ratio (y) = 0.07160 0.13599
# Poissons Ratio (z) = 1.10636 0.89732
#
# Static dielectric constant tensor:
#      x y z
#    x 4.010710 0.000000 0.000000 
#    y 0.000000 3.910590 0.000000 
#    z 0.000000 0.000000 3.417340 
# 
# 
# High freq. dielectric constant tensor:
#      x y z
#    x 1.844820 0.000000 0.000000 
#    y 0.000000 1.848350 0.000000 
#    z 0.000000 0.000000 1.800810 
# 
# From -- ./inp_files/7379.got.cif
#   From: 2010.03.12/outbox.cif.g09.slc.cpg/sg23_4_cif.got.tgz:7379.got - 2010.04.14 02:50:06.
