data_PCOD8163321
_publ_section_title
;
Structure prediction by ZEFSAII (Michael W. Deem and Ramdas Pophale) SiO2 
 PCOD8163321
Probable space group: I 2 2 2
;
_chemical_formula_sum "Si O2"
_cell_formula_units_Z 52
_cell_length_a 14.409282
_cell_length_b 7.906205
_cell_length_c 20.899836
_cell_angle_alpha 90.000000
_cell_angle_beta 90.000000
_cell_angle_gamma 90.000000
_cell_volume 2380.966528
_symmetry_space_group_name_H-M "I 2 2 2"
_symmetry_group_IT_number 23
_symmetry_cell_setting 'orthorhombic'
loop_
_space_group_symop_operation_xyz
x,y,z
-x,-y,z
x,-y,-z
-x,y,-z
1/2+x,1/2+y,1/2+z
1/2-x,1/2-y,1/2+z
1/2+x,1/2-y,1/2-z
1/2-x,1/2+y,1/2-z
loop_
_atom_site_type_symbol
_atom_site_label
_atom_site_fract_x
_atom_site_fract_y
_atom_site_fract_z
Si Si1 0.805633 0.594636 0.631868
Si Si2 0.685869 0.693757 0.522913
Si Si3 0.681534 0.730644 0.387455
Si Si4 0.735152 0.930097 0.267171
Si Si5 0.000000 0.500000 0.336355
Si Si6 0.478466 0.198496 0.609022
Si Si7 0.105035 0.734186 0.755452
O O1 0.767848 0.716815 0.575743
O O2 0.738181 0.432275 0.633884
O O3 0.798694 0.675660 0.703050
O O4 0.913288 0.547233 0.618200
O O5 0.675337 0.500000 0.500000
O O6 0.714772 0.796196 0.458188
O O7 0.589019 0.763472 0.549875
O O8 0.689290 0.873842 0.333737
O O9 0.572092 0.691215 0.397176
O O10 0.848479 0.910510 0.270462
O O11 0.696954 0.116229 0.254195
O O12 0.026049 0.340254 0.290954
O O13 0.431756 0.262179 0.674082
O O14 0.500000 0.000000 0.611532
#
# Coordination Sequence:
#
# PCOD8163321 Si02
#       7
#     8   8   8   8   4   8   8
#     4  10  21  38  62  84 122 162 203 257 311 361
#     4  10  24  41  56  89 129 166 200 251 319 379
#     4  11  22  37  58  87 125 156 202 254 304 368
#     4  11  19  38  61  87 123 163 195 257 305 359
#     4  10  18  36  63  90 117 154 214 266 292 362
#     4  12  22  38  63  94 126 165 208 248 312 382
#     4  11  21  37  64  95 124 158 207 257 314 368
#
# _framework density 21.839870000000001
#
# number of rings (size 3 to 8) (size 9 to 14) (size 15 to 20)
#    0.000    1.231    6.923    1.385    0.000    5.538 
#    0.000    3.462    0.000    0.000    0.000    0.000 
#    0.000    5.538    0.000    0.000    0.000    0.000 
#
# Total GULP energy -322092.322211 kJ/mol
# GULP energy per Si atom -12388.166239 kJ/mol
# Density = 2.179016 g / cm^3
# Si number density = 21.839870 Si / 1000 Ang^3
#
#
#
# Elastic Constant Matrix: (Units=GPa)
#
#
# Indices 1 2 3 4 5 6 
#
# 1 140.1425 29.6543 51.3580 0.0000 0.0000 0.0000
# 2 29.6543 22.0191 8.0470 0.0000 0.0000 0.0000
# 3 51.3580 8.0470 156.7910 0.0000 0.0000 0.0000
# 4 0.0000 0.0000 0.0000 26.8633 0.0000 0.0000
# 5 0.0000 0.0000 0.0000 0.0000 35.5644 0.0000
# 6 0.0000 0.0000 0.0000 0.0000 0.0000 38.1717
#
#
#
# Elastic Compliance Matrix: (Units=1/GPa)
#
#
# Indices 1 2 3 4 5 6 
#
# 1 0.011169 -0.013967 -0.002942 0.000000 0.000000 0.000000
# 2 -0.013967 0.063749 0.001303 0.000000 0.000000 0.000000
# 3 -0.002942 0.001303 0.007275 0.000000 0.000000 0.000000
# 4 0.000000 0.000000 0.000000 0.037226 0.000000 0.000000
# 5 0.000000 0.000000 0.000000 0.000000 0.028118 0.000000
# 6 0.000000 0.000000 0.000000 0.000000 0.000000 0.026197
#
#
# Mechanical properties :
#
#
# Convention : Reuss Voigt Hill
#
# Bulk Modulus (GPa) = 19.61492 55.23015 37.42253
# Shear Modulus (GPa) = 22.52880 35.44608 28.98744
#
# Velocity S-wave (km/s) = 3.21525 4.03302 3.64713
# Velocity P-wave (km/s) = 4.77331 6.85788 5.90826
#
# Compressibility (1/GPa) = 0.05098160
#
# Stress axis : x y z
#
# Youngs Moduli (GPa) = 89.53315 15.68657 137.46455
#
# Poissons Ratio (x) = 0.21909 0.40438
# Poissons Ratio (y) = 1.25050 -0.17914
# Poissons Ratio (z) = 0.26338 -0.02044
#
# Static dielectric constant tensor:
#      x y z
#    x 4.189190 0.000000 0.000000 
#    y 0.000000 3.704620 0.000000 
#    z 0.000000 0.000000 4.811610 
# 
# 
# High freq. dielectric constant tensor:
#      x y z
#    x 1.855170 0.000000 0.000000 
#    y 0.000000 1.821890 0.000000 
#    z 0.000000 0.000000 1.875220 
# 
# From -- ./inp_files/26947.got.cif
#   From: 2010.03.12/outbox.cif.g09.slc.cpg/sg23_14_cif.got.tgz:26947.got - 2010.04.14 02:50:06.
