data_PCOD8163051
_publ_section_title
;
Structure prediction by ZEFSAII (Michael W. Deem and Ramdas Pophale) SiO2 
 PCOD8163051
Probable space group: F 2 2 2
;
_chemical_formula_sum "Si O2"
_cell_formula_units_Z 64
_cell_length_a 21.650353
_cell_length_b 8.643779
_cell_length_c 15.690148
_cell_angle_alpha 90.000000
_cell_angle_beta 90.000000
_cell_angle_gamma 90.000000
_cell_volume 2936.267894
_symmetry_space_group_name_H-M "F 2 2 2"
_symmetry_group_IT_number 22
_symmetry_cell_setting 'orthorhombic'
loop_
_space_group_symop_operation_xyz
x,y,z
-x,-y,z
x,-y,-z
-x,y,-z
x,1/2+y,1/2+z
-x,1/2-y,1/2+z
x,1/2-y,1/2-z
-x,1/2+y,1/2-z
1/2+x,y,1/2+z
1/2-x,-y,1/2+z
1/2+x,-y,1/2-z
1/2-x,y,1/2-z
1/2+x,1/2+y,z
1/2-x,1/2-y,z
1/2+x,1/2-y,-z
1/2-x,1/2+y,-z
loop_
_atom_site_type_symbol
_atom_site_label
_atom_site_fract_x
_atom_site_fract_y
_atom_site_fract_z
Si Si1 0.119534 0.385622 0.922280
Si Si2 0.750000 0.750000 0.618118
Si Si3 0.250000 0.003844 0.250000
Si Si4 0.119137 0.420084 0.244151
Si Si5 0.431247 0.063645 0.587162
O O1 0.188979 0.311652 0.932086
O O2 0.100572 0.477711 0.836796
O O3 0.069467 0.248708 0.922196
O O4 0.108215 0.500000 0.000000
O O5 0.727138 0.894285 0.673333
O O6 0.192002 0.110604 0.270941
O O7 0.087187 0.250000 0.250000
O O8 0.106677 0.512854 0.330269
O O9 0.500000 0.000000 0.596795
O O10 0.400369 0.000000 0.500000
#
# Coordination Sequence:
#
# PCOD8163051 Si02
#       5
#    16   8   8  16  16
#     4  11  23  43  68 102 141 182 236 288 355 420
#     4   9  18  36  64  96 137 182 216 285 342 414
#     4   9  17  36  62  94 136 178 220 274 340 412
#     4  11  22  40  65 100 137 181 228 283 350 409
#     4  11  25  46  69  97 134 184 239 294 344 410
#
# _framework density 21.796375999999999
#
# number of rings (size 3 to 8) (size 9 to 14) (size 15 to 20)
#    0.000    1.500    2.500    2.625    0.000    3.000 
#    9.000    7.500    0.000    0.000    0.000    0.000 
#    0.000    0.000    0.000    0.000    0.000    0.000 
#
# Total GULP energy -198215.108798 kJ/mol
# GULP energy per Si atom -12388.444300 kJ/mol
# Density = 2.174677 g / cm^3
# Si number density = 21.796376 Si / 1000 Ang^3
#
#
#
# Elastic Constant Matrix: (Units=GPa)
#
#
# Indices 1 2 3 4 5 6 
#
# 1 77.0182 46.5355 30.3206 0.0000 0.0000 0.0000
# 2 46.5355 183.6614 77.0838 0.0000 0.0000 0.0000
# 3 30.3206 77.0838 177.4935 0.0000 0.0000 0.0000
# 4 0.0000 0.0000 0.0000 29.8872 0.0000 0.0000
# 5 0.0000 0.0000 0.0000 0.0000 18.1360 0.0000
# 6 0.0000 0.0000 0.0000 0.0000 0.0000 34.9039
#
#
#
# Elastic Compliance Matrix: (Units=1/GPa)
#
#
# Indices 1 2 3 4 5 6 
#
# 1 0.015522 -0.003449 -0.001154 0.000000 0.000000 0.000000
# 2 -0.003449 0.007425 -0.002635 0.000000 0.000000 0.000000
# 3 -0.001154 -0.002635 0.006976 0.000000 0.000000 0.000000
# 4 0.000000 0.000000 0.000000 0.033459 0.000000 0.000000
# 5 0.000000 0.000000 0.000000 0.000000 0.055139 0.000000
# 6 0.000000 0.000000 0.000000 0.000000 0.000000 0.028650
#
#
# Mechanical properties :
#
#
# Convention : Reuss Voigt Hill
#
# Bulk Modulus (GPa) = 64.73933 82.89478 73.81706
# Shear Modulus (GPa) = 29.97695 35.53429 32.75562
#
# Velocity S-wave (km/s) = 3.71255 4.04206 3.88080
# Velocity P-wave (km/s) = 6.93857 7.73940 7.34990
#
# Compressibility (1/GPa) = 0.01544656
#
# Stress axis : x y z
#
# Youngs Moduli (GPa) = 64.42517 134.68607 143.35624
#
# Poissons Ratio (x) = 0.46448 0.16541
# Poissons Ratio (y) = 0.22218 0.37779
# Poissons Ratio (z) = 0.07434 0.35495
#
# Static dielectric constant tensor:
#      x y z
#    x 3.672770 0.000000 0.000000 
#    y 0.000000 4.035740 0.000000 
#    z 0.000000 0.000000 4.047050 
# 
# 
# High freq. dielectric constant tensor:
#      x y z
#    x 1.841120 0.000000 0.000000 
#    y 0.000000 1.873780 0.000000 
#    z 0.000000 0.000000 1.851680 
# 
# From -- ./inp_files/9855.got.cif
#   From: 2010.03.12/outbox.cif.g09.slc.cpg/sg22_5_cif.got.tgz:9855.got - 2010.04.14 02:24:06.
