data_PCOD8163159
_publ_section_title
;
Structure prediction by ZEFSAII (Michael W. Deem and Ramdas Pophale) SiO2 
 PCOD8163159
Probable space group: F 2 2 2
;
_chemical_formula_sum "Si O2"
_cell_formula_units_Z 40
_cell_length_a 7.420259
_cell_length_b 7.461179
_cell_length_c 27.651320
_cell_angle_alpha 90.000000
_cell_angle_beta 90.000000
_cell_angle_gamma 90.000000
_cell_volume 1530.884380
_symmetry_space_group_name_H-M "F 2 2 2"
_symmetry_group_IT_number 22
_symmetry_cell_setting 'orthorhombic'
loop_
_space_group_symop_operation_xyz
x,y,z
-x,-y,z
x,-y,-z
-x,y,-z
x,1/2+y,1/2+z
-x,1/2-y,1/2+z
x,1/2-y,1/2-z
-x,1/2+y,1/2-z
1/2+x,y,1/2+z
1/2-x,-y,1/2+z
1/2+x,-y,1/2-z
1/2-x,y,1/2-z
1/2+x,1/2+y,z
1/2-x,1/2-y,z
1/2+x,1/2-y,-z
1/2-x,1/2+y,-z
loop_
_atom_site_type_symbol
_atom_site_label
_atom_site_fract_x
_atom_site_fract_y
_atom_site_fract_z
Si Si1 0.500000 0.500000 0.625155
Si Si2 0.959952 0.795285 0.196877
Si Si3 0.205260 0.454563 0.554809
O O1 0.560729 0.667348 0.658554
O O2 0.333756 0.564784 0.591194
O O3 0.038084 0.750000 0.250000
O O4 0.750000 0.750000 0.194850
O O5 0.000000 0.000000 0.182985
O O6 0.256817 0.500000 0.500000
O O7 0.250000 0.250000 0.564560
O O8 0.000000 0.500000 0.566817
#
# Coordination Sequence:
#
# PCOD8163159 Si02
#       3
#     8  16  16
#     4  12  29  48  88 124 166 222 295 332 432 504
#     4  11  27  52  80 118 170 224 280 351 418 495
#     4  11  30  53  82 120 169 217 277 354 426 499
#
# _framework density 26.128689000000001
#
# number of rings (size 3 to 8) (size 9 to 14) (size 15 to 20)
#    0.000    0.800    2.000    0.600   22.400    0.000 
#    0.000    0.000    0.000    0.000    0.000    0.000 
#    0.000    0.000    0.000    0.000    0.000    0.000 
#
# Total GULP energy -124074.460524 kJ/mol
# GULP energy per Si atom -12407.446052 kJ/mol
# Density = 2.606922 g / cm^3
# Si number density = 26.128689 Si / 1000 Ang^3
#
#
#
# Elastic Constant Matrix: (Units=GPa)
#
#
# Indices 1 2 3 4 5 6 
#
# 1 146.6020 57.7434 88.8049 0.0000 0.0000 0.0000
# 2 57.7434 186.5066 60.8991 0.0000 0.0000 0.0000
# 3 88.8049 60.8991 215.7208 0.0000 0.0000 0.0000
# 4 0.0000 0.0000 0.0000 45.1872 0.0000 0.0000
# 5 0.0000 0.0000 0.0000 0.0000 5.4110 0.0000
# 6 0.0000 0.0000 0.0000 0.0000 0.0000 46.8701
#
#
#
# Elastic Compliance Matrix: (Units=1/GPa)
#
#
# Indices 1 2 3 4 5 6 
#
# 1 0.009640 -0.001860 -0.003443 0.000000 0.000000 0.000000
# 2 -0.001860 0.006265 -0.001003 0.000000 0.000000 0.000000
# 3 -0.003443 -0.001003 0.006336 0.000000 0.000000 0.000000
# 4 0.000000 0.000000 0.000000 0.022130 0.000000 0.000000
# 5 0.000000 0.000000 0.000000 0.000000 0.184809 0.000000
# 6 0.000000 0.000000 0.000000 0.000000 0.000000 0.021336
#
#
# Mechanical properties :
#
#
# Convention : Reuss Voigt Hill
#
# Bulk Modulus (GPa) = 103.85931 107.08049 105.46990
# Shear Modulus (GPa) = 18.77314 42.25247 30.51280
#
# Velocity S-wave (km/s) = 2.68337 4.02567 3.42100
# Velocity P-wave (km/s) = 7.03108 7.91700 7.48716
#
# Compressibility (1/GPa) = 0.00962841
#
# Stress axis : x y z
#
# Youngs Moduli (GPa) = 103.73899 159.61341 157.82400
#
# Poissons Ratio (x) = 0.29691 0.54341
# Poissons Ratio (y) = 0.19297 0.15828
# Poissons Ratio (z) = 0.35719 0.16008
#
# Static dielectric constant tensor:
#      x y z
#    x 4.309220 0.000000 0.000000 
#    y 0.000000 4.764240 0.000000 
#    z 0.000000 0.000000 5.344310 
# 
# 
# High freq. dielectric constant tensor:
#      x y z
#    x 2.042470 0.000000 0.000000 
#    y 0.000000 2.048030 0.000000 
#    z 0.000000 0.000000 2.076260 
# 
# From -- ./inp_files/51427.got.cif
#   From: 2010.03.12/outbox.cif.g09.slc.cpg/sg22_26_cif.got.tgz:51427.got - 2010.04.14 02:24:06.
