data_PCOD8163072
_publ_section_title
;
Structure prediction by ZEFSAII (Michael W. Deem and Ramdas Pophale) SiO2 
 PCOD8163072
Probable space group: F 2 2 2
;
_chemical_formula_sum "Si O2"
_cell_formula_units_Z 80
_cell_length_a 11.562017
_cell_length_b 27.890350
_cell_length_c 10.455609
_cell_angle_alpha 90.000000
_cell_angle_beta 90.000000
_cell_angle_gamma 90.000000
_cell_volume 3371.606651
_symmetry_space_group_name_H-M "F 2 2 2"
_symmetry_group_IT_number 22
_symmetry_cell_setting 'orthorhombic'
loop_
_space_group_symop_operation_xyz
x,y,z
-x,-y,z
x,-y,-z
-x,y,-z
x,1/2+y,1/2+z
-x,1/2-y,1/2+z
x,1/2-y,1/2-z
-x,1/2+y,1/2-z
1/2+x,y,1/2+z
1/2-x,-y,1/2+z
1/2+x,-y,1/2-z
1/2-x,y,1/2-z
1/2+x,1/2+y,z
1/2-x,1/2-y,z
1/2+x,1/2-y,-z
1/2-x,1/2+y,-z
loop_
_atom_site_type_symbol
_atom_site_label
_atom_site_fract_x
_atom_site_fract_y
_atom_site_fract_z
Si Si1 0.558783 0.949072 0.693624
Si Si2 0.368612 0.805037 0.210984
Si Si3 0.804204 0.650628 0.049549
Si Si4 0.079146 0.144834 0.186018
Si Si5 0.709699 0.449288 0.441465
O O1 0.455069 0.911054 0.674513
O O2 0.632742 0.938300 0.818719
O O3 0.651825 0.948399 0.579130
O O4 0.500000 0.000000 0.700931
O O5 0.363752 0.750000 0.250000
O O6 0.250000 0.831374 0.250000
O O7 0.460804 0.826070 0.309648
O O8 0.370471 0.817033 0.058014
O O9 0.863492 0.661981 0.182557
O O10 0.664843 0.659959 0.068772
O O11 0.823343 0.593792 0.035092
O O12 0.671180 0.500000 0.500000
#
# Coordination Sequence:
#
# PCOD8163072 Si02
#       5
#    16  16  16  16  16
#     4  11  23  38  62  99 142 192 244 286 355 430
#     4  11  25  48  71 103 137 183 240 301 371 433
#     4  11  24  45  72 105 144 187 240 296 367 438
#     4  11  24  45  73 104 144 190 236 302 368 435
#     4  11  23  38  62  99 144 190 240 291 347 430
#
# _framework density 23.727561000000001
#
# number of rings (size 3 to 8) (size 9 to 14) (size 15 to 20)
#    0.000    1.000    2.000    4.200    0.000   10.400 
#   14.400    1.000    0.000    0.000    0.000    0.000 
#    0.000    0.000    0.000    0.000    0.000    0.000 
#
# Total GULP energy -247785.327071 kJ/mol
# GULP energy per Si atom -12389.266354 kJ/mol
# Density = 2.367356 g / cm^3
# Si number density = 23.727561 Si / 1000 Ang^3
#
#
#
# Elastic Constant Matrix: (Units=GPa)
#
#
# Indices 1 2 3 4 5 6 
#
# 1 87.4420 35.8247 -10.6257 0.0000 0.0000 0.0000
# 2 35.8247 112.3821 28.5982 0.0000 0.0000 0.0000
# 3 -10.6257 28.5982 60.4527 0.0000 0.0000 0.0000
# 4 0.0000 0.0000 0.0000 30.4611 0.0000 0.0000
# 5 0.0000 0.0000 0.0000 0.0000 32.1275 0.0000
# 6 0.0000 0.0000 0.0000 0.0000 0.0000 23.5178
#
#
#
# Elastic Compliance Matrix: (Units=1/GPa)
#
#
# Indices 1 2 3 4 5 6 
#
# 1 0.014558 -0.006016 0.005405 0.000000 0.000000 0.000000
# 2 -0.006016 0.012602 -0.007019 0.000000 0.000000 0.000000
# 3 0.005405 -0.007019 0.020812 0.000000 0.000000 0.000000
# 4 0.000000 0.000000 0.000000 0.032829 0.000000 0.000000
# 5 0.000000 0.000000 0.000000 0.000000 0.031126 0.000000
# 6 0.000000 0.000000 0.000000 0.000000 0.000000 0.042521
#
#
# Mechanical properties :
#
#
# Convention : Reuss Voigt Hill
#
# Bulk Modulus (GPa) = 30.57031 40.87458 35.72244
# Shear Modulus (GPa) = 27.68362 30.98660 29.33511
#
# Velocity S-wave (km/s) = 3.41945 3.61769 3.51996
# Velocity P-wave (km/s) = 5.33873 5.89188 5.62211
#
# Compressibility (1/GPa) = 0.03271148
#
# Stress axis : x y z
#
# Youngs Moduli (GPa) = 68.69241 79.35171 48.04845
#
# Poissons Ratio (x) = 0.47738 -0.25969
# Poissons Ratio (y) = 0.41325 0.33726
# Poissons Ratio (z) = -0.37126 0.55698
#
# Static dielectric constant tensor:
#      x y z
#    x 4.907610 0.000000 0.000000 
#    y 0.000000 4.040240 0.000000 
#    z 0.000000 0.000000 4.367000 
# 
# 
# High freq. dielectric constant tensor:
#      x y z
#    x 1.962360 0.000000 0.000000 
#    y 0.000000 1.926100 0.000000 
#    z 0.000000 0.000000 1.940780 
# 
# From -- ./inp_files/18290.got.cif
#   From: 2010.03.12/outbox.cif.g09.slc.cpg/sg22_10_cif.got.tgz:18290.got - 2010.04.14 02:24:06.
