data_PCOD8163590
_publ_section_title
;
Structure prediction by ZEFSAII (Michael W. Deem and Ramdas Pophale) SiO2 
 PCOD8163590
Probable space group: I 2 2 2
;
_chemical_formula_sum "Si O2"
_cell_formula_units_Z 48
_cell_length_a 9.201274
_cell_length_b 17.306267
_cell_length_c 13.765239
_cell_angle_alpha 90.000000
_cell_angle_beta 90.000000
_cell_angle_gamma 90.000000
_cell_volume 2191.972592
_symmetry_space_group_name_H-M "I 2 2 2"
_symmetry_group_IT_number 23
_symmetry_cell_setting 'orthorhombic'
loop_
_space_group_symop_operation_xyz
x,y,z
-x,-y,z
x,-y,-z
-x,y,-z
1/2+x,1/2+y,1/2+z
1/2-x,1/2-y,1/2+z
1/2+x,1/2-y,1/2-z
1/2-x,1/2+y,1/2-z
loop_
_atom_site_type_symbol
_atom_site_label
_atom_site_fract_x
_atom_site_fract_y
_atom_site_fract_z
Si Si1 0.994985 0.641261 0.610788
Si Si2 0.014021 0.185147 0.888773
Si Si3 0.135707 0.334285 0.066483
Si Si4 0.641720 0.044495 0.273542
Si Si5 0.204212 0.772205 0.609103
Si Si6 0.789950 0.105859 0.775049
O O1 0.101580 0.588198 0.674448
O O2 0.047645 0.730859 0.614996
O O3 0.000000 0.610993 0.500000
O O4 0.831173 0.636199 0.649475
O O5 0.920029 0.262747 0.868103
O O6 0.949671 0.116923 0.822087
O O7 0.180092 0.204668 0.862846
O O8 0.000000 0.159235 0.000000
O O9 0.193237 0.399563 0.139627
O O10 0.267657 0.304830 0.999254
O O11 0.000000 0.362857 0.000000
O O12 0.500000 0.000000 0.312650
O O13 0.770390 0.984167 0.250688
O O14 0.219952 0.845364 0.677503
#
# Coordination Sequence:
#
# PCOD8163590 Si02
#       6
#     8   8   8   8   8   8
#     4  11  22  37  57  84 115 150 193 239 283 327
#     4   9  18  35  56  80 112 152 197 231 271 335
#     4   9  17  33  56  83 113 148 190 234 280 333
#     4  10  21  34  54  86 120 150 183 234 291 340
#     4  10  20  35  61  86 112 150 190 238 282 334
#     4  11  21  35  57  88 117 148 187 234 289 339
#
# _framework density 21.898084000000001
#
# number of rings (size 3 to 8) (size 9 to 14) (size 15 to 20)
#    0.000    2.333    0.000    8.000    0.000    5.333 
#    0.000    0.833    0.000    4.000    0.000    3.500 
#    0.000    2.667    0.000    0.000    0.000    0.000 
#
# Total GULP energy -297562.067490 kJ/mol
# GULP energy per Si atom -12398.419479 kJ/mol
# Density = 2.184824 g / cm^3
# Si number density = 21.898084 Si / 1000 Ang^3
#
#
#
# Elastic Constant Matrix: (Units=GPa)
#
#
# Indices 1 2 3 4 5 6 
#
# 1 36.6858 29.9150 26.6149 0.0000 0.0000 0.0000
# 2 29.9150 97.8363 53.4785 0.0000 0.0000 0.0000
# 3 26.6149 53.4785 83.2111 0.0000 0.0000 0.0000
# 4 0.0000 0.0000 0.0000 40.6376 0.0000 0.0000
# 5 0.0000 0.0000 0.0000 0.0000 23.5780 0.0000
# 6 0.0000 0.0000 0.0000 0.0000 0.0000 25.5213
#
#
#
# Elastic Compliance Matrix: (Units=1/GPa)
#
#
# Indices 1 2 3 4 5 6 
#
# 1 0.039082 -0.007888 -0.007431 0.000000 0.000000 0.000000
# 2 -0.007888 0.017348 -0.008627 0.000000 0.000000 0.000000
# 3 -0.007431 -0.008627 0.019938 0.000000 0.000000 0.000000
# 4 0.000000 0.000000 0.000000 0.024608 0.000000 0.000000
# 5 0.000000 0.000000 0.000000 0.000000 0.042412 0.000000
# 6 0.000000 0.000000 0.000000 0.000000 0.000000 0.039183
#
#
# Mechanical properties :
#
#
# Convention : Reuss Voigt Hill
#
# Bulk Modulus (GPa) = 35.11501 48.63890 41.87695
# Shear Modulus (GPa) = 20.83726 25.12904 22.98315
#
# Velocity S-wave (km/s) = 3.08808 3.39122 3.24319
# Velocity P-wave (km/s) = 5.36521 6.13136 5.76103
#
# Compressibility (1/GPa) = 0.02847785
#
# Stress axis : x y z
#
# Youngs Moduli (GPa) = 25.58755 57.64189 50.15436
#
# Poissons Ratio (x) = 0.45469 0.37267
# Poissons Ratio (y) = 0.20184 0.43266
# Poissons Ratio (z) = 0.19013 0.49725
#
# Static dielectric constant tensor:
#      x y z
#    x 3.736340 0.000000 0.000000 
#    y 0.000000 3.876420 0.000000 
#    z 0.000000 0.000000 3.895720 
# 
# 
# High freq. dielectric constant tensor:
#      x y z
#    x 1.837570 0.000000 0.000000 
#    y 0.000000 1.845310 0.000000 
#    z 0.000000 0.000000 1.866680 
# 
# From -- ./inp_files/20009.got.cif
#   From: 2010.03.12/outbox.cif.g09.slc.cpg/sg23_11_cif.got.tgz:20009.got - 2010.04.14 02:50:06.
