data_PCOD8163833
_publ_section_title
;
Structure prediction by ZEFSAII (Michael W. Deem and Ramdas Pophale) SiO2 
 PCOD8163833
Probable space group: I 2 2 2
;
_chemical_formula_sum "Si O2"
_cell_formula_units_Z 64
_cell_length_a 10.973840
_cell_length_b 8.961923
_cell_length_c 33.050637
_cell_angle_alpha 90.000000
_cell_angle_beta 90.000000
_cell_angle_gamma 90.000000
_cell_volume 3250.421382
_symmetry_space_group_name_H-M "I 2 2 2"
_symmetry_group_IT_number 23
_symmetry_cell_setting 'orthorhombic'
loop_
_space_group_symop_operation_xyz
x,y,z
-x,-y,z
x,-y,-z
-x,y,-z
1/2+x,1/2+y,1/2+z
1/2-x,1/2-y,1/2+z
1/2+x,1/2-y,1/2-z
1/2-x,1/2+y,1/2-z
loop_
_atom_site_type_symbol
_atom_site_label
_atom_site_fract_x
_atom_site_fract_y
_atom_site_fract_z
Si Si1 0.572114 0.218070 0.311748
Si Si2 0.520158 0.167881 0.842663
Si Si3 0.916578 0.861668 0.271144
Si Si4 0.648105 0.833633 0.457129
Si Si5 0.818320 0.598243 0.821014
Si Si6 0.285783 0.200878 0.889060
Si Si7 0.220237 0.135847 0.123346
Si Si8 0.629348 0.179060 0.450637
O O1 0.619630 0.263156 0.267588
O O2 0.427102 0.205019 0.306148
O O3 0.608049 0.337402 0.346044
O O4 0.631928 0.066670 0.328384
O O5 0.490821 0.271960 0.804880
O O6 0.430512 0.197068 0.880864
O O7 0.656329 0.201716 0.857060
O O8 0.500000 0.000000 0.827024
O O9 0.786634 0.912754 0.287782
O O10 0.000000 0.000000 0.257462
O O11 0.754274 0.740989 0.435058
O O12 0.513087 0.798619 0.440209
O O13 0.656178 0.776709 0.503116
O O14 0.671438 0.007676 0.448667
O O15 0.771092 0.666806 0.862587
O O16 0.226866 0.041141 0.880344
O O17 0.203660 0.216273 0.080058
#
# Coordination Sequence:
#
# PCOD8163833 Si02
#       8
#     8   8   8   8   8   8   8   8
#     4  11  25  38  59  82 114 151 187 245 294 348
#     4   9  22  42  59  80 115 161 195 239 298 352
#     4  11  25  39  62  84 112 150 202 243 291 349
#     4   9  18  36  59  85 121 152 193 229 295 355
#     4  10  24  41  56  83 114 152 191 232 300 350
#     4  10  21  38  60  84 116 155 195 241 288 356
#     4  11  22  37  60  86 118 150 198 246 294 344
#     4   9  19  35  59  87 117 157 185 240 290 353
#
# _framework density 19.689754000000001
#
# number of rings (size 3 to 8) (size 9 to 14) (size 15 to 20)
#    0.000    2.000    0.000    3.000    7.000    6.000 
#    0.000    1.875    0.000    3.750    0.000    0.000 
#    0.000    0.000    0.000    0.000    0.000    0.000 
#
# Total GULP energy -396764.055020 kJ/mol
# GULP energy per Si atom -12398.876719 kJ/mol
# Density = 1.964494 g / cm^3
# Si number density = 19.689754 Si / 1000 Ang^3
#
#
#
# Elastic Constant Matrix: (Units=GPa)
#
#
# Indices 1 2 3 4 5 6 
#
# 1 83.0376 34.4922 29.7211 0.0000 0.0000 0.0000
# 2 34.4922 70.3926 33.6681 0.0000 0.0000 0.0000
# 3 29.7211 33.6681 90.6355 0.0000 0.0000 0.0000
# 4 0.0000 0.0000 0.0000 34.3767 0.0000 0.0000
# 5 0.0000 0.0000 0.0000 0.0000 27.5815 0.0000
# 6 0.0000 0.0000 0.0000 0.0000 0.0000 29.1482
#
#
#
# Elastic Compliance Matrix: (Units=1/GPa)
#
#
# Indices 1 2 3 4 5 6 
#
# 1 0.015676 -0.006351 -0.002781 0.000000 0.000000 0.000000
# 2 -0.006351 0.019848 -0.005290 0.000000 0.000000 0.000000
# 3 -0.002781 -0.005290 0.013910 0.000000 0.000000 0.000000
# 4 0.000000 0.000000 0.000000 0.029089 0.000000 0.000000
# 5 0.000000 0.000000 0.000000 0.000000 0.036256 0.000000
# 6 0.000000 0.000000 0.000000 0.000000 0.000000 0.034307
#
#
# Mechanical properties :
#
#
# Convention : Reuss Voigt Hill
#
# Bulk Modulus (GPa) = 48.56826 48.86983 48.71905
# Shear Modulus (GPa) = 27.05670 27.96691 27.51180
#
# Velocity S-wave (km/s) = 3.71098 3.77288 3.74206
# Velocity P-wave (km/s) = 6.56370 6.62218 6.59300
#
# Compressibility (1/GPa) = 0.02058958
#
# Stress axis : x y z
#
# Youngs Moduli (GPa) = 63.79026 50.38191 71.88834
#
# Poissons Ratio (x) = 0.31998 0.19995
# Poissons Ratio (y) = 0.40514 0.38032
# Poissons Ratio (z) = 0.17742 0.26654
#
# Static dielectric constant tensor:
#      x y z
#    x 3.672650 0.000000 0.000000 
#    y 0.000000 3.566060 0.000000 
#    z 0.000000 0.000000 3.488150 
# 
# 
# High freq. dielectric constant tensor:
#      x y z
#    x 1.764920 0.000000 0.000000 
#    y 0.000000 1.772160 0.000000 
#    z 0.000000 0.000000 1.765090 
# 
# From -- ./inp_files/30470.got.cif
#   From: 2010.03.12/outbox.cif.g09.slc.cpg/sg23_16_cif.got.tgz:30470.got - 2010.04.14 02:50:06.
