data_PCOD8163769
_publ_section_title
;
Structure prediction by ZEFSAII (Michael W. Deem and Ramdas Pophale) SiO2 
 PCOD8163769
Probable space group: I 2 2 2
;
_chemical_formula_sum "Si O2"
_cell_formula_units_Z 38
_cell_length_a 7.328939
_cell_length_b 14.030376
_cell_length_c 17.441486
_cell_angle_alpha 90.000000
_cell_angle_beta 90.000000
_cell_angle_gamma 90.000000
_cell_volume 1793.469108
_symmetry_space_group_name_H-M "I 2 2 2"
_symmetry_group_IT_number 23
_symmetry_cell_setting 'orthorhombic'
loop_
_space_group_symop_operation_xyz
x,y,z
-x,-y,z
x,-y,-z
-x,y,-z
1/2+x,1/2+y,1/2+z
1/2-x,1/2-y,1/2+z
1/2+x,1/2-y,1/2-z
1/2-x,1/2+y,1/2-z
loop_
_atom_site_type_symbol
_atom_site_label
_atom_site_fract_x
_atom_site_fract_y
_atom_site_fract_z
Si Si1 0.045842 0.206659 0.859970
Si Si2 0.324813 0.348469 0.890925
Si Si3 0.794979 0.490460 0.230010
Si Si4 0.000000 0.000000 0.854447
Si Si5 0.500000 0.500000 0.000000
Si Si6 0.815806 0.190063 0.312336
O O1 0.171563 0.270779 0.917549
O O2 0.148999 0.206595 0.777691
O O3 0.037372 0.099996 0.898686
O O4 0.842389 0.245349 0.847885
O O5 0.227241 0.395359 0.818219
O O6 0.506322 0.292122 0.864640
O O7 0.366908 0.429950 0.952883
O O8 0.674709 0.475745 0.304160
O O9 0.734526 0.579042 0.177343
O O10 0.000000 0.500000 0.259285
#
# Coordination Sequence:
#
# PCOD8163769 Si02
#       6
#     8   8   8   4   2   8
#     4  11  21  33  57  88 122 164 213 260 327 374
#     4  12  22  39  57  87 128 170 211 254 311 388
#     4  11  18  31  53  83 120 162 201 248 322 381
#     4  10  21  34  50  85 129 153 198 272 318 378
#     4  12  26  44  62  88 142 180 212 250 314 402
#     4  11  19  32  56  87 120 161 208 262 325 379
#
# _framework density 21.187988000000001
#
# number of rings (size 3 to 8) (size 9 to 14) (size 15 to 20)
#    0.000    0.842   10.526    0.000    0.000    0.000 
#    0.000    4.737    0.000    0.000    0.000    4.421 
#    0.000    0.000    0.000    0.000    0.000    0.000 
#
# Total GULP energy -235459.174592 kJ/mol
# GULP energy per Si atom -12392.588136 kJ/mol
# Density = 2.113976 g / cm^3
# Si number density = 21.187988 Si / 1000 Ang^3
#
#
#
# Elastic Constant Matrix: (Units=GPa)
#
#
# Indices 1 2 3 4 5 6 
#
# 1 151.4205 49.1220 20.0316 0.0000 0.0000 0.0000
# 2 49.1220 166.5900 16.9980 0.0000 0.0000 0.0000
# 3 20.0316 16.9980 26.0343 0.0000 0.0000 0.0000
# 4 0.0000 0.0000 0.0000 22.8795 0.0000 0.0000
# 5 0.0000 0.0000 0.0000 0.0000 27.0319 0.0000
# 6 0.0000 0.0000 0.0000 0.0000 0.0000 44.4098
#
#
#
# Elastic Compliance Matrix: (Units=1/GPa)
#
#
# Indices 1 2 3 4 5 6 
#
# 1 0.007834 -0.001816 -0.004842 0.000000 0.000000 0.000000
# 2 -0.001816 0.006852 -0.003077 0.000000 0.000000 0.000000
# 3 -0.004842 -0.003077 0.044145 0.000000 0.000000 0.000000
# 4 0.000000 0.000000 0.000000 0.043707 0.000000 0.000000
# 5 0.000000 0.000000 0.000000 0.000000 0.036993 0.000000
# 6 0.000000 0.000000 0.000000 0.000000 0.000000 0.022518
#
#
# Mechanical properties :
#
#
# Convention : Reuss Voigt Hill
#
# Bulk Modulus (GPa) = 25.40511 57.37199 41.38855
# Shear Modulus (GPa) = 25.68863 36.05713 30.87288
#
# Velocity S-wave (km/s) = 3.48575 4.12973 3.82133
# Velocity P-wave (km/s) = 5.31197 7.06229 6.24872
#
# Compressibility (1/GPa) = 0.03936216
#
# Stress axis : x y z
#
# Youngs Moduli (GPa) = 127.65274 145.94012 22.65256
#
# Poissons Ratio (x) = 0.26501 0.10968
# Poissons Ratio (y) = 0.23180 0.06969
# Poissons Ratio (z) = 0.61808 0.44900
#
# Static dielectric constant tensor:
#      x y z
#    x 4.002460 0.000000 0.000000 
#    y 0.000000 3.889870 0.000000 
#    z 0.000000 0.000000 3.173030 
# 
# 
# High freq. dielectric constant tensor:
#      x y z
#    x 1.848010 0.000000 0.000000 
#    y 0.000000 1.855260 0.000000 
#    z 0.000000 0.000000 1.750130 
# 
# From -- ./inp_files/23647.got.cif
#   From: 2010.03.12/outbox.cif.g09.slc.cpg/sg23_12_cif.got.tgz:23647.got - 2010.04.14 02:50:06.
