data_PCOD8163205
_publ_section_title
;
Structure prediction by ZEFSAII (Michael W. Deem and Ramdas Pophale) SiO2 
 PCOD8163205
Probable space group: I 2 2 2
;
_chemical_formula_sum "Si O2"
_cell_formula_units_Z 40
_cell_length_a 5.136904
_cell_length_b 11.888823
_cell_length_c 29.910454
_cell_angle_alpha 90.000000
_cell_angle_beta 90.000000
_cell_angle_gamma 90.000000
_cell_volume 1826.683542
_symmetry_space_group_name_H-M "I 2 2 2"
_symmetry_group_IT_number 23
_symmetry_cell_setting 'orthorhombic'
loop_
_space_group_symop_operation_xyz
x,y,z
-x,-y,z
x,-y,-z
-x,y,-z
1/2+x,1/2+y,1/2+z
1/2-x,1/2-y,1/2+z
1/2+x,1/2-y,1/2-z
1/2-x,1/2+y,1/2-z
loop_
_atom_site_type_symbol
_atom_site_label
_atom_site_fract_x
_atom_site_fract_y
_atom_site_fract_z
Si Si1 0.250208 0.307681 0.529898
Si Si2 0.954618 0.237808 0.807049
Si Si3 0.468725 0.371135 0.784539
Si Si4 0.251689 0.573430 0.378787
Si Si5 0.251229 0.949732 0.450144
O O1 0.500000 0.335853 0.500000
O O2 0.216857 0.395845 0.569503
O O3 0.264579 0.183541 0.550338
O O4 0.000000 0.320489 0.500000
O O5 0.758112 0.334965 0.795481
O O6 0.935791 0.141939 0.768900
O O7 0.828381 0.185420 0.851785
O O8 0.242092 0.297758 0.810387
O O9 0.500000 0.500000 0.798662
O O10 0.500000 0.500000 0.371482
O O11 0.000000 0.500000 0.362433
O O12 0.500000 0.000000 0.424143
O O13 0.249942 0.000000 0.500000
O O14 0.000000 0.000000 0.424614
#
# Coordination Sequence:
#
# PCOD8163205 Si02
#       5
#     8   8   8   8   8
#     4  12  23  39  64  89 119 159 218 268 309 381
#     4  10  22  40  64  97 130 173 215 256 320 393
#     4  10  20  38  69  98 131 166 212 264 313 383
#     4  12  27  45  63  88 128 170 217 269 324 381
#     4  10  16  32  58  84 108 143 189 248 301 383
#
# _framework density 21.897607000000001
#
# number of rings (size 3 to 8) (size 9 to 14) (size 15 to 20)
#    0.000    1.200    4.000    3.600    0.000    5.600 
#    0.000    3.000    0.000    0.000    0.000    0.000 
#    0.000    0.000    0.000    0.000    0.000    0.000 
#
# Total GULP energy -247767.697308 kJ/mol
# GULP energy per Si atom -12388.384865 kJ/mol
# Density = 2.184777 g / cm^3
# Si number density = 21.897607 Si / 1000 Ang^3
#
#
#
# Elastic Constant Matrix: (Units=GPa)
#
#
# Indices 1 2 3 4 5 6 
#
# 1 173.4397 21.8356 21.0292 0.0000 0.0000 0.0000
# 2 21.8356 70.8794 17.4260 0.0000 0.0000 0.0000
# 3 21.0292 17.4260 58.2043 0.0000 0.0000 0.0000
# 4 0.0000 0.0000 0.0000 17.5762 0.0000 0.0000
# 5 0.0000 0.0000 0.0000 0.0000 17.6100 0.0000
# 6 0.0000 0.0000 0.0000 0.0000 0.0000 31.2920
#
#
#
# Elastic Compliance Matrix: (Units=1/GPa)
#
#
# Indices 1 2 3 4 5 6 
#
# 1 0.006167 -0.001459 -0.001791 0.000000 0.000000 0.000000
# 2 -0.001459 0.015575 -0.004136 0.000000 0.000000 0.000000
# 3 -0.001791 -0.004136 0.019066 0.000000 0.000000 0.000000
# 4 0.000000 0.000000 0.000000 0.056895 0.000000 0.000000
# 5 0.000000 0.000000 0.000000 0.000000 0.056786 0.000000
# 6 0.000000 0.000000 0.000000 0.000000 0.000000 0.031957
#
#
# Mechanical properties :
#
#
# Convention : Reuss Voigt Hill
#
# Bulk Modulus (GPa) = 38.40943 47.01166 42.71055
# Shear Modulus (GPa) = 23.82128 29.44449 26.63289
#
# Velocity S-wave (km/s) = 3.30183 3.67092 3.49126
# Velocity P-wave (km/s) = 5.66698 6.28355 5.98321
#
# Compressibility (1/GPa) = 0.02603527
#
# Stress axis : x y z
#
# Youngs Moduli (GPa) = 162.16422 64.20606 52.44888
#
# Poissons Ratio (x) = 0.09370 0.09394
# Poissons Ratio (y) = 0.23666 0.21691
# Poissons Ratio (z) = 0.29044 0.26554
#
# Static dielectric constant tensor:
#      x y z
#    x 3.896590 0.000000 0.000000 
#    y 0.000000 3.867180 0.000000 
#    z 0.000000 0.000000 3.580240 
# 
# 
# High freq. dielectric constant tensor:
#      x y z
#    x 1.892030 0.000000 0.000000 
#    y 0.000000 1.868530 0.000000 
#    z 0.000000 0.000000 1.825780 
# 
# From -- ./inp_files/28864.got.cif
#   From: 2010.03.12/outbox.cif.g09.slc.cpg/sg23_15_cif.got.tgz:28864.got - 2010.04.14 02:50:06.
