data_PCOD8163875
_publ_section_title
;
Structure prediction by ZEFSAII (Michael W. Deem and Ramdas Pophale) SiO2 
 PCOD8163875
Probable space group: I 2 2 2
;
_chemical_formula_sum "Si O2"
_cell_formula_units_Z 64
_cell_length_a 12.045586
_cell_length_b 9.025814
_cell_length_c 27.888591
_cell_angle_alpha 90.000000
_cell_angle_beta 90.000000
_cell_angle_gamma 90.000000
_cell_volume 3032.081603
_symmetry_space_group_name_H-M "I 2 2 2"
_symmetry_group_IT_number 23
_symmetry_cell_setting 'orthorhombic'
loop_
_space_group_symop_operation_xyz
x,y,z
-x,-y,z
x,-y,-z
-x,y,-z
1/2+x,1/2+y,1/2+z
1/2-x,1/2-y,1/2+z
1/2+x,1/2-y,1/2-z
1/2-x,1/2+y,1/2-z
loop_
_atom_site_type_symbol
_atom_site_label
_atom_site_fract_x
_atom_site_fract_y
_atom_site_fract_z
Si Si1 0.790686 0.822811 0.697755
Si Si2 0.099748 0.299407 0.860284
Si Si3 0.778796 0.162874 0.712161
Si Si4 0.489645 0.323569 0.847379
Si Si5 0.953110 0.831863 0.547744
Si Si6 0.707353 0.717824 0.533489
Si Si7 0.866266 0.381767 0.882767
Si Si8 0.381362 0.422862 0.441976
O O1 0.718117 0.725622 0.734185
O O2 0.739437 0.816215 0.644578
O O3 0.915474 0.763430 0.688968
O O4 0.789967 0.988329 0.718181
O O5 0.160992 0.284805 0.809522
O O6 0.149169 0.441692 0.888484
O O7 0.117248 0.149049 0.889812
O O8 0.971201 0.333502 0.850539
O O9 0.873826 0.226281 0.676446
O O10 0.500000 0.500000 0.850789
O O11 0.504268 0.259791 0.901888
O O12 0.820741 0.811014 0.540681
O O13 0.000000 0.749320 0.500000
O O14 0.000000 0.000000 0.546728
O O15 0.618425 0.811387 0.564690
O O16 0.657214 0.704127 0.479923
O O17 0.712580 0.551619 0.556018
O O18 0.500000 0.500000 0.454702
#
# Coordination Sequence:
#
# PCOD8163875 Si02
#       8
#     8   8   8   8   8   8   8   8
#     4  10  21  41  62  89 126 162 212 268 334 395
#     4  10  23  39  62  95 127 165 219 276 330 394
#     4  10  23  39  64  90 125 164 208 277 331 400
#     4   9  19  39  62  90 122 160 209 262 323 384
#     4  10  22  38  67  97 122 167 221 271 323 389
#     4  11  22  40  65  91 130 178 210 269 334 396
#     4  10  21  39  64  94 124 166 221 277 327 390
#     4  11  24  42  64  93 142 178 215 269 341 414
#
# _framework density 21.107610999999999
#
# number of rings (size 3 to 8) (size 9 to 14) (size 15 to 20)
#    0.000    1.875    2.500    0.750    5.250    2.500 
#    0.000    2.500    0.000    0.000    0.000    0.000 
#    0.000    0.000    0.000    0.000    0.000    0.000 
#
# Total GULP energy -396464.574851 kJ/mol
# GULP energy per Si atom -12389.517964 kJ/mol
# Density = 2.105957 g / cm^3
# Si number density = 21.107611 Si / 1000 Ang^3
#
#
#
# Elastic Constant Matrix: (Units=GPa)
#
#
# Indices 1 2 3 4 5 6 
#
# 1 109.2169 18.0248 24.8807 0.0000 0.0000 0.0000
# 2 18.0248 54.0633 28.7322 0.0000 0.0000 0.0000
# 3 24.8807 28.7322 90.8122 0.0000 0.0000 0.0000
# 4 0.0000 0.0000 0.0000 33.1716 0.0000 0.0000
# 5 0.0000 0.0000 0.0000 0.0000 32.6603 0.0000
# 6 0.0000 0.0000 0.0000 0.0000 0.0000 28.1334
#
#
#
# Elastic Compliance Matrix: (Units=1/GPa)
#
#
# Indices 1 2 3 4 5 6 
#
# 1 0.009989 -0.002255 -0.002023 0.000000 0.000000 0.000000
# 2 -0.002255 0.022745 -0.006578 0.000000 0.000000 0.000000
# 3 -0.002023 -0.006578 0.013647 0.000000 0.000000 0.000000
# 4 0.000000 0.000000 0.000000 0.030146 0.000000 0.000000
# 5 0.000000 0.000000 0.000000 0.000000 0.030618 0.000000
# 6 0.000000 0.000000 0.000000 0.000000 0.000000 0.035545
#
#
# Mechanical properties :
#
#
# Convention : Reuss Voigt Hill
#
# Bulk Modulus (GPa) = 40.53877 44.15197 42.34537
# Shear Modulus (GPa) = 28.96415 30.95670 29.96043
#
# Velocity S-wave (km/s) = 3.70836 3.83379 3.77160
# Velocity P-wave (km/s) = 6.13053 6.36869 6.25074
#
# Compressibility (1/GPa) = 0.02466775
#
# Stress axis : x y z
#
# Youngs Moduli (GPa) = 100.10804 43.96610 73.27385
#
# Poissons Ratio (x) = 0.09915 0.14826
# Poissons Ratio (y) = 0.22575 0.48202
# Poissons Ratio (z) = 0.20255 0.28923
#
# Static dielectric constant tensor:
#      x y z
#    x 3.914870 0.000000 0.000000 
#    y 0.000000 3.593200 0.000000 
#    z 0.000000 0.000000 3.805760 
# 
# 
# High freq. dielectric constant tensor:
#      x y z
#    x 1.830580 0.000000 0.000000 
#    y 0.000000 1.794960 0.000000 
#    z 0.000000 0.000000 1.828310 
# 
# From -- ./inp_files/30486.got.cif
#   From: 2010.03.12/outbox.cif.g09.slc.cpg/sg23_16_cif.got.tgz:30486.got - 2010.04.14 02:50:06.
