data_PCOD8163821
_publ_section_title
;
Structure prediction by ZEFSAII (Michael W. Deem and Ramdas Pophale) SiO2 
 PCOD8163821
Probable space group: I 2 2 2
;
_chemical_formula_sum "Si O2"
_cell_formula_units_Z 48
_cell_length_a 13.350767
_cell_length_b 10.609721
_cell_length_c 17.189519
_cell_angle_alpha 90.000000
_cell_angle_beta 90.000000
_cell_angle_gamma 90.000000
_cell_volume 2434.859492
_symmetry_space_group_name_H-M "I 2 2 2"
_symmetry_group_IT_number 23
_symmetry_cell_setting 'orthorhombic'
loop_
_space_group_symop_operation_xyz
x,y,z
-x,-y,z
x,-y,-z
-x,y,-z
1/2+x,1/2+y,1/2+z
1/2-x,1/2-y,1/2+z
1/2+x,1/2-y,1/2-z
1/2-x,1/2+y,1/2-z
loop_
_atom_site_type_symbol
_atom_site_label
_atom_site_fract_x
_atom_site_fract_y
_atom_site_fract_z
Si Si1 0.930026 0.330907 0.220211
Si Si2 0.238861 0.741944 0.651077
Si Si3 0.144882 0.398463 0.204600
Si Si4 0.627460 0.140356 0.022182
Si Si5 0.693358 0.488798 0.909797
Si Si6 0.442557 0.273971 0.110089
O O1 0.858035 0.254921 0.161777
O O2 0.878081 0.464170 0.240679
O O3 0.943106 0.258343 0.300311
O O4 0.037483 0.342074 0.177760
O O5 0.191502 0.690256 0.729943
O O6 0.223696 0.644912 0.578836
O O7 0.185588 0.874644 0.630306
O O8 0.219476 0.406594 0.131703
O O9 0.542882 0.219946 0.070075
O O10 0.648071 0.209319 0.939917
O O11 0.593696 0.000000 0.000000
O O12 0.584044 0.422859 0.898373
O O13 0.722306 0.500000 0.000000
#
# Coordination Sequence:
#
# PCOD8163821 Si02
#       6
#     8   8   8   8   8   8
#     4  10  21  37  63  89 118 166 212 263 307 385
#     4  11  21  39  59  90 124 164 214 261 324 386
#     4  10  21  39  61  88 123 159 222 261 311 384
#     4  11  23  36  61  94 126 164 210 262 322 384
#     4  11  23  40  59  90 132 168 203 267 338 388
#     4  11  20  36  58  90 129 154 202 258 327 380
#
# _framework density 19.713663
#
# number of rings (size 3 to 8) (size 9 to 14) (size 15 to 20)
#    0.000    1.333    5.000    2.000    2.333    0.667 
#    0.000    6.667    0.000    0.000    0.000    2.333 
#    0.000    0.000    0.000    0.000    0.000    0.000 
#
# Total GULP energy -297346.818724 kJ/mol
# GULP energy per Si atom -12389.450780 kJ/mol
# Density = 1.966879 g / cm^3
# Si number density = 19.713663 Si / 1000 Ang^3
#
#
#
# Elastic Constant Matrix: (Units=GPa)
#
#
# Indices 1 2 3 4 5 6 
#
# 1 94.4535 48.1744 38.5088 0.0000 0.0000 0.0000
# 2 48.1744 73.6555 43.1562 0.0000 0.0000 0.0000
# 3 38.5088 43.1562 104.0292 0.0000 0.0000 0.0000
# 4 0.0000 0.0000 0.0000 36.3065 0.0000 0.0000
# 5 0.0000 0.0000 0.0000 0.0000 29.8905 0.0000
# 6 0.0000 0.0000 0.0000 0.0000 0.0000 25.5516
#
#
#
# Elastic Compliance Matrix: (Units=1/GPa)
#
#
# Indices 1 2 3 4 5 6 
#
# 1 0.016233 -0.009375 -0.002120 0.000000 0.000000 0.000000
# 2 -0.009375 0.023351 -0.006217 0.000000 0.000000 0.000000
# 3 -0.002120 -0.006217 0.012976 0.000000 0.000000 0.000000
# 4 0.000000 0.000000 0.000000 0.027543 0.000000 0.000000
# 5 0.000000 0.000000 0.000000 0.000000 0.033455 0.000000
# 6 0.000000 0.000000 0.000000 0.000000 0.000000 0.039137
#
#
# Mechanical properties :
#
#
# Convention : Reuss Voigt Hill
#
# Bulk Modulus (GPa) = 58.35271 59.09076 58.72174
# Shear Modulus (GPa) = 25.79559 27.83630 26.81594
#
# Velocity S-wave (km/s) = 3.62126 3.76178 3.69219
# Velocity P-wave (km/s) = 6.86652 6.99339 6.93025
#
# Compressibility (1/GPa) = 0.01713716
#
# Stress axis : x y z
#
# Youngs Moduli (GPa) = 61.60235 42.82462 77.06349
#
# Poissons Ratio (x) = 0.40149 0.16336
# Poissons Ratio (y) = 0.57754 0.47908
# Poissons Ratio (z) = 0.13058 0.26622
#
# Static dielectric constant tensor:
#      x y z
#    x 3.806900 0.000000 0.000000 
#    y 0.000000 3.725510 0.000000 
#    z 0.000000 0.000000 3.973290 
# 
# 
# High freq. dielectric constant tensor:
#      x y z
#    x 1.757150 0.000000 0.000000 
#    y 0.000000 1.771870 0.000000 
#    z 0.000000 0.000000 1.764430 
# 
# From -- ./inp_files/24725.got.cif
#   From: 2010.03.12/outbox.cif.g09.slc.cpg/sg23_13_cif.got.tgz:24725.got - 2010.04.14 02:50:06.
