data_PCOD8163823
_publ_section_title
;
Structure prediction by ZEFSAII (Michael W. Deem and Ramdas Pophale) SiO2 
 PCOD8163823
Probable space group: I 2 2 2
;
_chemical_formula_sum "Si O2"
_cell_formula_units_Z 48
_cell_length_a 29.283607
_cell_length_b 8.110427
_cell_length_c 9.297646
_cell_angle_alpha 90.000000
_cell_angle_beta 90.000000
_cell_angle_gamma 90.000000
_cell_volume 2208.214698
_symmetry_space_group_name_H-M "I 2 2 2"
_symmetry_group_IT_number 23
_symmetry_cell_setting 'orthorhombic'
loop_
_space_group_symop_operation_xyz
x,y,z
-x,-y,z
x,-y,-z
-x,y,-z
1/2+x,1/2+y,1/2+z
1/2-x,1/2-y,1/2+z
1/2+x,1/2-y,1/2-z
1/2-x,1/2+y,1/2-z
loop_
_atom_site_type_symbol
_atom_site_label
_atom_site_fract_x
_atom_site_fract_y
_atom_site_fract_z
Si Si1 0.182267 0.812604 0.267746
Si Si2 0.902736 0.713235 0.880823
Si Si3 0.334563 0.817147 0.062688
Si Si4 0.998226 0.812734 0.829323
Si Si5 0.090442 0.659873 0.799472
Si Si6 0.757570 0.095514 0.648591
O O1 0.139341 0.827531 0.163806
O O2 0.160894 0.804945 0.427236
O O3 0.210949 0.646431 0.228669
O O4 0.213169 0.974768 0.249662
O O5 0.894931 0.524202 0.839068
O O6 0.947799 0.752971 0.787593
O O7 0.905291 0.757352 0.049942
O O8 0.375749 0.780122 0.173650
O O9 0.285914 0.766623 0.131788
O O10 0.335303 0.000000 0.000000
O O11 0.037532 0.698285 0.754240
O O12 0.000000 0.000000 0.775889
O O13 0.000000 0.793387 0.000000
O O14 0.745579 0.000000 0.500000
#
# Coordination Sequence:
#
# PCOD8163823 Si02
#       6
#     8   8   8   8   8   8
#     4  11  23  41  64  90 127 166 212 263 322 382
#     4  10  21  37  65  91 123 166 213 261 312 384
#     4  11  22  41  64  92 126 168 205 263 323 384
#     4   9  19  37  61  93 127 157 205 266 321 374
#     4  10  21  37  64  92 126 162 211 258 319 386
#     4  10  25  42  65  94 130 169 220 269 321 385
#
# _framework density 21.737017999999999
#
# number of rings (size 3 to 8) (size 9 to 14) (size 15 to 20)
#    0.000    1.833    1.667    1.500    4.667    3.333 
#    0.000    4.167    0.000    1.000    0.000    0.000 
#    0.000    0.000    0.000    0.000    0.000    0.000 
#
# Total GULP energy -297381.794903 kJ/mol
# GULP energy per Si atom -12390.908121 kJ/mol
# Density = 2.168754 g / cm^3
# Si number density = 21.737018 Si / 1000 Ang^3
#
#
#
# Elastic Constant Matrix: (Units=GPa)
#
#
# Indices 1 2 3 4 5 6 
#
# 1 152.1203 24.2868 71.2961 0.0000 0.0000 0.0000
# 2 24.2868 48.2781 21.8986 0.0000 0.0000 0.0000
# 3 71.2961 21.8986 82.2124 0.0000 0.0000 0.0000
# 4 0.0000 0.0000 0.0000 22.9494 0.0000 0.0000
# 5 0.0000 0.0000 0.0000 0.0000 36.1719 0.0000
# 6 0.0000 0.0000 0.0000 0.0000 0.0000 24.1794
#
#
#
# Elastic Compliance Matrix: (Units=1/GPa)
#
#
# Indices 1 2 3 4 5 6 
#
# 1 0.011157 -0.001392 -0.009305 0.000000 0.000000 0.000000
# 2 -0.001392 0.023734 -0.005115 0.000000 0.000000 0.000000
# 3 -0.009305 -0.005115 0.021595 0.000000 0.000000 0.000000
# 4 0.000000 0.000000 0.000000 0.043574 0.000000 0.000000
# 5 0.000000 0.000000 0.000000 0.000000 0.027646 0.000000
# 6 0.000000 0.000000 0.000000 0.000000 0.000000 0.041358
#
#
# Mechanical properties :
#
#
# Convention : Reuss Voigt Hill
#
# Bulk Modulus (GPa) = 40.22045 57.50817 48.86431
# Shear Modulus (GPa) = 23.92647 27.66875 25.79761
#
# Velocity S-wave (km/s) = 3.32132 3.57162 3.44874
# Velocity P-wave (km/s) = 5.76642 6.59715 6.19572
#
# Compressibility (1/GPa) = 0.02486298
#
# Stress axis : x y z
#
# Youngs Moduli (GPa) = 89.63029 42.13439 46.30664
#
# Poissons Ratio (x) = 0.05865 0.43087
# Poissons Ratio (y) = 0.12477 0.23684
# Poissons Ratio (z) = 0.83398 0.21550
#
# Static dielectric constant tensor:
#      x y z
#    x 4.144520 0.000000 0.000000 
#    y 0.000000 3.788850 0.000000 
#    z 0.000000 0.000000 3.830190 
# 
# 
# High freq. dielectric constant tensor:
#      x y z
#    x 1.864350 0.000000 0.000000 
#    y 0.000000 1.849300 0.000000 
#    z 0.000000 0.000000 1.825700 
# 
# From -- ./inp_files/7325.got.cif
#   From: 2010.03.12/outbox.cif.g09.slc.cpg/sg23_4_cif.got.tgz:7325.got - 2010.04.14 02:50:06.
