data_PCOD8163777
_publ_section_title
;
Structure prediction by ZEFSAII (Michael W. Deem and Ramdas Pophale) SiO2 
 PCOD8163777
Probable space group: I 2 2 2
;
_chemical_formula_sum "Si O2"
_cell_formula_units_Z 56
_cell_length_a 21.929731
_cell_length_b 15.669059
_cell_length_c 7.914325
_cell_angle_alpha 90.000000
_cell_angle_beta 90.000000
_cell_angle_gamma 90.000000
_cell_volume 2719.506498
_symmetry_space_group_name_H-M "I 2 2 2"
_symmetry_group_IT_number 23
_symmetry_cell_setting 'orthorhombic'
loop_
_space_group_symop_operation_xyz
x,y,z
-x,-y,z
x,-y,-z
-x,y,-z
1/2+x,1/2+y,1/2+z
1/2-x,1/2-y,1/2+z
1/2+x,1/2-y,1/2-z
1/2-x,1/2+y,1/2-z
loop_
_atom_site_type_symbol
_atom_site_label
_atom_site_fract_x
_atom_site_fract_y
_atom_site_fract_z
Si Si1 0.665204 0.169264 0.630444
Si Si2 0.009285 0.095956 0.802023
Si Si3 0.438174 0.886201 0.400015
Si Si4 0.247039 0.583077 0.889274
Si Si5 0.945244 0.241216 0.621341
Si Si6 0.366793 0.326505 0.163278
Si Si7 0.148818 0.501190 0.693212
O O1 0.600743 0.162305 0.539053
O O2 0.719711 0.163388 0.493369
O O3 0.668403 0.260944 0.716274
O O4 0.669761 0.094749 0.768778
O O5 0.075254 0.131092 0.751761
O O6 0.957123 0.153196 0.719057
O O7 0.000000 0.000000 0.733994
O O8 0.000000 0.100339 0.000000
O O9 0.500000 0.909868 0.500000
O O10 0.442110 0.821031 0.244572
O O11 0.406225 0.971429 0.322113
O O12 0.318380 0.597416 0.860446
O O13 0.206468 0.566064 0.719996
O O14 0.235912 0.500000 0.000000
O O15 0.884660 0.222927 0.509828
O O16 0.000000 0.265923 0.500000
O O17 0.126291 0.500000 0.500000
#
# Coordination Sequence:
#
# PCOD8163777 Si02
#       7
#     8   8   8   8   8   8   8
#     4  10  22  40  58  86 123 157 197 261 311 371
#     4  10  22  40  58  86 130 163 201 263 319 370
#     4  11  21  38  62  85 121 163 200 247 320 387
#     4   9  22  41  61  88 123 164 211 263 323 384
#     4  10  21  35  57  88 120 154 200 259 300 370
#     4  11  22  37  66  92 119 169 217 252 326 386
#     4  10  22  42  61  85 125 158 202 268 316 367
#
# _framework density 20.591971000000001
#
# number of rings (size 3 to 8) (size 9 to 14) (size 15 to 20)
#    0.000    1.857    0.000    5.143    2.000    6.571 
#    2.571    2.143    0.000    0.000    0.000    0.000 
#    0.000    0.000    0.000    0.000    0.000    0.000 
#
# Total GULP energy -347116.404381 kJ/mol
# GULP energy per Si atom -12397.014442 kJ/mol
# Density = 2.054510 g / cm^3
# Si number density = 20.591971 Si / 1000 Ang^3
#
#
#
# Elastic Constant Matrix: (Units=GPa)
#
#
# Indices 1 2 3 4 5 6 
#
# 1 98.8931 16.9275 26.9496 0.0000 0.0000 0.0000
# 2 16.9275 81.9792 15.1040 0.0000 0.0000 0.0000
# 3 26.9496 15.1040 87.1333 0.0000 0.0000 0.0000
# 4 0.0000 0.0000 0.0000 30.0651 0.0000 0.0000
# 5 0.0000 0.0000 0.0000 0.0000 20.5173 0.0000
# 6 0.0000 0.0000 0.0000 0.0000 0.0000 21.2729
#
#
#
# Elastic Compliance Matrix: (Units=1/GPa)
#
#
# Indices 1 2 3 4 5 6 
#
# 1 0.011278 -0.001742 -0.003186 0.000000 0.000000 0.000000
# 2 -0.001742 0.012870 -0.001692 0.000000 0.000000 0.000000
# 3 -0.003186 -0.001692 0.012756 0.000000 0.000000 0.000000
# 4 0.000000 0.000000 0.000000 0.033261 0.000000 0.000000
# 5 0.000000 0.000000 0.000000 0.000000 0.048739 0.000000
# 6 0.000000 0.000000 0.000000 0.000000 0.000000 0.047008
#
#
# Mechanical properties :
#
#
# Convention : Reuss Voigt Hill
#
# Bulk Modulus (GPa) = 42.26017 42.88529 42.57273
# Shear Modulus (GPa) = 26.73218 28.30602 27.51910
#
# Velocity S-wave (km/s) = 3.60694 3.71160 3.65965
# Velocity P-wave (km/s) = 6.15743 6.26414 6.21101
#
# Compressibility (1/GPa) = 0.02366294
#
# Stress axis : x y z
#
# Youngs Moduli (GPa) = 88.66507 77.70229 78.39747
#
# Poissons Ratio (x) = 0.13534 0.24980
# Poissons Ratio (y) = 0.15443 0.13266
# Poissons Ratio (z) = 0.28252 0.13148
#
# Static dielectric constant tensor:
#      x y z
#    x 3.620370 0.000000 0.000000 
#    y 0.000000 3.750100 0.000000 
#    z 0.000000 0.000000 3.907650 
# 
# 
# High freq. dielectric constant tensor:
#      x y z
#    x 1.796400 0.000000 0.000000 
#    y 0.000000 1.808260 0.000000 
#    z 0.000000 0.000000 1.813280 
# 
# From -- ./inp_files/12068.got.cif
#   From: 2010.03.12/outbox.cif.g09.slc.cpg/sg23_7_cif.got.tgz:12068.got - 2010.04.14 02:50:06.
