data_PCOD8163856
_publ_section_title
;
Structure prediction by ZEFSAII (Michael W. Deem and Ramdas Pophale) SiO2 
 PCOD8163856
Probable space group: I 2 2 2
;
_chemical_formula_sum "Si O2"
_cell_formula_units_Z 44
_cell_length_a 15.904745
_cell_length_b 9.210777
_cell_length_c 14.466461
_cell_angle_alpha 90.000000
_cell_angle_beta 90.000000
_cell_angle_gamma 90.000000
_cell_volume 2119.265064
_symmetry_space_group_name_H-M "I 2 2 2"
_symmetry_group_IT_number 23
_symmetry_cell_setting 'orthorhombic'
loop_
_space_group_symop_operation_xyz
x,y,z
-x,-y,z
x,-y,-z
-x,y,-z
1/2+x,1/2+y,1/2+z
1/2-x,1/2-y,1/2+z
1/2+x,1/2-y,1/2-z
1/2-x,1/2+y,1/2-z
loop_
_atom_site_type_symbol
_atom_site_label
_atom_site_fract_x
_atom_site_fract_y
_atom_site_fract_z
Si Si1 0.624752 0.282988 0.409889
Si Si2 0.912781 0.422938 0.762117
Si Si3 0.262880 0.648148 0.557493
Si Si4 0.500000 0.500000 0.500000
Si Si5 0.375047 0.667466 0.128292
Si Si6 0.000000 0.000000 0.500000
Si Si7 0.232512 0.033849 0.222923
O O1 0.588255 0.133530 0.368754
O O2 0.664094 0.254934 0.511326
O O3 0.554449 0.405947 0.427347
O O4 0.701335 0.332653 0.341396
O O5 0.914977 0.277226 0.701486
O O6 0.833662 0.530096 0.741168
O O7 0.000000 0.500000 0.741337
O O8 0.248935 0.500000 0.500000
O O9 0.179352 0.742632 0.554769
O O10 0.288017 0.613522 0.664576
O O11 0.446498 0.596971 0.068280
O O12 0.318494 0.544310 0.180765
#
# Coordination Sequence:
#
# PCOD8163856 Si02
#       7
#     8   8   8   2   8   2   8
#     4  10  21  38  65  96 126 169 210 259 323 374
#     4  10  23  43  64  99 125 166 215 264 319 373
#     4   9  18  40  66  90 120 170 217 248 318 386
#     4  12  20  38  62 100 126 158 208 270 306 372
#     4  10  24  41  62  94 131 169 211 258 317 379
#     4  12  28  42  58 108 124 172 208 262 318 364
#     4   9  19  41  62  89 123 167 211 248 319 375
#
# _framework density 20.761913
#
# number of rings (size 3 to 8) (size 9 to 14) (size 15 to 20)
#    0.000    2.182    2.727    0.000    2.545    8.727 
#    9.818    2.273    0.000    0.000    0.000    0.000 
#    0.000    0.000    0.000    0.000    0.000    0.000 
#
# Total GULP energy -272545.938407 kJ/mol
# GULP energy per Si atom -12388.451746 kJ/mol
# Density = 2.071466 g / cm^3
# Si number density = 20.761913 Si / 1000 Ang^3
#
#
#
# Elastic Constant Matrix: (Units=GPa)
#
#
# Indices 1 2 3 4 5 6 
#
# 1 153.5070 59.2904 73.4396 0.0000 0.0000 0.0000
# 2 59.2904 68.5800 41.6501 0.0000 0.0000 0.0000
# 3 73.4396 41.6501 100.7066 0.0000 0.0000 0.0000
# 4 0.0000 0.0000 0.0000 11.2257 0.0000 0.0000
# 5 0.0000 0.0000 0.0000 0.0000 33.0274 0.0000
# 6 0.0000 0.0000 0.0000 0.0000 0.0000 39.8840
#
#
#
# Elastic Compliance Matrix: (Units=1/GPa)
#
#
# Indices 1 2 3 4 5 6 
#
# 1 0.011952 -0.006730 -0.005932 0.000000 0.000000 0.000000
# 2 -0.006730 0.023262 -0.004713 0.000000 0.000000 0.000000
# 3 -0.005932 -0.004713 0.016205 0.000000 0.000000 0.000000
# 4 0.000000 0.000000 0.000000 0.089081 0.000000 0.000000
# 5 0.000000 0.000000 0.000000 0.000000 0.030278 0.000000
# 6 0.000000 0.000000 0.000000 0.000000 0.000000 0.025073
#
#
# Mechanical properties :
#
#
# Convention : Reuss Voigt Hill
#
# Bulk Modulus (GPa) = 59.99344 74.61709 67.30526
# Shear Modulus (GPa) = 21.17228 26.72166 23.94697
#
# Velocity S-wave (km/s) = 3.19684 3.59144 3.39987
# Velocity P-wave (km/s) = 6.52572 7.29489 6.92100
#
# Compressibility (1/GPa) = 0.01666849
#
# Stress axis : x y z
#
# Youngs Moduli (GPa) = 83.66853 42.98823 61.70862
#
# Poissons Ratio (x) = 0.28931 0.36608
# Poissons Ratio (y) = 0.56309 0.29083
# Poissons Ratio (z) = 0.49636 0.20260
#
# Static dielectric constant tensor:
#      x y z
#    x 3.794300 0.000000 0.000000 
#    y 0.000000 3.683280 0.000000 
#    z 0.000000 0.000000 4.232470 
# 
# 
# High freq. dielectric constant tensor:
#      x y z
#    x 1.809380 0.000000 0.000000 
#    y 0.000000 1.790300 0.000000 
#    z 0.000000 0.000000 1.821840 
# 
# From -- ./inp_files/21976.got.cif
#   From: 2010.03.12/outbox.cif.g09.slc.cpg/sg23_11_cif.got.tgz:21976.got - 2010.04.14 02:50:06.
