data_PCOD8163359
_publ_section_title
;
Structure prediction by ZEFSAII (Michael W. Deem and Ramdas Pophale) SiO2 
 PCOD8163359
Probable space group: I 2 2 2
;
_chemical_formula_sum "Si O2"
_cell_formula_units_Z 64
_cell_length_a 22.878389
_cell_length_b 8.940756
_cell_length_c 19.078811
_cell_angle_alpha 90.000000
_cell_angle_beta 90.000000
_cell_angle_gamma 90.000000
_cell_volume 3902.572578
_symmetry_space_group_name_H-M "I 2 2 2"
_symmetry_group_IT_number 23
_symmetry_cell_setting 'orthorhombic'
loop_
_space_group_symop_operation_xyz
x,y,z
-x,-y,z
x,-y,-z
-x,y,-z
1/2+x,1/2+y,1/2+z
1/2-x,1/2-y,1/2+z
1/2+x,1/2-y,1/2-z
1/2-x,1/2+y,1/2-z
loop_
_atom_site_type_symbol
_atom_site_label
_atom_site_fract_x
_atom_site_fract_y
_atom_site_fract_z
Si Si1 0.722191 0.827093 0.350166
Si Si2 0.888638 0.178027 0.500000
Si Si3 0.432762 0.171395 0.138044
Si Si4 0.341172 0.672504 0.230720
Si Si5 0.242882 0.822904 0.500000
Si Si6 0.567238 0.828604 0.861958
Si Si7 0.277809 0.827091 0.350165
Si Si8 0.841172 0.827494 0.730721
O O1 0.787311 0.800962 0.321530
O O2 0.721907 0.771458 0.430837
O O3 0.675337 0.728943 0.308309
O O4 0.704305 0.000001 0.342935
O O5 0.921987 0.234583 0.431782
O O6 0.822679 0.242953 0.500001
O O7 0.921990 0.234587 0.568214
O O8 0.889553 0.000000 0.500000
O O9 0.500000 0.186294 0.159898
O O10 0.395829 0.234410 0.202892
O O11 0.415241 1.000000 0.123970
O O12 0.395829 0.765584 0.202889
O O13 0.324664 0.728943 0.308308
O O14 0.358904 0.499999 0.234882
O O15 0.278093 0.771456 0.430836
O O16 0.236401 0.000000 0.500000
O O17 0.212689 0.800958 0.321529
#
# Coordination Sequence:
#
# PCOD8163359 Si02
#       8
#     8   8   8   8   8   8   8   8
#     4   9  17  31  50  71  99 129 161 202 248 294
#     4  11  20  34  51  72 100 133 173 207 240 287
#     4  11  23  36  49  69  99 135 173 209 247 291
#     4  10  19  32  50  72  97 128 167 207 247 291
#     4   9  16  30  50  73  99 131 164 197 240 294
#     4  11  23  36  49  69  99 135 173 209 247 291
#     4   9  17  31  50  71  99 129 161 202 248 294
#     4  10  19  32  50  72  97 128 167 207 247 291
#
# _framework density 16.399436999999999
#
# number of rings (size 3 to 8) (size 9 to 14) (size 15 to 20)
#    0.000    2.000    2.500    2.250    0.000    4.500 
#    0.000    0.625    0.000    0.000    0.000    0.875 
#    0.000    7.000    0.000    0.000    0.000    0.000 
#
# Total GULP energy -396870.123974 kJ/mol
# GULP energy per Si atom -12402.191374 kJ/mol
# Density = 1.636211 g / cm^3
# Si number density = 16.399437 Si / 1000 Ang^3
#
#
#
# Elastic Constant Matrix: (Units=GPa)
#
#
# Indices 1 2 3 4 5 6 
#
# 1 71.5513 45.1181 48.5169 0.0000 0.0000 0.0000
# 2 45.1181 86.3484 43.7520 0.0000 0.0000 0.0000
# 3 48.5169 43.7520 127.3699 0.0000 0.0000 0.0000
# 4 0.0000 0.0000 0.0000 22.5576 0.0000 0.0000
# 5 0.0000 0.0000 0.0000 0.0000 22.1472 0.0000
# 6 0.0000 0.0000 0.0000 0.0000 0.0000 24.1498
#
#
#
# Elastic Compliance Matrix: (Units=1/GPa)
#
#
# Indices 1 2 3 4 5 6 
#
# 1 0.023969 -0.009562 -0.005846 0.000000 0.000000 0.000000
# 2 -0.009562 0.017836 -0.002484 0.000000 0.000000 0.000000
# 3 -0.005846 -0.002484 0.010931 0.000000 0.000000 0.000000
# 4 0.000000 0.000000 0.000000 0.044331 0.000000 0.000000
# 5 0.000000 0.000000 0.000000 0.000000 0.045152 0.000000
# 6 0.000000 0.000000 0.000000 0.000000 0.000000 0.041408
#
#
# Mechanical properties :
#
#
# Convention : Reuss Voigt Hill
#
# Bulk Modulus (GPa) = 58.98934 62.22707 60.60821
# Shear Modulus (GPa) = 22.21590 23.62976 22.92283
#
# Velocity S-wave (km/s) = 3.68458 3.80002 3.74275
# Velocity P-wave (km/s) = 7.35867 7.56839 7.46427
#
# Compressibility (1/GPa) = 0.01695221
#
# Stress axis : x y z
#
# Youngs Moduli (GPa) = 41.71973 56.06551 91.48137
#
# Poissons Ratio (x) = 0.53612 0.53476
# Poissons Ratio (y) = 0.39894 0.22727
# Poissons Ratio (z) = 0.24388 0.13929
#
# Static dielectric constant tensor:
#      x y z
#    x 2.902380 0.000000 0.000000 
#    y 0.000000 3.120310 0.000000 
#    z 0.000000 0.000000 3.259960 
# 
# 
# High freq. dielectric constant tensor:
#      x y z
#    x 1.602420 0.000000 0.000000 
#    y 0.000000 1.634120 0.000000 
#    z 0.000000 0.000000 1.628810 
# 
# From -- ./inp_files/11410.got.cif
#   From: 2010.03.12/outbox.cif.g09.slc.cpg/sg23_6_cif.got.tgz:11410.got - 2010.04.14 02:50:06.
