data_PCOD8163890
_publ_section_title
;
Structure prediction by ZEFSAII (Michael W. Deem and Ramdas Pophale) SiO2 
 PCOD8163890
Probable space group: I 2 2 2
;
_chemical_formula_sum "Si O2"
_cell_formula_units_Z 32
_cell_length_a 12.501579
_cell_length_b 16.970188
_cell_length_c 7.094326
_cell_angle_alpha 90.000000
_cell_angle_beta 90.000000
_cell_angle_gamma 90.000000
_cell_volume 1505.090673
_symmetry_space_group_name_H-M "I 2 2 2"
_symmetry_group_IT_number 23
_symmetry_cell_setting 'orthorhombic'
loop_
_space_group_symop_operation_xyz
x,y,z
-x,-y,z
x,-y,-z
-x,y,-z
1/2+x,1/2+y,1/2+z
1/2-x,1/2-y,1/2+z
1/2+x,1/2-y,1/2-z
1/2-x,1/2+y,1/2-z
loop_
_atom_site_type_symbol
_atom_site_label
_atom_site_fract_x
_atom_site_fract_y
_atom_site_fract_z
Si Si1 0.381214 0.320621 0.432002
Si Si2 0.381718 0.986142 0.780385
Si Si3 0.767553 0.668898 0.790931
Si Si4 0.815607 0.073525 0.387174
O O1 0.500000 0.299451 0.500000
O O2 0.310802 0.334883 0.614510
O O3 0.327794 0.251356 0.310618
O O4 0.383093 0.398226 0.295964
O O5 0.358077 0.895833 0.736750
O O6 0.500000 0.000000 0.702266
O O7 0.301957 0.045341 0.675411
O O8 0.372770 0.000000 0.000000
O O9 0.696846 0.648451 0.975048
O O10 0.871716 0.000000 0.500000
#
# Coordination Sequence:
#
# PCOD8163890 Si02
#       4
#     8   8   8   8
#     4  12  26  45  71 101 144 191 227 290 362 410
#     4  10  21  39  70 100 133 182 228 293 355 395
#     4  11  24  44  66 102 141 173 237 291 339 433
#     4  10  23  44  68  99 141 178 237 292 333 427
#
# _framework density 21.261175999999999
#
# number of rings (size 3 to 8) (size 9 to 14) (size 15 to 20)
#    0.000    1.250    5.000    0.000    3.500    4.500 
#    0.000   13.750    0.000    0.000    0.000    0.000 
#    0.000    0.000    0.000    0.000    0.000    0.000 
#
# Total GULP energy -198377.102650 kJ/mol
# GULP energy per Si atom -12398.568916 kJ/mol
# Density = 2.121278 g / cm^3
# Si number density = 21.261176 Si / 1000 Ang^3
#
#
#
# Elastic Constant Matrix: (Units=GPa)
#
#
# Indices 1 2 3 4 5 6 
#
# 1 79.7153 32.2847 44.1425 0.0000 0.0000 0.0000
# 2 32.2847 94.2809 52.3786 0.0000 0.0000 0.0000
# 3 44.1425 52.3786 139.3545 0.0000 0.0000 0.0000
# 4 0.0000 0.0000 0.0000 47.3285 0.0000 0.0000
# 5 0.0000 0.0000 0.0000 0.0000 -6.5279 0.0000
# 6 0.0000 0.0000 0.0000 0.0000 0.0000 24.2079
#
#
#
# Elastic Compliance Matrix: (Units=1/GPa)
#
#
# Indices 1 2 3 4 5 6 
#
# 1 0.016018 -0.003370 -0.003807 0.000000 0.000000 0.000000
# 2 -0.003370 0.014115 -0.004238 0.000000 0.000000 0.000000
# 3 -0.003807 -0.004238 0.009975 0.000000 0.000000 0.000000
# 4 0.000000 0.000000 0.000000 0.021129 0.000000 0.000000
# 5 0.000000 0.000000 0.000000 0.000000 -0.153189 0.000000
# 6 0.000000 0.000000 0.000000 0.000000 0.000000 0.041309
#
#
# Mechanical properties :
#
#
# Convention : Reuss Voigt Hill
#
# Bulk Modulus (GPa) = 57.87850 63.44025 60.65937
# Shear Modulus (GPa) = -226.70949 25.30470 -100.70239
#
# Velocity S-wave (km/s) = -10.33742 3.45365 -6.88965
# Velocity P-wave (km/s) = 10.73318 6.76808 5.89043
#
# Compressibility (1/GPa) = 0.01727757
#
# Stress axis : x y z
#
# Youngs Moduli (GPa) = 62.43104 70.84707 100.25258
#
# Poissons Ratio (x) = 0.23874 0.38168
# Poissons Ratio (y) = 0.21038 0.42486
# Poissons Ratio (z) = 0.23769 0.30024
#
# Static dielectric constant tensor:
#      x y z
#    x 3.650800 0.000000 0.000000 
#    y 0.000000 4.061330 0.000000 
#    z 0.000000 0.000000 4.248790 
# 
# 
# High freq. dielectric constant tensor:
#      x y z
#    x 1.810970 0.000000 0.000000 
#    y 0.000000 1.834860 0.000000 
#    z 0.000000 0.000000 1.866440 
# 
# From -- ./inp_files/7917.got.cif
#   From: 2010.03.12/outbox.cif.g09.slc.cpg/sg23_4_cif.got.tgz:7917.got - 2010.04.14 02:50:06.
