data_PCOD8163829
_publ_section_title
;
Structure prediction by ZEFSAII (Michael W. Deem and Ramdas Pophale) SiO2 
 PCOD8163829
Probable space group: I 2 2 2
;
_chemical_formula_sum "Si O2"
_cell_formula_units_Z 64
_cell_length_a 12.435856
_cell_length_b 8.528211
_cell_length_c 29.051654
_cell_angle_alpha 90.000000
_cell_angle_beta 90.000000
_cell_angle_gamma 90.000000
_cell_volume 3081.090710
_symmetry_space_group_name_H-M "I 2 2 2"
_symmetry_group_IT_number 23
_symmetry_cell_setting 'orthorhombic'
loop_
_space_group_symop_operation_xyz
x,y,z
-x,-y,z
x,-y,-z
-x,y,-z
1/2+x,1/2+y,1/2+z
1/2-x,1/2-y,1/2+z
1/2+x,1/2-y,1/2-z
1/2-x,1/2+y,1/2-z
loop_
_atom_site_type_symbol
_atom_site_label
_atom_site_fract_x
_atom_site_fract_y
_atom_site_fract_z
Si Si1 0.270053 0.349376 0.219562
Si Si2 0.797257 0.618070 0.041077
Si Si3 0.041450 0.675947 0.814677
Si Si4 0.692794 0.698078 0.809145
Si Si5 0.759661 0.316438 0.087888
Si Si6 0.479799 0.184432 0.216600
Si Si7 0.496351 0.186482 0.412646
Si Si8 0.123593 0.316441 0.491952
O O1 0.169405 0.314715 0.187490
O O2 0.300812 0.529444 0.214253
O O3 0.244698 0.321733 0.273547
O O4 0.362148 0.233832 0.199932
O O5 0.754485 0.505824 0.082244
O O6 0.901631 0.725879 0.054340
O O7 0.829993 0.500000 0.000000
O O8 0.698705 0.730408 0.028815
O O9 0.009523 0.763899 0.861889
O O10 0.000000 0.500000 0.816509
O O11 0.991292 0.753545 0.768781
O O12 0.751281 0.716374 0.857952
O O13 0.567071 0.736019 0.816722
O O14 0.665611 0.229299 0.059251
O O15 0.878378 0.258836 0.069320
O O16 0.500000 0.000000 0.216068
O O17 0.500000 0.000000 0.407778
O O18 0.134122 0.500000 0.500000
O O19 0.000000 0.262147 0.500000
#
# Coordination Sequence:
#
# PCOD8163829 Si02
#       8
#     8   8   8   8   8   8   8   8
#     4  11  20  36  60  85 125 175 213 261 326 381
#     4   9  19  35  62  93 118 151 196 256 314 382
#     4   9  17  32  56  80 117 159 203 250 307 366
#     4  11  22  38  59  92 125 170 215 266 316 384
#     4  10  21  39  64  93 122 158 214 262 306 392
#     4  10  21  38  55  82 120 169 217 266 320 377
#     4   9  16  31  56  91 118 146 195 247 303 359
#     4  10  23  46  65  84 120 167 205 260 348 389
#
# _framework density 20.771864999999998
#
# number of rings (size 3 to 8) (size 9 to 14) (size 15 to 20)
#    0.000    2.125    0.000    5.625    0.000    8.000 
#    9.000    5.000    0.000    0.000    0.000    0.000 
#    0.000    0.000    0.000    0.000    0.000    0.000 
#
# Total GULP energy -396534.330245 kJ/mol
# GULP energy per Si atom -12391.697820 kJ/mol
# Density = 2.072459 g / cm^3
# Si number density = 20.771865 Si / 1000 Ang^3
#
#
#
# Elastic Constant Matrix: (Units=GPa)
#
#
# Indices 1 2 3 4 5 6 
#
# 1 193.1919 50.7541 52.3975 0.0000 0.0000 0.0000
# 2 50.7541 60.9437 29.4121 0.0000 0.0000 0.0000
# 3 52.3975 29.4121 87.3320 0.0000 0.0000 0.0000
# 4 0.0000 0.0000 0.0000 26.0364 0.0000 0.0000
# 5 0.0000 0.0000 0.0000 0.0000 32.2148 0.0000
# 6 0.0000 0.0000 0.0000 0.0000 0.0000 30.3666
#
#
#
# Elastic Compliance Matrix: (Units=1/GPa)
#
#
# Indices 1 2 3 4 5 6 
#
# 1 0.007129 -0.004624 -0.002720 0.000000 0.000000 0.000000
# 2 -0.004624 0.022593 -0.004834 0.000000 0.000000 0.000000
# 3 -0.002720 -0.004834 0.014710 0.000000 0.000000 0.000000
# 4 0.000000 0.000000 0.000000 0.038408 0.000000 0.000000
# 5 0.000000 0.000000 0.000000 0.000000 0.031042 0.000000
# 6 0.000000 0.000000 0.000000 0.000000 0.000000 0.032931
#
#
# Mechanical properties :
#
#
# Convention : Reuss Voigt Hill
#
# Bulk Modulus (GPa) = 49.81271 67.39944 58.60608
# Shear Modulus (GPa) = 28.11187 31.65050 29.88119
#
# Velocity S-wave (km/s) = 3.68280 3.90772 3.79693
# Velocity P-wave (km/s) = 6.48976 7.27175 6.89185
#
# Compressibility (1/GPa) = 0.02007520
#
# Stress axis : x y z
#
# Youngs Moduli (GPa) = 140.27830 44.26182 67.97869
#
# Poissons Ratio (x) = 0.20468 0.18488
# Poissons Ratio (y) = 0.64868 0.32864
# Poissons Ratio (z) = 0.38151 0.21398
#
# Static dielectric constant tensor:
#      x y z
#    x 4.152520 0.000000 0.000000 
#    y 0.000000 3.446260 0.000000 
#    z 0.000000 0.000000 3.940760 
# 
# 
# High freq. dielectric constant tensor:
#      x y z
#    x 1.833700 0.000000 0.000000 
#    y 0.000000 1.771410 0.000000 
#    z 0.000000 0.000000 1.804960 
# 
# From -- ./inp_files/30469.got.cif
#   From: 2010.03.12/outbox.cif.g09.slc.cpg/sg23_16_cif.got.tgz:30469.got - 2010.04.14 02:50:06.
