data_PCOD8163715
_publ_section_title
;
Structure prediction by ZEFSAII (Michael W. Deem and Ramdas Pophale) SiO2 
 PCOD8163715
Probable space group: I 2 2 2
;
_chemical_formula_sum "Si O2"
_cell_formula_units_Z 40
_cell_length_a 14.973843
_cell_length_b 9.978857
_cell_length_c 12.842896
_cell_angle_alpha 90.000000
_cell_angle_beta 90.000000
_cell_angle_gamma 90.000000
_cell_volume 1919.009126
_symmetry_space_group_name_H-M "I 2 2 2"
_symmetry_group_IT_number 23
_symmetry_cell_setting 'orthorhombic'
loop_
_space_group_symop_operation_xyz
x,y,z
-x,-y,z
x,-y,-z
-x,y,-z
1/2+x,1/2+y,1/2+z
1/2-x,1/2-y,1/2+z
1/2+x,1/2-y,1/2-z
1/2-x,1/2+y,1/2-z
loop_
_atom_site_type_symbol
_atom_site_label
_atom_site_fract_x
_atom_site_fract_y
_atom_site_fract_z
Si Si1 0.500000 0.500000 0.333626
Si Si2 0.768385 0.745793 0.911400
Si Si3 0.903906 0.247032 0.267926
Si Si4 0.000000 0.500000 0.819568
Si Si5 0.633893 0.000000 0.500000
Si Si6 0.101674 0.841056 0.492463
Si Si7 0.356943 0.500000 0.500000
O O1 0.466281 0.378433 0.262716
O O2 0.419190 0.552142 0.405817
O O3 0.812484 0.740295 0.797824
O O4 0.791824 0.884096 0.964928
O O5 0.805139 0.627115 0.981836
O O6 0.660588 0.726369 0.914388
O O7 0.965254 0.379271 0.253827
O O8 0.866213 0.221239 0.382836
O O9 0.921634 0.456315 0.898098
O O10 0.000000 0.794692 0.500000
O O11 0.111658 0.000000 0.500000
#
# Coordination Sequence:
#
# PCOD8163715 Si02
#       7
#     4   8   8   4   4   8   4
#     4   9  16  34  61  94 124 166 207 254 313 388
#     4  10  20  40  59  95 123 164 215 258 311 376
#     4  10  21  40  65  95 123 165 213 251 320 380
#     4   9  18  34  61 102 126 158 201 262 321 368
#     4   9  16  34  65  90 134 162 199 258 310 375
#     4  11  24  46  65  85 123 172 215 258 317 389
#     4   9  18  32  59  92 132 154 203 276 318 353
#
# _framework density 20.844090000000001
#
# number of rings (size 3 to 8) (size 9 to 14) (size 15 to 20)
#    0.000    2.200    1.000    2.400    0.000    4.800 
#   18.000    0.000    0.000    0.000    0.000    0.000 
#    0.000    0.000    0.000    0.000    0.000    0.000 
#
# Total GULP energy -247887.873500 kJ/mol
# GULP energy per Si atom -12394.393675 kJ/mol
# Density = 2.079665 g / cm^3
# Si number density = 20.844090 Si / 1000 Ang^3
#
#
#
# Elastic Constant Matrix: (Units=GPa)
#
#
# Indices 1 2 3 4 5 6 
#
# 1 139.0774 43.2115 35.4656 0.0000 0.0000 0.0000
# 2 43.2115 96.7498 42.3401 0.0000 0.0000 0.0000
# 3 35.4656 42.3401 90.1231 0.0000 0.0000 0.0000
# 4 0.0000 0.0000 0.0000 32.1870 0.0000 0.0000
# 5 0.0000 0.0000 0.0000 0.0000 24.7672 0.0000
# 6 0.0000 0.0000 0.0000 0.0000 0.0000 26.0534
#
#
#
# Elastic Compliance Matrix: (Units=1/GPa)
#
#
# Indices 1 2 3 4 5 6 
#
# 1 0.008624 -0.002979 -0.001994 0.000000 0.000000 0.000000
# 2 -0.002979 0.014040 -0.005424 0.000000 0.000000 0.000000
# 3 -0.001994 -0.005424 0.014429 0.000000 0.000000 0.000000
# 4 0.000000 0.000000 0.000000 0.031068 0.000000 0.000000
# 5 0.000000 0.000000 0.000000 0.000000 0.040376 0.000000
# 6 0.000000 0.000000 0.000000 0.000000 0.000000 0.038383
#
#
# Mechanical properties :
#
#
# Convention : Reuss Voigt Hill
#
# Bulk Modulus (GPa) = 61.35354 63.10941 62.23147
# Shear Modulus (GPa) = 28.87709 30.26375 29.57042
#
# Velocity S-wave (km/s) = 3.72611 3.81453 3.77058
# Velocity P-wave (km/s) = 6.92895 7.05290 6.99120
#
# Compressibility (1/GPa) = 0.01629898
#
# Stress axis : x y z
#
# Youngs Moduli (GPa) = 115.94966 71.22464 69.30589
#
# Poissons Ratio (x) = 0.21219 0.13822
# Poissons Ratio (y) = 0.34544 0.37589
# Poissons Ratio (z) = 0.23124 0.38630
#
# Static dielectric constant tensor:
#      x y z
#    x 3.941570 0.000000 0.000000 
#    y 0.000000 3.622870 0.000000 
#    z 0.000000 0.000000 2.937270 
# 
# 
# High freq. dielectric constant tensor:
#      x y z
#    x 1.819330 0.000000 0.000000 
#    y 0.000000 1.815470 0.000000 
#    z 0.000000 0.000000 1.803770 
# 
# From -- ./inp_files/21405.got.cif
#   From: 2010.03.12/outbox.cif.g09.slc.cpg/sg23_11_cif.got.tgz:21405.got - 2010.04.14 02:50:06.
