data_PCOD8163597
_publ_section_title
;
Structure prediction by ZEFSAII (Michael W. Deem and Ramdas Pophale) SiO2 
 PCOD8163597
Probable space group: I 2 2 2
;
_chemical_formula_sum "Si O2"
_cell_formula_units_Z 64
_cell_length_a 20.410911
_cell_length_b 17.740156
_cell_length_c 8.676886
_cell_angle_alpha 90.000000
_cell_angle_beta 90.000000
_cell_angle_gamma 90.000000
_cell_volume 3141.837472
_symmetry_space_group_name_H-M "I 2 2 2"
_symmetry_group_IT_number 23
_symmetry_cell_setting 'orthorhombic'
loop_
_space_group_symop_operation_xyz
x,y,z
-x,-y,z
x,-y,-z
-x,y,-z
1/2+x,1/2+y,1/2+z
1/2-x,1/2-y,1/2+z
1/2+x,1/2-y,1/2-z
1/2-x,1/2+y,1/2-z
loop_
_atom_site_type_symbol
_atom_site_label
_atom_site_fract_x
_atom_site_fract_y
_atom_site_fract_z
Si Si1 0.309946 0.350643 0.396123
Si Si2 0.928446 0.244167 0.062615
Si Si3 0.798833 0.235686 0.629752
Si Si4 0.759553 0.953930 0.646848
Si Si5 0.572527 0.075854 0.059309
Si Si6 0.133824 0.356700 0.159472
Si Si7 0.870599 0.297996 0.360857
Si Si8 0.254807 0.104694 0.201573
O O1 0.381848 0.329247 0.461304
O O2 0.274927 0.270221 0.363201
O O3 0.311924 0.402303 0.240851
O O4 0.267051 0.392818 0.523658
O O5 0.923841 0.260020 0.246915
O O6 0.906705 0.321865 0.981153
O O7 0.000000 0.221413 0.000000
O O8 0.843392 0.285311 0.741578
O O9 0.827726 0.235368 0.455320
O O10 0.797183 0.149085 0.688007
O O11 0.696864 0.903412 0.597437
O O12 0.789326 0.000000 0.500000
O O13 0.735955 0.017710 0.763777
O O14 0.585920 0.087422 0.242426
O O15 0.500000 0.063618 0.000000
O O16 0.593749 0.154003 0.988356
O O17 0.610791 0.000000 0.000000
O O18 0.823424 0.354331 0.269210
#
# Coordination Sequence:
#
# PCOD8163597 Si02
#       8
#     8   8   8   8   8   8   8   8
#     4  10  22  38  58  89 126 157 209 254 316 380
#     4  12  23  37  60  86 123 165 210 257 299 358
#     4   9  19  34  62  85 115 158 195 261 314 369
#     4  11  24  35  61  92 126 154 197 257 336 383
#     4  10  20  36  55  77 117 169 215 249 296 366
#     4  10  21  39  55  88 122 157 206 257 306 374
#     4  10  21  33  57  84 121 154 206 254 312 367
#     4  11  19  36  61  88 119 157 194 255 331 375
#
# _framework density 20.370246000000002
#
# number of rings (size 3 to 8) (size 9 to 14) (size 15 to 20)
#    0.000    1.625    2.500    3.375    1.750    0.000 
#    0.000    0.000    0.000    4.500    0.000    0.875 
#    0.000    0.000    0.000    0.000    0.000    0.000 
#
# Total GULP energy -396447.046637 kJ/mol
# GULP energy per Si atom -12388.970207 kJ/mol
# Density = 2.032388 g / cm^3
# Si number density = 20.370246 Si / 1000 Ang^3
#
#
#
# Elastic Constant Matrix: (Units=GPa)
#
#
# Indices 1 2 3 4 5 6 
#
# 1 83.9925 22.6915 29.7124 0.0000 0.0000 0.0000
# 2 22.6915 63.3823 25.4828 0.0000 0.0000 0.0000
# 3 29.7124 25.4828 86.5542 0.0000 0.0000 0.0000
# 4 0.0000 0.0000 0.0000 38.8076 0.0000 0.0000
# 5 0.0000 0.0000 0.0000 0.0000 21.2632 0.0000
# 6 0.0000 0.0000 0.0000 0.0000 0.0000 24.9725
#
#
#
# Elastic Compliance Matrix: (Units=1/GPa)
#
#
# Indices 1 2 3 4 5 6 
#
# 1 0.014222 -0.003549 -0.003837 0.000000 0.000000 0.000000
# 2 -0.003549 0.018781 -0.004311 0.000000 0.000000 0.000000
# 3 -0.003837 -0.004311 0.014140 0.000000 0.000000 0.000000
# 4 0.000000 0.000000 0.000000 0.025768 0.000000 0.000000
# 5 0.000000 0.000000 0.000000 0.000000 0.047030 0.000000
# 6 0.000000 0.000000 0.000000 0.000000 0.000000 0.040044
#
#
# Mechanical properties :
#
#
# Convention : Reuss Voigt Hill
#
# Bulk Modulus (GPa) = 42.10798 43.30027 42.70413
# Shear Modulus (GPa) = 26.13756 27.41151 26.77453
#
# Velocity S-wave (km/s) = 3.58596 3.67231 3.62939
# Velocity P-wave (km/s) = 6.15318 6.26769 6.21070
#
# Compressibility (1/GPa) = 0.02374847
#
# Stress axis : x y z
#
# Youngs Moduli (GPa) = 70.31343 53.24502 70.72136
#
# Poissons Ratio (x) = 0.18896 0.27138
# Poissons Ratio (y) = 0.24953 0.30489
# Poissons Ratio (z) = 0.26982 0.22955
#
# Static dielectric constant tensor:
#      x y z
#    x 3.231400 0.000000 0.000000 
#    y 0.000000 4.698740 0.000000 
#    z 0.000000 0.000000 3.898800 
# 
# 
# High freq. dielectric constant tensor:
#      x y z
#    x 1.749460 0.000000 0.000000 
#    y 0.000000 1.792220 0.000000 
#    z 0.000000 0.000000 1.813130 
# 
# From -- ./inp_files/12199.got.cif
#   From: 2010.03.12/outbox.cif.g09.slc.cpg/sg23_7_cif.got.tgz:12199.got - 2010.04.14 02:50:06.
