data_PCOD8163755
_publ_section_title
;
Structure prediction by ZEFSAII (Michael W. Deem and Ramdas Pophale) SiO2 
 PCOD8163755
Probable space group: I 2 2 2
;
_chemical_formula_sum "Si O2"
_cell_formula_units_Z 56
_cell_length_a 9.175231
_cell_length_b 14.186316
_cell_length_c 19.782648
_cell_angle_alpha 90.000000
_cell_angle_beta 90.000000
_cell_angle_gamma 90.000000
_cell_volume 2574.963398
_symmetry_space_group_name_H-M "I 2 2 2"
_symmetry_group_IT_number 23
_symmetry_cell_setting 'orthorhombic'
loop_
_space_group_symop_operation_xyz
x,y,z
-x,-y,z
x,-y,-z
-x,y,-z
1/2+x,1/2+y,1/2+z
1/2-x,1/2-y,1/2+z
1/2+x,1/2-y,1/2-z
1/2-x,1/2+y,1/2-z
loop_
_atom_site_type_symbol
_atom_site_label
_atom_site_fract_x
_atom_site_fract_y
_atom_site_fract_z
Si Si1 0.363358 0.654344 0.628764
Si Si2 0.192578 0.336102 0.100224
Si Si3 0.500000 0.740992 0.500000
Si Si4 0.659913 0.646487 0.671146
Si Si5 0.007985 0.889348 0.576463
Si Si6 0.733181 0.851124 0.320294
Si Si7 0.000000 0.500000 0.856446
Si Si8 0.327847 0.005592 0.078753
O O1 0.425584 0.677270 0.555477
O O2 0.497869 0.602232 0.665933
O O3 0.319373 0.744384 0.672854
O O4 0.229462 0.583511 0.621230
O O5 0.135623 0.302691 0.027113
O O6 0.145622 0.258678 0.155835
O O7 0.365020 0.346076 0.111095
O O8 0.118200 0.438678 0.103696
O O9 0.699580 0.630071 0.747917
O O10 0.768850 0.599945 0.615641
O O11 0.152645 0.863215 0.618104
O O12 0.000000 0.848510 0.500000
O O13 0.000000 0.000000 0.573928
O O14 0.596820 0.922702 0.317554
O O15 0.500000 0.000000 0.084245
O O16 0.278497 0.000000 0.000000
#
# Coordination Sequence:
#
# PCOD8163755 Si02
#       8
#     8   8   4   8   8   8   4   8
#     4  11  24  46  71 102 140 190 239 299 358 439
#     4  11  24  42  70 101 142 184 239 297 347 435
#     4  10  20  43  73 104 134 194 242 292 364 416
#     4  11  27  45  71 102 139 195 239 297 362 430
#     4  11  25  41  63 101 139 184 229 292 357 426
#     4  12  27  46  71 105 144 189 239 300 364 439
#     4  12  24  47  70 104 141 190 238 288 352 444
#     4  11  26  47  74 109 143 187 247 309 365 429
#
# _framework density 21.747882000000001
#
# number of rings (size 3 to 8) (size 9 to 14) (size 15 to 20)
#    0.000    0.857    4.286    3.000    5.000    3.143 
#    0.000    0.000    0.000    0.000    0.000    0.000 
#    0.000    0.000    0.000    0.000    0.000    0.000 
#
# Total GULP energy -346941.588786 kJ/mol
# GULP energy per Si atom -12390.771028 kJ/mol
# Density = 2.169838 g / cm^3
# Si number density = 21.747882 Si / 1000 Ang^3
#
#
#
# Elastic Constant Matrix: (Units=GPa)
#
#
# Indices 1 2 3 4 5 6 
#
# 1 133.2873 36.2461 39.7548 0.0000 0.0000 0.0000
# 2 36.2461 103.7766 23.3331 0.0000 0.0000 0.0000
# 3 39.7548 23.3331 118.1996 0.0000 0.0000 0.0000
# 4 0.0000 0.0000 0.0000 -8.7431 0.0000 0.0000
# 5 0.0000 0.0000 0.0000 0.0000 24.9867 0.0000
# 6 0.0000 0.0000 0.0000 0.0000 0.0000 43.7166
#
#
#
# Elastic Compliance Matrix: (Units=1/GPa)
#
#
# Indices 1 2 3 4 5 6 
#
# 1 0.008946 -0.002562 -0.002503 0.000000 0.000000 0.000000
# 2 -0.002562 0.010817 -0.001274 0.000000 0.000000 0.000000
# 3 -0.002503 -0.001274 0.009554 0.000000 0.000000 0.000000
# 4 0.000000 0.000000 0.000000 -0.114376 0.000000 0.000000
# 5 0.000000 0.000000 0.000000 0.000000 0.040021 0.000000
# 6 0.000000 0.000000 0.000000 0.000000 0.000000 0.022875
#
#
# Mechanical properties :
#
#
# Convention : Reuss Voigt Hill
#
# Bulk Modulus (GPa) = 60.09814 61.54793 60.82303
# Shear Modulus (GPa) = -1269.08342 29.05402 -620.01470
#
# Velocity S-wave (km/s) = -24.18285 3.65903 -16.90299
# Velocity P-wave (km/s) = 27.42359 6.79804 18.78616
#
# Compressibility (1/GPa) = 0.01663945
#
# Stress axis : x y z
#
# Youngs Moduli (GPa) = 111.78427 92.44533 104.67261
#
# Poissons Ratio (x) = 0.23682 0.26201
# Poissons Ratio (y) = 0.28636 0.13333
# Poissons Ratio (z) = 0.27981 0.11775
#
# Static dielectric constant tensor:
#      x y z
#    x 4.792710 0.000000 0.000000 
#    y 0.000000 3.989780 0.000000 
#    z 0.000000 0.000000 3.825330 
# 
# 
# High freq. dielectric constant tensor:
#      x y z
#    x 1.875680 0.000000 0.000000 
#    y 0.000000 1.860890 0.000000 
#    z 0.000000 0.000000 1.841740 
# 
# From -- ./inp_files/26288.got.cif
#   From: 2010.03.12/outbox.cif.g09.slc.cpg/sg23_14_cif.got.tgz:26288.got - 2010.04.14 02:50:06.
