data_PCOD8163682
_publ_section_title
;
Structure prediction by ZEFSAII (Michael W. Deem and Ramdas Pophale) SiO2 
 PCOD8163682
Probable space group: I 2 2 2
;
_chemical_formula_sum "Si O2"
_cell_formula_units_Z 64
_cell_length_a 8.974121
_cell_length_b 12.734426
_cell_length_c 27.192351
_cell_angle_alpha 90.000000
_cell_angle_beta 90.000000
_cell_angle_gamma 90.000000
_cell_volume 3107.549480
_symmetry_space_group_name_H-M "I 2 2 2"
_symmetry_group_IT_number 23
_symmetry_cell_setting 'orthorhombic'
loop_
_space_group_symop_operation_xyz
x,y,z
-x,-y,z
x,-y,-z
-x,y,-z
1/2+x,1/2+y,1/2+z
1/2-x,1/2-y,1/2+z
1/2+x,1/2-y,1/2-z
1/2-x,1/2+y,1/2-z
loop_
_atom_site_type_symbol
_atom_site_label
_atom_site_fract_x
_atom_site_fract_y
_atom_site_fract_z
Si Si1 0.675621 0.998487 0.057940
Si Si2 0.838958 0.799842 0.897063
Si Si3 0.661060 0.402579 0.086987
Si Si4 0.282190 0.205121 0.696796
Si Si5 0.622466 0.611410 0.042197
Si Si6 0.158260 0.480473 0.826931
Si Si7 0.809166 0.220117 0.910422
Si Si8 0.605994 0.761016 0.289322
O O1 0.762814 0.094531 0.083426
O O2 0.500000 0.000000 0.069612
O O3 0.740750 0.892995 0.080427
O O4 0.706673 0.000000 0.000000
O O5 0.758367 0.701248 0.923318
O O6 0.818644 0.793592 0.837528
O O7 0.012308 0.790156 0.911583
O O8 0.683297 0.489206 0.042125
O O9 0.484582 0.377027 0.090802
O O10 0.709172 0.459599 0.136139
O O11 0.244009 0.236806 0.641006
O O12 0.432184 0.267054 0.710507
O O13 0.155849 0.227445 0.735807
O O14 0.302797 0.081557 0.704289
O O15 0.754511 0.697197 0.047190
O O16 0.500000 0.640103 0.000000
O O17 0.136863 0.384714 0.790029
O O18 0.000000 0.500000 0.855657
#
# Coordination Sequence:
#
# PCOD8163682 Si02
#       8
#     8   8   8   8   8   8   8   8
#     4  11  26  46  68  95 130 178 228 279 335 393
#     4  10  23  43  67  98 130 175 223 277 323 401
#     4  10  20  38  64  88 127 165 210 259 326 386
#     4  10  20  39  60  94 123 167 213 269 329 391
#     4  11  24  40  61  95 132 166 207 272 324 387
#     4   9  18  37  61  84 120 166 209 260 322 393
#     4  11  24  42  70  93 132 173 224 271 331 395
#     4   9  21  37  62  92 129 162 215 270 325 394
#
# _framework density 20.595006000000001
#
# number of rings (size 3 to 8) (size 9 to 14) (size 15 to 20)
#    0.000    1.875    1.250    2.625    3.500    5.000 
#    2.250    2.500    2.750    0.000    0.000    0.000 
#    0.000    0.000    0.000    0.000    0.000    0.000 
#
# Total GULP energy -396431.380006 kJ/mol
# GULP energy per Si atom -12388.480625 kJ/mol
# Density = 2.054813 g / cm^3
# Si number density = 20.595006 Si / 1000 Ang^3
#
#
#
# Elastic Constant Matrix: (Units=GPa)
#
#
# Indices 1 2 3 4 5 6 
#
# 1 58.7068 31.2173 1.6138 0.0000 0.0000 0.0000
# 2 31.2173 134.4522 15.1736 0.0000 0.0000 0.0000
# 3 1.6138 15.1736 48.9659 0.0000 0.0000 0.0000
# 4 0.0000 0.0000 0.0000 26.5177 0.0000 0.0000
# 5 0.0000 0.0000 0.0000 0.0000 36.5165 0.0000
# 6 0.0000 0.0000 0.0000 0.0000 0.0000 39.7839
#
#
#
# Elastic Compliance Matrix: (Units=1/GPa)
#
#
# Indices 1 2 3 4 5 6 
#
# 1 0.019462 -0.004608 0.000786 0.000000 0.000000 0.000000
# 2 -0.004608 0.008798 -0.002574 0.000000 0.000000 0.000000
# 3 0.000786 -0.002574 0.021194 0.000000 0.000000 0.000000
# 4 0.000000 0.000000 0.000000 0.037711 0.000000 0.000000
# 5 0.000000 0.000000 0.000000 0.000000 0.027385 0.000000
# 6 0.000000 0.000000 0.000000 0.000000 0.000000 0.025136
#
#
# Mechanical properties :
#
#
# Convention : Reuss Voigt Hill
#
# Bulk Modulus (GPa) = 27.27532 37.57047 32.42290
# Shear Modulus (GPa) = 30.35862 33.50499 31.93180
#
# Velocity S-wave (km/s) = 3.84354 4.03780 3.94186
# Velocity P-wave (km/s) = 5.74190 6.32618 6.04111
#
# Compressibility (1/GPa) = 0.03666318
#
# Stress axis : x y z
#
# Youngs Moduli (GPa) = 51.38156 113.66336 47.18261
#
# Poissons Ratio (x) = 0.52371 -0.03710
# Poissons Ratio (y) = 0.23674 0.12147
# Poissons Ratio (z) = -0.04040 0.29262
#
# Static dielectric constant tensor:
#      x y z
#    x 3.975920 0.000000 0.000000 
#    y 0.000000 4.012190 0.000000 
#    z 0.000000 0.000000 3.678580 
# 
# 
# High freq. dielectric constant tensor:
#      x y z
#    x 1.812420 0.000000 0.000000 
#    y 0.000000 1.815260 0.000000 
#    z 0.000000 0.000000 1.793400 
# 
# From -- ./inp_files/30361.got.cif
#   From: 2010.03.12/outbox.cif.g09.slc.cpg/sg23_16_cif.got.tgz:30361.got - 2010.04.14 02:50:06.
