data_PCOD8163967
_publ_section_title
;
Structure prediction by ZEFSAII (Michael W. Deem and Ramdas Pophale) SiO2 
 PCOD8163967
Probable space group: I 2 2 2
;
_chemical_formula_sum "Si O2"
_cell_formula_units_Z 48
_cell_length_a 9.084667
_cell_length_b 28.907396
_cell_length_c 8.964457
_cell_angle_alpha 90.000000
_cell_angle_beta 90.000000
_cell_angle_gamma 90.000000
_cell_volume 2354.192507
_symmetry_space_group_name_H-M "I 2 2 2"
_symmetry_group_IT_number 23
_symmetry_cell_setting 'orthorhombic'
loop_
_space_group_symop_operation_xyz
x,y,z
-x,-y,z
x,-y,-z
-x,y,-z
1/2+x,1/2+y,1/2+z
1/2-x,1/2-y,1/2+z
1/2+x,1/2-y,1/2-z
1/2-x,1/2+y,1/2-z
loop_
_atom_site_type_symbol
_atom_site_label
_atom_site_fract_x
_atom_site_fract_y
_atom_site_fract_z
Si Si1 0.022950 0.232753 0.831988
Si Si2 0.206164 0.305278 0.179055
Si Si3 0.171979 0.585654 0.166484
Si Si4 0.365662 0.668084 0.102323
Si Si5 0.834651 0.996301 0.678224
Si Si6 0.846247 0.591232 0.185504
O O1 0.960560 0.285385 0.813944
O O2 0.925430 0.201220 0.727015
O O3 0.192058 0.227797 0.781536
O O4 0.000000 0.215339 0.000000
O O5 0.217083 0.358584 0.232544
O O6 0.255781 0.303040 0.005505
O O7 0.281722 0.628313 0.194385
O O8 0.242471 0.539828 0.237477
O O9 0.013318 0.589741 0.247130
O O10 0.148932 0.583709 0.990297
O O11 0.500000 0.647555 0.000000
O O12 0.759189 0.949744 0.745406
O O13 0.835687 0.000000 0.500000
O O14 0.000000 0.000000 0.740922
#
# Coordination Sequence:
#
# PCOD8163967 Si02
#       6
#     8   8   8   8   8   8
#     4  11  23  37  56  79 111 147 186 231 275 320
#     4  10  22  36  58  79 110 143 189 228 275 330
#     4   9  17  28  51  71 108 145 177 217 273 332
#     4   9  20  35  55  81 109 146 189 227 272 326
#     4   9  17  25  44  74 110 140 173 217 273 329
#     4   9  18  30  46  75 107 142 178 221 273 331
#
# _framework density 20.389157000000001
#
# number of rings (size 3 to 8) (size 9 to 14) (size 15 to 20)
#    0.000    2.500    0.000    1.500   16.333    2.000 
#    0.000    0.000    0.000    0.000    0.000    2.333 
#    0.000    2.667    0.000    0.667    0.000    0.000 
#
# Total GULP energy -297426.209024 kJ/mol
# GULP energy per Si atom -12392.758709 kJ/mol
# Density = 2.034275 g / cm^3
# Si number density = 20.389157 Si / 1000 Ang^3
#
#
#
# Elastic Constant Matrix: (Units=GPa)
#
#
# Indices 1 2 3 4 5 6 
#
# 1 133.1698 64.5427 8.9996 -0.0003 0.0004 -0.0001
# 2 64.5427 124.7328 22.6769 -0.0008 0.0006 -0.0002
# 3 8.9996 22.6769 38.3596 -0.0019 0.0003 -0.0004
# 4 -0.0003 -0.0008 -0.0019 8.8282 0.0008 -0.0002
# 5 0.0004 0.0006 0.0003 0.0008 12.4452 -0.0002
# 6 -0.0001 -0.0002 -0.0004 -0.0002 -0.0002 46.9379
#
#
#
# Elastic Compliance Matrix: (Units=1/GPa)
#
#
# Indices 1 2 3 4 5 6 
#
# 1 0.010045 -0.005344 0.000802 0.000000 0.000000 0.000000
# 2 -0.005344 0.011825 -0.005737 0.000000 0.000000 0.000000
# 3 0.000802 -0.005737 0.029272 0.000006 0.000000 0.000000
# 4 0.000000 0.000000 0.000006 0.113274 -0.000008 0.000001
# 5 0.000000 0.000000 0.000000 -0.000008 0.080352 0.000000
# 6 0.000000 0.000000 0.000000 0.000001 0.000000 0.021305
#
#
# Mechanical properties :
#
#
# Convention : Reuss Voigt Hill
#
# Bulk Modulus (GPa) = 32.69480 54.30005 43.49742
# Shear Modulus (GPa) = 16.84495 26.97845 21.91170
#
# Velocity S-wave (km/s) = 2.87744 3.64150 3.28178
# Velocity P-wave (km/s) = 5.20670 6.66110 5.97830
#
# Compressibility (1/GPa) = 0.03058590
#
# Stress axis : x y z
#
# Youngs Moduli (GPa) = 99.55391 84.56560 34.16191
#
# Poissons Ratio (x) = 0.45188 -0.02741
# Poissons Ratio (y) = 0.53197 0.19599
# Poissons Ratio (z) = -0.07987 0.48515
#
# Static dielectric constant tensor:
#      x y z
#    x 4.138040 0.000000 0.000000 
#    y 0.000000 3.768160 0.000000 
#    z 0.000000 0.000000 3.100360 
# 
# 
# High freq. dielectric constant tensor:
#      x y z
#    x 1.819720 0.000000 0.000000 
#    y 0.000000 1.801930 0.000000 
#    z 0.000000 0.000000 1.718300 
# 
# From -- ./inp_files/7386.got.cif
#   From: 2010.03.12/outbox.cif.g09.slc.cpg/sg23_4_cif.got.tgz:7386.got - 2010.04.14 02:50:06.
