data_PCOD8163305
_publ_section_title
;
Structure prediction by ZEFSAII (Michael W. Deem and Ramdas Pophale) SiO2 
 PCOD8163305
Probable space group: I 2 2 2
;
_chemical_formula_sum "Si O2"
_cell_formula_units_Z 36
_cell_length_a 21.488110
_cell_length_b 17.985454
_cell_length_c 5.134499
_cell_angle_alpha 90.000000
_cell_angle_beta 90.000000
_cell_angle_gamma 90.000000
_cell_volume 1984.347357
_symmetry_space_group_name_H-M "I 2 2 2"
_symmetry_group_IT_number 23
_symmetry_cell_setting 'orthorhombic'
loop_
_space_group_symop_operation_xyz
x,y,z
-x,-y,z
x,-y,-z
-x,y,-z
1/2+x,1/2+y,1/2+z
1/2-x,1/2-y,1/2+z
1/2+x,1/2-y,1/2-z
1/2-x,1/2+y,1/2-z
loop_
_atom_site_type_symbol
_atom_site_label
_atom_site_fract_x
_atom_site_fract_y
_atom_site_fract_z
Si Si1 0.500000 0.650525 0.000000
Si Si2 0.304996 0.677829 0.720280
Si Si3 0.963798 0.705185 0.259662
Si Si4 0.328697 0.226175 0.777619
Si Si5 0.396829 0.450649 0.247193
O O1 0.462107 0.704554 0.198665
O O2 0.544236 0.600461 0.178807
O O3 0.327531 0.723415 0.474773
O O4 0.229936 0.670046 0.719334
O O5 0.334851 0.596768 0.699406
O O6 0.329261 0.720832 0.972643
O O7 0.892156 0.677862 0.260729
O O8 0.000000 0.666373 0.500000
O O9 0.000000 0.682413 0.000000
O O10 0.413206 0.500000 0.500000
O O11 0.380597 0.500000 0.000000
#
# Coordination Sequence:
#
# PCOD8163305 Si02
#       5
#     4   8   8   8   8
#     4  10  23  34  50  64 104 136 179 194 242 284
#     4  10  20  35  53  71  95 129 182 217 256 296
#     4  10  19  30  53  72 103 123 161 211 257 300
#     4  10  18  34  56  73  93 130 167 224 268 298
#     4  12  25  36  49  71 105 144 182 208 238 296
#
# _framework density 18.141985999999999
#
# number of rings (size 3 to 8) (size 9 to 14) (size 15 to 20)
#    0.667    0.889    2.222    4.333    3.111    0.889 
#    0.000    0.000    0.000    0.000    0.000    0.000 
#    0.000    5.333    0.000    0.000    0.000    0.000 
#
# Total GULP energy -223134.150423 kJ/mol
# GULP energy per Si atom -12396.341690 kJ/mol
# Density = 1.810069 g / cm^3
# Si number density = 18.141986 Si / 1000 Ang^3
#
#
#
# Elastic Constant Matrix: (Units=GPa)
#
#
# Indices 1 2 3 4 5 6 
#
# 1 140.5972 2.5068 29.2833 0.0000 0.0000 0.0000
# 2 2.5068 25.7816 3.2110 0.0000 0.0000 0.0000
# 3 29.2833 3.2110 134.8050 0.0000 0.0000 0.0000
# 4 0.0000 0.0000 0.0000 14.3650 0.0000 0.0000
# 5 0.0000 0.0000 0.0000 0.0000 31.4622 0.0000
# 6 0.0000 0.0000 0.0000 0.0000 0.0000 196.5746
#
#
#
# Elastic Compliance Matrix: (Units=1/GPa)
#
#
# Indices 1 2 3 4 5 6 
#
# 1 0.007457 -0.000525 -0.001607 0.000000 0.000000 0.000000
# 2 -0.000525 0.038940 -0.000814 0.000000 0.000000 0.000000
# 3 -0.001607 -0.000814 0.007787 0.000000 0.000000 0.000000
# 4 0.000000 0.000000 0.000000 0.069614 0.000000 0.000000
# 5 0.000000 0.000000 0.000000 0.000000 0.031784 0.000000
# 6 0.000000 0.000000 0.000000 0.000000 0.000000 0.005087
#
#
# Mechanical properties :
#
#
# Convention : Reuss Voigt Hill
#
# Bulk Modulus (GPa) = 20.70752 41.24291 30.97521
# Shear Modulus (GPa) = 27.37380 66.22586 46.79983
#
# Velocity S-wave (km/s) = 3.88862 6.04842 5.08453
# Velocity P-wave (km/s) = 5.62146 8.45935 7.18197
#
# Compressibility (1/GPa) = 0.04829164
#
# Stress axis : x y z
#
# Youngs Moduli (GPa) = 134.10873 25.68075 128.42499
#
# Poissons Ratio (x) = 0.01348 0.20642
# Poissons Ratio (y) = 0.07039 0.10448
# Poissons Ratio (z) = 0.21555 0.02089
#
# Static dielectric constant tensor:
#      x y z
#    x 3.663210 0.000000 0.000000 
#    y 0.000000 2.729610 0.000000 
#    z 0.000000 0.000000 3.288370 
# 
# 
# High freq. dielectric constant tensor:
#      x y z
#    x 1.719830 0.000000 0.000000 
#    y 0.000000 1.630470 0.000000 
#    z 0.000000 0.000000 1.730000 
# 
# From -- ./inp_files/3314.got.cif
#   From: 2010.03.12/outbox.cif.g09.slc.cpg/sg23_2_cif.got.tgz:3314.got - 2010.04.14 02:50:06.
