data_PCOD8163717
_publ_section_title
;
Structure prediction by ZEFSAII (Michael W. Deem and Ramdas Pophale) SiO2 
 PCOD8163717
Probable space group: I 2 2 2
;
_chemical_formula_sum "Si O2"
_cell_formula_units_Z 58
_cell_length_a 8.925453
_cell_length_b 19.737021
_cell_length_c 16.512212
_cell_angle_alpha 90.000000
_cell_angle_beta 90.000000
_cell_angle_gamma 90.000000
_cell_volume 2908.821868
_symmetry_space_group_name_H-M "I 2 2 2"
_symmetry_group_IT_number 23
_symmetry_cell_setting 'orthorhombic'
loop_
_space_group_symop_operation_xyz
x,y,z
-x,-y,z
x,-y,-z
-x,y,-z
1/2+x,1/2+y,1/2+z
1/2-x,1/2-y,1/2+z
1/2+x,1/2-y,1/2-z
1/2-x,1/2+y,1/2-z
loop_
_atom_site_type_symbol
_atom_site_label
_atom_site_fract_x
_atom_site_fract_y
_atom_site_fract_z
Si Si1 0.500000 0.000000 0.500000
Si Si2 0.892469 0.817698 0.284576
Si Si3 0.094475 0.929467 0.844016
Si Si4 0.125383 0.620138 0.910874
Si Si5 0.325679 0.929605 0.974313
Si Si6 0.152680 0.840422 0.091378
Si Si7 0.771526 0.188185 0.267455
Si Si8 0.178497 0.312142 0.930742
O O1 0.613208 0.043163 0.442893
O O2 0.888901 0.891518 0.242078
O O3 0.815369 0.759747 0.229285
O O4 0.821600 0.822697 0.373624
O O5 0.061941 0.793714 0.295802
O O6 0.265499 0.930039 0.880644
O O7 0.000499 0.882967 0.906662
O O8 0.000000 0.000000 0.832983
O O9 0.207074 0.629431 0.825576
O O10 0.954537 0.641999 0.897251
O O11 0.214216 0.665807 0.977190
O O12 0.500000 0.930889 0.000000
O O13 0.263495 0.866402 0.023094
O O14 0.250154 0.000000 0.000000
O O15 0.234736 0.844870 0.178470
O O16 0.115294 0.763601 0.070262
#
# Coordination Sequence:
#
# PCOD8163717 Si02
#       8
#     2   8   8   8   8   8   8   8
#     4   8  20  40  60  86 116 156 224 234 320 356
#     4  10  22  40  61  92 123 155 202 256 298 367
#     4  11  22  38  61  84 119 168 201 235 304 369
#     4  10  20  40  62  88 117 165 195 260 301 367
#     4  11  24  38  54  85 124 155 200 248 288 355
#     4  10  21  38  57  89 116 160 198 243 298 370
#     4  10  21  38  62  87 124 151 205 247 308 349
#     4   9  21  38  62  90 119 151 207 250 309 353
#
# _framework density 19.939344999999999
#
# number of rings (size 3 to 8) (size 9 to 14) (size 15 to 20)
#    0.000    2.069    1.379    2.897    5.793    3.862 
#    9.931    1.379    0.000    3.310    0.000    0.000 
#    0.000    0.000    0.000    0.000    0.000    0.000 
#
# Total GULP energy -359273.573237 kJ/mol
# GULP energy per Si atom -12388.743905 kJ/mol
# Density = 1.989396 g / cm^3
# Si number density = 19.939345 Si / 1000 Ang^3
#
#
#
# Elastic Constant Matrix: (Units=GPa)
#
#
# Indices 1 2 3 4 5 6 
#
# 1 77.6527 20.5227 20.5768 0.0000 0.0000 0.0000
# 2 20.5227 109.7433 26.7922 0.0000 0.0000 0.0000
# 3 20.5768 26.7922 84.3581 0.0000 0.0000 0.0000
# 4 0.0000 0.0000 0.0000 20.7362 0.0000 0.0000
# 5 0.0000 0.0000 0.0000 0.0000 35.1206 0.0000
# 6 0.0000 0.0000 0.0000 0.0000 0.0000 20.3142
#
#
#
# Elastic Compliance Matrix: (Units=1/GPa)
#
#
# Indices 1 2 3 4 5 6 
#
# 1 0.014144 -0.001954 -0.002829 0.000000 0.000000 0.000000
# 2 -0.001954 0.010148 -0.002746 0.000000 0.000000 0.000000
# 3 -0.002829 -0.002746 0.013417 0.000000 0.000000 0.000000
# 4 0.000000 0.000000 0.000000 0.048225 0.000000 0.000000
# 5 0.000000 0.000000 0.000000 0.000000 0.028473 0.000000
# 6 0.000000 0.000000 0.000000 0.000000 0.000000 0.049227
#
#
# Mechanical properties :
#
#
# Convention : Reuss Voigt Hill
#
# Bulk Modulus (GPa) = 44.15245 45.28194 44.71719
# Shear Modulus (GPa) = 26.84661 28.82502 27.83581
#
# Velocity S-wave (km/s) = 3.67333 3.80628 3.74039
# Velocity P-wave (km/s) = 6.33898 6.48661 6.41322
#
# Compressibility (1/GPa) = 0.02264880
#
# Stress axis : x y z
#
# Youngs Moduli (GPa) = 70.70096 98.54039 74.53447
#
# Poissons Ratio (x) = 0.19258 0.21089
# Poissons Ratio (y) = 0.13817 0.20470
# Poissons Ratio (z) = 0.20004 0.27063
#
# Static dielectric constant tensor:
#      x y z
#    x 3.538960 0.000000 0.000000 
#    y 0.000000 3.885180 0.000000 
#    z 0.000000 0.000000 3.606790 
# 
# 
# High freq. dielectric constant tensor:
#      x y z
#    x 1.767860 0.000000 0.000000 
#    y 0.000000 1.782350 0.000000 
#    z 0.000000 0.000000 1.774110 
# 
# From -- ./inp_files/23903.got.cif
#   From: 2010.03.12/outbox.cif.g09.slc.cpg/sg23_12_cif.got.tgz:23903.got - 2010.04.14 02:50:06.
