data_PCOD8163165
_publ_section_title
;
Structure prediction by ZEFSAII (Michael W. Deem and Ramdas Pophale) SiO2 
 PCOD8163165
Probable space group: F 2 2 2
;
_chemical_formula_sum "Si O2"
_cell_formula_units_Z 88
_cell_length_a 18.341734
_cell_length_b 18.807829
_cell_length_c 11.720602
_cell_angle_alpha 90.000000
_cell_angle_beta 90.000000
_cell_angle_gamma 90.000000
_cell_volume 4043.234935
_symmetry_space_group_name_H-M "F 2 2 2"
_symmetry_group_IT_number 22
_symmetry_cell_setting 'orthorhombic'
loop_
_space_group_symop_operation_xyz
x,y,z
-x,-y,z
x,-y,-z
-x,y,-z
x,1/2+y,1/2+z
-x,1/2-y,1/2+z
x,1/2-y,1/2-z
-x,1/2+y,1/2-z
1/2+x,y,1/2+z
1/2-x,-y,1/2+z
1/2+x,-y,1/2-z
1/2-x,y,1/2-z
1/2+x,1/2+y,z
1/2-x,1/2-y,z
1/2+x,1/2-y,-z
1/2-x,1/2+y,-z
loop_
_atom_site_type_symbol
_atom_site_label
_atom_site_fract_x
_atom_site_fract_y
_atom_site_fract_z
Si Si1 0.750000 0.250000 0.958417
Si Si2 0.939863 0.111167 0.095838
Si Si3 0.877294 0.743950 0.885723
Si Si4 0.845890 0.500000 0.500000
Si Si5 0.809315 0.886709 0.161995
Si Si6 0.500000 0.652289 0.500000
Si Si7 0.463252 0.078161 0.217622
O O1 0.792181 0.194281 0.876177
O O2 0.808435 0.287510 0.043857
O O3 0.886980 0.176294 0.065809
O O4 0.976217 0.126305 0.218340
O O5 0.000000 0.103297 0.000000
O O6 0.895324 0.037290 0.097585
O O7 0.863202 0.750000 0.750000
O O8 0.947932 0.698954 0.920188
O O9 0.797075 0.438563 0.554891
O O10 0.750000 0.912622 0.250000
O O11 0.888580 0.903307 0.215756
O O12 0.454137 0.602483 0.586549
O O13 0.500000 0.000000 0.224469
#
# Coordination Sequence:
#
# PCOD8163165 Si02
#       7
#     8  16  16   8  16   8  16
#     4  12  26  50  72 104 146 200 254 320 388 458
#     4  12  20  42  77 104 135 184 255 314 361 439
#     4  12  25  44  70 104 147 197 249 314 381 452
#     4  12  23  46  72 106 135 190 256 308 375 454
#     4  12  27  48  73 106 148 200 249 315 390 465
#     4  12  27  42  70 111 148 198 252 318 388 451
#     4  12  24  47  76 107 149 197 259 321 379 456
#
# _framework density 21.764749999999999
#
# number of rings (size 3 to 8) (size 9 to 14) (size 15 to 20)
#    0.000    0.000    8.182    2.182    0.000    0.000 
#    9.818    0.000    0.000    0.000    0.000    0.000 
#    0.000    0.000    0.000    0.000    0.000    0.000 
#
# Total GULP energy -272558.032531 kJ/mol
# GULP energy per Si atom -12389.001479 kJ/mol
# Density = 2.171521 g / cm^3
# Si number density = 21.764750 Si / 1000 Ang^3
#
#
#
# Elastic Constant Matrix: (Units=GPa)
#
#
# Indices 1 2 3 4 5 6 
#
# 1 107.8587 48.2652 51.8161 0.0000 0.0000 0.0000
# 2 48.2652 121.9889 50.3316 0.0000 0.0000 0.0000
# 3 51.8161 50.3316 131.3110 0.0000 0.0000 0.0000
# 4 0.0000 0.0000 0.0000 27.2464 0.0000 0.0000
# 5 0.0000 0.0000 0.0000 0.0000 40.1908 0.0000
# 6 0.0000 0.0000 0.0000 0.0000 0.0000 1256.1048
#
#
#
# Elastic Compliance Matrix: (Units=1/GPa)
#
#
# Indices 1 2 3 4 5 6 
#
# 1 0.012570 -0.003477 -0.003628 0.000000 0.000000 0.000000
# 2 -0.003477 0.010699 -0.002729 0.000000 0.000000 0.000000
# 3 -0.003628 -0.002729 0.010093 0.000000 0.000000 0.000000
# 4 0.000000 0.000000 0.000000 0.036702 0.000000 0.000000
# 5 0.000000 0.000000 0.000000 0.000000 0.024881 0.000000
# 6 0.000000 0.000000 0.000000 0.000000 0.000000 0.000796
#
#
# Mechanical properties :
#
#
# Convention : Reuss Voigt Hill
#
# Bulk Modulus (GPa) = 73.01701 73.55383 73.28542
# Shear Modulus (GPa) = 41.67610 278.75809 160.21709
#
# Velocity S-wave (km/s) = 4.38064 11.32942 8.58912
# Velocity P-wave (km/s) = 7.69466 14.31815 11.49385
#
# Compressibility (1/GPa) = 0.01369544
#
# Stress axis : x y z
#
# Youngs Moduli (GPa) = 79.55567 93.46697 99.07848
#
# Poissons Ratio (x) = 0.32495 0.35941
# Poissons Ratio (y) = 0.27658 0.27039
# Poissons Ratio (z) = 0.28859 0.25508
#
# Static dielectric constant tensor:
#      x y z
#    x 4.019140 0.000000 0.000000 
#    y 0.000000 3.994760 0.000000 
#    z 0.000000 0.000000 -21.639850 
# 
# 
# High freq. dielectric constant tensor:
#      x y z
#    x 1.847650 0.000000 0.000000 
#    y 0.000000 1.855820 0.000000 
#    z 0.000000 0.000000 1.872350 
# 
# From -- ./inp_files/22647.got.cif
#   From: 2010.03.12/outbox.cif.g09.slc.cpg/sg22_12_cif.got.tgz:22647.got - 2010.04.14 02:24:06.
