data_PCOD8163307
_publ_section_title
;
Structure prediction by ZEFSAII (Michael W. Deem and Ramdas Pophale) SiO2 
 PCOD8163307
Probable space group: I 2 2 2
;
_chemical_formula_sum "Si O2"
_cell_formula_units_Z 48
_cell_length_a 21.237557
_cell_length_b 9.626279
_cell_length_c 13.073281
_cell_angle_alpha 90.000000
_cell_angle_beta 90.000000
_cell_angle_gamma 90.000000
_cell_volume 2672.683905
_symmetry_space_group_name_H-M "I 2 2 2"
_symmetry_group_IT_number 23
_symmetry_cell_setting 'orthorhombic'
loop_
_space_group_symop_operation_xyz
x,y,z
-x,-y,z
x,-y,-z
-x,y,-z
1/2+x,1/2+y,1/2+z
1/2-x,1/2-y,1/2+z
1/2+x,1/2-y,1/2-z
1/2-x,1/2+y,1/2-z
loop_
_atom_site_type_symbol
_atom_site_label
_atom_site_fract_x
_atom_site_fract_y
_atom_site_fract_z
Si Si1 0.133214 0.277382 0.285820
Si Si2 0.871648 0.704197 0.714635
Si Si3 0.788144 0.500869 0.388343
Si Si4 0.498802 0.835810 0.116722
Si Si5 0.330147 0.988683 0.380691
Si Si6 0.302055 0.505020 0.787637
O O1 0.181813 0.351096 0.362234
O O2 0.143210 0.346508 0.172397
O O3 0.062330 0.290631 0.322025
O O4 0.147230 0.115482 0.300583
O O5 0.841701 0.616353 0.622008
O O6 0.944301 0.724499 0.685139
O O7 0.860875 0.619928 0.820796
O O8 0.838403 0.851474 0.720366
O O9 0.760030 0.500000 0.500000
O O10 0.729152 0.466155 0.319335
O O11 0.500000 0.000000 0.112712
O O12 0.500000 0.776669 0.000000
O O13 0.253783 0.990759 0.372310
O O14 0.349415 0.000000 0.500000
#
# Coordination Sequence:
#
# PCOD8163307 Si02
#       6
#     8   8   8   8   8   8
#     4  10  21  36  54  82 111 140 180 223 267 314
#     4  10  21  36  54  82 111 140 180 223 267 314
#     4  10  18  34  59  79 103 146 185 217 264 319
#     4  11  20  37  61  79 102 140 183 222 263 319
#     4  10  20  36  58  80 108 146 184 218 260 318
#     4  10  22  35  51  82 119 140 169 225 274 319
#
# _framework density 17.959475999999999
#
# number of rings (size 3 to 8) (size 9 to 14) (size 15 to 20)
#    0.000    2.167    3.333    5.000    0.000    7.333 
#    0.000    2.500    0.000    0.000    0.000    3.500 
#    0.000    0.000    0.000    0.000    0.000    0.000 
#
# Total GULP energy -297434.241815 kJ/mol
# GULP energy per Si atom -12393.093409 kJ/mol
# Density = 1.791860 g / cm^3
# Si number density = 17.959476 Si / 1000 Ang^3
#
#
#
# Elastic Constant Matrix: (Units=GPa)
#
#
# Indices 1 2 3 4 5 6 
#
# 1 105.2901 18.7471 31.5509 0.0000 0.0000 0.0000
# 2 18.7471 86.6738 15.5766 0.0000 0.0000 0.0000
# 3 31.5509 15.5766 114.5332 0.0000 0.0000 0.0000
# 4 0.0000 0.0000 0.0000 2.4642 0.0000 0.0000
# 5 0.0000 0.0000 0.0000 0.0000 7.9462 0.0000
# 6 0.0000 0.0000 0.0000 0.0000 0.0000 33.5182
#
#
#
# Elastic Compliance Matrix: (Units=1/GPa)
#
#
# Indices 1 2 3 4 5 6 
#
# 1 0.010624 -0.001816 -0.002680 0.000000 0.000000 0.000000
# 2 -0.001816 0.012137 -0.001150 0.000000 0.000000 0.000000
# 3 -0.002680 -0.001150 0.009626 0.000000 0.000000 0.000000
# 4 0.000000 0.000000 0.000000 0.405809 0.000000 0.000000
# 5 0.000000 0.000000 0.000000 0.000000 0.125846 0.000000
# 6 0.000000 0.000000 0.000000 0.000000 0.000000 0.029835
#
#
# Mechanical properties :
#
#
# Convention : Reuss Voigt Hill
#
# Bulk Modulus (GPa) = 47.40627 48.69404 48.05015
# Shear Modulus (GPa) = 8.16727 24.82723 16.49725
#
# Velocity S-wave (km/s) = 2.13483 3.72210 3.03410
# Velocity P-wave (km/s) = 5.70352 6.75605 6.25198
#
# Compressibility (1/GPa) = 0.02109426
#
# Stress axis : x y z
#
# Youngs Moduli (GPa) = 94.12710 82.39198 103.88861
#
# Poissons Ratio (x) = 0.14965 0.27838
# Poissons Ratio (y) = 0.17097 0.11950
# Poissons Ratio (z) = 0.25222 0.09478
#
# Static dielectric constant tensor:
#      x y z
#    x 3.446450 0.000000 0.000000 
#    y 0.000000 3.051210 0.000000 
#    z 0.000000 0.000000 3.131230 
# 
# 
# High freq. dielectric constant tensor:
#      x y z
#    x 1.691470 0.000000 0.000000 
#    y 0.000000 1.690690 0.000000 
#    z 0.000000 0.000000 1.684930 
# 
# From -- ./inp_files/22314.got.cif
#   From: 2010.03.12/outbox.cif.g09.slc.cpg/sg23_12_cif.got.tgz:22314.got - 2010.04.14 02:50:06.
