data_PCOD8163175
_publ_section_title
;
Structure prediction by ZEFSAII (Michael W. Deem and Ramdas Pophale) SiO2 
 PCOD8163175
Probable space group: F 2 2 2
;
_chemical_formula_sum "Si O2"
_cell_formula_units_Z 120
_cell_length_a 13.790429
_cell_length_b 15.485978
_cell_length_c 33.063302
_cell_angle_alpha 90.000000
_cell_angle_beta 90.000000
_cell_angle_gamma 90.000000
_cell_volume 7060.941910
_symmetry_space_group_name_H-M "F 2 2 2"
_symmetry_group_IT_number 22
_symmetry_cell_setting 'orthorhombic'
loop_
_space_group_symop_operation_xyz
x,y,z
-x,-y,z
x,-y,-z
-x,y,-z
x,1/2+y,1/2+z
-x,1/2-y,1/2+z
x,1/2-y,1/2-z
-x,1/2+y,1/2-z
1/2+x,y,1/2+z
1/2-x,-y,1/2+z
1/2+x,-y,1/2-z
1/2-x,y,1/2-z
1/2+x,1/2+y,z
1/2-x,1/2-y,z
1/2+x,1/2-y,-z
1/2-x,1/2+y,-z
loop_
_atom_site_type_symbol
_atom_site_label
_atom_site_fract_x
_atom_site_fract_y
_atom_site_fract_z
Si Si1 0.712442 0.995734 0.704568
Si Si2 0.495113 0.329382 0.280139
Si Si3 0.687051 0.166361 0.168177
Si Si4 0.000000 0.500000 0.728727
Si Si5 0.110035 0.102767 0.587491
Si Si6 0.119918 0.403591 0.086776
Si Si7 0.393730 0.602222 0.499754
Si Si8 0.692459 0.836489 0.167422
O O1 0.750000 0.983323 0.750000
O O2 0.595719 0.990022 0.701345
O O3 0.747671 0.086645 0.687546
O O4 0.752348 0.919144 0.677162
O O5 0.483073 0.250000 0.250000
O O6 0.597558 0.326589 0.301800
O O7 0.483665 0.417900 0.256625
O O8 0.413330 0.327114 0.313939
O O9 0.750000 0.250000 0.176329
O O10 0.655199 0.164209 0.121421
O O11 0.154693 0.130114 0.543174
O O12 0.994521 0.114524 0.588186
O O13 0.138513 0.003970 0.596473
O O14 0.160487 0.374370 0.042045
O O15 0.179484 0.349281 0.119482
O O16 0.406763 0.500000 0.500000
O O17 0.500000 0.645244 0.500000
O O18 0.750000 0.750000 0.176255
#
# Coordination Sequence:
#
# PCOD8163175 Si02
#       8
#    16  16  16   8  16  16  16  16
#     4  12  24  40  58  79 105 141 183 225 269 321
#     4  12  24  38  56  75 104 147 184 232 270 314
#     4  12  24  36  55  81 110 141 186 228 270 323
#     4  12  24  40  60  76 102 140 186 218 278 318
#     4   9  16  31  55  81 110 139 174 221 277 327
#     4   9  16  31  55  81 110 139 174 221 277 327
#     4   7  12  24  49  82 108 135 168 214 273 329
#     4  12  24  36  55  81 110 141 186 228 270 323
#
# _framework density 16.994899
#
# number of rings (size 3 to 8) (size 9 to 14) (size 15 to 20)
#    0.000    1.467    5.333    3.200    0.000    0.000 
#    0.000    0.667    0.000    0.000    0.000    0.000 
#    0.000    1.067    0.000    0.000    0.000    0.000 
#
# Total GULP energy -371834.729569 kJ/mol
# GULP energy per Si atom -12394.490986 kJ/mol
# Density = 1.695622 g / cm^3
# Si number density = 16.994899 Si / 1000 Ang^3
#
#
#
# Elastic Constant Matrix: (Units=GPa)
#
#
# Indices 1 2 3 4 5 6 
#
# 1 70.7008 14.6343 14.7860 0.0000 0.0000 0.0000
# 2 14.6343 78.9292 15.8483 0.0000 0.0000 0.0000
# 3 14.7860 15.8483 97.4009 0.0000 0.0000 0.0000
# 4 0.0000 0.0000 0.0000 6.0172 0.0000 0.0000
# 5 0.0000 0.0000 0.0000 0.0000 29.6725 0.0000
# 6 0.0000 0.0000 0.0000 0.0000 0.0000 39.8740
#
#
#
# Elastic Compliance Matrix: (Units=1/GPa)
#
#
# Indices 1 2 3 4 5 6 
#
# 1 0.015038 -0.002409 -0.001891 0.000000 0.000000 0.000000
# 2 -0.002409 0.013483 -0.001828 0.000000 0.000000 0.000000
# 3 -0.001891 -0.001828 0.010851 0.000000 0.000000 0.000000
# 4 0.000000 0.000000 0.000000 0.166190 0.000000 0.000000
# 5 0.000000 0.000000 0.000000 0.000000 0.033701 0.000000
# 6 0.000000 0.000000 0.000000 0.000000 0.000000 0.025079
#
#
# Mechanical properties :
#
#
# Convention : Reuss Voigt Hill
#
# Bulk Modulus (GPa) = 36.87694 37.50757 37.19225
# Shear Modulus (GPa) = 17.50468 28.56356 23.03412
#
# Velocity S-wave (km/s) = 3.21284 4.10410 3.68551
# Velocity P-wave (km/s) = 5.95894 6.67652 6.32791
#
# Compressibility (1/GPa) = 0.02711722
#
# Stress axis : x y z
#
# Youngs Moduli (GPa) = 66.49762 74.16613 92.15413
#
# Poissons Ratio (x) = 0.17863 0.17426
# Poissons Ratio (y) = 0.16016 0.16848
# Poissons Ratio (z) = 0.12575 0.13559
#
# Static dielectric constant tensor:
#      x y z
#    x 3.077630 0.000000 0.000000 
#    y 0.000000 3.013790 0.000000 
#    z 0.000000 0.000000 3.323760 
# 
# 
# High freq. dielectric constant tensor:
#      x y z
#    x 1.635640 0.000000 0.000000 
#    y 0.000000 1.638950 0.000000 
#    z 0.000000 0.000000 1.670650 
# 
# From -- ./inp_files/56571.got.cif
#   From: 2010.03.12/outbox.cif.g09.slc.cpg/sg22_29_cif.got.tgz:56571.got - 2010.04.14 02:24:06.
