data_PCOD8163324
_publ_section_title
;
Structure prediction by ZEFSAII (Michael W. Deem and Ramdas Pophale) SiO2 
 PCOD8163324
Probable space group: I 2 2 2
;
_chemical_formula_sum "Si O2"
_cell_formula_units_Z 60
_cell_length_a 19.059630
_cell_length_b 12.744542
_cell_length_c 11.880870
_cell_angle_alpha 90.000000
_cell_angle_beta 90.000000
_cell_angle_gamma 90.000000
_cell_volume 2885.937638
_symmetry_space_group_name_H-M "I 2 2 2"
_symmetry_group_IT_number 23
_symmetry_cell_setting 'orthorhombic'
loop_
_space_group_symop_operation_xyz
x,y,z
-x,-y,z
x,-y,-z
-x,y,-z
1/2+x,1/2+y,1/2+z
1/2-x,1/2-y,1/2+z
1/2+x,1/2-y,1/2-z
1/2-x,1/2+y,1/2-z
loop_
_atom_site_type_symbol
_atom_site_label
_atom_site_fract_x
_atom_site_fract_y
_atom_site_fract_z
Si Si1 0.920824 0.883164 0.967792
Si Si2 0.131686 0.096452 0.370737
Si Si3 0.195477 0.575697 0.408715
Si Si4 0.422086 0.226812 0.025853
Si Si5 0.213583 0.586631 0.780552
Si Si6 0.326354 0.302400 0.652346
Si Si7 0.251430 0.000000 0.500000
Si Si8 0.619815 0.618193 0.213931
O O1 0.915869 0.869073 0.834430
O O2 0.872256 0.801913 0.038038
O O3 0.000000 0.859077 0.000000
O O4 0.897197 0.000000 0.000000
O O5 0.088017 0.190602 0.423777
O O6 0.145443 0.110992 0.237957
O O7 0.203352 0.090091 0.442565
O O8 0.094313 0.981333 0.363908
O O9 0.232785 0.500000 0.500000
O O10 0.126825 0.623384 0.470553
O O11 0.180735 0.501290 0.300965
O O12 0.246026 0.672174 0.379427
O O13 0.406579 0.280658 0.145956
O O14 0.500000 0.185320 0.000000
O O15 0.171349 0.695478 0.774088
O O16 0.198503 0.550672 0.907889
O O17 0.296709 0.606578 0.765700
#
# Coordination Sequence:
#
# PCOD8163324 Si02
#       8
#     8   8   8   8   8   8   4   8
#     4  11  24  39  61  97 137 172 211 267 343 418
#     4  11  20  38  62  97 133 170 219 278 339 407
#     4  12  24  44  66  97 132 173 228 282 338 407
#     4  12  27  42  66  97 137 189 228 276 344 417
#     4  11  22  38  67  97 127 168 221 284 338 394
#     4  12  22  39  68  97 130 173 215 276 344 413
#     4  10  18  38  57  92 131 158 212 274 346 388
#     4  11  21  41  64  97 136 176 223 282 344 411
#
# _framework density 20.790469999999999
#
# number of rings (size 3 to 8) (size 9 to 14) (size 15 to 20)
#    0.000    0.667    8.000    2.000    1.867    3.467 
#    0.000    0.000    0.000    0.000    0.000    0.000 
#    0.000    0.000    0.000    0.000    0.000    0.000 
#
# Total GULP energy -371825.495709 kJ/mol
# GULP energy per Si atom -12394.183190 kJ/mol
# Density = 2.074315 g / cm^3
# Si number density = 20.790470 Si / 1000 Ang^3
#
#
#
# Elastic Constant Matrix: (Units=GPa)
#
#
# Indices 1 2 3 4 5 6 
#
# 1 79.7848 28.7317 17.9521 0.0000 0.0000 0.0000
# 2 28.7317 79.8946 20.0769 0.0000 0.0000 0.0000
# 3 17.9521 20.0769 118.2843 0.0000 0.0000 0.0000
# 4 0.0000 0.0000 0.0000 31.8243 0.0000 0.0000
# 5 0.0000 0.0000 0.0000 0.0000 21.6310 0.0000
# 6 0.0000 0.0000 0.0000 0.0000 0.0000 18.8951
#
#
#
# Elastic Compliance Matrix: (Units=1/GPa)
#
#
# Indices 1 2 3 4 5 6 
#
# 1 0.014612 -0.004907 -0.001385 0.000000 0.000000 0.000000
# 2 -0.004907 0.014722 -0.001754 0.000000 0.000000 0.000000
# 3 -0.001385 -0.001754 0.008962 0.000000 0.000000 0.000000
# 4 0.000000 0.000000 0.000000 0.031423 0.000000 0.000000
# 5 0.000000 0.000000 0.000000 0.000000 0.046230 0.000000
# 6 0.000000 0.000000 0.000000 0.000000 0.000000 0.052924
#
#
# Mechanical properties :
#
#
# Convention : Reuss Voigt Hill
#
# Bulk Modulus (GPa) = 45.03554 45.72058 45.37806
# Shear Modulus (GPa) = 25.99212 28.55027 27.27119
#
# Velocity S-wave (km/s) = 3.53964 3.70974 3.62569
# Velocity P-wave (km/s) = 6.19791 6.35519 6.27704
#
# Compressibility (1/GPa) = 0.02220469
#
# Stress axis : x y z
#
# Youngs Moduli (GPa) = 68.43522 67.92605 111.58074
#
# Poissons Ratio (x) = 0.33331 0.15452
# Poissons Ratio (y) = 0.33580 0.19572
# Poissons Ratio (z) = 0.09477 0.11915
#
# Static dielectric constant tensor:
#      x y z
#    x 3.363190 0.000000 0.000000 
#    y 0.000000 3.759240 0.000000 
#    z 0.000000 0.000000 3.977090 
# 
# 
# High freq. dielectric constant tensor:
#      x y z
#    x 1.772130 0.000000 0.000000 
#    y 0.000000 1.807400 0.000000 
#    z 0.000000 0.000000 1.836310 
# 
# From -- ./inp_files/18049.got.cif
#   From: 2010.03.12/outbox.cif.g09.slc.cpg/sg23_10_cif.got.tgz:18049.got - 2010.04.14 02:50:06.
