data_PCOD8163292
_publ_section_title
;
Structure prediction by ZEFSAII (Michael W. Deem and Ramdas Pophale) SiO2 
 PCOD8163292
Probable space group: I 2 2 2
;
_chemical_formula_sum "Si O2"
_cell_formula_units_Z 34
_cell_length_a 21.243670
_cell_length_b 7.093187
_cell_length_c 9.194657
_cell_angle_alpha 90.000000
_cell_angle_beta 90.000000
_cell_angle_gamma 90.000000
_cell_volume 1385.499868
_symmetry_space_group_name_H-M "I 2 2 2"
_symmetry_group_IT_number 23
_symmetry_cell_setting 'orthorhombic'
loop_
_space_group_symop_operation_xyz
x,y,z
-x,-y,z
x,-y,-z
-x,y,-z
1/2+x,1/2+y,1/2+z
1/2-x,1/2-y,1/2+z
1/2+x,1/2-y,1/2-z
1/2-x,1/2+y,1/2-z
loop_
_atom_site_type_symbol
_atom_site_label
_atom_site_fract_x
_atom_site_fract_y
_atom_site_fract_z
Si Si1 0.891244 0.669005 0.184865
Si Si2 0.570015 0.226268 0.012234
Si Si3 0.000000 0.500000 0.000000
Si Si4 0.718685 0.223853 0.507566
Si Si5 0.326602 0.201485 0.193734
O O1 0.904386 0.789303 0.329917
O O2 0.845486 0.780551 0.076454
O O3 0.854077 0.481419 0.228349
O O4 0.956968 0.627932 0.104099
O O5 0.500000 0.308467 0.000000
O O6 0.614435 0.310363 0.883783
O O7 0.570753 0.000000 0.000000
O O8 0.709523 0.305511 0.672665
O O9 0.776545 0.336729 0.435147
O O10 0.733978 0.000000 0.500000
#
# Coordination Sequence:
#
# PCOD8163292 Si02
#       5
#     8   8   2   8   8
#     4  10  19  30  50  78 108 146 168 228 274 327
#     4   9  17  28  47  75 105 136 176 216 274 326
#     4  12  16  32  54  80 120 130 180 232 288 324
#     4  10  20  33  50  76 106 141 182 219 267 328
#     4  10  18  33  47  72 108 142 179 214 272 327
#
# _framework density 24.539878999999999
#
# number of rings (size 3 to 8) (size 9 to 14) (size 15 to 20)
#    0.000    2.118    3.529    4.235    0.000    1.882 
#    0.000    0.000    0.000    0.706    0.000    0.000 
#    0.000    0.000    0.000    0.000    0.000    0.000 
#
# Total GULP energy -210617.052718 kJ/mol
# GULP energy per Si atom -12389.238395 kJ/mol
# Density = 2.448403 g / cm^3
# Si number density = 24.539879 Si / 1000 Ang^3
#
#
#
# Elastic Constant Matrix: (Units=GPa)
#
#
# Indices 1 2 3 4 5 6 
#
# 1 194.4554 -5.2669 94.5316 0.0000 0.0000 0.0000
# 2 -5.2669 34.6315 -1.6412 0.0000 0.0000 0.0000
# 3 94.5316 -1.6412 213.5475 0.0000 0.0000 0.0000
# 4 0.0000 0.0000 0.0000 3.9236 0.0000 0.0000
# 5 0.0000 0.0000 0.0000 0.0000 79.1495 0.0000
# 6 0.0000 0.0000 0.0000 0.0000 0.0000 -4.4278
#
#
#
# Elastic Compliance Matrix: (Units=1/GPa)
#
#
# Indices 1 2 3 4 5 6 
#
# 1 0.006578 0.000863 -0.002905 0.000000 0.000000 0.000000
# 2 0.000863 0.028999 -0.000159 0.000000 0.000000 0.000000
# 3 -0.002905 -0.000159 0.005968 0.000000 0.000000 0.000000
# 4 0.000000 0.000000 0.000000 0.254868 0.000000 0.000000
# 5 0.000000 0.000000 0.000000 0.000000 0.012634 0.000000
# 6 0.000000 0.000000 0.000000 0.000000 0.000000 -0.225846
#
#
# Mechanical properties :
#
#
# Convention : Reuss Voigt Hill
#
# Bulk Modulus (GPa) = 26.92382 68.65349 47.78865
# Shear Modulus (GPa) = 50.00727 39.39645 44.70186
#
# Velocity S-wave (km/s) = 4.51909 4.01110 4.27265
# Velocity P-wave (km/s) = 6.18263 7.03483 6.62245
#
# Compressibility (1/GPa) = 0.03714184
#
# Stress axis : x y z
#
# Youngs Moduli (GPa) = 152.01338 34.48376 167.56788
#
# Poissons Ratio (x) = -0.02975 0.48686
# Poissons Ratio (y) = -0.13115 0.02665
# Poissons Ratio (z) = 0.44166 0.00548
#
# Static dielectric constant tensor:
#      x y z
#    x 4.845700 0.000000 0.000000 
#    y 0.000000 3.446340 0.000000 
#    z 0.000000 0.000000 5.411390 
# 
# 
# High freq. dielectric constant tensor:
#      x y z
#    x 1.996120 0.000000 0.000000 
#    y 0.000000 1.897880 0.000000 
#    z 0.000000 0.000000 2.007350 
# 
# From -- ./inp_files/6733.got.cif
#   From: 2010.03.12/outbox.cif.g09.slc.cpg/sg23_4_cif.got.tgz:6733.got - 2010.04.14 02:50:06.
