data_PCOD8163493
_publ_section_title
;
Structure prediction by ZEFSAII (Michael W. Deem and Ramdas Pophale) SiO2 
 PCOD8163493
Probable space group: I 2 2 2
;
_chemical_formula_sum "Si O2"
_cell_formula_units_Z 46
_cell_length_a 9.051335
_cell_length_b 20.126446
_cell_length_c 12.791456
_cell_angle_alpha 90.000000
_cell_angle_beta 90.000000
_cell_angle_gamma 90.000000
_cell_volume 2330.234955
_symmetry_space_group_name_H-M "I 2 2 2"
_symmetry_group_IT_number 23
_symmetry_cell_setting 'orthorhombic'
loop_
_space_group_symop_operation_xyz
x,y,z
-x,-y,z
x,-y,-z
-x,y,-z
1/2+x,1/2+y,1/2+z
1/2-x,1/2-y,1/2+z
1/2+x,1/2-y,1/2-z
1/2-x,1/2+y,1/2-z
loop_
_atom_site_type_symbol
_atom_site_label
_atom_site_fract_x
_atom_site_fract_y
_atom_site_fract_z
Si Si1 0.659063 0.901875 0.161359
Si Si2 0.500000 0.500000 0.000000
Si Si3 0.983381 0.719979 0.756825
Si Si4 0.858133 0.790160 0.064946
Si Si5 0.291010 0.276055 0.881994
Si Si6 0.500000 0.000000 0.000000
Si Si7 0.500000 0.000000 0.500000
Si Si8 0.749794 0.928693 0.377412
O O1 0.529316 0.856675 0.215863
O O2 0.788398 0.854118 0.119872
O O3 0.736358 0.944428 0.253563
O O4 0.599047 0.951881 0.072817
O O5 0.399419 0.541991 0.077411
O O6 0.093608 0.731114 0.855290
O O7 0.043418 0.763149 0.659110
O O8 0.823432 0.748345 0.791079
O O9 0.730747 0.762685 0.989608
O O10 0.000000 0.814620 0.000000
O O11 0.256739 0.351720 0.903279
O O12 0.601155 0.954179 0.429197
#
# Coordination Sequence:
#
# PCOD8163493 Si02
#       8
#     8   2   8   8   8   2   2   8
#     4  11  23  43  64  93 133 170 220 258 321 402
#     4  10  24  46  58  88 124 162 224 268 312 380
#     4  10  19  39  61  91 128 155 205 267 312 376
#     4  10  21  39  62  95 126 157 211 267 330 381
#     4  10  21  36  63  92 123 158 203 262 325 374
#     4  12  26  44  64  98 136 184 226 260 316 414
#     4  10  22  38  64  84 120 174 206 260 308 376
#     4  10  22  42  62  89 123 165 217 261 317 381
#
# _framework density 19.740499
#
# number of rings (size 3 to 8) (size 9 to 14) (size 15 to 20)
#    0.000    1.739    3.478    1.565    6.087    1.391 
#    3.130    0.000    0.000    0.000    0.000    0.000 
#    0.000    0.000    0.000    0.000    0.000    0.000 
#
# Total GULP energy -285014.845582 kJ/mol
# GULP energy per Si atom -12391.949808 kJ/mol
# Density = 1.969557 g / cm^3
# Si number density = 19.740499 Si / 1000 Ang^3
#
#
#
# Elastic Constant Matrix: (Units=GPa)
#
#
# Indices 1 2 3 4 5 6 
#
# 1 114.8212 59.3612 72.6368 0.0000 0.0000 0.0000
# 2 59.3612 94.4716 68.2751 0.0002 0.0000 0.0000
# 3 72.6368 68.2751 147.7496 0.0001 0.0000 0.0000
# 4 0.0000 0.0002 0.0001 59.1857 0.0000 0.0001
# 5 0.0000 0.0000 0.0000 0.0000 10.4917 0.0000
# 6 0.0000 0.0000 0.0000 0.0001 0.0000 22.2656
#
#
#
# Elastic Compliance Matrix: (Units=1/GPa)
#
#
# Indices 1 2 3 4 5 6 
#
# 1 0.014591 -0.005982 -0.004409 0.000000 0.000000 0.000000
# 2 -0.005982 0.018345 -0.005537 0.000000 0.000000 0.000000
# 3 -0.004409 -0.005537 0.011494 0.000000 0.000000 0.000000
# 4 0.000000 0.000000 0.000000 0.016896 0.000000 0.000000
# 5 0.000000 0.000000 0.000000 0.000000 0.095314 0.000000
# 6 0.000000 0.000000 0.000000 0.000000 0.000000 0.044912
#
#
# Mechanical properties :
#
#
# Convention : Reuss Voigt Hill
#
# Bulk Modulus (GPa) = 79.51906 84.17650 81.84778
# Shear Modulus (GPa) = 21.04392 28.83990 24.94191
#
# Velocity S-wave (km/s) = 3.26855 3.82639 3.55842
# Velocity P-wave (km/s) = 7.39014 7.89023 7.64428
#
# Compressibility (1/GPa) = 0.01257560
#
# Stress axis : x y z
#
# Youngs Moduli (GPa) = 68.53615 54.51058 87.00055
#
# Poissons Ratio (x) = 0.32607 0.38359
# Poissons Ratio (y) = 0.40997 0.48168
# Poissons Ratio (z) = 0.30218 0.30180
#
# Static dielectric constant tensor:
#      x y z
#    x 2.642830 0.000000 0.000000 
#    y 0.000000 3.436890 0.000000 
#    z 0.000000 0.000000 3.945880 
# 
# 
# High freq. dielectric constant tensor:
#      x y z
#    x 1.772070 0.000000 0.000000 
#    y 0.000000 1.745650 0.000000 
#    z 0.000000 0.000000 1.794520 
# 
# From -- ./inp_files/12637.got.cif
#   From: 2010.03.12/outbox.cif.g09.slc.cpg/sg23_7_cif.got.tgz:12637.got - 2010.04.14 02:50:06.
