data_PCOD8163104
_publ_section_title
;
Structure prediction by ZEFSAII (Michael W. Deem and Ramdas Pophale) SiO2 
 PCOD8163104
Probable space group: F 2 2 2
;
_chemical_formula_sum "Si O2"
_cell_formula_units_Z 88
_cell_length_a 13.719559
_cell_length_b 14.287371
_cell_length_c 19.799793
_cell_angle_alpha 90.000000
_cell_angle_beta 90.000000
_cell_angle_gamma 90.000000
_cell_volume 3881.084727
_symmetry_space_group_name_H-M "F 2 2 2"
_symmetry_group_IT_number 22
_symmetry_cell_setting 'orthorhombic'
loop_
_space_group_symop_operation_xyz
x,y,z
-x,-y,z
x,-y,-z
-x,y,-z
x,1/2+y,1/2+z
-x,1/2-y,1/2+z
x,1/2-y,1/2-z
-x,1/2+y,1/2-z
1/2+x,y,1/2+z
1/2-x,-y,1/2+z
1/2+x,-y,1/2-z
1/2-x,y,1/2-z
1/2+x,1/2+y,z
1/2-x,1/2-y,z
1/2+x,1/2-y,-z
1/2-x,1/2+y,-z
loop_
_atom_site_type_symbol
_atom_site_label
_atom_site_fract_x
_atom_site_fract_y
_atom_site_fract_z
Si Si1 0.856557 0.245413 0.827881
Si Si2 0.650816 0.401694 0.287234
Si Si3 0.000000 0.619812 0.000000
Si Si4 0.638088 0.260190 0.405053
Si Si5 0.522290 0.898037 0.656458
Si Si6 0.587780 0.942801 0.130147
O O1 0.836418 0.250000 0.750000
O O2 0.750000 0.250000 0.864576
O O3 0.917243 0.335404 0.850099
O O4 0.917598 0.153824 0.845308
O O5 0.750000 0.379049 0.250000
O O6 0.626374 0.314034 0.334429
O O7 0.565014 0.409181 0.231908
O O8 0.673570 0.494775 0.335586
O O9 0.923731 0.685004 0.960866
O O10 0.068372 0.554658 0.950806
O O11 0.750000 0.250000 0.429064
O O12 0.596238 0.156010 0.393224
O O13 0.500000 0.000000 0.625827
O O14 0.500000 0.000000 0.165992
#
# Coordination Sequence:
#
# PCOD8163104 Si02
#       6
#    16  16   8  16  16  16
#     4  11  24  40  66 104 151 191 232 305 389 439
#     4  12  25  40  77 119 147 184 248 320 397 447
#     4  12  27  50  75 102 150 208 263 290 369 458
#     4  12  26  49  75 105 150 203 252 314 372 459
#     4  12  25  44  71 111 152 191 246 319 389 443
#     4  12  24  44  73 105 143 190 250 307 359 443
#
# _framework density 22.674074000000001
#
# number of rings (size 3 to 8) (size 9 to 14) (size 15 to 20)
#    0.000    0.182    5.455    4.636    5.091    0.727 
#    0.000    0.455    4.000    0.000    0.000    0.000 
#    0.000    0.000    0.000    0.000    0.000    0.000 
#
# Total GULP energy -272597.908861 kJ/mol
# GULP energy per Si atom -12390.814039 kJ/mol
# Density = 2.262247 g / cm^3
# Si number density = 22.674074 Si / 1000 Ang^3
#
#
#
# Elastic Constant Matrix: (Units=GPa)
#
#
# Indices 1 2 3 4 5 6 
#
# 1 150.1231 59.9972 42.9129 0.0000 0.0000 0.0000
# 2 59.9972 169.1848 31.5515 0.0000 0.0000 0.0000
# 3 42.9129 31.5515 88.6526 0.0000 0.0000 0.0000
# 4 0.0000 0.0000 0.0000 34.9311 0.0000 0.0000
# 5 0.0000 0.0000 0.0000 0.0000 38.6150 0.0000
# 6 0.0000 0.0000 0.0000 0.0000 0.0000 32.7215
#
#
#
# Elastic Compliance Matrix: (Units=1/GPa)
#
#
# Indices 1 2 3 4 5 6 
#
# 1 0.008570 -0.002427 -0.003285 0.000000 0.000000 0.000000
# 2 -0.002427 0.007018 -0.001323 0.000000 0.000000 0.000000
# 3 -0.003285 -0.001323 0.013341 0.000000 0.000000 0.000000
# 4 0.000000 0.000000 0.000000 0.028628 0.000000 0.000000
# 5 0.000000 0.000000 0.000000 0.000000 0.025897 0.000000
# 6 0.000000 0.000000 0.000000 0.000000 0.000000 0.030561
#
#
# Mechanical properties :
#
#
# Convention : Reuss Voigt Hill
#
# Bulk Modulus (GPa) = 67.29472 75.20929 71.25201
# Shear Modulus (GPa) = 37.58377 39.48680 38.53528
#
# Velocity S-wave (km/s) = 4.07574 4.17765 4.12701
# Velocity P-wave (km/s) = 7.20364 7.51745 7.36222
#
# Compressibility (1/GPa) = 0.01486001
#
# Stress axis : x y z
#
# Youngs Moduli (GPa) = 116.68730 142.49169 74.95764
#
# Poissons Ratio (x) = 0.34576 0.24622
# Poissons Ratio (y) = 0.28315 0.09918
# Poissons Ratio (z) = 0.38329 0.18853
#
# Static dielectric constant tensor:
#      x y z
#    x 4.549950 0.000000 0.000000 
#    y 0.000000 4.473860 0.000000 
#    z 0.000000 0.000000 4.131950 
# 
# 
# High freq. dielectric constant tensor:
#      x y z
#    x 1.898970 0.000000 0.000000 
#    y 0.000000 1.909450 0.000000 
#    z 0.000000 0.000000 1.874200 
# 
# From -- ./inp_files/43412.got.cif
#   From: 2010.03.12/outbox.cif.g09.slc.cpg/sg22_22_cif.got.tgz:43412.got - 2010.04.14 02:24:06.
