data_PCOD8163095
_publ_section_title
;
Structure prediction by ZEFSAII (Michael W. Deem and Ramdas Pophale) SiO2 
 PCOD8163095
Probable space group: F 2 2 2
;
_chemical_formula_sum "Si O2"
_cell_formula_units_Z 80
_cell_length_a 23.598718
_cell_length_b 10.410517
_cell_length_c 16.105171
_cell_angle_alpha 90.000000
_cell_angle_beta 90.000000
_cell_angle_gamma 90.000000
_cell_volume 3956.635549
_symmetry_space_group_name_H-M "F 2 2 2"
_symmetry_group_IT_number 22
_symmetry_cell_setting 'orthorhombic'
loop_
_space_group_symop_operation_xyz
x,y,z
-x,-y,z
x,-y,-z
-x,y,-z
x,1/2+y,1/2+z
-x,1/2-y,1/2+z
x,1/2-y,1/2-z
-x,1/2+y,1/2-z
1/2+x,y,1/2+z
1/2-x,-y,1/2+z
1/2+x,-y,1/2-z
1/2-x,y,1/2-z
1/2+x,1/2+y,z
1/2-x,1/2-y,z
1/2+x,1/2-y,-z
1/2-x,1/2+y,-z
loop_
_atom_site_type_symbol
_atom_site_label
_atom_site_fract_x
_atom_site_fract_y
_atom_site_fract_z
Si Si1 0.339858 0.131107 0.696571
Si Si2 0.250000 0.750000 0.607880
Si Si3 0.250000 0.933099 0.750000
Si Si4 0.349060 0.850870 0.490826
Si Si5 0.936444 0.136551 0.468848
Si Si6 0.542497 0.882445 0.777554
O O1 0.318008 0.250000 0.750000
O O2 0.328536 0.171278 0.602370
O O3 0.405392 0.096471 0.714506
O O4 0.303707 0.008600 0.718116
O O5 0.224805 0.855537 0.671166
O O6 0.298459 0.813826 0.552151
O O7 0.401373 0.754575 0.508023
O O8 0.367845 0.000000 0.500000
O O9 0.932956 0.135190 0.369555
O O10 0.000000 0.154161 0.500000
O O11 0.911447 0.000000 0.500000
O O12 0.511123 0.750000 0.750000
O O13 0.500000 0.000000 0.770593
#
# Coordination Sequence:
#
# PCOD8163095 Si02
#       6
#    16   8   8  16  16  16
#     4  11  24  44  70  97 136 177 224 276 339 410
#     4  11  28  44  69  96 140 176 225 282 340 407
#     4  11  25  48  64 102 131 179 224 276 348 401
#     4  12  26  46  68 107 139 176 231 286 343 401
#     4  11  24  45  70 100 137 183 229 276 339 414
#     4  11  23  45  68 102 136 178 228 276 338 405
#
# _framework density 20.219199
#
# number of rings (size 3 to 8) (size 9 to 14) (size 15 to 20)
#    0.000    0.800    8.000    0.300    5.600    2.800 
#    3.600    0.000    0.000    0.000    0.000    0.000 
#    0.000    0.000    0.000    0.000    0.000    0.000 
#
# Total GULP energy -247966.313193 kJ/mol
# GULP energy per Si atom -12398.315660 kJ/mol
# Density = 2.017318 g / cm^3
# Si number density = 20.219199 Si / 1000 Ang^3
#
#
#
# Elastic Constant Matrix: (Units=GPa)
#
#
# Indices 1 2 3 4 5 6 
#
# 1 80.7516 58.1043 28.9384 0.0000 0.0000 0.0000
# 2 58.1043 169.6658 44.1645 0.0000 0.0000 0.0000
# 3 28.9384 44.1645 136.9301 0.0000 0.0000 0.0000
# 4 0.0000 0.0000 0.0000 36.6940 0.0000 0.0000
# 5 0.0000 0.0000 0.0000 0.0000 11.4877 0.0000
# 6 0.0000 0.0000 0.0000 0.0000 0.0000 37.7301
#
#
#
# Elastic Compliance Matrix: (Units=1/GPa)
#
#
# Indices 1 2 3 4 5 6 
#
# 1 0.016854 -0.005289 -0.001856 0.000000 0.000000 0.000000
# 2 -0.005289 0.008094 -0.001493 0.000000 0.000000 0.000000
# 3 -0.001856 -0.001493 0.008177 0.000000 0.000000 0.000000
# 4 0.000000 0.000000 0.000000 0.027252 0.000000 0.000000
# 5 0.000000 0.000000 0.000000 0.000000 0.087050 0.000000
# 6 0.000000 0.000000 0.000000 0.000000 0.000000 0.026504
#
#
# Mechanical properties :
#
#
# Convention : Reuss Voigt Hill
#
# Bulk Modulus (GPa) = 63.09402 72.19578 67.64490
# Shear Modulus (GPa) = 25.44664 34.25838 29.85251
#
# Velocity S-wave (km/s) = 3.55144 4.12071 3.84662
# Velocity P-wave (km/s) = 6.93467 7.64359 7.29774
#
# Compressibility (1/GPa) = 0.01584936
#
# Stress axis : x y z
#
# Youngs Moduli (GPa) = 59.33173 123.55209 122.29828
#
# Poissons Ratio (x) = 0.65345 0.22700
# Poissons Ratio (y) = 0.31380 0.18256
# Poissons Ratio (z) = 0.11013 0.18443
#
# Static dielectric constant tensor:
#      x y z
#    x 3.426790 0.000000 0.000000 
#    y 0.000000 4.042890 0.000000 
#    z 0.000000 0.000000 3.960060 
# 
# 
# High freq. dielectric constant tensor:
#      x y z
#    x 1.771480 0.000000 0.000000 
#    y 0.000000 1.809210 0.000000 
#    z 0.000000 0.000000 1.809770 
# 
# From -- ./inp_files/39909.got.cif
#   From: 2010.03.12/outbox.cif.g09.slc.cpg/sg22_20_cif.got.tgz:39909.got - 2010.04.14 02:24:06.
