data_PCOD8163277
_publ_section_title
;
Structure prediction by ZEFSAII (Michael W. Deem and Ramdas Pophale) SiO2 
 PCOD8163277
Probable space group: I 2 2 2
;
_chemical_formula_sum "Si O2"
_cell_formula_units_Z 64
_cell_length_a 8.880236
_cell_length_b 23.131764
_cell_length_c 19.114123
_cell_angle_alpha 90.000000
_cell_angle_beta 90.000000
_cell_angle_gamma 90.000000
_cell_volume 3926.337581
_symmetry_space_group_name_H-M "I 2 2 2"
_symmetry_group_IT_number 23
_symmetry_cell_setting 'orthorhombic'
loop_
_space_group_symop_operation_xyz
x,y,z
-x,-y,z
x,-y,-z
-x,y,-z
1/2+x,1/2+y,1/2+z
1/2-x,1/2-y,1/2+z
1/2+x,1/2-y,1/2-z
1/2-x,1/2+y,1/2-z
loop_
_atom_site_type_symbol
_atom_site_label
_atom_site_fract_x
_atom_site_fract_y
_atom_site_fract_z
Si Si1 0.327101 0.264487 0.348932
Si Si2 0.674174 0.066625 0.362296
Si Si3 0.825252 0.159706 0.723614
Si Si4 0.828622 0.737456 1.000000
Si Si5 0.327099 0.264487 0.651067
Si Si6 0.325826 0.933376 0.637705
Si Si7 0.325255 0.659707 0.776387
Si Si8 0.177371 0.115648 0.499999
O O1 0.220358 0.211821 0.327533
O O2 0.299484 0.276858 0.431247
O O3 0.500002 0.246236 0.334081
O O4 0.288824 0.321813 0.303863
O O5 0.500000 0.080264 0.375052
O O6 0.732120 0.102593 0.295378
O O7 0.761715 0.083815 0.431826
O O8 0.702958 0.000000 0.344748
O O9 0.788822 0.178186 0.803864
O O10 0.732118 0.102591 0.704625
O O11 0.999999 0.146273 0.712154
O O12 0.799483 0.776858 0.068752
O O13 0.720946 0.682559 0.999999
O O14 0.000000 0.714194 0.000000
O O15 0.220354 0.211822 0.672467
O O16 0.238283 0.916184 0.568177
O O17 0.000000 0.110301 0.500000
#
# Coordination Sequence:
#
# PCOD8163277 Si02
#       8
#     8   8   8   8   8   8   8   8
#     4   9  18  31  49  71  98 130 160 195 243 294
#     4  11  23  37  51  67  93 133 172 202 241 292
#     4  10  19  31  48  72  98 125 161 205 245 282
#     4  10  18  31  51  72  99 134 164 190 234 295
#     4   9  18  31  49  71  98 130 160 195 243 294
#     4  11  23  37  51  67  93 133 172 202 241 292
#     4  10  19  31  48  72  98 125 161 205 245 282
#     4  12  23  33  48  73 100 127 165 205 240 280
#
# _framework density 16.300177999999999
#
# number of rings (size 3 to 8) (size 9 to 14) (size 15 to 20)
#    0.000    1.750    2.500    3.000    0.000    4.500 
#    0.000    0.000    0.000    0.000    0.000    0.875 
#    0.000    7.000    0.000    0.000    0.000    0.000 
#
# Total GULP energy -396784.697263 kJ/mol
# GULP energy per Si atom -12399.521789 kJ/mol
# Density = 1.626308 g / cm^3
# Si number density = 16.300178 Si / 1000 Ang^3
#
#
#
# Elastic Constant Matrix: (Units=GPa)
#
#
# Indices 1 2 3 4 5 6 
#
# 1 98.2836 52.4316 49.6096 0.0000 0.0000 0.0000
# 2 52.4316 91.1986 63.7493 0.0000 0.0000 0.0000
# 3 49.6096 63.7493 136.0764 0.0000 0.0000 0.0000
# 4 0.0000 0.0000 0.0000 21.8566 0.0000 0.0000
# 5 0.0000 0.0000 0.0000 0.0000 21.7598 0.0000
# 6 0.0000 0.0000 0.0000 0.0000 0.0000 24.3681
#
#
#
# Elastic Compliance Matrix: (Units=1/GPa)
#
#
# Indices 1 2 3 4 5 6 
#
# 1 0.015082 -0.007178 -0.002136 0.000000 0.000000 0.000000
# 2 -0.007178 0.019721 -0.006622 0.000000 0.000000 0.000000
# 3 -0.002136 -0.006622 0.011230 0.000000 0.000000 0.000000
# 4 0.000000 0.000000 0.000000 0.045753 0.000000 0.000000
# 5 0.000000 0.000000 0.000000 0.000000 0.045956 0.000000
# 6 0.000000 0.000000 0.000000 0.000000 0.000000 0.041037
#
#
# Mechanical properties :
#
#
# Convention : Reuss Voigt Hill
#
# Bulk Modulus (GPa) = 70.61585 73.01551 71.81568
# Shear Modulus (GPa) = 23.21590 24.24812 23.73201
#
# Velocity S-wave (km/s) = 3.77805 3.86112 3.81981
# Velocity P-wave (km/s) = 7.90239 8.04793 7.97549
#
# Compressibility (1/GPa) = 0.01416113
#
# Stress axis : x y z
#
# Youngs Moduli (GPa) = 66.30477 50.70850 89.05001
#
# Poissons Ratio (x) = 0.36398 0.19018
# Poissons Ratio (y) = 0.47593 0.58968
# Poissons Ratio (z) = 0.14161 0.33578
#
# Static dielectric constant tensor:
#      x y z
#    x 3.223370 0.000000 0.000000 
#    y 0.000000 2.934880 0.000000 
#    z 0.000000 0.000000 3.341210 
# 
# 
# High freq. dielectric constant tensor:
#      x y z
#    x 1.641110 0.000000 0.000000 
#    y 0.000000 1.593440 0.000000 
#    z 0.000000 0.000000 1.626770 
# 
# From -- ./inp_files/11508.got.cif
#   From: 2010.03.12/outbox.cif.g09.slc.cpg/sg23_6_cif.got.tgz:11508.got - 2010.04.14 02:50:06.
