data_PCOD8163137
_publ_section_title
;
Structure prediction by ZEFSAII (Michael W. Deem and Ramdas Pophale) SiO2 
 PCOD8163137
Probable space group: F 2 2 2
;
_chemical_formula_sum "Si O2"
_cell_formula_units_Z 68
_cell_length_a 21.124919
_cell_length_b 8.340243
_cell_length_c 16.232475
_cell_angle_alpha 90.000000
_cell_angle_beta 90.000000
_cell_angle_gamma 90.000000
_cell_volume 2859.950388
_symmetry_space_group_name_H-M "F 2 2 2"
_symmetry_group_IT_number 22
_symmetry_cell_setting 'orthorhombic'
loop_
_space_group_symop_operation_xyz
x,y,z
-x,-y,z
x,-y,-z
-x,y,-z
x,1/2+y,1/2+z
-x,1/2-y,1/2+z
x,1/2-y,1/2-z
-x,1/2+y,1/2-z
1/2+x,y,1/2+z
1/2-x,-y,1/2+z
1/2+x,-y,1/2-z
1/2-x,y,1/2-z
1/2+x,1/2+y,z
1/2-x,1/2-y,z
1/2+x,1/2-y,-z
1/2-x,1/2+y,-z
loop_
_atom_site_type_symbol
_atom_site_label
_atom_site_fract_x
_atom_site_fract_y
_atom_site_fract_z
Si Si1 0.397652 0.901419 0.872661
Si Si2 0.439162 0.572542 0.216472
Si Si3 0.351476 0.551230 0.909989
Si Si4 0.500000 0.000000 0.000000
Si Si5 0.267658 0.067514 0.844749
O O1 0.370247 0.725101 0.878261
O O2 0.432057 0.938878 0.787569
O O3 0.339598 0.030692 0.873752
O O4 0.451045 0.902316 0.943491
O O5 0.500000 0.500000 0.167747
O O6 0.448731 0.750000 0.250000
O O7 0.380411 0.578112 0.154142
O O8 0.275798 0.541025 0.904009
O O9 0.375611 0.500000 0.000000
O O10 0.250000 0.024355 0.750000
O O11 0.250000 0.250000 0.863674
#
# Coordination Sequence:
#
# PCOD8163137 Si02
#       5
#    16  16  16   4  16
#     4  12  27  50  78 111 157 208 262 321 401 473
#     4  12  26  48  74 106 154 210 265 317 397 482
#     4  12  29  46  77 118 151 199 263 333 392 466
#     4  12  32  48  78 116 162 208 260 328 392 464
#     4  11  25  48  81 115 158 205 260 329 400 475
#
# _framework density 23.776636
#
# number of rings (size 3 to 8) (size 9 to 14) (size 15 to 20)
#    0.000    0.235    3.529    4.235    8.235    1.412 
#    0.000    0.000    0.000    0.000    0.000    0.000 
#    0.000    0.000    0.000    0.000    0.000    0.000 
#
# Total GULP energy -210684.570025 kJ/mol
# GULP energy per Si atom -12393.210001 kJ/mol
# Density = 2.372252 g / cm^3
# Si number density = 23.776636 Si / 1000 Ang^3
#
#
#
# Elastic Constant Matrix: (Units=GPa)
#
#
# Indices 1 2 3 4 5 6 
#
# 1 149.6541 39.8385 30.3468 0.0000 0.0000 0.0000
# 2 39.8385 135.7900 35.4830 0.0000 0.0000 0.0000
# 3 30.3468 35.4830 118.2462 0.0000 0.0000 0.0000
# 4 0.0000 0.0000 0.0000 26.4923 0.0000 0.0000
# 5 0.0000 0.0000 0.0000 0.0000 47.4983 0.0000
# 6 0.0000 0.0000 0.0000 0.0000 0.0000 41.8500
#
#
#
# Elastic Compliance Matrix: (Units=1/GPa)
#
#
# Indices 1 2 3 4 5 6 
#
# 1 0.007445 -0.001828 -0.001362 0.000000 0.000000 0.000000
# 2 -0.001828 0.008440 -0.002063 0.000000 0.000000 0.000000
# 3 -0.001362 -0.002063 0.009426 0.000000 0.000000 0.000000
# 4 0.000000 0.000000 0.000000 0.037747 0.000000 0.000000
# 5 0.000000 0.000000 0.000000 0.000000 0.021053 0.000000
# 6 0.000000 0.000000 0.000000 0.000000 0.000000 0.023895
#
#
# Mechanical properties :
#
#
# Convention : Reuss Voigt Hill
#
# Bulk Modulus (GPa) = 67.55386 68.33635 67.94510
# Shear Modulus (GPa) = 40.50307 43.03625 41.76966
#
# Velocity S-wave (km/s) = 4.13180 4.25905 4.19591
# Velocity P-wave (km/s) = 7.15793 7.27938 7.21891
#
# Compressibility (1/GPa) = 0.01480300
#
# Stress axis : x y z
#
# Youngs Moduli (GPa) = 134.31879 118.48491 106.09330
#
# Poissons Ratio (x) = 0.21663 0.14450
# Poissons Ratio (y) = 0.24558 0.21891
# Poissons Ratio (z) = 0.18295 0.24448
#
# Static dielectric constant tensor:
#      x y z
#    x 4.885980 0.000000 0.000000 
#    y 0.000000 4.040970 0.000000 
#    z 0.000000 0.000000 4.321480 
# 
# 
# High freq. dielectric constant tensor:
#      x y z
#    x 1.972180 0.000000 0.000000 
#    y 0.000000 1.941180 0.000000 
#    z 0.000000 0.000000 1.932250 
# 
# From -- ./inp_files/11252.got.cif
#   From: 2010.03.12/outbox.cif.g09.slc.cpg/sg22_6_cif.got.tgz:11252.got - 2010.04.14 02:24:06.
