data_PCOD8163320
_publ_section_title
;
Structure prediction by ZEFSAII (Michael W. Deem and Ramdas Pophale) SiO2 
 PCOD8163320
Probable space group: I 2 2 2
;
_chemical_formula_sum "Si O2"
_cell_formula_units_Z 60
_cell_length_a 12.108961
_cell_length_b 22.283575
_cell_length_c 11.166864
_cell_angle_alpha 90.000000
_cell_angle_beta 90.000000
_cell_angle_gamma 90.000000
_cell_volume 3013.165417
_symmetry_space_group_name_H-M "I 2 2 2"
_symmetry_group_IT_number 23
_symmetry_cell_setting 'orthorhombic'
loop_
_space_group_symop_operation_xyz
x,y,z
-x,-y,z
x,-y,-z
-x,y,-z
1/2+x,1/2+y,1/2+z
1/2-x,1/2-y,1/2+z
1/2+x,1/2-y,1/2-z
1/2-x,1/2+y,1/2-z
loop_
_atom_site_type_symbol
_atom_site_label
_atom_site_fract_x
_atom_site_fract_y
_atom_site_fract_z
Si Si1 0.097081 0.752162 0.591834
Si Si2 0.458292 0.141265 0.756097
Si Si3 0.142226 0.853296 0.765388
Si Si4 0.836432 0.425649 0.361482
Si Si5 0.170363 0.784778 0.006717
Si Si6 0.710999 0.938746 0.866077
Si Si7 0.000000 0.317188 0.000000
Si Si8 0.438763 0.603912 0.619527
O O1 0.049217 0.709242 0.695905
O O2 0.140783 0.815285 0.643947
O O3 0.198923 0.720919 0.524950
O O4 0.000000 0.766431 0.500000
O O5 0.546448 0.103899 0.833662
O O6 0.341645 0.107913 0.773320
O O7 0.485698 0.140550 0.615722
O O8 0.246081 0.898048 0.770862
O O9 0.148417 0.806234 0.873102
O O10 0.028487 0.891221 0.774703
O O11 0.844079 0.496964 0.344133
O O12 0.805093 0.412690 0.499311
O O13 0.109444 0.721664 0.023622
O O14 0.118783 0.831360 0.100976
O O15 0.843167 0.943135 0.843637
O O16 0.500000 0.580873 0.500000
#
# Coordination Sequence:
#
# PCOD8163320 Si02
#       8
#     8   8   8   8   8   8   4   8
#     4  12  24  36  64  91 127 165 203 252 325 375
#     4  12  23  41  61  92 127 165 210 260 310 385
#     4  11  21  38  57  89 129 156 201 257 306 376
#     4  11  23  40  62  92 126 161 210 265 316 368
#     4  11  19  38  56  89 122 161 198 255 303 378
#     4  11  22  39  65  93 120 166 210 265 323 357
#     4  12  24  40  65  88 129 176 206 250 328 372
#     4  10  18  36  60  85 124 152 200 254 309 369
#
# _framework density 19.912614000000001
#
# number of rings (size 3 to 8) (size 9 to 14) (size 15 to 20)
#    0.000    0.800    7.333    3.200    0.000    3.733 
#    0.000    1.333    0.000    0.000    0.000    0.933 
#    0.000    0.000    0.000    0.000    0.000    0.000 
#
# Total GULP energy -372110.740022 kJ/mol
# GULP energy per Si atom -12403.691334 kJ/mol
# Density = 1.986729 g / cm^3
# Si number density = 19.912614 Si / 1000 Ang^3
#
#
#
# Elastic Constant Matrix: (Units=GPa)
#
#
# Indices 1 2 3 4 5 6 
#
# 1 114.0106 16.0132 19.1383 0.0001 0.0000 0.0000
# 2 16.0132 64.4556 25.3083 -0.0001 0.0000 0.0000
# 3 19.1383 25.3083 69.8358 -0.0008 0.0002 0.0002
# 4 0.0001 -0.0001 -0.0008 23.7070 0.0000 0.0000
# 5 0.0000 0.0000 0.0002 0.0000 21.7019 -0.0001
# 6 0.0000 0.0000 0.0002 0.0000 -0.0001 30.6924
#
#
#
# Elastic Compliance Matrix: (Units=1/GPa)
#
#
# Indices 1 2 3 4 5 6 
#
# 1 0.009322 -0.001531 -0.002000 0.000000 0.000000 0.000000
# 2 -0.001531 0.018340 -0.006227 0.000000 0.000000 0.000000
# 3 -0.002000 -0.006227 0.017124 0.000001 0.000000 0.000000
# 4 0.000000 0.000000 0.000001 0.042182 0.000000 0.000000
# 5 0.000000 0.000000 0.000000 0.000000 0.046079 0.000000
# 6 0.000000 0.000000 0.000000 0.000000 0.000000 0.032581
#
#
# Mechanical properties :
#
#
# Convention : Reuss Voigt Hill
#
# Bulk Modulus (GPa) = 39.57133 41.02460 40.29797
# Shear Modulus (GPa) = 25.83100 27.74306 26.78703
#
# Velocity S-wave (km/s) = 3.60560 3.73666 3.67172
# Velocity P-wave (km/s) = 6.10323 6.26609 6.18520
#
# Compressibility (1/GPa) = 0.02527082
#
# Stress axis : x y z
#
# Youngs Moduli (GPa) = 107.27531 54.52634 58.39769
#
# Poissons Ratio (x) = 0.08346 0.11679
# Poissons Ratio (y) = 0.16420 0.36363
# Poissons Ratio (z) = 0.21454 0.33953
#
# Static dielectric constant tensor:
#      x y z
#    x 3.897030 0.000000 0.000000 
#    y 0.000000 3.462990 0.000000 
#    z 0.000000 0.000000 3.284760 
# 
# 
# High freq. dielectric constant tensor:
#      x y z
#    x 1.799560 0.000000 0.000000 
#    y 0.000000 1.765210 0.000000 
#    z 0.000000 0.000000 1.734380 
# 
# From -- ./inp_files/15986.got.cif
#   From: 2010.03.12/outbox.cif.g09.slc.cpg/sg23_8_cif.got.tgz:15986.got - 2010.04.14 02:50:06.
