data_PCOD8163845
_publ_section_title
;
Structure prediction by ZEFSAII (Michael W. Deem and Ramdas Pophale) SiO2 
 PCOD8163845
Probable space group: I 2 2 2
;
_chemical_formula_sum "Si O2"
_cell_formula_units_Z 56
_cell_length_a 22.237363
_cell_length_b 14.835736
_cell_length_c 7.567776
_cell_angle_alpha 90.000000
_cell_angle_beta 90.000000
_cell_angle_gamma 90.000000
_cell_volume 2496.667172
_symmetry_space_group_name_H-M "I 2 2 2"
_symmetry_group_IT_number 23
_symmetry_cell_setting 'orthorhombic'
loop_
_space_group_symop_operation_xyz
x,y,z
-x,-y,z
x,-y,-z
-x,y,-z
1/2+x,1/2+y,1/2+z
1/2-x,1/2-y,1/2+z
1/2+x,1/2-y,1/2-z
1/2-x,1/2+y,1/2-z
loop_
_atom_site_type_symbol
_atom_site_label
_atom_site_fract_x
_atom_site_fract_y
_atom_site_fract_z
Si Si1 0.759830 0.838664 0.876954
Si Si2 0.542669 0.224923 0.143635
Si Si3 0.822227 0.500000 0.000000
Si Si4 0.097494 0.099636 0.516910
Si Si5 0.613407 0.398795 0.569603
Si Si6 0.227256 0.139802 0.468125
Si Si7 0.000000 0.215416 0.000000
Si Si8 0.861258 0.427144 0.638565
O O1 0.820555 0.860569 0.988166
O O2 0.773272 0.859665 0.676904
O O3 0.704903 0.902372 0.936823
O O4 0.740617 0.735742 0.885966
O O5 0.504200 0.223123 0.325418
O O6 0.602427 0.165788 0.149611
O O7 0.500000 0.177812 0.000000
O O8 0.555687 0.327090 0.077977
O O9 0.780090 0.425926 0.096028
O O10 0.862912 0.462889 0.840468
O O11 0.103902 0.118380 0.723685
O O12 0.161657 0.102643 0.412758
O O13 0.068971 0.000000 0.500000
O O14 0.607755 0.500000 0.500000
O O15 0.560473 0.343204 0.478008
O O16 0.888446 0.500000 0.500000
#
# Coordination Sequence:
#
# PCOD8163845 Si02
#       8
#     8   8   4   8   8   8   4   8
#     4  10  23  38  67 104 138 186 230 295 361 428
#     4  12  27  50  73 102 139 195 250 298 366 430
#     4  10  24  42  68 111 147 178 230 300 366 442
#     4  11  22  42  68 100 143 187 230 295 357 431
#     4  11  24  41  65 103 144 187 235 289 356 430
#     4  10  21  38  63 100 142 179 227 285 365 425
#     4  12  27  46  70 101 146 190 240 295 352 433
#     4  11  26  47  75 105 146 188 242 308 367 430
#
# _framework density 22.429902999999999
#
# number of rings (size 3 to 8) (size 9 to 14) (size 15 to 20)
#    0.000    1.143    3.571    1.500    6.000    2.857 
#    0.000    0.000    0.000    0.000    0.000    0.000 
#    0.000    0.000    0.000    0.000    0.000    0.000 
#
# Total GULP energy -347148.077902 kJ/mol
# GULP energy per Si atom -12398.145639 kJ/mol
# Density = 2.237885 g / cm^3
# Si number density = 22.429903 Si / 1000 Ang^3
#
#
#
# Elastic Constant Matrix: (Units=GPa)
#
#
# Indices 1 2 3 4 5 6 
#
# 1 110.9826 32.7439 39.1937 0.0000 0.0000 0.0000
# 2 32.7439 113.0744 29.1777 0.0000 0.0000 0.0000
# 3 39.1937 29.1777 88.6992 0.0000 0.0000 0.0000
# 4 0.0000 0.0000 0.0000 33.5985 0.0000 0.0000
# 5 0.0000 0.0000 0.0000 0.0000 29.2134 0.0000
# 6 0.0000 0.0000 0.0000 0.0000 0.0000 16.1513
#
#
#
# Elastic Compliance Matrix: (Units=1/GPa)
#
#
# Indices 1 2 3 4 5 6 
#
# 1 0.011129 -0.002135 -0.004215 0.000000 0.000000 0.000000
# 2 -0.002135 0.010074 -0.002370 0.000000 0.000000 0.000000
# 3 -0.004215 -0.002370 0.013916 0.000000 0.000000 0.000000
# 4 0.000000 0.000000 0.000000 0.029763 0.000000 0.000000
# 5 0.000000 0.000000 0.000000 0.000000 0.034231 0.000000
# 6 0.000000 0.000000 0.000000 0.000000 0.000000 0.061915
#
#
# Mechanical properties :
#
#
# Convention : Reuss Voigt Hill
#
# Bulk Modulus (GPa) = 56.56822 57.22078 56.89450
# Shear Modulus (GPa) = 27.12065 29.90204 28.51135
#
# Velocity S-wave (km/s) = 3.48103 3.65517 3.56916
# Velocity P-wave (km/s) = 6.43673 6.58635 6.51197
#
# Compressibility (1/GPa) = 0.01767777
#
# Stress axis : x y z
#
# Youngs Moduli (GPa) = 89.85573 99.26908 71.85765
#
# Poissons Ratio (x) = 0.21194 0.30290
# Poissons Ratio (y) = 0.19184 0.17033
# Poissons Ratio (z) = 0.37877 0.23530
#
# Static dielectric constant tensor:
#      x y z
#    x 4.265410 0.000000 0.000000 
#    y 0.000000 3.850410 0.000000 
#    z 0.000000 0.000000 4.086700 
# 
# 
# High freq. dielectric constant tensor:
#      x y z
#    x 1.884460 0.000000 0.000000 
#    y 0.000000 1.879410 0.000000 
#    z 0.000000 0.000000 1.886140 
# 
# From -- ./inp_files/12086.got.cif
#   From: 2010.03.12/outbox.cif.g09.slc.cpg/sg23_7_cif.got.tgz:12086.got - 2010.04.14 02:50:06.
