data_PCOD8163780
_publ_section_title
;
Structure prediction by ZEFSAII (Michael W. Deem and Ramdas Pophale) SiO2 
 PCOD8163780
Probable space group: I 2 2 2
;
_chemical_formula_sum "Si O2"
_cell_formula_units_Z 40
_cell_length_a 12.636140
_cell_length_b 17.555937
_cell_length_c 8.406587
_cell_angle_alpha 90.000000
_cell_angle_beta 90.000000
_cell_angle_gamma 90.000000
_cell_volume 1864.911189
_symmetry_space_group_name_H-M "I 2 2 2"
_symmetry_group_IT_number 23
_symmetry_cell_setting 'orthorhombic'
loop_
_space_group_symop_operation_xyz
x,y,z
-x,-y,z
x,-y,-z
-x,y,-z
1/2+x,1/2+y,1/2+z
1/2-x,1/2-y,1/2+z
1/2+x,1/2-y,1/2-z
1/2-x,1/2+y,1/2-z
loop_
_atom_site_type_symbol
_atom_site_label
_atom_site_fract_x
_atom_site_fract_y
_atom_site_fract_z
Si Si1 0.203684 0.845603 0.214298
Si Si2 0.991287 0.804433 0.313186
Si Si3 0.274249 0.314633 0.654941
Si Si4 0.928225 0.646454 0.810930
Si Si5 0.875122 0.426894 0.887817
O O1 0.241508 0.771813 0.311038
O O2 0.276747 0.916744 0.267592
O O3 0.082349 0.864403 0.261217
O O4 0.206842 0.828963 0.028945
O O5 0.877449 0.836738 0.259265
O O6 0.000000 0.790324 0.500000
O O7 0.012374 0.725019 0.224808
O O8 0.174407 0.368195 0.700885
O O9 0.013057 0.576457 0.789729
O O10 0.885192 0.646257 0.993260
O O11 0.860627 0.500000 0.000000
#
# Coordination Sequence:
#
# PCOD8163780 Si02
#       5
#     8   8   8   8   8
#     4  11  22  35  59  91 127 170 211 267 339 393
#     4  11  21  35  61  96 131 158 204 278 346 394
#     4  11  21  35  60  95 130 160 208 281 339 392
#     4  10  21  35  60  84 124 163 213 257 326 388
#     4  11  23  41  61  84 125 178 220 257 311 398
#
# _framework density 21.448741999999999
#
# number of rings (size 3 to 8) (size 9 to 14) (size 15 to 20)
#    0.000    1.200    2.000    7.800    5.600    0.000 
#    0.000    1.000    4.400    6.600    0.000    5.600 
#    0.000    0.000    0.000    0.000    0.000    0.000 
#
# Total GULP energy -247814.967100 kJ/mol
# GULP energy per Si atom -12390.748355 kJ/mol
# Density = 2.139992 g / cm^3
# Si number density = 21.448742 Si / 1000 Ang^3
#
#
#
# Elastic Constant Matrix: (Units=GPa)
#
#
# Indices 1 2 3 4 5 6 
#
# 1 187.5924 49.8647 49.9815 0.0000 0.0000 0.0000
# 2 49.8647 51.9225 42.6243 0.0000 0.0000 0.0000
# 3 49.9815 42.6243 123.8666 0.0000 0.0000 0.0000
# 4 0.0000 0.0000 0.0000 32.9168 0.0000 0.0000
# 5 0.0000 0.0000 0.0000 0.0000 43.3897 0.0000
# 6 0.0000 0.0000 0.0000 0.0000 0.0000 13.2675
#
#
#
# Elastic Compliance Matrix: (Units=1/GPa)
#
#
# Indices 1 2 3 4 5 6 
#
# 1 0.007205 -0.006318 -0.000733 0.000000 0.000000 0.000000
# 2 -0.006318 0.032382 -0.008594 0.000000 0.000000 0.000000
# 3 -0.000733 -0.008594 0.011326 0.000000 0.000000 0.000000
# 4 0.000000 0.000000 0.000000 0.030380 0.000000 0.000000
# 5 0.000000 0.000000 0.000000 0.000000 0.023047 0.000000
# 6 0.000000 0.000000 0.000000 0.000000 0.000000 0.075372
#
#
# Mechanical properties :
#
#
# Convention : Reuss Voigt Hill
#
# Bulk Modulus (GPa) = 50.95903 72.03583 61.49743
# Shear Modulus (GPa) = 22.98390 32.64219 27.81304
#
# Velocity S-wave (km/s) = 3.27704 3.90535 3.60491
# Velocity P-wave (km/s) = 6.17485 7.34804 6.78684
#
# Compressibility (1/GPa) = 0.01962361
#
# Stress axis : x y z
#
# Youngs Moduli (GPa) = 138.78308 30.88168 88.28954
#
# Poissons Ratio (x) = 0.19510 0.06475
# Poissons Ratio (y) = 0.87681 0.75873
# Poissons Ratio (z) = 0.10179 0.26539
#
# Static dielectric constant tensor:
#      x y z
#    x 4.829080 0.000000 0.000000 
#    y 0.000000 3.458330 0.000000 
#    z 0.000000 0.000000 3.934900 
# 
# 
# High freq. dielectric constant tensor:
#      x y z
#    x 1.872490 0.000000 0.000000 
#    y 0.000000 1.777400 0.000000 
#    z 0.000000 0.000000 1.846880 
# 
# From -- ./inp_files/8224.got.cif
#   From: 2010.03.12/outbox.cif.g09.slc.cpg/sg23_5_cif.got.tgz:8224.got - 2010.04.14 02:50:06.
