data_PCOD8163177
_publ_section_title
;
Structure prediction by ZEFSAII (Michael W. Deem and Ramdas Pophale) SiO2 
 PCOD8163177
Probable space group: F 2 2 2
;
_chemical_formula_sum "Si O2"
_cell_formula_units_Z 48
_cell_length_a 25.777335
_cell_length_b 12.931879
_cell_length_c 5.748503
_cell_angle_alpha 90.000000
_cell_angle_beta 90.000000
_cell_angle_gamma 90.000000
_cell_volume 1916.259895
_symmetry_space_group_name_H-M "F 2 2 2"
_symmetry_group_IT_number 22
_symmetry_cell_setting 'orthorhombic'
loop_
_space_group_symop_operation_xyz
x,y,z
-x,-y,z
x,-y,-z
-x,y,-z
x,1/2+y,1/2+z
-x,1/2-y,1/2+z
x,1/2-y,1/2-z
-x,1/2+y,1/2-z
1/2+x,y,1/2+z
1/2-x,-y,1/2+z
1/2+x,-y,1/2-z
1/2-x,y,1/2-z
1/2+x,1/2+y,z
1/2-x,1/2-y,z
1/2+x,1/2-y,-z
1/2-x,1/2+y,-z
loop_
_atom_site_type_symbol
_atom_site_label
_atom_site_fract_x
_atom_site_fract_y
_atom_site_fract_z
Si Si1 0.586904 0.867231 0.296628
Si Si2 0.678726 0.854117 0.613577
Si Si3 0.500000 0.500000 0.000000
Si Si4 0.250000 0.750000 0.750000
Si Si5 0.659065 0.000000 0.000000
O O1 0.571013 0.750000 0.250000
O O2 0.620397 0.878019 0.532453
O O3 0.534289 0.930544 0.327927
O O4 0.622068 0.906881 0.083898
O O5 0.682909 0.750000 0.750000
O O6 0.716430 0.833919 0.394486
O O7 0.693511 0.950307 0.787661
#
# Coordination Sequence:
#
# PCOD8163177 Si02
#       5
#    16  16   4   4   8
#     4  12  26  48  79 115 160 214 277 347 407 493
#     4  12  24  49  87 115 163 221 278 349 410 504
#     4  12  28  46  76 124 166 222 272 334 440 478
#     4  12  26  48  92 122 168 228 272 344 450 486
#     4  12  24  47  88 111 162 219 276 347 414 488
#
# _framework density 25.048794999999998
#
# number of rings (size 3 to 8) (size 9 to 14) (size 15 to 20)
#    0.000    0.000    8.333    0.500    0.000    4.667 
#    0.000    0.000  102.667    0.000    0.000    0.000 
#    0.000    0.000    0.000    0.000    0.000    0.000 
#
# Total GULP energy -148768.652211 kJ/mol
# GULP energy per Si atom -12397.387684 kJ/mol
# Density = 2.499178 g / cm^3
# Si number density = 25.048795 Si / 1000 Ang^3
#
#
#
# Elastic Constant Matrix: (Units=GPa)
#
#
# Indices 1 2 3 4 5 6 
#
# 1 118.9874 57.7772 58.4436 0.0000 0.0000 0.0000
# 2 57.7772 187.9557 68.4393 0.0000 0.0000 0.0000
# 3 58.4436 68.4393 143.9157 0.0001 0.0000 -0.0001
# 4 0.0000 0.0000 0.0001 36.5032 0.0000 0.0000
# 5 0.0000 0.0000 0.0000 0.0000 56.0793 0.0000
# 6 0.0000 0.0000 -0.0001 0.0000 0.0000 35.4332
#
#
#
# Elastic Compliance Matrix: (Units=1/GPa)
#
#
# Indices 1 2 3 4 5 6 
#
# 1 0.011177 -0.002156 -0.003513 0.000000 0.000000 0.000000
# 2 -0.002156 0.006851 -0.002382 0.000000 0.000000 0.000000
# 3 -0.003513 -0.002382 0.009508 0.000000 0.000000 0.000000
# 4 0.000000 0.000000 0.000000 0.027395 0.000000 0.000000
# 5 0.000000 0.000000 0.000000 0.000000 0.017832 0.000000
# 6 0.000000 0.000000 0.000000 0.000000 0.000000 0.028222
#
#
# Mechanical properties :
#
#
# Convention : Reuss Voigt Hill
#
# Bulk Modulus (GPa) = 87.47520 91.13101 89.30311
# Shear Modulus (GPa) = 41.35664 43.34970 42.35317
#
# Velocity S-wave (km/s) = 4.06771 4.16457 4.11643
# Velocity P-wave (km/s) = 7.55377 7.71915 7.63691
#
# Compressibility (1/GPa) = 0.01143181
#
# Stress axis : x y z
#
# Youngs Moduli (GPa) = 89.46857 145.97080 105.17309
#
# Poissons Ratio (x) = 0.31478 0.36952
# Poissons Ratio (y) = 0.19294 0.25053
# Poissons Ratio (z) = 0.31434 0.34772
#
# Static dielectric constant tensor:
#      x y z
#    x 4.545820 0.000000 0.000000 
#    y 0.000000 4.481200 0.000000 
#    z 0.000000 0.000000 4.696490 
# 
# 
# High freq. dielectric constant tensor:
#      x y z
#    x 1.977820 0.000000 0.000000 
#    y 0.000000 2.025570 0.000000 
#    z 0.000000 0.000000 2.012480 
# 
# From -- ./inp_files/1671.got.cif
#   From: 2010.03.12/outbox.cif.g09.slc.cpg/sg22_1_cif.got.tgz:1671.got - 2010.04.14 02:24:06.
