data_PCOD8163299
_publ_section_title
;
Structure prediction by ZEFSAII (Michael W. Deem and Ramdas Pophale) SiO2 
 PCOD8163299
Probable space group: I 2 2 2
;
_chemical_formula_sum "Si O2"
_cell_formula_units_Z 48
_cell_length_a 28.765238
_cell_length_b 8.333074
_cell_length_c 10.421892
_cell_angle_alpha 90.000000
_cell_angle_beta 90.000000
_cell_angle_gamma 90.000000
_cell_volume 2498.157287
_symmetry_space_group_name_H-M "I 2 2 2"
_symmetry_group_IT_number 23
_symmetry_cell_setting 'orthorhombic'
loop_
_space_group_symop_operation_xyz
x,y,z
-x,-y,z
x,-y,-z
-x,y,-z
1/2+x,1/2+y,1/2+z
1/2-x,1/2-y,1/2+z
1/2+x,1/2-y,1/2-z
1/2-x,1/2+y,1/2-z
loop_
_atom_site_type_symbol
_atom_site_label
_atom_site_fract_x
_atom_site_fract_y
_atom_site_fract_z
Si Si1 0.712705 0.096323 0.369447
Si Si2 0.109460 0.573750 0.860280
Si Si3 0.024576 0.825732 0.383178
Si Si4 0.986081 0.315833 0.866257
Si Si5 0.112296 0.632052 0.391192
Si Si6 0.218140 0.611370 0.381642
O O1 0.659632 0.159256 0.355258
O O2 0.746700 0.243918 0.372558
O O3 0.718867 0.000000 0.500000
O O4 0.724034 0.984262 0.249767
O O5 0.069065 0.705480 0.838656
O O6 0.104776 0.439438 0.750570
O O7 0.100288 0.500000 0.000000
O O8 0.080185 0.793660 0.405767
O O9 0.000000 0.727844 0.500000
O O10 0.015550 0.761866 0.243914
O O11 0.000000 0.000000 0.388434
O O12 0.000000 0.500000 0.871786
O O13 0.000000 0.230739 0.000000
O O14 0.099509 0.500000 0.500000
O O15 0.166319 0.681340 0.404800
O O16 0.232930 0.500000 0.500000
#
# Coordination Sequence:
#
# PCOD8163299 Si02
#       6
#     8   8   8   8   8   8
#     4  10  21  37  59  83 117 148 190 244 289 344
#     4  10  18  33  57  85 106 140 192 232 271 333
#     4  11  24  38  52  84 121 146 185 237 292 337
#     4  11  19  34  61  83 106 146 195 229 269 343
#     4  10  20  36  60  83 110 155 195 231 279 350
#     4  10  21  39  60  87 116 150 197 240 292 352
#
# _framework density 19.214162000000002
#
# number of rings (size 3 to 8) (size 9 to 14) (size 15 to 20)
#    0.000    1.667    3.333    2.000    0.000    0.333 
#    6.000    0.000    0.000    0.000    0.000    0.000 
#    0.000    0.000    0.000    0.000    0.000    0.000 
#
# Total GULP energy -297317.728170 kJ/mol
# GULP energy per Si atom -12388.238674 kJ/mol
# Density = 1.917043 g / cm^3
# Si number density = 19.214162 Si / 1000 Ang^3
#
#
#
# Elastic Constant Matrix: (Units=GPa)
#
#
# Indices 1 2 3 4 5 6 
#
# 1 169.1397 74.1611 32.0243 0.0000 0.0000 0.0000
# 2 74.1611 74.6899 33.4098 0.0000 0.0000 0.0000
# 3 32.0243 33.4098 144.6165 0.0000 0.0000 0.0000
# 4 0.0000 0.0000 0.0000 17.3124 0.0000 0.0000
# 5 0.0000 0.0000 0.0000 0.0000 33.1520 0.0000
# 6 0.0000 0.0000 0.0000 0.0000 0.0000 39.9537
#
#
#
# Elastic Compliance Matrix: (Units=1/GPa)
#
#
# Indices 1 2 3 4 5 6 
#
# 1 0.010472 -0.010439 0.000093 0.000000 0.000000 0.000000
# 2 -0.010439 0.025338 -0.003542 0.000000 0.000000 0.000000
# 3 0.000093 -0.003542 0.007713 0.000000 0.000000 0.000000
# 4 0.000000 0.000000 0.000000 0.057762 0.000000 0.000000
# 5 0.000000 0.000000 0.000000 0.000000 0.030164 0.000000
# 6 0.000000 0.000000 0.000000 0.000000 0.000000 0.025029
#
#
# Mechanical properties :
#
#
# Convention : Reuss Voigt Hill
#
# Bulk Modulus (GPa) = 63.50877 74.18183 68.84530
# Shear Modulus (GPa) = 26.38468 34.67368 30.52918
#
# Velocity S-wave (km/s) = 3.70968 4.25265 3.99041
# Velocity P-wave (km/s) = 7.17452 7.92497 7.55906
#
# Compressibility (1/GPa) = 0.01574586
#
# Stress axis : x y z
#
# Youngs Moduli (GPa) = 95.49346 39.46564 129.65807
#
# Poissons Ratio (x) = 0.41199 -0.01203
# Poissons Ratio (y) = 0.99688 0.45926
# Poissons Ratio (z) = -0.00886 0.13979
#
# Static dielectric constant tensor:
#      x y z
#    x 3.964460 0.000000 0.000000 
#    y 0.000000 3.487640 0.000000 
#    z 0.000000 0.000000 -3.182160 
# 
# 
# High freq. dielectric constant tensor:
#      x y z
#    x 1.766380 0.000000 0.000000 
#    y 0.000000 1.692400 0.000000 
#    z 0.000000 0.000000 1.785000 
# 
# From -- ./inp_files/18550.got.cif
#   From: 2010.03.12/outbox.cif.g09.slc.cpg/sg23_10_cif.got.tgz:18550.got - 2010.04.14 02:50:06.
