data_PCOD8163403
_publ_section_title
;
Structure prediction by ZEFSAII (Michael W. Deem and Ramdas Pophale) SiO2 
 PCOD8163403
Probable space group: I 2 2 2
;
_chemical_formula_sum "Si O2"
_cell_formula_units_Z 52
_cell_length_a 19.726897
_cell_length_b 14.919068
_cell_length_c 9.131352
_cell_angle_alpha 90.000000
_cell_angle_beta 90.000000
_cell_angle_gamma 90.000000
_cell_volume 2687.420062
_symmetry_space_group_name_H-M "I 2 2 2"
_symmetry_group_IT_number 23
_symmetry_cell_setting 'orthorhombic'
loop_
_space_group_symop_operation_xyz
x,y,z
-x,-y,z
x,-y,-z
-x,y,-z
1/2+x,1/2+y,1/2+z
1/2-x,1/2-y,1/2+z
1/2+x,1/2-y,1/2-z
1/2-x,1/2+y,1/2-z
loop_
_atom_site_type_symbol
_atom_site_label
_atom_site_fract_x
_atom_site_fract_y
_atom_site_fract_z
Si Si1 0.500000 0.500000 0.500000
Si Si2 0.000000 0.000000 0.500000
Si Si3 0.173545 0.865018 0.689039
Si Si4 0.687989 0.860182 0.141397
Si Si5 0.699130 0.343520 0.857854
Si Si6 0.408280 0.464515 0.249312
Si Si7 0.332682 0.160034 0.808049
Si Si8 0.924469 0.497831 0.672449
O O1 0.451670 0.441785 0.394121
O O2 0.953144 0.060967 0.394017
O O3 0.240398 0.884636 0.785054
O O4 0.192317 0.882635 0.520420
O O5 0.113533 0.930679 0.741559
O O6 0.145155 0.763802 0.699115
O O7 0.670974 0.756263 0.168137
O O8 0.627205 0.920181 0.211678
O O9 0.695713 0.872211 0.966230
O O10 0.657503 0.403675 0.744542
O O11 0.776952 0.353713 0.816112
O O12 0.395471 0.096501 0.768705
O O13 0.932867 0.500000 0.500000
O O14 0.000000 0.500000 0.743804
#
# Coordination Sequence:
#
# PCOD8163403 Si02
#       8
#     2   2   8   8   8   8   8   8
#     4  10  28  38  52  78 112 140 190 218 280 338
#     4  10  20  38  52  74 112 132 186 214 260 346
#     4  10  19  34  57  81 108 140 179 223 272 317
#     4   9  19  33  54  84 108 139 182 223 263 319
#     4  10  19  34  57  81 108 140 179 223 272 317
#     4  11  21  39  54  79 106 148 176 227 273 334
#     4   9  19  33  54  84 108 139 182 223 263 319
#     4   9  17  33  51  77 108 140 177 218 259 313
#
# _framework density 19.349413999999999
#
# number of rings (size 3 to 8) (size 9 to 14) (size 15 to 20)
#    0.000    2.308    1.538    0.923    2.154    0.000 
#    5.538    0.000    0.000    1.846    0.000    0.000 
#    0.000    0.000    0.000    0.000    0.000    0.000 
#
# Total GULP energy -322228.282896 kJ/mol
# GULP energy per Si atom -12393.395496 kJ/mol
# Density = 1.930537 g / cm^3
# Si number density = 19.349414 Si / 1000 Ang^3
#
#
#
# Elastic Constant Matrix: (Units=GPa)
#
#
# Indices 1 2 3 4 5 6 
#
# 1 115.6520 64.6411 34.3934 0.0000 0.0000 0.0000
# 2 64.6411 101.9455 25.7370 0.0000 0.0000 0.0000
# 3 34.3934 25.7370 76.1140 0.0000 0.0000 0.0000
# 4 0.0000 0.0000 0.0000 15.8613 0.0000 0.0000
# 5 0.0000 0.0000 0.0000 0.0000 26.3786 0.0000
# 6 0.0000 0.0000 0.0000 0.0000 0.0000 19.4458
#
#
#
# Elastic Compliance Matrix: (Units=1/GPa)
#
#
# Indices 1 2 3 4 5 6 
#
# 1 0.014291 -0.008125 -0.003710 0.000000 0.000000 0.000000
# 2 -0.008125 0.015344 -0.001517 0.000000 0.000000 0.000000
# 3 -0.003710 -0.001517 0.015328 0.000000 0.000000 0.000000
# 4 0.000000 0.000000 0.000000 0.063046 0.000000 0.000000
# 5 0.000000 0.000000 0.000000 0.000000 0.037910 0.000000
# 6 0.000000 0.000000 0.000000 0.000000 0.000000 0.051425
#
#
# Mechanical properties :
#
#
# Convention : Reuss Voigt Hill
#
# Bulk Modulus (GPa) = 54.76962 60.36161 57.56561
# Shear Modulus (GPa) = 21.72636 23.59980 22.66308
#
# Velocity S-wave (km/s) = 3.35452 3.49616 3.42607
# Velocity P-wave (km/s) = 6.58565 6.89643 6.74283
#
# Compressibility (1/GPa) = 0.01825830
#
# Stress axis : x y z
#
# Youngs Moduli (GPa) = 69.97217 65.17182 65.24122
#
# Poissons Ratio (x) = 0.52953 0.24207
# Poissons Ratio (y) = 0.56853 0.09897
# Poissons Ratio (z) = 0.25962 0.09886
#
# Static dielectric constant tensor:
#      x y z
#    x 3.672100 0.000000 0.000000 
#    y 0.000000 3.547790 0.000000 
#    z 0.000000 0.000000 3.470540 
# 
# 
# High freq. dielectric constant tensor:
#      x y z
#    x 1.753210 0.000000 0.000000 
#    y 0.000000 1.746340 0.000000 
#    z 0.000000 0.000000 1.736700 
# 
# From -- ./inp_files/12022.got.cif
#   From: 2010.03.12/outbox.cif.g09.slc.cpg/sg23_7_cif.got.tgz:12022.got - 2010.04.14 02:50:06.
