data_PCOD8163550
_publ_section_title
;
Structure prediction by ZEFSAII (Michael W. Deem and Ramdas Pophale) SiO2 
 PCOD8163550
Probable space group: I 2 2 2
;
_chemical_formula_sum "Si O2"
_cell_formula_units_Z 32
_cell_length_a 9.543339
_cell_length_b 18.264354
_cell_length_c 8.513245
_cell_angle_alpha 90.000000
_cell_angle_beta 90.000000
_cell_angle_gamma 90.000000
_cell_volume 1483.883478
_symmetry_space_group_name_H-M "I 2 2 2"
_symmetry_group_IT_number 23
_symmetry_cell_setting 'orthorhombic'
loop_
_space_group_symop_operation_xyz
x,y,z
-x,-y,z
x,-y,-z
-x,y,-z
1/2+x,1/2+y,1/2+z
1/2-x,1/2-y,1/2+z
1/2+x,1/2-y,1/2-z
1/2-x,1/2+y,1/2-z
loop_
_atom_site_type_symbol
_atom_site_label
_atom_site_fract_x
_atom_site_fract_y
_atom_site_fract_z
Si Si1 0.254559 0.833215 0.190502
Si Si2 0.364771 0.606672 0.394465
Si Si3 0.007507 0.228244 0.315801
Si Si4 0.334537 0.514875 0.828385
O O1 0.410433 0.803561 0.224438
O O2 0.213973 0.903209 0.293121
O O3 0.145710 0.768027 0.236014
O O4 0.245306 0.851279 0.005409
O O5 0.500000 0.582143 0.500000
O O6 0.411963 0.658743 0.254116
O O7 0.283212 0.538166 0.313542
O O8 0.000000 0.214192 0.500000
O O9 0.500000 0.500000 0.832136
O O10 0.268990 0.500000 0.000000
#
# Coordination Sequence:
#
# PCOD8163550 Si02
#       4
#     8   8   8   8
#     4  11  23  37  64  94 125 164 202 261 312 365
#     4  10  20  34  58  88 121 159 207 256 299 356
#     4  11  22  39  59  93 129 161 204 252 311 370
#     4  11  20  35  62  92 120 156 218 264 293 357
#
# _framework density 21.565034000000001
#
# number of rings (size 3 to 8) (size 9 to 14) (size 15 to 20)
#    0.000    1.250    5.000    3.750    0.000    0.000 
#    0.000    2.500    0.000   10.500    0.000   15.750 
#    0.000    0.000    0.000    0.000    0.000    0.000 
#
# Total GULP energy -198319.970152 kJ/mol
# GULP energy per Si atom -12394.998134 kJ/mol
# Density = 2.151595 g / cm^3
# Si number density = 21.565034 Si / 1000 Ang^3
#
#
#
# Elastic Constant Matrix: (Units=GPa)
#
#
# Indices 1 2 3 4 5 6 
#
# 1 54.0276 49.9156 42.0424 0.0000 0.0000 0.0000
# 2 49.9156 114.8644 67.4048 -0.0008 -0.0002 -0.0001
# 3 42.0424 67.4048 156.2578 -0.0006 -0.0002 0.0000
# 4 0.0000 -0.0008 -0.0006 25.8605 -0.0002 -0.0001
# 5 0.0000 -0.0002 -0.0002 -0.0002 14.8787 0.0000
# 6 0.0000 -0.0001 0.0000 -0.0001 0.0000 19.1046
#
#
#
# Elastic Compliance Matrix: (Units=1/GPa)
#
#
# Indices 1 2 3 4 5 6 
#
# 1 0.032317 -0.011972 -0.003531 0.000000 0.000000 0.000000
# 2 -0.011972 0.016092 -0.003720 0.000000 0.000000 0.000000
# 3 -0.003531 -0.003720 0.008955 0.000000 0.000000 0.000000
# 4 0.000000 0.000000 0.000000 0.038669 0.000001 0.000000
# 5 0.000000 0.000000 0.000000 0.000001 0.067210 0.000000
# 6 0.000000 0.000000 0.000000 0.000000 0.000000 0.052343
#
#
# Mechanical properties :
#
#
# Convention : Reuss Voigt Hill
#
# Bulk Modulus (GPa) = 52.86164 71.54171 62.20167
# Shear Modulus (GPa) = 19.20581 23.02123 21.11352
#
# Velocity S-wave (km/s) = 2.98753 3.27085 3.13239
# Velocity P-wave (km/s) = 6.03873 6.89286 6.47988
#
# Compressibility (1/GPa) = 0.01891731
#
# Stress axis : x y z
#
# Youngs Moduli (GPa) = 30.94305 62.14446 111.67528
#
# Poissons Ratio (x) = 0.74398 0.39432
# Poissons Ratio (y) = 0.37045 0.41546
# Poissons Ratio (z) = 0.10926 0.23119
#
# Static dielectric constant tensor:
#      x y z
#    x 3.543660 0.000000 0.000000 
#    y 0.000000 3.900770 0.000000 
#    z 0.000000 0.000000 4.490740 
# 
# 
# High freq. dielectric constant tensor:
#      x y z
#    x 1.785810 0.000000 0.000000 
#    y 0.000000 1.846530 0.000000 
#    z 0.000000 0.000000 1.873240 
# 
# From -- ./inp_files/7912.got.cif
#   From: 2010.03.12/outbox.cif.g09.slc.cpg/sg23_4_cif.got.tgz:7912.got - 2010.04.14 02:50:06.
