data_PCOD8163544
_publ_section_title
;
Structure prediction by ZEFSAII (Michael W. Deem and Ramdas Pophale) SiO2 
 PCOD8163544
Probable space group: I 2 2 2
;
_chemical_formula_sum "Si O2"
_cell_formula_units_Z 48
_cell_length_a 8.897146
_cell_length_b 15.049478
_cell_length_c 19.107372
_cell_angle_alpha 90.000000
_cell_angle_beta 90.000000
_cell_angle_gamma 90.000000
_cell_volume 2558.427489
_symmetry_space_group_name_H-M "I 2 2 2"
_symmetry_group_IT_number 23
_symmetry_cell_setting 'orthorhombic'
loop_
_space_group_symop_operation_xyz
x,y,z
-x,-y,z
x,-y,-z
-x,y,-z
1/2+x,1/2+y,1/2+z
1/2-x,1/2-y,1/2+z
1/2+x,1/2-y,1/2-z
1/2-x,1/2+y,1/2-z
loop_
_atom_site_type_symbol
_atom_site_label
_atom_site_fract_x
_atom_site_fract_y
_atom_site_fract_z
Si Si1 0.324271 0.849511 0.180945
Si Si2 0.324298 0.646151 0.826013
Si Si3 0.324298 0.353849 0.826013
Si Si4 0.676800 0.000000 0.581113
Si Si5 0.824271 0.349511 0.319055
Si Si6 0.678001 1.000000 0.077368
O O1 0.235184 0.879994 0.249600
O O2 0.286785 0.749024 0.158737
O O3 0.500000 0.861817 0.197239
O O4 0.268687 0.911867 0.117920
O O5 0.500000 0.626041 0.829011
O O6 0.243481 0.588640 0.884830
O O7 0.286786 0.749024 0.841263
O O8 0.243481 0.411360 0.884830
O O9 0.264816 0.379994 0.749600
O O10 0.500000 0.000000 0.592623
O O11 0.721509 0.000000 0.500000
O O12 0.768687 0.411867 0.382080
O O13 0.500000 0.000000 0.071183
O O14 0.750945 0.000000 0.000000
#
# Coordination Sequence:
#
# PCOD8163544 Si02
#       6
#     8   8   8   8   8   8
#     4   9  18  33  55  81 108 139 173 212 259 311
#     4  10  20  34  55  81 106 135 175 221 264 312
#     4  10  20  34  55  81 106 135 175 221 264 312
#     4  11  24  39  54  74 104 143 182 223 276 330
#     4   9  18  33  55  81 108 139 173 212 259 311
#     4   9  17  30  50  76 104 135 170 205 246 302
#
# _framework density 18.761524000000001
#
# number of rings (size 3 to 8) (size 9 to 14) (size 15 to 20)
#    0.000    2.333    0.000    2.500    0.000    5.333 
#    0.000    3.333    0.000    2.000    0.000    0.000 
#    0.000    0.000    0.000    0.000    0.000    0.000 
#
# Total GULP energy -297659.904557 kJ/mol
# GULP energy per Si atom -12402.496023 kJ/mol
# Density = 1.871882 g / cm^3
# Si number density = 18.761524 Si / 1000 Ang^3
#
#
#
# Elastic Constant Matrix: (Units=GPa)
#
#
# Indices 1 2 3 4 5 6 
#
# 1 72.4553 44.2805 64.7661 0.0000 0.0000 0.0000
# 2 44.2805 130.5198 103.8292 0.0000 0.0000 0.0000
# 3 64.7661 103.8292 184.6693 0.0000 0.0000 0.0000
# 4 0.0000 0.0000 0.0000 16.6002 0.0000 0.0000
# 5 0.0000 0.0000 0.0000 0.0000 25.5932 0.0000
# 6 0.0000 0.0000 0.0000 0.0000 0.0000 26.6283
#
#
#
# Elastic Compliance Matrix: (Units=1/GPa)
#
#
# Indices 1 2 3 4 5 6 
#
# 1 0.020457 -0.002231 -0.005920 0.000000 0.000000 0.000000
# 2 -0.002231 0.014105 -0.007148 0.000000 0.000000 0.000000
# 3 -0.005920 -0.007148 0.011510 0.000000 0.000000 0.000000
# 4 0.000000 0.000000 0.000000 0.060240 0.000000 0.000000
# 5 0.000000 0.000000 0.000000 0.000000 0.039073 0.000000
# 6 0.000000 0.000000 0.000000 0.000000 0.000000 0.037554
#
#
# Mechanical properties :
#
#
# Convention : Reuss Voigt Hill
#
# Bulk Modulus (GPa) = 64.62428 90.37734 77.50081
# Shear Modulus (GPa) = 22.86288 25.41557 24.13923
#
# Velocity S-wave (km/s) = 3.49464 3.68457 3.59086
# Velocity P-wave (km/s) = 7.12764 8.14725 7.65444
#
# Compressibility (1/GPa) = 0.01547406
#
# Stress axis : x y z
#
# Youngs Moduli (GPa) = 48.88324 70.89854 86.87822
#
# Poissons Ratio (x) = 0.15814 0.51436
# Poissons Ratio (y) = 0.10904 0.62100
# Poissons Ratio (z) = 0.28941 0.50678
#
# Static dielectric constant tensor:
#      x y z
#    x 3.332260 0.000000 0.000000 
#    y 0.000000 3.626830 0.000000 
#    z 0.000000 0.000000 3.555690 
# 
# 
# High freq. dielectric constant tensor:
#      x y z
#    x 1.716090 0.000000 0.000000 
#    y 0.000000 1.743930 0.000000 
#    z 0.000000 0.000000 1.725550 
# 
# From -- ./inp_files/11056.got.cif
#   From: 2010.03.12/outbox.cif.g09.slc.cpg/sg23_6_cif.got.tgz:11056.got - 2010.04.14 02:50:06.
