data_PCOD8163377
_publ_section_title
;
Structure prediction by ZEFSAII (Michael W. Deem and Ramdas Pophale) SiO2 
 PCOD8163377
Probable space group: I 2 2 2
;
_chemical_formula_sum "Si O2"
_cell_formula_units_Z 64
_cell_length_a 17.637868
_cell_length_b 14.048070
_cell_length_c 15.239269
_cell_angle_alpha 90.000000
_cell_angle_beta 90.000000
_cell_angle_gamma 90.000000
_cell_volume 3775.955660
_symmetry_space_group_name_H-M "I 2 2 2"
_symmetry_group_IT_number 23
_symmetry_cell_setting 'orthorhombic'
loop_
_space_group_symop_operation_xyz
x,y,z
-x,-y,z
x,-y,-z
-x,y,-z
1/2+x,1/2+y,1/2+z
1/2-x,1/2-y,1/2+z
1/2+x,1/2-y,1/2-z
1/2-x,1/2+y,1/2-z
loop_
_atom_site_type_symbol
_atom_site_label
_atom_site_fract_x
_atom_site_fract_y
_atom_site_fract_z
Si Si1 0.589893 0.894718 0.500000
Si Si2 0.411193 0.215250 0.329112
Si Si3 0.415603 0.886928 0.000000
Si Si4 0.332414 0.110300 0.827697
Si Si5 0.167586 0.389700 0.672303
Si Si6 0.333759 0.608152 0.602534
Si Si7 0.666241 0.608152 0.602534
Si Si8 0.411193 0.215250 0.670888
O O1 0.500000 0.897371 0.500000
O O2 0.618344 0.842111 0.413415
O O3 0.618344 0.842111 0.586585
O O4 0.624986 0.000000 0.500000
O O5 0.360183 0.177603 0.250090
O O6 0.396331 0.326023 0.350475
O O7 0.500000 0.199566 0.308657
O O8 0.373954 0.849787 0.086258
O O9 0.500000 0.845445 0.000000
O O10 0.373954 0.849787 0.913742
O O11 0.413977 0.000000 0.000000
O O12 0.243499 0.121953 0.843617
O O13 0.360183 0.177603 0.749910
O O14 0.353691 1.000000 0.808002
O O15 0.256501 0.378047 0.656384
O O16 0.362706 0.500000 0.610749
O O17 0.322004 0.634262 0.500000
O O18 0.603669 0.673977 0.649525
#
# Coordination Sequence:
#
# PCOD8163377 Si02
#       8
#     8   8   8   8   8   8   8   8
#     4   9  18  31  45  67 103 138 165 199 250 311
#     4  11  21  33  51  77 106 139 175 216 264 311
#     4   9  16  27  46  74 104 131 162 204 254 309
#     4  10  19  33  53  77 105 137 171 213 266 319
#     4  10  19  33  53  77 105 137 171 213 266 319
#     4  10  20  36  55  74 102 141 182 220 259 305
#     4  10  20  36  55  74 102 141 182 220 259 305
#     4  11  21  33  51  77 106 139 175 216 264 311
#
# _framework density 16.949352999999999
#
# number of rings (size 3 to 8) (size 9 to 14) (size 15 to 20)
#    0.000    2.000    2.500    2.250    0.000    3.000 
#    0.000    1.250    0.000    0.000    0.000    0.875 
#    0.000    3.000    0.000    0.000    0.000    0.000 
#
# Total GULP energy -396768.612039 kJ/mol
# GULP energy per Si atom -12399.019126 kJ/mol
# Density = 1.691078 g / cm^3
# Si number density = 16.949353 Si / 1000 Ang^3
#
#
#
# Elastic Constant Matrix: (Units=GPa)
#
#
# Indices 1 2 3 4 5 6 
#
# 1 36.1153 21.0531 19.8451 0.0000 0.0000 0.0000
# 2 21.0531 90.0998 47.8364 0.0000 0.0000 0.0000
# 3 19.8451 47.8364 117.5219 0.0000 0.0000 0.0000
# 4 0.0000 0.0000 0.0000 25.0624 0.0000 0.0000
# 5 0.0000 0.0000 0.0000 0.0000 22.8748 0.0000
# 6 0.0000 0.0000 0.0000 0.0000 0.0000 25.2971
#
#
#
# Elastic Compliance Matrix: (Units=1/GPa)
#
#
# Indices 1 2 3 4 5 6 
#
# 1 0.032916 -0.006047 -0.003097 0.000000 0.000000 0.000000
# 2 -0.006047 0.015270 -0.005194 0.000000 0.000000 0.000000
# 3 -0.003097 -0.005194 0.011146 0.000000 0.000000 0.000000
# 4 0.000000 0.000000 0.000000 0.039900 0.000000 0.000000
# 5 0.000000 0.000000 0.000000 0.000000 0.043716 0.000000
# 6 0.000000 0.000000 0.000000 0.000000 0.000000 0.039530
#
#
# Mechanical properties :
#
#
# Convention : Reuss Voigt Hill
#
# Bulk Modulus (GPa) = 32.62065 46.80067 39.71066
# Shear Modulus (GPa) = 22.58628 24.98036 23.78332
#
# Velocity S-wave (km/s) = 3.65441 3.84321 3.74999
# Velocity P-wave (km/s) = 6.09048 6.88227 6.49845
#
# Compressibility (1/GPa) = 0.03065543
#
# Stress axis : x y z
#
# Youngs Moduli (GPa) = 30.38044 65.48989 89.71616
#
# Poissons Ratio (x) = 0.39602 0.27784
# Poissons Ratio (y) = 0.18371 0.46601
# Poissons Ratio (z) = 0.09408 0.34017
#
# Static dielectric constant tensor:
#      x y z
#    x 3.019370 0.000000 0.000000 
#    y 0.000000 3.113020 0.000000 
#    z 0.000000 0.000000 3.259870 
# 
# 
# High freq. dielectric constant tensor:
#      x y z
#    x 1.642540 0.000000 0.000000 
#    y 0.000000 1.638260 0.000000 
#    z 0.000000 0.000000 1.660160 
# 
# From -- ./inp_files/21784.got.cif
#   From: 2010.03.12/outbox.cif.g09.slc.cpg/sg23_11_cif.got.tgz:21784.got - 2010.04.14 02:50:06.
