data_PCOD8163103
_publ_section_title
;
Structure prediction by ZEFSAII (Michael W. Deem and Ramdas Pophale) SiO2 
 PCOD8163103
Probable space group: F 2 2 2
;
_chemical_formula_sum "Si O2"
_cell_formula_units_Z 64
_cell_length_a 8.680523
_cell_length_b 12.545221
_cell_length_c 21.996522
_cell_angle_alpha 90.000000
_cell_angle_beta 90.000000
_cell_angle_gamma 90.000000
_cell_volume 2395.400996
_symmetry_space_group_name_H-M "F 2 2 2"
_symmetry_group_IT_number 22
_symmetry_cell_setting 'orthorhombic'
loop_
_space_group_symop_operation_xyz
x,y,z
-x,-y,z
x,-y,-z
-x,y,-z
x,1/2+y,1/2+z
-x,1/2-y,1/2+z
x,1/2-y,1/2-z
-x,1/2+y,1/2-z
1/2+x,y,1/2+z
1/2-x,-y,1/2+z
1/2+x,-y,1/2-z
1/2-x,y,1/2-z
1/2+x,1/2+y,z
1/2-x,1/2-y,z
1/2+x,1/2-y,-z
1/2-x,1/2+y,-z
loop_
_atom_site_type_symbol
_atom_site_label
_atom_site_fract_x
_atom_site_fract_y
_atom_site_fract_z
Si Si1 0.445736 0.120934 0.936694
Si Si2 0.085902 0.372485 0.734710
Si Si3 0.654228 0.644474 0.331147
Si Si4 0.647749 0.541609 0.889778
O O1 0.522545 0.181531 0.879643
O O2 0.258429 0.119969 0.928869
O O3 0.500000 0.000000 0.937550
O O4 0.500000 0.176218 0.000000
O O5 0.098419 0.250000 0.750000
O O6 0.250000 0.428026 0.750000
O O7 0.058974 0.393823 0.663841
O O8 0.933789 0.410440 0.772836
O O9 0.750000 0.750000 0.311625
O O10 0.755012 0.555727 0.363214
O O11 0.500000 0.500000 0.929400
#
# Coordination Sequence:
#
# PCOD8163103 Si02
#       4
#    16  16  16  16
#     4   9  20  43  69  93 132 182 233 291 346 403
#     4  11  24  40  62  97 138 178 219 279 339 417
#     4  11  24  44  64  98 142 183 225 281 353 421
#     4  11  24  40  70 103 135 184 231 284 354 421
#
# _framework density 26.717865
#
# number of rings (size 3 to 8) (size 9 to 14) (size 15 to 20)
#    0.000    1.500    2.500    1.500    3.500    2.500 
#    0.000   15.000    0.000    0.000    0.000    0.000 
#    0.000    0.000    0.000    0.000    0.000    0.000 
#
# Total GULP energy -198220.096020 kJ/mol
# GULP energy per Si atom -12388.756001 kJ/mol
# Density = 2.665705 g / cm^3
# Si number density = 26.717865 Si / 1000 Ang^3
#
#
#
# Elastic Constant Matrix: (Units=GPa)
#
#
# Indices 1 2 3 4 5 6 
#
# 1 231.2439 25.8354 71.0785 0.0000 0.0000 0.0000
# 2 25.8354 60.6681 -1.9447 0.0000 0.0000 0.0000
# 3 71.0785 -1.9447 133.0457 0.0000 0.0000 0.0000
# 4 0.0000 0.0000 0.0000 28.8331 0.0000 0.0000
# 5 0.0000 0.0000 0.0000 0.0000 25.4006 0.0000
# 6 0.0000 0.0000 0.0000 0.0000 0.0000 33.8237
#
#
#
# Elastic Compliance Matrix: (Units=1/GPa)
#
#
# Indices 1 2 3 4 5 6 
#
# 1 0.005514 -0.002444 -0.002981 0.000000 0.000000 0.000000
# 2 -0.002444 0.017574 0.001562 0.000000 0.000000 0.000000
# 3 -0.002981 0.001562 0.009132 0.000000 0.000000 0.000000
# 4 0.000000 0.000000 0.000000 0.034682 0.000000 0.000000
# 5 0.000000 0.000000 0.000000 0.000000 0.039369 0.000000
# 6 0.000000 0.000000 0.000000 0.000000 0.000000 0.029565
#
#
# Mechanical properties :
#
#
# Convention : Reuss Voigt Hill
#
# Bulk Modulus (GPa) = 40.82613 68.32177 54.57395
# Shear Modulus (GPa) = 32.95408 39.61072 36.28240
#
# Velocity S-wave (km/s) = 3.51580 3.85457 3.68908
# Velocity P-wave (km/s) = 5.63869 6.74073 6.21419
#
# Compressibility (1/GPa) = 0.02449412
#
# Stress axis : x y z
#
# Youngs Moduli (GPa) = 181.36063 56.90277 109.50663
#
# Poissons Ratio (x) = 0.13905 0.32649
# Poissons Ratio (y) = 0.44318 -0.17109
# Poissons Ratio (z) = 0.54072 -0.08890
#
# Static dielectric constant tensor:
#      x y z
#    x 6.324220 0.000000 0.000000 
#    y 0.000000 4.761770 0.000000 
#    z 0.000000 0.000000 5.391820 
# 
# 
# High freq. dielectric constant tensor:
#      x y z
#    x 2.109700 0.000000 0.000000 
#    y 0.000000 2.055410 0.000000 
#    z 0.000000 0.000000 2.039090 
# 
# From -- ./inp_files/9773.got.cif
#   From: 2010.03.12/outbox.cif.g09.slc.cpg/sg22_5_cif.got.tgz:9773.got - 2010.04.14 02:24:06.
