data_PCOD8163100
_publ_section_title
;
Structure prediction by ZEFSAII (Michael W. Deem and Ramdas Pophale) SiO2 
 PCOD8163100
Probable space group: F 2 2 2
;
_chemical_formula_sum "Si O2"
_cell_formula_units_Z 104
_cell_length_a 9.456585
_cell_length_b 24.888501
_cell_length_c 20.174703
_cell_angle_alpha 90.000000
_cell_angle_beta 90.000000
_cell_angle_gamma 90.000000
_cell_volume 4748.322642
_symmetry_space_group_name_H-M "F 2 2 2"
_symmetry_group_IT_number 22
_symmetry_cell_setting 'orthorhombic'
loop_
_space_group_symop_operation_xyz
x,y,z
-x,-y,z
x,-y,-z
-x,y,-z
x,1/2+y,1/2+z
-x,1/2-y,1/2+z
x,1/2-y,1/2-z
-x,1/2+y,1/2-z
1/2+x,y,1/2+z
1/2-x,-y,1/2+z
1/2+x,-y,1/2-z
1/2-x,y,1/2-z
1/2+x,1/2+y,z
1/2-x,1/2-y,z
1/2+x,1/2-y,-z
1/2-x,1/2+y,-z
loop_
_atom_site_type_symbol
_atom_site_label
_atom_site_fract_x
_atom_site_fract_y
_atom_site_fract_z
Si Si1 0.913813 0.260940 0.675731
Si Si2 0.803890 0.500000 0.000000
Si Si3 0.315712 0.085444 0.103576
Si Si4 0.498717 0.177420 0.071850
Si Si5 0.265940 0.589400 0.399159
Si Si6 0.972218 0.059983 0.286761
Si Si7 0.477923 0.382704 0.151835
O O1 0.967558 0.250000 0.750000
O O2 0.750000 0.250000 0.667181
O O3 0.929410 0.322280 0.657568
O O4 0.007464 0.223022 0.627917
O O5 0.881845 0.539273 0.053677
O O6 0.726402 0.457011 0.047111
O O7 0.351911 0.144280 0.075601
O O8 0.392708 0.080124 0.173152
O O9 0.147173 0.081646 0.117801
O O10 0.625769 0.134631 0.076589
O O11 0.500000 0.205973 0.000000
O O12 0.328275 0.564018 0.330714
O O13 0.115492 0.617292 0.393341
O O14 0.967938 0.096463 0.222375
O O15 0.000000 0.000000 0.262620
#
# Coordination Sequence:
#
# PCOD8163100 Si02
#       7
#    16   8  16  16  16  16  16
#     4  11  24  47  76 102 136 187 240 301 359 420
#     4  12  24  46  66  98 148 184 232 268 358 424
#     4  11  24  42  71  98 135 186 228 285 338 432
#     4  11  23  47  72 102 134 183 245 287 346 422
#     4  11  26  43  70 105 141 179 226 294 350 418
#     4  11  24  42  70  99 137 185 231 284 345 421
#     4  12  27  45  65 107 142 176 236 293 359 413
#
# _framework density 21.902470999999998
#
# number of rings (size 3 to 8) (size 9 to 14) (size 15 to 20)
#    0.000    0.769    4.615    2.769    4.308    5.538 
#    5.538    0.769    0.000    0.000    0.000    0.000 
#    0.000    0.000    0.000    0.000    0.000    0.000 
#
# Total GULP energy -322168.552764 kJ/mol
# GULP energy per Si atom -12391.098183 kJ/mol
# Density = 2.185262 g / cm^3
# Si number density = 21.902471 Si / 1000 Ang^3
#
#
#
# Elastic Constant Matrix: (Units=GPa)
#
#
# Indices 1 2 3 4 5 6 
#
# 1 117.3421 24.1234 31.6126 0.0000 0.0000 0.0000
# 2 24.1234 128.1004 57.2502 0.0000 0.0000 0.0000
# 3 31.6126 57.2502 136.2129 0.0000 0.0000 0.0000
# 4 0.0000 0.0000 0.0000 45.5121 0.0000 0.0000
# 5 0.0000 0.0000 0.0000 0.0000 5.7708 0.0000
# 6 0.0000 0.0000 0.0000 0.0000 0.0000 9.1264
#
#
#
# Elastic Compliance Matrix: (Units=1/GPa)
#
#
# Indices 1 2 3 4 5 6 
#
# 1 0.009185 -0.000957 -0.001730 0.000000 0.000000 0.000000
# 2 -0.000957 0.009712 -0.003860 0.000000 0.000000 0.000000
# 3 -0.001730 -0.003860 0.009365 0.000000 0.000000 0.000000
# 4 0.000000 0.000000 0.000000 0.021972 0.000000 0.000000
# 5 0.000000 0.000000 0.000000 0.000000 0.173288 0.000000
# 6 0.000000 0.000000 0.000000 0.000000 0.000000 0.109572
#
#
# Mechanical properties :
#
#
# Convention : Reuss Voigt Hill
#
# Bulk Modulus (GPa) = 65.92188 67.51420 66.71804
# Shear Modulus (GPa) = 14.23522 29.99314 22.11418
#
# Velocity S-wave (km/s) = 2.55215 3.70455 3.18097
# Velocity P-wave (km/s) = 6.23281 7.01356 6.63468
#
# Compressibility (1/GPa) = 0.01516947
#
# Stress axis : x y z
#
# Youngs Moduli (GPa) = 108.87663 102.97062 106.77973
#
# Poissons Ratio (x) = 0.09851 0.18468
# Poissons Ratio (y) = 0.10416 0.41214
# Poissons Ratio (z) = 0.18830 0.39744
#
# Static dielectric constant tensor:
#      x y z
#    x 3.833560 0.000000 0.000000 
#    y 0.000000 4.043270 0.000000 
#    z 0.000000 0.000000 4.234730 
# 
# 
# High freq. dielectric constant tensor:
#      x y z
#    x 1.841150 0.000000 0.000000 
#    y 0.000000 1.865800 0.000000 
#    z 0.000000 0.000000 1.875720 
# 
# From -- ./inp_files/42028.got.cif
#   From: 2010.03.12/outbox.cif.g09.slc.cpg/sg22_22_cif.got.tgz:42028.got - 2010.04.14 02:24:06.
