data_PCOD8163655
_publ_section_title
;
Structure prediction by ZEFSAII (Michael W. Deem and Ramdas Pophale) SiO2 
 PCOD8163655
Probable space group: I 2 2 2
;
_chemical_formula_sum "Si O2"
_cell_formula_units_Z 50
_cell_length_a 30.198727
_cell_length_b 9.241343
_cell_length_c 8.402690
_cell_angle_alpha 90.000000
_cell_angle_beta 90.000000
_cell_angle_gamma 90.000000
_cell_volume 2344.995789
_symmetry_space_group_name_H-M "I 2 2 2"
_symmetry_group_IT_number 23
_symmetry_cell_setting 'orthorhombic'
loop_
_space_group_symop_operation_xyz
x,y,z
-x,-y,z
x,-y,-z
-x,y,-z
1/2+x,1/2+y,1/2+z
1/2-x,1/2-y,1/2+z
1/2+x,1/2-y,1/2-z
1/2-x,1/2+y,1/2-z
loop_
_atom_site_type_symbol
_atom_site_label
_atom_site_fract_x
_atom_site_fract_y
_atom_site_fract_z
Si Si1 0.000000 0.500000 0.500000
Si Si2 0.401221 0.000000 0.500000
Si Si3 0.712467 0.377694 0.109280
Si Si4 0.355056 0.000000 0.000000
Si Si5 0.856479 0.789075 0.902669
Si Si6 0.427039 0.842206 0.192780
Si Si7 0.624236 0.422207 0.272458
Si Si8 0.289692 0.177229 0.172722
O O1 0.028089 0.612997 0.604856
O O2 0.374231 0.874839 0.592395
O O3 0.429753 0.924947 0.361654
O O4 0.661268 0.417742 0.136571
O O5 0.741460 0.370943 0.269249
O O6 0.734841 0.500000 0.000000
O O7 0.715374 0.232470 0.007270
O O8 0.385810 0.122438 0.921848
O O9 0.325357 0.950263 0.849874
O O10 0.810316 0.788666 0.803356
O O11 0.888149 0.909987 0.814288
O O12 0.850221 0.843544 0.081659
O O13 0.420283 0.668830 0.225725
#
# Coordination Sequence:
#
# PCOD8163655 Si02
#       8
#     2   4   8   4   8   8   8   8
#     4  10  24  42  72 110 136 166 220 286 340 440
#     4  10  20  37  68 102 128 176 216 274 332 425
#     4  12  26  38  55  83 123 178 228 289 348 400
#     4  11  22  37  62  86 124 176 222 282 339 409
#     4  10  21  38  64  92 124 172 228 270 336 398
#     4  10  21  41  68  98 132 167 221 274 348 417
#     4  10  21  41  62  90 128 173 219 278 342 411
#     4  12  25  38  56  86 125 174 232 293 332 400
#
# _framework density 21.321999000000002
#
# number of rings (size 3 to 8) (size 9 to 14) (size 15 to 20)
#    0.000    1.280    4.800    0.960    3.360    1.600 
#    0.000    0.000    0.000    1.920    0.000    4.480 
#    0.000    0.000    0.000    0.000    0.000    0.000 
#
# Total GULP energy -309709.598527 kJ/mol
# GULP energy per Si atom -12388.383941 kJ/mol
# Density = 2.127347 g / cm^3
# Si number density = 21.321999 Si / 1000 Ang^3
#
#
#
# Elastic Constant Matrix: (Units=GPa)
#
#
# Indices 1 2 3 4 5 6 
#
# 1 95.1570 44.2641 40.2885 0.0000 0.0000 0.0000
# 2 44.2641 135.0682 28.5451 0.0000 0.0000 0.0000
# 3 40.2885 28.5451 97.3898 0.0000 0.0000 0.0000
# 4 0.0000 0.0000 0.0000 38.5787 0.0000 0.0000
# 5 0.0000 0.0000 0.0000 0.0000 35.8217 0.0000
# 6 0.0000 0.0000 0.0000 0.0000 0.0000 18.8633
#
#
#
# Elastic Compliance Matrix: (Units=1/GPa)
#
#
# Indices 1 2 3 4 5 6 
#
# 1 0.014250 -0.003650 -0.004825 0.000000 0.000000 0.000000
# 2 -0.003650 0.008828 -0.001077 0.000000 0.000000 0.000000
# 3 -0.004825 -0.001077 0.012580 0.000000 0.000000 0.000000
# 4 0.000000 0.000000 0.000000 0.025921 0.000000 0.000000
# 5 0.000000 0.000000 0.000000 0.000000 0.027916 0.000000
# 6 0.000000 0.000000 0.000000 0.000000 0.000000 0.053013
#
#
# Mechanical properties :
#
#
# Convention : Reuss Voigt Hill
#
# Bulk Modulus (GPa) = 60.41543 61.53449 60.97496
# Shear Modulus (GPa) = 29.91690 32.95390 31.43540
#
# Velocity S-wave (km/s) = 3.74986 3.93559 3.84385
# Velocity P-wave (km/s) = 6.86622 7.04089 6.95410
#
# Compressibility (1/GPa) = 0.01655206
#
# Stress axis : x y z
#
# Youngs Moduli (GPa) = 70.17664 113.28133 79.49244
#
# Poissons Ratio (x) = 0.41350 0.38355
# Poissons Ratio (y) = 0.25616 0.08564
# Poissons Ratio (z) = 0.33860 0.12205
#
# Static dielectric constant tensor:
#      x y z
#    x 3.285040 0.000000 0.000000 
#    y 0.000000 4.140230 0.000000 
#    z 0.000000 0.000000 4.052290 
# 
# 
# High freq. dielectric constant tensor:
#      x y z
#    x 1.777600 0.000000 0.000000 
#    y 0.000000 1.841660 0.000000 
#    z 0.000000 0.000000 1.859720 
# 
# From -- ./inp_files/13424.got.cif
#   From: 2010.03.12/outbox.cif.g09.slc.cpg/sg23_7_cif.got.tgz:13424.got - 2010.04.14 02:50:06.
