data_PCOD8163109
_publ_section_title
;
Structure prediction by ZEFSAII (Michael W. Deem and Ramdas Pophale) SiO2 
 PCOD8163109
Probable space group: F 2 2 2
;
_chemical_formula_sum "Si O2"
_cell_formula_units_Z 60
_cell_length_a 9.109060
_cell_length_b 23.129362
_cell_length_c 13.275636
_cell_angle_alpha 90.000000
_cell_angle_beta 90.000000
_cell_angle_gamma 90.000000
_cell_volume 2797.000553
_symmetry_space_group_name_H-M "F 2 2 2"
_symmetry_group_IT_number 22
_symmetry_cell_setting 'orthorhombic'
loop_
_space_group_symop_operation_xyz
x,y,z
-x,-y,z
x,-y,-z
-x,y,-z
x,1/2+y,1/2+z
-x,1/2-y,1/2+z
x,1/2-y,1/2-z
-x,1/2+y,1/2-z
1/2+x,y,1/2+z
1/2-x,-y,1/2+z
1/2+x,-y,1/2-z
1/2-x,y,1/2-z
1/2+x,1/2+y,z
1/2-x,1/2-y,z
1/2+x,1/2-y,-z
1/2-x,1/2+y,-z
loop_
_atom_site_type_symbol
_atom_site_label
_atom_site_fract_x
_atom_site_fract_y
_atom_site_fract_z
Si Si1 0.538807 0.161134 0.649605
Si Si2 0.586488 0.557761 0.291167
Si Si3 0.750000 0.250000 0.750000
Si Si4 0.000000 0.889989 0.500000
Si Si5 0.774991 0.316154 0.471135
O O1 0.517282 0.109862 0.728299
O O2 0.641417 0.211674 0.686968
O O3 0.630410 0.144433 0.549186
O O4 0.374809 0.184933 0.629327
O O5 0.500000 0.500000 0.265076
O O6 0.750000 0.549000 0.250000
O O7 0.571710 0.571268 0.410905
O O8 0.122117 0.848380 0.450768
O O9 0.750000 0.250000 0.506984
#
# Coordination Sequence:
#
# PCOD8163109 Si02
#       5
#    16  16   4   8  16
#     4  11  24  44  73 105 148 190 243 300 373 435
#     4  12  28  51  74 104 144 198 249 311 367 442
#     4  12  20  44  70 100 148 198 226 310 368 434
#     4  12  25  50  74 104 150 188 253 304 380 436
#     4  11  24  42  70 113 147 191 235 304 371 458
#
# _framework density 21.451550999999998
#
# number of rings (size 3 to 8) (size 9 to 14) (size 15 to 20)
#    0.000    0.533    5.333    2.000    7.467    0.000 
#    0.000    2.667    0.000    0.000    0.000    0.000 
#    0.000    0.000    0.000    0.000    0.000    0.000 
#
# Total GULP energy -185872.987613 kJ/mol
# GULP energy per Si atom -12391.532508 kJ/mol
# Density = 2.140273 g / cm^3
# Si number density = 21.451551 Si / 1000 Ang^3
#
#
#
# Elastic Constant Matrix: (Units=GPa)
#
#
# Indices 1 2 3 4 5 6 
#
# 1 177.6279 59.1048 64.3394 0.0000 0.0000 0.0000
# 2 59.1048 129.4093 59.0498 0.0000 0.0000 0.0000
# 3 64.3394 59.0498 113.3664 0.0000 0.0000 0.0000
# 4 0.0000 0.0000 0.0000 28.2801 0.0000 0.0000
# 5 0.0000 0.0000 0.0000 0.0000 25.1444 0.0000
# 6 0.0000 0.0000 0.0000 0.0000 0.0000 42.7741
#
#
#
# Elastic Compliance Matrix: (Units=1/GPa)
#
#
# Indices 1 2 3 4 5 6 
#
# 1 0.007436 -0.001929 -0.003216 0.000000 0.000000 0.000000
# 2 -0.001929 0.010637 -0.004446 0.000000 0.000000 0.000000
# 3 -0.003216 -0.004446 0.012962 0.000000 0.000000 0.000000
# 4 0.000000 0.000000 0.000000 0.035360 0.000000 0.000000
# 5 0.000000 0.000000 0.000000 0.000000 0.039770 0.000000
# 6 0.000000 0.000000 0.000000 0.000000 0.000000 0.023379
#
#
# Mechanical properties :
#
#
# Convention : Reuss Voigt Hill
#
# Bulk Modulus (GPa) = 84.35855 87.26573 85.81214
# Shear Modulus (GPa) = 32.74891 35.10036 33.92464
#
# Velocity S-wave (km/s) = 3.91147 4.04946 3.98106
# Velocity P-wave (km/s) = 7.73369 7.91409 7.82441
#
# Compressibility (1/GPa) = 0.01185416
#
# Stress axis : x y z
#
# Youngs Moduli (GPa) = 134.47406 94.01036 77.15098
#
# Poissons Ratio (x) = 0.18136 0.24808
# Poissons Ratio (y) = 0.25942 0.34300
# Poissons Ratio (z) = 0.43241 0.41795
#
# Static dielectric constant tensor:
#      x y z
#    x 4.054800 0.000000 0.000000 
#    y 0.000000 3.748950 0.000000 
#    z 0.000000 0.000000 4.015390 
# 
# 
# High freq. dielectric constant tensor:
#      x y z
#    x 1.860100 0.000000 0.000000 
#    y 0.000000 1.827320 0.000000 
#    z 0.000000 0.000000 1.846720 
# 
# From -- ./inp_files/9701.got.cif
#   From: 2010.03.12/outbox.cif.g09.slc.cpg/sg22_5_cif.got.tgz:9701.got - 2010.04.14 02:24:06.
