data_PCOD8163678
_publ_section_title
;
Structure prediction by ZEFSAII (Michael W. Deem and Ramdas Pophale) SiO2 
 PCOD8163678
Probable space group: I 2 2 2
;
_chemical_formula_sum "Si O2"
_cell_formula_units_Z 40
_cell_length_a 4.917852
_cell_length_b 21.440015
_cell_length_c 17.647632
_cell_angle_alpha 90.000000
_cell_angle_beta 90.000000
_cell_angle_gamma 90.000000
_cell_volume 1860.745505
_symmetry_space_group_name_H-M "I 2 2 2"
_symmetry_group_IT_number 23
_symmetry_cell_setting 'orthorhombic'
loop_
_space_group_symop_operation_xyz
x,y,z
-x,-y,z
x,-y,-z
-x,y,-z
1/2+x,1/2+y,1/2+z
1/2-x,1/2-y,1/2+z
1/2+x,1/2-y,1/2-z
1/2-x,1/2+y,1/2-z
loop_
_atom_site_type_symbol
_atom_site_label
_atom_site_fract_x
_atom_site_fract_y
_atom_site_fract_z
Si Si1 0.505575 0.352472 0.589382
Si Si2 0.050178 0.863802 0.589067
Si Si3 0.745169 0.039787 0.187386
Si Si4 0.501156 0.225668 0.089754
Si Si5 0.936178 0.569911 0.152995
O O1 0.500000 0.365329 0.500000
O O2 0.607070 0.415681 0.627568
O O3 0.216496 0.325901 0.618467
O O4 0.705359 0.297575 0.615000
O O5 0.356247 0.880765 0.615096
O O6 0.000000 0.864702 0.500000
O O7 0.966495 0.795582 0.622285
O O8 0.863525 0.916141 0.624492
O O9 0.583926 0.074607 0.255542
O O10 0.500000 0.000000 0.146920
O O11 0.000000 0.000000 0.220681
O O12 0.500000 0.229917 0.000000
O O13 0.000000 0.500000 0.126397
#
# Coordination Sequence:
#
# PCOD8163678 Si02
#       5
#     8   8   8   8   8
#     4  10  20  38  63  90 120 157 202 250 301 362
#     4  11  22  38  62  90 119 155 203 252 299 361
#     4  11  23  41  62  86 124 167 203 248 309 368
#     4   9  19  36  59  88 121 153 190 249 314 355
#     4  11  23  39  58  84 121 162 199 245 307 362
#
# _framework density 21.496759000000001
#
# number of rings (size 3 to 8) (size 9 to 14) (size 15 to 20)
#    0.000    1.600    0.000    6.000    0.000    6.000 
#    0.000    5.000    0.000    0.000    0.000    0.000 
#    0.000    0.000    0.000    0.000    0.000    0.000 
#
# Total GULP energy -247847.709376 kJ/mol
# GULP energy per Si atom -12392.385469 kJ/mol
# Density = 2.144783 g / cm^3
# Si number density = 21.496759 Si / 1000 Ang^3
#
#
#
# Elastic Constant Matrix: (Units=GPa)
#
#
# Indices 1 2 3 4 5 6 
#
# 1 114.4115 40.1155 29.8106 0.0000 0.0000 0.0000
# 2 40.1155 119.7059 49.1868 0.0000 0.0000 0.0000
# 3 29.8106 49.1868 65.4212 0.0001 0.0000 0.0000
# 4 0.0000 0.0000 0.0001 -14.9038 0.0000 0.0000
# 5 0.0000 0.0000 0.0000 0.0000 32.4570 0.0000
# 6 0.0000 0.0000 0.0000 0.0000 0.0000 35.8220
#
#
#
# Elastic Compliance Matrix: (Units=1/GPa)
#
#
# Indices 1 2 3 4 5 6 
#
# 1 0.010305 -0.002205 -0.003038 0.000000 0.000000 0.000000
# 2 -0.002205 0.012560 -0.008438 0.000000 0.000000 0.000000
# 3 -0.003038 -0.008438 0.023014 0.000000 0.000000 0.000000
# 4 0.000000 0.000000 0.000000 -0.067097 0.000000 0.000000
# 5 0.000000 0.000000 0.000000 0.000000 0.030810 0.000000
# 6 0.000000 0.000000 0.000000 0.000000 0.000000 0.027916
#
#
# Mechanical properties :
#
#
# Convention : Reuss Voigt Hill
#
# Bulk Modulus (GPa) = 54.00561 59.75161 56.87861
# Shear Modulus (GPa) = 70.37945 22.70341 46.54143
#
# Velocity S-wave (km/s) = 5.72806 3.25334 4.65805
# Velocity P-wave (km/s) = 8.30209 6.47829 7.44624
#
# Compressibility (1/GPa) = 0.01851659
#
# Stress axis : x y z
#
# Youngs Moduli (GPa) = 97.03950 79.61683 43.45132
#
# Poissons Ratio (x) = 0.17557 0.13199
# Poissons Ratio (y) = 0.21399 0.36666
# Poissons Ratio (z) = 0.29478 0.67185
#
# Static dielectric constant tensor:
#      x y z
#    x 4.360390 0.000000 0.000000 
#    y 0.000000 4.100420 0.000000 
#    z 0.000000 0.000000 3.755980 
# 
# 
# High freq. dielectric constant tensor:
#      x y z
#    x 1.868260 0.000000 0.000000 
#    y 0.000000 1.849890 0.000000 
#    z 0.000000 0.000000 1.809600 
# 
# From -- ./inp_files/23112.got.cif
#   From: 2010.03.12/outbox.cif.g09.slc.cpg/sg23_12_cif.got.tgz:23112.got - 2010.04.14 02:50:06.
