data_PCOD8163451
_publ_section_title
;
Structure prediction by ZEFSAII (Michael W. Deem and Ramdas Pophale) SiO2 
 PCOD8163451
Probable space group: I 2 2 2
;
_chemical_formula_sum "Si O2"
_cell_formula_units_Z 60
_cell_length_a 10.849228
_cell_length_b 15.320330
_cell_length_c 19.059276
_cell_angle_alpha 90.000000
_cell_angle_beta 90.000000
_cell_angle_gamma 90.000000
_cell_volume 3167.913797
_symmetry_space_group_name_H-M "I 2 2 2"
_symmetry_group_IT_number 23
_symmetry_cell_setting 'orthorhombic'
loop_
_space_group_symop_operation_xyz
x,y,z
-x,-y,z
x,-y,-z
-x,y,-z
1/2+x,1/2+y,1/2+z
1/2-x,1/2-y,1/2+z
1/2+x,1/2-y,1/2-z
1/2-x,1/2+y,1/2-z
loop_
_atom_site_type_symbol
_atom_site_label
_atom_site_fract_x
_atom_site_fract_y
_atom_site_fract_z
Si Si1 0.622773 0.811297 0.694019
Si Si2 0.859736 0.004532 0.198809
Si Si3 0.000000 0.752912 0.000000
Si Si4 0.374165 0.172852 0.378439
Si Si5 0.821261 0.842616 0.102516
Si Si6 0.723888 0.831447 0.843228
Si Si7 0.642566 0.999559 0.692363
Si Si8 0.357021 0.097288 0.990074
O O1 0.481184 0.796624 0.674720
O O2 0.702833 0.730582 0.663238
O O3 0.630957 0.824643 0.777730
O O4 0.668502 0.903402 0.659740
O O5 0.849405 0.937217 0.134478
O O6 0.748289 0.977859 0.250878
O O7 0.838856 0.104491 0.174301
O O8 0.000000 0.000000 0.230383
O O9 0.905500 0.689239 0.959948
O O10 0.060903 0.815468 0.942977
O O11 0.259751 0.232294 0.357902
O O12 0.343577 0.070808 0.369105
O O13 0.705860 0.842901 0.049541
O O14 0.660320 0.870092 0.911399
O O15 0.500000 0.000000 0.722965
O O16 0.500000 0.099683 0.000000
O O17 0.303486 0.000000 0.000000
#
# Coordination Sequence:
#
# PCOD8163451 Si02
#       8
#     8   8   4   8   8   8   8   8
#     4   9  21  36  58  86 115 149 205 245 297 354
#     4  11  22  34  57  90 120 156 195 240 305 363
#     4  10  20  34  60  82 120 146 204 244 298 364
#     4  10  19  36  58  85 113 154 199 254 297 347
#     4  11  21  38  58  86 119 159 186 249 301 357
#     4  11  21  38  56  85 123 156 196 247 299 362
#     4   9  20  39  59  84 121 154 202 253 301 346
#     4  11  24  40  58  88 122 166 204 236 300 372
#
# _framework density 18.939907999999999
#
# number of rings (size 3 to 8) (size 9 to 14) (size 15 to 20)
#    0.000    1.733    2.667    2.400    0.000    4.267 
#    2.400    9.667    0.000    0.000    0.000    0.933 
#    0.000    0.000    0.000    0.000    0.000    0.000 
#
# Total GULP energy -371750.423931 kJ/mol
# GULP energy per Si atom -12391.680798 kJ/mol
# Density = 1.889680 g / cm^3
# Si number density = 18.939908 Si / 1000 Ang^3
#
#
#
# Elastic Constant Matrix: (Units=GPa)
#
#
# Indices 1 2 3 4 5 6 
#
# 1 64.7073 13.2959 23.0210 0.0000 0.0000 0.0000
# 2 13.2959 96.9387 35.0527 0.0000 0.0000 0.0000
# 3 23.0210 35.0527 91.3834 0.0000 0.0000 0.0000
# 4 0.0000 0.0000 0.0000 33.6514 0.0000 0.0000
# 5 0.0000 0.0000 0.0000 0.0000 27.9251 0.0000
# 6 0.0000 0.0000 0.0000 0.0000 0.0000 17.7508
#
#
#
# Elastic Compliance Matrix: (Units=1/GPa)
#
#
# Indices 1 2 3 4 5 6 
#
# 1 0.017045 -0.000912 -0.003944 0.000000 0.000000 0.000000
# 2 -0.000912 0.012026 -0.004383 0.000000 0.000000 0.000000
# 3 -0.003944 -0.004383 0.013618 0.000000 0.000000 0.000000
# 4 0.000000 0.000000 0.000000 0.029716 0.000000 0.000000
# 5 0.000000 0.000000 0.000000 0.000000 0.035810 0.000000
# 6 0.000000 0.000000 0.000000 0.000000 0.000000 0.056336
#
#
# Mechanical properties :
#
#
# Convention : Reuss Voigt Hill
#
# Bulk Modulus (GPa) = 41.30462 43.97430 42.63946
# Shear Modulus (GPa) = 26.16451 27.97610 27.07031
#
# Velocity S-wave (km/s) = 3.72082 3.84747 3.78467
# Velocity P-wave (km/s) = 6.34940 6.55787 6.45448
#
# Compressibility (1/GPa) = 0.02421037
#
# Stress axis : x y z
#
# Youngs Moduli (GPa) = 58.66911 83.15470 73.43325
#
# Poissons Ratio (x) = 0.07581 0.28963
# Poissons Ratio (y) = 0.05348 0.32187
# Poissons Ratio (z) = 0.23140 0.36448
#
# Static dielectric constant tensor:
#      x y z
#    x 3.362520 0.000000 0.000000 
#    y 0.000000 3.829710 0.000000 
#    z 0.000000 0.000000 3.715110 
# 
# 
# High freq. dielectric constant tensor:
#      x y z
#    x 1.718850 0.000000 0.000000 
#    y 0.000000 1.750270 0.000000 
#    z 0.000000 0.000000 1.725490 
# 
# From -- ./inp_files/26811.got.cif
#   From: 2010.03.12/outbox.cif.g09.slc.cpg/sg23_14_cif.got.tgz:26811.got - 2010.04.14 02:50:06.
