data_PCOD8163917
_publ_section_title
;
Structure prediction by ZEFSAII (Michael W. Deem and Ramdas Pophale) SiO2 
 PCOD8163917
Probable space group: I 2 2 2
;
_chemical_formula_sum "Si O2"
_cell_formula_units_Z 56
_cell_length_a 13.493383
_cell_length_b 13.842853
_cell_length_c 14.135387
_cell_angle_alpha 90.000000
_cell_angle_beta 90.000000
_cell_angle_gamma 90.000000
_cell_volume 2640.305363
_symmetry_space_group_name_H-M "I 2 2 2"
_symmetry_group_IT_number 23
_symmetry_cell_setting 'orthorhombic'
loop_
_space_group_symop_operation_xyz
x,y,z
-x,-y,z
x,-y,-z
-x,y,-z
1/2+x,1/2+y,1/2+z
1/2-x,1/2-y,1/2+z
1/2+x,1/2-y,1/2-z
1/2-x,1/2+y,1/2-z
loop_
_atom_site_type_symbol
_atom_site_label
_atom_site_fract_x
_atom_site_fract_y
_atom_site_fract_z
Si Si1 0.544263 0.598029 0.272164
Si Si2 0.407453 0.044549 0.787838
Si Si3 0.659835 0.972477 0.399995
Si Si4 0.715837 0.569119 0.410666
Si Si5 0.275999 0.714021 0.073043
Si Si6 0.705843 0.653664 0.127959
Si Si7 0.619209 0.252975 0.260980
O O1 0.500000 0.500000 0.227020
O O2 0.609588 0.563041 0.360883
O O3 0.611533 0.654142 0.196356
O O4 0.457374 0.671056 0.307481
O O5 0.302988 0.033641 0.840622
O O6 0.435612 0.153987 0.764067
O O7 0.500000 0.000000 0.847911
O O8 0.409518 0.982605 0.690659
O O9 0.687606 0.860628 0.409649
O O10 0.607404 0.000000 0.500000
O O11 0.752819 0.044918 0.382109
O O12 0.715087 0.500000 0.500000
O O13 0.732980 0.679264 0.438398
O O14 0.348586 0.700944 0.161238
O O15 0.330893 0.690404 0.974230
O O16 0.788413 0.728009 0.170043
#
# Coordination Sequence:
#
# PCOD8163917 Si02
#       7
#     8   8   8   8   8   8   8
#     4  12  25  44  71  98 141 186 234 292 357 427
#     4  10  22  41  69  97 131 181 230 285 350 412
#     4   9  18  36  65  97 127 170 217 286 350 408
#     4  11  26  46  64 102 142 187 238 284 348 426
#     4  10  21  40  71  95 136 180 222 287 356 409
#     4  10  21  44  66  98 139 174 228 293 352 417
#     4  10  23  41  64 102 132 173 236 272 351 425
#
# _framework density 21.209668000000001
#
# number of rings (size 3 to 8) (size 9 to 14) (size 15 to 20)
#    0.000    1.714    4.286    0.857    4.000    2.571 
#    0.000    3.571    0.000    0.000    0.000    0.000 
#    0.000    0.000    0.000    0.000    0.000    0.000 
#
# Total GULP energy -347047.880208 kJ/mol
# GULP energy per Si atom -12394.567150 kJ/mol
# Density = 2.116139 g / cm^3
# Si number density = 21.209668 Si / 1000 Ang^3
#
#
#
# Elastic Constant Matrix: (Units=GPa)
#
#
# Indices 1 2 3 4 5 6 
#
# 1 109.1332 57.8712 40.7888 0.0000 0.0000 0.0000
# 2 57.8712 101.4713 50.6197 0.0000 0.0000 0.0000
# 3 40.7888 50.6197 121.9301 0.0000 0.0001 0.0000
# 4 0.0000 0.0000 0.0000 38.4616 0.0000 0.0000
# 5 0.0000 0.0000 0.0001 0.0000 -307.7515 0.0000
# 6 0.0000 0.0000 0.0000 0.0000 0.0000 35.6247
#
#
#
# Elastic Compliance Matrix: (Units=1/GPa)
#
#
# Indices 1 2 3 4 5 6 
#
# 1 0.013394 -0.006815 -0.001651 0.000000 0.000000 0.000000
# 2 -0.006815 0.015897 -0.004320 0.000000 0.000000 0.000000
# 3 -0.001651 -0.004320 0.010547 0.000000 0.000000 0.000000
# 4 0.000000 0.000000 0.000000 0.026000 0.000000 0.000000
# 5 0.000000 0.000000 0.000000 0.000000 -0.003249 0.000000
# 6 0.000000 0.000000 0.000000 0.000000 0.000000 0.028070
#
#
# Mechanical properties :
#
#
# Convention : Reuss Voigt Hill
#
# Bulk Modulus (GPa) = 70.09869 70.12156 70.11012
# Shear Modulus (GPa) = 41.32665 -34.51607 3.40529
#
# Velocity S-wave (km/s) = 4.41895 -4.03845 1.26847
# Velocity P-wave (km/s) = 7.69144 3.37453 5.93910
#
# Compressibility (1/GPa) = 0.01426560
#
# Stress axis : x y z
#
# Youngs Moduli (GPa) = 74.65855 62.90565 94.81189
#
# Poissons Ratio (x) = 0.42872 0.15657
# Poissons Ratio (y) = 0.50882 0.40956
# Poissons Ratio (z) = 0.12329 0.27174
#
# Static dielectric constant tensor:
#      x y z
#    x 3.607360 0.000000 0.000000 
#    y 0.000000 6.439740 0.000000 
#    z 0.000000 0.000000 4.012840 
# 
# 
# High freq. dielectric constant tensor:
#      x y z
#    x 1.814410 0.000000 0.000000 
#    y 0.000000 1.843820 0.000000 
#    z 0.000000 0.000000 1.831100 
# 
# From -- ./inp_files/20894.got.cif
#   From: 2010.03.12/outbox.cif.g09.slc.cpg/sg23_11_cif.got.tgz:20894.got - 2010.04.14 02:50:06.
