data_PCOD8163327
_publ_section_title
;
Structure prediction by ZEFSAII (Michael W. Deem and Ramdas Pophale) SiO2 
 PCOD8163327
Probable space group: I 2 2 2
;
_chemical_formula_sum "Si O2"
_cell_formula_units_Z 52
_cell_length_a 21.435539
_cell_length_b 8.654329
_cell_length_c 13.534583
_cell_angle_alpha 90.000000
_cell_angle_beta 90.000000
_cell_angle_gamma 90.000000
_cell_volume 2510.803291
_symmetry_space_group_name_H-M "I 2 2 2"
_symmetry_group_IT_number 23
_symmetry_cell_setting 'orthorhombic'
loop_
_space_group_symop_operation_xyz
x,y,z
-x,-y,z
x,-y,-z
-x,y,-z
1/2+x,1/2+y,1/2+z
1/2-x,1/2-y,1/2+z
1/2+x,1/2-y,1/2-z
1/2-x,1/2+y,1/2-z
loop_
_atom_site_type_symbol
_atom_site_label
_atom_site_fract_x
_atom_site_fract_y
_atom_site_fract_z
Si Si1 0.095211 0.722080 0.117264
Si Si2 0.429578 0.815663 0.006787
Si Si3 0.349100 0.194343 0.178169
Si Si4 0.000000 0.500000 0.823235
Si Si5 0.678066 0.000000 0.500000
Si Si6 0.789373 0.763772 0.135319
Si Si7 0.648281 0.500000 0.500000
Si Si8 0.383401 0.137113 0.789973
O O1 0.114075 0.766877 0.228837
O O2 0.102381 0.870401 0.046746
O O3 0.025746 0.646299 0.112879
O O4 0.137671 0.578703 0.085208
O O5 0.385807 0.747700 0.919604
O O6 0.500000 0.748649 0.000000
O O7 0.400077 0.763825 0.112073
O O8 0.431890 0.000000 0.000000
O O9 0.277372 0.244030 0.186670
O O10 0.342817 0.009626 0.178538
O O11 0.946921 0.429491 0.754782
O O12 0.718013 0.130380 0.446575
O O13 0.844608 0.741394 0.214262
O O14 0.806041 0.924732 0.081194
#
# Coordination Sequence:
#
# PCOD8163327 Si02
#       8
#     8   8   8   4   4   8   4   8
#     4  10  21  40  63  91 123 165 211 266 323 382
#     4   9  17  33  60  93 120 151 212 271 322 380
#     4  10  21  34  62  91 124 169 211 264 326 383
#     4  10  18  39  69  88 122 170 218 268 312 396
#     4  10  20  41  58  86 119 170 220 246 314 394
#     4  11  23  39  60  91 135 171 216 268 323 403
#     4  10  26  40  59  94 135 164 210 278 318 378
#     4  10  20  37  62  94 121 169 212 268 324 390
#
# _framework density 20.710504
#
# number of rings (size 3 to 8) (size 9 to 14) (size 15 to 20)
#    0.000    2.000    3.077    2.769    5.385    1.538 
#    0.000    1.538    0.000    0.000    0.000    1.615 
#    0.000    0.000    0.000    0.000    0.000    0.000 
#
# Total GULP energy -322274.275554 kJ/mol
# GULP energy per Si atom -12395.164444 kJ/mol
# Density = 2.066337 g / cm^3
# Si number density = 20.710504 Si / 1000 Ang^3
#
#
#
# Elastic Constant Matrix: (Units=GPa)
#
#
# Indices 1 2 3 4 5 6 
#
# 1 132.5365 31.3873 52.2113 0.0000 0.0000 0.0000
# 2 31.3873 64.8824 22.1671 0.0000 0.0000 0.0000
# 3 52.2113 22.1671 107.5068 0.0000 0.0000 0.0000
# 4 0.0000 0.0000 0.0000 25.0573 0.0000 0.0000
# 5 0.0000 0.0000 0.0000 0.0000 21.7557 0.0000
# 6 0.0000 0.0000 0.0000 0.0000 0.0000 23.6301
#
#
#
# Elastic Compliance Matrix: (Units=1/GPa)
#
#
# Indices 1 2 3 4 5 6 
#
# 1 0.009987 -0.003415 -0.004146 0.000000 0.000000 0.000000
# 2 -0.003415 0.017748 -0.002001 0.000000 0.000000 0.000000
# 3 -0.004146 -0.002001 0.011728 0.000000 0.000000 0.000000
# 4 0.000000 0.000000 0.000000 0.039909 0.000000 0.000000
# 5 0.000000 0.000000 0.000000 0.000000 0.045965 0.000000
# 6 0.000000 0.000000 0.000000 0.000000 0.000000 0.042319
#
#
# Mechanical properties :
#
#
# Convention : Reuss Voigt Hill
#
# Bulk Modulus (GPa) = 49.16663 57.38414 53.27539
# Shear Modulus (GPa) = 25.83187 27.36597 26.59892
#
# Velocity S-wave (km/s) = 3.53552 3.63899 3.58763
# Velocity P-wave (km/s) = 6.36066 6.73975 6.55295
#
# Compressibility (1/GPa) = 0.02033900
#
# Stress axis : x y z
#
# Youngs Moduli (GPa) = 100.12881 56.34406 85.26618
#
# Poissons Ratio (x) = 0.19240 0.35353
# Poissons Ratio (y) = 0.34192 0.17063
# Poissons Ratio (z) = 0.41516 0.11275
#
# Static dielectric constant tensor:
#      x y z
#    x 3.701360 0.000000 0.000000 
#    y 0.000000 3.514110 0.000000 
#    z 0.000000 0.000000 4.027300 
# 
# 
# High freq. dielectric constant tensor:
#      x y z
#    x 1.806070 0.000000 0.000000 
#    y 0.000000 1.771810 0.000000 
#    z 0.000000 0.000000 1.828170 
# 
# From -- ./inp_files/22376.got.cif
#   From: 2010.03.12/outbox.cif.g09.slc.cpg/sg23_12_cif.got.tgz:22376.got - 2010.04.14 02:50:06.
