data_PCOD8163119
_publ_section_title
;
Structure prediction by ZEFSAII (Michael W. Deem and Ramdas Pophale) SiO2 
 PCOD8163119
Probable space group: F 2 2 2
;
_chemical_formula_sum "Si O2"
_cell_formula_units_Z 64
_cell_length_a 9.928160
_cell_length_b 16.037870
_cell_length_c 16.631756
_cell_angle_alpha 90.000000
_cell_angle_beta 90.000000
_cell_angle_gamma 90.000000
_cell_volume 2648.216952
_symmetry_space_group_name_H-M "F 2 2 2"
_symmetry_group_IT_number 22
_symmetry_cell_setting 'orthorhombic'
loop_
_space_group_symop_operation_xyz
x,y,z
-x,-y,z
x,-y,-z
-x,y,-z
x,1/2+y,1/2+z
-x,1/2-y,1/2+z
x,1/2-y,1/2-z
-x,1/2+y,1/2-z
1/2+x,y,1/2+z
1/2-x,-y,1/2+z
1/2+x,-y,1/2-z
1/2-x,y,1/2-z
1/2+x,1/2+y,z
1/2-x,1/2-y,z
1/2+x,1/2-y,-z
1/2-x,1/2+y,-z
loop_
_atom_site_type_symbol
_atom_site_label
_atom_site_fract_x
_atom_site_fract_y
_atom_site_fract_z
Si Si1 0.803121 0.416961 0.643107
Si Si2 0.285130 0.104699 0.838537
Si Si3 0.943775 0.342505 0.780806
Si Si4 0.348629 0.178725 0.507550
O O1 0.738285 0.506988 0.652420
O O2 0.933190 0.403947 0.701802
O O3 0.695513 0.347060 0.670346
O O4 0.841329 0.402110 0.550428
O O5 0.250000 0.137695 0.750000
O O6 0.443577 0.125927 0.844701
O O7 0.194445 0.154056 0.902484
O O8 0.974081 0.250000 0.750000
O O9 0.500000 0.213938 0.500000
O O10 0.250000 0.250000 0.475189
#
# Coordination Sequence:
#
# PCOD8163119 Si02
#       4
#    16  16  16  16
#     4  11  24  48  76 108 153 207 257 314 391 466
#     4  12  27  44  76 114 152 200 258 320 381 462
#     4  11  24  44  76 111 155 205 257 313 382 463
#     4  12  30  50  75 110 155 208 259 321 394 471
#
# _framework density 24.167206
#
# number of rings (size 3 to 8) (size 9 to 14) (size 15 to 20)
#    0.000    0.500    2.500    6.000   10.500    4.000 
#    0.000    2.500    0.000    0.000    0.000    0.000 
#    0.000    0.000    0.000    0.000    0.000    0.000 
#
# Total GULP energy -198395.551834 kJ/mol
# GULP energy per Si atom -12399.721990 kJ/mol
# Density = 2.411220 g / cm^3
# Si number density = 24.167206 Si / 1000 Ang^3
#
#
#
# Elastic Constant Matrix: (Units=GPa)
#
#
# Indices 1 2 3 4 5 6 
#
# 1 150.0105 50.3597 48.4569 0.0000 0.0000 0.0000
# 2 50.3597 118.8039 14.5324 0.0000 0.0000 0.0000
# 3 48.4569 14.5324 143.6497 0.0000 0.0000 0.0000
# 4 0.0000 0.0000 0.0000 31.3498 0.0000 0.0000
# 5 0.0000 0.0000 0.0000 0.0000 44.8123 0.0000
# 6 0.0000 0.0000 0.0000 0.0000 0.0000 34.5099
#
#
#
# Elastic Compliance Matrix: (Units=1/GPa)
#
#
# Indices 1 2 3 4 5 6 
#
# 1 0.008617 -0.003338 -0.002569 0.000000 0.000000 0.000000
# 2 -0.003338 0.009816 0.000133 0.000000 0.000000 0.000000
# 3 -0.002569 0.000133 0.007814 0.000000 0.000000 0.000000
# 4 0.000000 0.000000 0.000000 0.031898 0.000000 0.000000
# 5 0.000000 0.000000 0.000000 0.000000 0.022315 0.000000
# 6 0.000000 0.000000 0.000000 0.000000 0.000000 0.028977
#
#
# Mechanical properties :
#
#
# Convention : Reuss Voigt Hill
#
# Bulk Modulus (GPa) = 68.03238 71.01802 69.52520
# Shear Modulus (GPa) = 39.71851 42.07539 40.89695
#
# Velocity S-wave (km/s) = 4.05839 4.17707 4.11816
# Velocity P-wave (km/s) = 7.08326 7.26043 7.17239
#
# Compressibility (1/GPa) = 0.01469888
#
# Stress axis : x y z
#
# Youngs Moduli (GPa) = 116.05348 101.87426 127.96738
#
# Poissons Ratio (x) = 0.34009 0.32874
# Poissons Ratio (y) = 0.38742 -0.01703
# Poissons Ratio (z) = 0.29813 -0.01355
#
# Static dielectric constant tensor:
#      x y z
#    x 4.642250 0.000000 0.000000 
#    y 0.000000 4.177830 0.000000 
#    z 0.000000 0.000000 4.683280 
# 
# 
# High freq. dielectric constant tensor:
#      x y z
#    x 1.967600 0.000000 0.000000 
#    y 0.000000 1.955100 0.000000 
#    z 0.000000 0.000000 1.963010 
# 
# From -- ./inp_files/35697.got.cif
#   From: 2010.03.12/outbox.cif.g09.slc.cpg/sg22_18_cif.got.tgz:35697.got - 2010.04.14 02:24:06.
