data_PCOD8163050
_publ_section_title
;
Structure prediction by ZEFSAII (Michael W. Deem and Ramdas Pophale) SiO2 
 PCOD8163050
Probable space group: F 2 2 2
;
_chemical_formula_sum "Si O2"
_cell_formula_units_Z 64
_cell_length_a 19.665820
_cell_length_b 24.883957
_cell_length_c 5.118396
_cell_angle_alpha 90.000000
_cell_angle_beta 90.000000
_cell_angle_gamma 90.000000
_cell_volume 2504.755768
_symmetry_space_group_name_H-M "F 2 2 2"
_symmetry_group_IT_number 22
_symmetry_cell_setting 'orthorhombic'
loop_
_space_group_symop_operation_xyz
x,y,z
-x,-y,z
x,-y,-z
-x,y,-z
x,1/2+y,1/2+z
-x,1/2-y,1/2+z
x,1/2-y,1/2-z
-x,1/2+y,1/2-z
1/2+x,y,1/2+z
1/2-x,-y,1/2+z
1/2+x,-y,1/2-z
1/2-x,y,1/2-z
1/2+x,1/2+y,z
1/2-x,1/2-y,z
1/2+x,1/2-y,-z
1/2-x,1/2+y,-z
loop_
_atom_site_type_symbol
_atom_site_label
_atom_site_fract_x
_atom_site_fract_y
_atom_site_fract_z
Si Si1 0.155510 0.941828 0.948975
Si Si2 0.289893 0.830507 0.501795
Si Si3 0.574448 0.085584 0.061163
Si Si4 0.063995 0.190297 0.835320
O O1 0.211460 0.895751 0.998446
O O2 0.126791 0.934495 0.656845
O O3 0.094202 0.937170 0.155628
O O4 0.190180 0.000000 0.000000
O O5 0.250000 0.807153 0.750000
O O6 0.367405 0.809542 0.508813
O O7 0.250000 0.808760 0.250000
O O8 0.575151 0.151117 0.084886
O O9 0.500000 0.063213 0.000000
O O10 0.045511 0.250000 0.750000
O O11 0.000000 0.167353 0.000000
#
# Coordination Sequence:
#
# PCOD8163050 Si02
#       4
#    16  16  16  16
#     4  11  24  41  65  97 135 183 237 292 354 427
#     4  11  25  47  71 101 142 184 233 294 359 428
#     4  11  22  40  64  98 141 182 231 294 360 428
#     4  11  25  46  75 109 145 193 248 304 366 439
#
# _framework density 25.551390999999999
#
# number of rings (size 3 to 8) (size 9 to 14) (size 15 to 20)
#    0.000    1.000    0.000    8.250    0.000    6.500 
#    0.000    3.750    0.000    0.000    0.000    0.000 
#    0.000    0.000    0.000    0.000    0.000    0.000 
#
# Total GULP energy -198442.315241 kJ/mol
# GULP energy per Si atom -12402.644703 kJ/mol
# Density = 2.549323 g / cm^3
# Si number density = 25.551391 Si / 1000 Ang^3
#
#
#
# Elastic Constant Matrix: (Units=GPa)
#
#
# Indices 1 2 3 4 5 6 
#
# 1 143.0334 -18.4139 56.8816 -0.1909 0.0935 -0.0451
# 2 -18.4139 102.5850 7.3226 -0.6480 0.1056 -0.2358
# 3 56.8816 7.3226 161.4666 -0.2086 0.1163 0.0065
# 4 -0.1909 -0.6480 -0.2086 -4.1976 0.0680 -0.8054
# 5 0.0935 0.1056 0.1163 0.0680 39.7423 0.0508
# 6 -0.0451 -0.2358 0.0065 -0.8054 0.0508 -1.5732
#
#
#
# Elastic Compliance Matrix: (Units=1/GPa)
#
#
# Indices 1 2 3 4 5 6 
#
# 1 0.008425 0.001726 -0.003047 -0.000443 -0.000014 -0.000287
# 2 0.001726 0.010123 -0.001069 -0.001427 -0.000024 -0.000841
# 3 -0.003047 -0.001069 0.007315 -0.000126 -0.000012 0.000342
# 4 -0.000443 -0.001427 -0.000126 -0.263955 0.000284 0.135376
# 5 -0.000014 -0.000024 -0.000012 0.000284 0.025161 0.000671
# 6 -0.000287 -0.000841 0.000342 0.135376 0.000671 -0.704808
#
#
# Mechanical properties :
#
#
# Convention : Reuss Voigt Hill
#
# Bulk Modulus (GPa) = 47.42991 55.40731 51.41861
# Shear Modulus (GPa) = -5.51918 30.88060 12.68071
#
# Velocity S-wave (km/s) = -1.47130 3.48022 2.23016
# Velocity P-wave (km/s) = 3.96441 6.15475 5.17675
#
# Compressibility (1/GPa) = 0.02108374
#
# Stress axis : x y z
#
# Youngs Moduli (GPa) = 118.70115 98.78253 136.70885
#
# Poissons Ratio (x) = -0.17052 0.41650
# Poissons Ratio (y) = -0.20490 0.14614
# Poissons Ratio (z) = 0.36164 0.10560
#
# Static dielectric constant tensor:
#      x y z
#    x 4.454900 0.000400 0.001710 
#    y 0.000400 4.726650 0.000660 
#    z 0.001710 0.000660 4.825040 
# 
# 
# High freq. dielectric constant tensor:
#      x y z
#    x 2.016730 0.000010 0.000010 
#    y 0.000010 2.018020 -0.000010 
#    z 0.000010 -0.000010 2.025530 
# 
# From -- ./inp_files/3689.got.cif
#   From: 2010.03.12/outbox.cif.g09.slc.cpg/sg22_2_cif.got.tgz:3689.got - 2010.04.14 02:24:06.
