data_PCOD8163031
_publ_section_title
;
Structure prediction by ZEFSAII (Michael W. Deem and Ramdas Pophale) SiO2 
 PCOD8163031
Probable space group: F 2 2 2
;
_chemical_formula_sum "Si O2"
_cell_formula_units_Z 112
_cell_length_a 15.050357
_cell_length_b 30.075072
_cell_length_c 11.675641
_cell_angle_alpha 90.000000
_cell_angle_beta 90.000000
_cell_angle_gamma 90.000000
_cell_volume 5284.868802
_symmetry_space_group_name_H-M "F 2 2 2"
_symmetry_group_IT_number 22
_symmetry_cell_setting 'orthorhombic'
loop_
_space_group_symop_operation_xyz
x,y,z
-x,-y,z
x,-y,-z
-x,y,-z
x,1/2+y,1/2+z
-x,1/2-y,1/2+z
x,1/2-y,1/2-z
-x,1/2+y,1/2-z
1/2+x,y,1/2+z
1/2-x,-y,1/2+z
1/2+x,-y,1/2-z
1/2-x,y,1/2-z
1/2+x,1/2+y,z
1/2-x,1/2-y,z
1/2+x,1/2-y,-z
1/2-x,1/2+y,-z
loop_
_atom_site_type_symbol
_atom_site_label
_atom_site_fract_x
_atom_site_fract_y
_atom_site_fract_z
Si Si1 0.369434 0.359064 0.549192
Si Si2 0.336333 0.577805 0.815171
Si Si3 0.321201 0.397762 0.925407
Si Si4 0.952797 0.323855 0.387396
Si Si5 0.537490 0.865976 0.180277
Si Si6 0.655761 0.259428 0.381622
Si Si7 0.401907 0.010832 0.631766
O O1 0.284654 0.389202 0.581617
O O2 0.451416 0.383307 0.611711
O O3 0.386795 0.352473 0.412796
O O4 0.370434 0.309865 0.600309
O O5 0.250000 0.596435 0.750000
O O6 0.425948 0.592737 0.751978
O O7 0.333488 0.524256 0.812483
O O8 0.343739 0.597625 0.941619
O O9 0.366820 0.355005 0.867551
O O10 0.358693 0.440076 0.853148
O O11 0.922309 0.273953 0.421059
O O12 0.000000 0.343315 0.500000
O O13 0.014248 0.326408 0.272454
O O14 0.669982 0.250000 0.250000
O O15 0.750000 0.250000 0.445891
O O16 0.500000 0.000000 0.684714
O O17 0.408990 0.000000 0.500000
#
# Coordination Sequence:
#
# PCOD8163031 Si02
#       7
#    16  16  16  16  16  16  16
#     4  11  24  44  66  97 137 181 224 281 345 423
#     4  11  21  42  65  95 132 175 223 280 346 404
#     4  11  22  41  70  96 131 176 230 277 346 413
#     4  12  24  38  68  98 128 180 232 280 337 411
#     4  11  24  41  66  96 134 177 229 278 347 408
#     4  11  23  41  61  93 135 173 226 285 335 393
#     4   9  20  38  63  93 129 166 219 288 333 396
#
# _framework density 21.192578999999999
#
# number of rings (size 3 to 8) (size 9 to 14) (size 15 to 20)
#    0.000    1.143    5.714    0.857    4.000    0.571 
#    5.143    0.000    0.000    0.857    0.000    0.000 
#    0.000    0.000    0.000    0.000    0.000    0.000 
#
# Total GULP energy -346941.139911 kJ/mol
# GULP energy per Si atom -12390.754997 kJ/mol
# Density = 2.114434 g / cm^3
# Si number density = 21.192579 Si / 1000 Ang^3
#
#
#
# Elastic Constant Matrix: (Units=GPa)
#
#
# Indices 1 2 3 4 5 6 
#
# 1 124.3048 53.7298 29.2632 0.0000 0.0000 0.0000
# 2 53.7298 124.9458 25.7747 0.0000 0.0000 0.0000
# 3 29.2632 25.7747 73.2487 0.0000 0.0000 0.0000
# 4 0.0000 0.0000 0.0000 19.6355 0.0000 0.0000
# 5 0.0000 0.0000 0.0000 0.0000 30.3956 0.0000
# 6 0.0000 0.0000 0.0000 0.0000 0.0000 36.3017
#
#
#
# Elastic Compliance Matrix: (Units=1/GPa)
#
#
# Indices 1 2 3 4 5 6 
#
# 1 0.010380 -0.003891 -0.002778 0.000000 0.000000 0.000000
# 2 -0.003891 0.010088 -0.001995 0.000000 0.000000 0.000000
# 3 -0.002778 -0.001995 0.015464 0.000000 0.000000 0.000000
# 4 0.000000 0.000000 0.000000 0.050928 0.000000 0.000000
# 5 0.000000 0.000000 0.000000 0.000000 0.032899 0.000000
# 6 0.000000 0.000000 0.000000 0.000000 0.000000 0.027547
#
#
# Mechanical properties :
#
#
# Convention : Reuss Voigt Hill
#
# Bulk Modulus (GPa) = 53.75074 60.00383 56.87729
# Shear Modulus (GPa) = 29.26763 31.51536 30.39149
#
# Velocity S-wave (km/s) = 3.72026 3.86047 3.79101
# Velocity P-wave (km/s) = 6.62358 6.94594 6.78667
#
# Compressibility (1/GPa) = 0.01860439
#
# Stress axis : x y z
#
# Youngs Moduli (GPa) = 96.33466 99.12521 64.66599
#
# Poissons Ratio (x) = 0.38568 0.17964
# Poissons Ratio (y) = 0.37482 0.12904
# Poissons Ratio (z) = 0.26761 0.19780
#
# Static dielectric constant tensor:
#      x y z
#    x 4.147760 0.000000 0.000000 
#    y 0.000000 3.783140 0.000000 
#    z 0.000000 0.000000 3.786290 
# 
# 
# High freq. dielectric constant tensor:
#      x y z
#    x 1.840930 0.000000 0.000000 
#    y 0.000000 1.814930 0.000000 
#    z 0.000000 0.000000 1.823240 
# 
# From -- ./inp_files/20277.got.cif
#   From: 2010.03.12/outbox.cif.g09.slc.cpg/sg22_11_cif.got.tgz:20277.got - 2010.04.14 02:24:06.
