data_PCOD8163592
_publ_section_title
;
Structure prediction by ZEFSAII (Michael W. Deem and Ramdas Pophale) SiO2 
 PCOD8163592
Probable space group: I 2 2 2
;
_chemical_formula_sum "Si O2"
_cell_formula_units_Z 48
_cell_length_a 11.733568
_cell_length_b 9.181204
_cell_length_c 22.372145
_cell_angle_alpha 90.000000
_cell_angle_beta 90.000000
_cell_angle_gamma 90.000000
_cell_volume 2410.112733
_symmetry_space_group_name_H-M "I 2 2 2"
_symmetry_group_IT_number 23
_symmetry_cell_setting 'orthorhombic'
loop_
_space_group_symop_operation_xyz
x,y,z
-x,-y,z
x,-y,-z
-x,y,-z
1/2+x,1/2+y,1/2+z
1/2-x,1/2-y,1/2+z
1/2+x,1/2-y,1/2-z
1/2-x,1/2+y,1/2-z
loop_
_atom_site_type_symbol
_atom_site_label
_atom_site_fract_x
_atom_site_fract_y
_atom_site_fract_z
Si Si1 0.520703 0.838953 0.930997
Si Si2 0.876729 0.853114 0.289810
Si Si3 0.008474 0.827017 0.067978
Si Si4 0.395609 0.665868 0.840123
Si Si5 0.745003 0.329597 0.624890
Si Si6 0.182863 0.146699 0.158116
O O1 0.431636 0.718518 0.906424
O O2 0.650973 0.790756 0.919055
O O3 0.500000 0.000000 0.902671
O O4 0.500000 0.845763 0.000000
O O5 0.773206 0.747657 0.311220
O O6 0.874782 0.898521 0.220678
O O7 0.000116 0.775841 0.298366
O O8 0.877355 0.993503 0.333417
O O9 0.905130 0.776957 0.111452
O O10 0.126955 0.770943 0.096674
O O11 0.000000 0.000000 0.066514
O O12 0.000000 0.764945 0.000000
O O13 0.276961 0.737723 0.822808
O O14 0.738422 0.503307 0.630431
#
# Coordination Sequence:
#
# PCOD8163592 Si02
#       6
#     8   8   8   8   8   8
#     4  10  20  35  62  89 115 149 196 252 290 340
#     4  10  23  37  59  85 121 156 186 247 297 364
#     4   9  21  35  59  89 113 149 196 248 298 346
#     4  10  22  39  56  88 118 148 199 236 300 354
#     4  10  21  38  58  89 117 152 197 241 298 359
#     4  11  21  36  65  83 116 154 196 246 293 355
#
# _framework density 19.916080999999998
#
# number of rings (size 3 to 8) (size 9 to 14) (size 15 to 20)
#    0.000    2.000    1.667    1.000   11.667    1.333 
#    0.000    7.500    0.000    1.000    0.000    0.000 
#    0.000    0.000    0.000    0.000    0.000    0.000 
#
# Total GULP energy -297441.301998 kJ/mol
# GULP energy per Si atom -12393.387583 kJ/mol
# Density = 1.987075 g / cm^3
# Si number density = 19.916081 Si / 1000 Ang^3
#
#
#
# Elastic Constant Matrix: (Units=GPa)
#
#
# Indices 1 2 3 4 5 6 
#
# 1 130.4659 33.8945 47.0400 0.0000 0.0000 0.0000
# 2 33.8945 50.7812 28.3584 0.0000 0.0000 0.0000
# 3 47.0400 28.3584 113.1645 0.0000 0.0000 0.0000
# 4 0.0000 0.0000 0.0000 19.1504 0.0000 0.0000
# 5 0.0000 0.0000 0.0000 0.0000 22.9617 0.0000
# 6 0.0000 0.0000 0.0000 0.0000 0.0000 20.9336
#
#
#
# Elastic Compliance Matrix: (Units=1/GPa)
#
#
# Indices 1 2 3 4 5 6 
#
# 1 0.010028 -0.005076 -0.002896 0.000000 0.000000 0.000000
# 2 -0.005076 0.025466 -0.004272 0.000000 0.000000 0.000000
# 3 -0.002896 -0.004272 0.011111 0.000000 0.000000 0.000000
# 4 0.000000 0.000000 0.000000 0.052218 0.000000 0.000000
# 5 0.000000 0.000000 0.000000 0.000000 0.043551 0.000000
# 6 0.000000 0.000000 0.000000 0.000000 0.000000 0.047770
#
#
# Mechanical properties :
#
#
# Convention : Reuss Voigt Hill
#
# Bulk Modulus (GPa) = 45.21405 56.99970 51.10688
# Shear Modulus (GPa) = 22.52216 24.95038 23.73627
#
# Velocity S-wave (km/s) = 3.36646 3.54330 3.45601
# Velocity P-wave (km/s) = 6.15324 6.73959 6.45307
#
# Compressibility (1/GPa) = 0.02211702
#
# Stress axis : x y z
#
# Youngs Moduli (GPa) = 99.72286 39.26856 89.99992
#
# Poissons Ratio (x) = 0.19931 0.26068
# Poissons Ratio (y) = 0.50616 0.38445
# Poissons Ratio (z) = 0.28884 0.16774
#
# Static dielectric constant tensor:
#      x y z
#    x 3.876000 0.000000 0.000000 
#    y 0.000000 3.385330 0.000000 
#    z 0.000000 0.000000 3.640040 
# 
# 
# High freq. dielectric constant tensor:
#      x y z
#    x 1.792500 0.000000 0.000000 
#    y 0.000000 1.741710 0.000000 
#    z 0.000000 0.000000 1.772800 
# 
# From -- ./inp_files/28287.got.cif
#   From: 2010.03.12/outbox.cif.g09.slc.cpg/sg23_15_cif.got.tgz:28287.got - 2010.04.14 02:50:06.
