data_PCOD8163865
_publ_section_title
;
Structure prediction by ZEFSAII (Michael W. Deem and Ramdas Pophale) SiO2 
 PCOD8163865
Probable space group: I 2 2 2
;
_chemical_formula_sum "Si O2"
_cell_formula_units_Z 24
_cell_length_a 11.308289
_cell_length_b 8.659037
_cell_length_c 12.200821
_cell_angle_alpha 90.000000
_cell_angle_beta 90.000000
_cell_angle_gamma 90.000000
_cell_volume 1194.690884
_symmetry_space_group_name_H-M "I 2 2 2"
_symmetry_group_IT_number 23
_symmetry_cell_setting 'orthorhombic'
loop_
_space_group_symop_operation_xyz
x,y,z
-x,-y,z
x,-y,-z
-x,y,-z
1/2+x,1/2+y,1/2+z
1/2-x,1/2-y,1/2+z
1/2+x,1/2-y,1/2-z
1/2-x,1/2+y,1/2-z
loop_
_atom_site_type_symbol
_atom_site_label
_atom_site_fract_x
_atom_site_fract_y
_atom_site_fract_z
Si Si1 0.528204 0.680235 0.338400
Si Si2 0.067861 0.836311 0.403461
Si Si3 0.662737 0.168581 0.473790
O O1 0.500000 0.500000 0.344287
O O2 0.562979 0.739166 0.216711
O O3 0.408686 0.768825 0.369695
O O4 0.636090 0.720973 0.421254
O O5 0.201732 0.846253 0.442186
O O6 0.000000 0.740000 0.500000
O O7 0.000000 0.000000 0.395376
O O8 0.612788 0.000000 0.500000
#
# Coordination Sequence:
#
# PCOD8163865 Si02
#       3
#     8   8   8
#     4  10  23  39  63  92 123 161 199 246 311 357
#     4  10  21  39  61  90 119 159 204 247 301 352
#     4  11  21  39  66  88 122 158 206 247 299 365
#
# _framework density 20.088878000000001
#
# number of rings (size 3 to 8) (size 9 to 14) (size 15 to 20)
#    0.000    1.667    3.333    4.000    4.667    0.000 
#    0.000    0.000    7.333    0.000    0.000    0.000 
#    0.000    0.000    0.000    0.000    0.000    0.000 
#
# Total GULP energy -148662.279428 kJ/mol
# GULP energy per Si atom -12388.523286 kJ/mol
# Density = 2.004316 g / cm^3
# Si number density = 20.088878 Si / 1000 Ang^3
#
#
#
# Elastic Constant Matrix: (Units=GPa)
#
#
# Indices 1 2 3 4 5 6 
#
# 1 180.7122 37.2311 75.9559 0.0000 0.0000 0.0000
# 2 37.2311 84.4408 40.0946 0.0000 0.0000 0.0000
# 3 75.9559 40.0946 204.8380 0.0000 0.0000 0.0000
# 4 0.0000 0.0000 0.0000 6.9507 0.0000 0.0000
# 5 0.0000 0.0000 0.0000 0.0000 12.0006 0.0000
# 6 0.0000 0.0000 0.0000 0.0000 0.0000 26.7598
#
#
#
# Elastic Compliance Matrix: (Units=1/GPa)
#
#
# Indices 1 2 3 4 5 6 
#
# 1 0.006849 -0.002000 -0.002148 0.000000 0.000000 0.000000
# 2 -0.002000 0.013640 -0.001928 0.000000 0.000000 0.000000
# 3 -0.002148 -0.001928 0.006056 0.000000 0.000000 0.000000
# 4 0.000000 0.000000 0.000000 0.143871 0.000000 0.000000
# 5 0.000000 0.000000 0.000000 0.000000 0.083329 0.000000
# 6 0.000000 0.000000 0.000000 0.000000 0.000000 0.037369
#
#
# Mechanical properties :
#
#
# Convention : Reuss Voigt Hill
#
# Bulk Modulus (GPa) = 69.48237 86.28381 77.88309
# Shear Modulus (GPa) = 16.23044 30.25618 23.24331
#
# Velocity S-wave (km/s) = 2.84550 3.88508 3.40520
# Velocity P-wave (km/s) = 6.74228 7.94792 7.36980
#
# Compressibility (1/GPa) = 0.01439214
#
# Stress axis : x y z
#
# Youngs Moduli (GPa) = 146.01722 73.31421 165.12845
#
# Poissons Ratio (x) = 0.14660 0.35471
# Poissons Ratio (y) = 0.29198 0.31843
# Poissons Ratio (z) = 0.31366 0.14138
#
# Static dielectric constant tensor:
#      x y z
#    x 3.577780 0.000000 0.000000 
#    y 0.000000 3.546200 0.000000 
#    z 0.000000 0.000000 4.701310 
# 
# 
# High freq. dielectric constant tensor:
#      x y z
#    x 1.792920 0.000000 0.000000 
#    y 0.000000 1.752940 0.000000 
#    z 0.000000 0.000000 1.808060 
# 
# From -- ./inp_files/14131.got.cif
#   From: 2010.03.12/outbox.cif.g09.slc.cpg/sg23_8_cif.got.tgz:14131.got - 2010.04.14 02:50:06.
