data_PCOD8163807
_publ_section_title
;
Structure prediction by ZEFSAII (Michael W. Deem and Ramdas Pophale) SiO2 
 PCOD8163807
Probable space group: I 2 2 2
;
_chemical_formula_sum "Si O2"
_cell_formula_units_Z 48
_cell_length_a 9.454491
_cell_length_b 11.168276
_cell_length_c 23.705051
_cell_angle_alpha 90.000000
_cell_angle_beta 90.000000
_cell_angle_gamma 90.000000
_cell_volume 2503.024986
_symmetry_space_group_name_H-M "I 2 2 2"
_symmetry_group_IT_number 23
_symmetry_cell_setting 'orthorhombic'
loop_
_space_group_symop_operation_xyz
x,y,z
-x,-y,z
x,-y,-z
-x,y,-z
1/2+x,1/2+y,1/2+z
1/2-x,1/2-y,1/2+z
1/2+x,1/2-y,1/2-z
1/2-x,1/2+y,1/2-z
loop_
_atom_site_type_symbol
_atom_site_label
_atom_site_fract_x
_atom_site_fract_y
_atom_site_fract_z
Si Si1 0.476383 0.362207 0.565822
Si Si2 0.038508 0.697009 0.770284
Si Si3 0.642672 0.023969 0.179881
Si Si4 0.026671 0.140025 0.336052
Si Si5 0.807431 0.750457 0.855082
Si Si6 0.756463 0.717567 0.644118
O O1 0.500000 0.500000 0.584416
O O2 0.500000 0.346688 0.500000
O O3 0.584570 0.267101 0.593554
O O4 0.317418 0.325225 0.585585
O O5 0.076542 0.574828 0.738383
O O6 0.151256 0.701607 0.820256
O O7 0.042728 0.808990 0.727190
O O8 0.883746 0.698002 0.799290
O O9 0.752537 0.115254 0.154335
O O10 0.500000 0.000000 0.141550
O O11 0.715723 0.895210 0.185728
O O12 0.899024 0.207782 0.368649
O O13 0.173714 0.165409 0.369635
O O14 0.000000 0.000000 0.333651
#
# Coordination Sequence:
#
# PCOD8163807 Si02
#       6
#     8   8   8   8   8   8
#     4  10  21  39  66  92 112 143 193 256 319 363
#     4  10  23  31  53  82 119 168 194 227 286 349
#     4  11  20  33  53  80 122 156 192 227 294 351
#     4  11  23  36  56  82 122 159 203 232 284 353
#     4  10  21  37  55  84 119 154 192 244 286 359
#     4  11  22  38  56  84 123 160 190 253 289 347
#
# _framework density 19.176796
#
# number of rings (size 3 to 8) (size 9 to 14) (size 15 to 20)
#    0.000    1.500    5.000    2.000    4.667    0.000 
#    0.000    3.333    0.000    6.000    0.000    0.000 
#    0.000    0.000    0.000    0.000    0.000    0.000 
#
# Total GULP energy -297315.393412 kJ/mol
# GULP energy per Si atom -12388.141392 kJ/mol
# Density = 1.913315 g / cm^3
# Si number density = 19.176796 Si / 1000 Ang^3
#
#
#
# Elastic Constant Matrix: (Units=GPa)
#
#
# Indices 1 2 3 4 5 6 
#
# 1 131.8378 39.8107 42.6121 0.0000 0.0000 0.0000
# 2 39.8107 113.9235 33.1822 0.0000 0.0000 0.0000
# 3 42.6121 33.1822 78.9006 0.0000 0.0000 0.0000
# 4 0.0000 0.0000 0.0000 9.8692 0.0000 0.0000
# 5 0.0000 0.0000 0.0000 0.0000 15.3682 0.0000
# 6 0.0000 0.0000 0.0000 0.0000 0.0000 30.3471
#
#
#
# Elastic Compliance Matrix: (Units=1/GPa)
#
#
# Indices 1 2 3 4 5 6 
#
# 1 0.009613 -0.002105 -0.004306 0.000000 0.000000 0.000000
# 2 -0.002105 0.010464 -0.003264 0.000000 0.000000 0.000000
# 3 -0.004306 -0.003264 0.016373 0.000000 0.000000 0.000000
# 4 0.000000 0.000000 0.000000 0.101325 0.000000 0.000000
# 5 0.000000 0.000000 0.000000 0.000000 0.065069 0.000000
# 6 0.000000 0.000000 0.000000 0.000000 0.000000 0.032952
#
#
# Mechanical properties :
#
#
# Convention : Reuss Voigt Hill
#
# Bulk Modulus (GPa) = 58.48293 61.76354 60.12324
# Shear Modulus (GPa) = 19.16846 25.05405 22.11125
#
# Velocity S-wave (km/s) = 3.16502 3.61844 3.39930
# Velocity P-wave (km/s) = 6.62717 7.05229 6.84304
#
# Compressibility (1/GPa) = 0.01709901
#
# Stress axis : x y z
#
# Youngs Moduli (GPa) = 104.03099 95.56533 61.07781
#
# Poissons Ratio (x) = 0.20115 0.26302
# Poissons Ratio (y) = 0.21897 0.19936
# Poissons Ratio (z) = 0.44798 0.31192
#
# Static dielectric constant tensor:
#      x y z
#    x 4.123620 0.000000 0.000000 
#    y 0.000000 3.494840 0.000000 
#    z 0.000000 0.000000 3.032600 
# 
# 
# High freq. dielectric constant tensor:
#      x y z
#    x 1.777700 0.000000 0.000000 
#    y 0.000000 1.747350 0.000000 
#    z 0.000000 0.000000 1.684340 
# 
# From -- ./inp_files/12572.got.cif
#   From: 2010.03.12/outbox.cif.g09.slc.cpg/sg23_7_cif.got.tgz:12572.got - 2010.04.14 02:50:06.
