data_PCOD8163266
_publ_section_title
;
Structure prediction by ZEFSAII (Michael W. Deem and Ramdas Pophale) SiO2 
 PCOD8163266
Probable space group: I 2 2 2
;
_chemical_formula_sum "Si O2"
_cell_formula_units_Z 56
_cell_length_a 5.142680
_cell_length_b 16.209590
_cell_length_c 33.857988
_cell_angle_alpha 90.000000
_cell_angle_beta 90.000000
_cell_angle_gamma 90.000000
_cell_volume 2822.426742
_symmetry_space_group_name_H-M "I 2 2 2"
_symmetry_group_IT_number 23
_symmetry_cell_setting 'orthorhombic'
loop_
_space_group_symop_operation_xyz
x,y,z
-x,-y,z
x,-y,-z
-x,y,-z
1/2+x,1/2+y,1/2+z
1/2-x,1/2-y,1/2+z
1/2+x,1/2-y,1/2-z
1/2-x,1/2+y,1/2-z
loop_
_atom_site_type_symbol
_atom_site_label
_atom_site_fract_x
_atom_site_fract_y
_atom_site_fract_z
Si Si1 0.720745 0.732344 0.273993
Si Si2 0.432116 0.212368 0.114442
Si Si3 0.067864 0.286390 0.854204
Si Si4 0.579524 0.906458 0.422836
Si Si5 0.071363 0.827413 0.455835
Si Si6 0.753352 0.530179 0.612449
Si Si7 0.250330 0.456475 0.300261
O O1 0.501377 0.736016 0.240253
O O2 0.624104 0.796304 0.307793
O O3 0.747040 0.640695 0.291849
O O4 0.726264 0.215759 0.130948
O O5 0.447017 0.243271 0.069373
O O6 0.283712 0.126275 0.119410
O O7 0.237465 0.268096 0.140253
O O8 0.114796 0.369703 0.878836
O O9 0.362346 0.862199 0.450084
O O10 0.860410 0.896573 0.443224
O O11 0.500000 0.000000 0.418059
O O12 0.000000 0.801342 0.500000
O O13 0.500000 0.500000 0.588453
O O14 0.750224 0.475163 0.652799
O O15 0.000000 0.500000 0.586922
O O16 0.500000 0.500000 0.280572
O O17 0.000000 0.500000 0.280532
#
# Coordination Sequence:
#
# PCOD8163266 Si02
#       7
#     8   8   8   8   8   8   8
#     4  12  24  38  57  84 115 150 189 240 301 351
#     4  10  19  35  58  83 111 145 185 228 277 335
#     4  10  20  37  56  77 109 149 192 233 279 341
#     4  10  21  36  57  82 112 153 197 237 275 327
#     4  10  21  35  56  87 118 150 185 228 285 336
#     4  10  18  29  52  82 104 131 174 225 269 313
#     4  10  19  34  55  78 105 136 179 233 279 327
#
# _framework density 19.841082
#
# number of rings (size 3 to 8) (size 9 to 14) (size 15 to 20)
#    0.000    1.714    0.000    6.857    0.000    1.714 
#    0.000    2.143    0.000    2.143    0.000    1.000 
#    0.000    0.000    0.000    0.000    0.000    0.000 
#
# Total GULP energy -346887.912937 kJ/mol
# GULP energy per Si atom -12388.854033 kJ/mol
# Density = 1.979592 g / cm^3
# Si number density = 19.841082 Si / 1000 Ang^3
#
#
#
# Elastic Constant Matrix: (Units=GPa)
#
#
# Indices 1 2 3 4 5 6 
#
# 1 139.1329 20.9827 17.7602 0.0000 0.0000 0.0000
# 2 20.9827 87.6499 32.6860 0.0000 0.0000 0.0000
# 3 17.7602 32.6860 89.2861 0.0000 0.0000 0.0000
# 4 0.0000 0.0000 0.0000 16.9482 0.0000 0.0000
# 5 0.0000 0.0000 0.0000 0.0000 16.1757 0.0000
# 6 0.0000 0.0000 0.0000 0.0000 0.0000 35.3803
#
#
#
# Elastic Compliance Matrix: (Units=1/GPa)
#
#
# Indices 1 2 3 4 5 6 
#
# 1 0.007528 -0.001440 -0.000970 0.000000 0.000000 0.000000
# 2 -0.001440 0.013488 -0.004651 0.000000 0.000000 0.000000
# 3 -0.000970 -0.004651 0.013096 0.000000 0.000000 0.000000
# 4 0.000000 0.000000 0.000000 0.059003 0.000000 0.000000
# 5 0.000000 0.000000 0.000000 0.000000 0.061821 0.000000
# 6 0.000000 0.000000 0.000000 0.000000 0.000000 0.028264
#
#
# Mechanical properties :
#
#
# Convention : Reuss Voigt Hill
#
# Bulk Modulus (GPa) = 50.02848 50.99185 50.51016
# Shear Modulus (GPa) = 24.51122 30.01017 27.26069
#
# Velocity S-wave (km/s) = 3.51861 3.89334 3.71071
# Velocity P-wave (km/s) = 6.46350 6.77988 6.62358
#
# Compressibility (1/GPa) = 0.01998862
#
# Stress axis : x y z
#
# Youngs Moduli (GPa) = 132.82941 74.13769 76.36092
#
# Poissons Ratio (x) = 0.10679 0.07408
# Poissons Ratio (y) = 0.19133 0.35518
# Poissons Ratio (z) = 0.12887 0.34484
#
# Static dielectric constant tensor:
#      x y z
#    x 6.274860 0.000000 0.000000 
#    y 0.000000 3.436060 0.000000 
#    z 0.000000 0.000000 3.376550 
# 
# 
# High freq. dielectric constant tensor:
#      x y z
#    x 1.813290 0.000000 0.000000 
#    y 0.000000 1.758590 0.000000 
#    z 0.000000 0.000000 1.732190 
# 
# From -- ./inp_files/2743.got.cif
#   From: 2010.03.12/outbox.cif.g09.slc.cpg/sg23_2_cif.got.tgz:2743.got - 2010.04.14 02:50:06.
