data_PCOD8163040
_publ_section_title
;
Structure prediction by ZEFSAII (Michael W. Deem and Ramdas Pophale) SiO2 
 PCOD8163040
Probable space group: F 2 2 2
;
_chemical_formula_sum "Si O2"
_cell_formula_units_Z 116
_cell_length_a 24.927812
_cell_length_b 21.666464
_cell_length_c 9.377042
_cell_angle_alpha 90.000000
_cell_angle_beta 90.000000
_cell_angle_gamma 90.000000
_cell_volume 5064.517329
_symmetry_space_group_name_H-M "F 2 2 2"
_symmetry_group_IT_number 22
_symmetry_cell_setting 'orthorhombic'
loop_
_space_group_symop_operation_xyz
x,y,z
-x,-y,z
x,-y,-z
-x,y,-z
x,1/2+y,1/2+z
-x,1/2-y,1/2+z
x,1/2-y,1/2-z
-x,1/2+y,1/2-z
1/2+x,y,1/2+z
1/2-x,-y,1/2+z
1/2+x,-y,1/2-z
1/2-x,y,1/2-z
1/2+x,1/2+y,z
1/2-x,1/2-y,z
1/2+x,1/2-y,-z
1/2-x,1/2+y,-z
loop_
_atom_site_type_symbol
_atom_site_label
_atom_site_fract_x
_atom_site_fract_y
_atom_site_fract_z
Si Si1 0.336107 0.364714 0.471483
Si Si2 0.500000 0.500000 0.500000
Si Si3 0.866006 0.383359 0.466123
Si Si4 0.693062 0.258717 0.088787
Si Si5 0.914804 0.917105 0.667649
Si Si6 0.481725 0.697832 0.351979
Si Si7 0.408283 0.823603 0.732969
Si Si8 0.737605 0.559225 0.085959
O O1 0.345505 0.295469 0.531578
O O2 0.361326 0.419179 0.571131
O O3 0.364618 0.364214 0.317481
O O4 0.273438 0.381422 0.457504
O O5 0.460980 0.463764 0.611350
O O6 0.830738 0.326601 0.414737
O O7 0.898210 0.419167 0.336829
O O8 0.908138 0.351468 0.573713
O O9 0.825166 0.429544 0.547492
O O10 0.706175 0.250000 0.250000
O O11 0.750000 0.250000 0.005062
O O12 0.934604 0.849384 0.624988
O O13 0.500000 0.729174 0.500000
O O14 0.458571 0.750000 0.250000
O O15 0.532225 0.661699 0.286091
O O16 0.396364 0.750000 0.750000
O O17 0.750000 0.544561 0.250000
O O18 0.757656 0.500000 0.000000
#
# Coordination Sequence:
#
# PCOD8163040 Si02
#       8
#    16   4  16  16  16  16  16  16
#     4  12  23  43  73 106 143 196 234 293 367 457
#     4  12  28  60  76 110 140 216 274 334 372 454
#     4  12  26  45  73 115 145 194 243 305 376 446
#     4  11  22  37  67 109 159 186 228 286 363 459
#     4  12  28  47  80 102 145 193 263 308 378 450
#     4  11  25  44  68 109 148 189 243 309 385 459
#     4  11  23  40  71 108 148 189 229 290 382 457
#     4  12  30  49  71 102 146 195 256 306 360 446
#
# _framework density 22.904453
#
# number of rings (size 3 to 8) (size 9 to 14) (size 15 to 20)
#    0.000    0.414    7.586    0.000    8.690    0.000 
#    2.483    2.069    0.000    0.828    0.000    0.000 
#    0.000    0.000    0.000    0.000    0.000    0.000 
#
# Total GULP energy -359268.046778 kJ/mol
# GULP energy per Si atom -12388.553337 kJ/mol
# Density = 2.285232 g / cm^3
# Si number density = 22.904453 Si / 1000 Ang^3
#
#
#
# Elastic Constant Matrix: (Units=GPa)
#
#
# Indices 1 2 3 4 5 6 
#
# 1 81.1922 23.2919 33.8636 -0.0009 0.0001 0.0004
# 2 23.2919 82.8654 38.5554 -0.0002 0.0003 0.0001
# 3 33.8636 38.5554 153.1144 -0.0010 0.0003 0.0013
# 4 -0.0009 -0.0002 -0.0010 28.5281 0.0005 0.0005
# 5 0.0001 0.0003 0.0003 0.0005 43.2827 -0.0006
# 6 0.0004 0.0001 0.0013 0.0005 -0.0006 27.1820
#
#
#
# Elastic Compliance Matrix: (Units=1/GPa)
#
#
# Indices 1 2 3 4 5 6 
#
# 1 0.014140 -0.002854 -0.002409 0.000000 0.000000 0.000000
# 2 -0.002854 0.014245 -0.002956 0.000000 0.000000 0.000000
# 3 -0.002409 -0.002956 0.007808 0.000000 0.000000 0.000000
# 4 0.000000 0.000000 0.000000 0.035053 0.000000 -0.000001
# 5 0.000000 0.000000 0.000000 0.000000 0.023104 0.000001
# 6 0.000000 0.000000 0.000000 -0.000001 0.000001 0.036789
#
#
# Mechanical properties :
#
#
# Convention : Reuss Voigt Hill
#
# Bulk Modulus (GPa) = 50.61629 56.51042 53.56336
# Shear Modulus (GPa) = 32.43363 34.56266 33.49814
#
# Velocity S-wave (km/s) = 3.76711 3.88879 3.82844
# Velocity P-wave (km/s) = 6.40846 6.69995 6.55583
#
# Compressibility (1/GPa) = 0.01975648
#
# Stress axis : x y z
#
# Youngs Moduli (GPa) = 70.72285 70.19910 128.07238
#
# Poissons Ratio (x) = 0.20033 0.30848
# Poissons Ratio (y) = 0.20182 0.37857
# Poissons Ratio (z) = 0.17034 0.20750
#
# Static dielectric constant tensor:
#      x y z
#    x 4.212840 0.000000 0.000000 
#    y 0.000000 3.779580 0.000000 
#    z 0.000000 0.000000 4.305550 
# 
# 
# High freq. dielectric constant tensor:
#      x y z
#    x 1.915600 0.000000 0.000000 
#    y 0.000000 1.884880 0.000000 
#    z 0.000000 0.000000 1.910770 
# 
# From -- ./inp_files/14993.got.cif
#   From: 2010.03.12/outbox.cif.g09.slc.cpg/sg22_8_cif.got.tgz:14993.got - 2010.04.14 02:24:06.
