data_PCOD8163623
_publ_section_title
;
Structure prediction by ZEFSAII (Michael W. Deem and Ramdas Pophale) SiO2 
 PCOD8163623
Probable space group: I 2 2 2
;
_chemical_formula_sum "Si O2"
_cell_formula_units_Z 64
_cell_length_a 9.165153
_cell_length_b 17.914050
_cell_length_c 19.115110
_cell_angle_alpha 90.000000
_cell_angle_beta 90.000000
_cell_angle_gamma 90.000000
_cell_volume 3138.414509
_symmetry_space_group_name_H-M "I 2 2 2"
_symmetry_group_IT_number 23
_symmetry_cell_setting 'orthorhombic'
loop_
_space_group_symop_operation_xyz
x,y,z
-x,-y,z
x,-y,-z
-x,y,-z
1/2+x,1/2+y,1/2+z
1/2-x,1/2-y,1/2+z
1/2+x,1/2-y,1/2-z
1/2-x,1/2+y,1/2-z
loop_
_atom_site_type_symbol
_atom_site_label
_atom_site_fract_x
_atom_site_fract_y
_atom_site_fract_z
Si Si1 0.964799 0.241313 0.076172
Si Si2 0.382809 0.941058 0.695834
Si Si3 0.361978 0.542871 0.804763
Si Si4 0.223230 0.650151 0.917287
Si Si5 0.892398 0.176032 0.215262
Si Si6 0.045963 0.684780 0.715553
Si Si7 0.267962 0.645803 0.071542
Si Si8 0.018717 0.750246 0.422315
O O1 0.060590 0.316127 0.095096
O O2 0.956636 0.178537 0.136272
O O3 0.801566 0.271771 0.073210
O O4 0.000000 0.206009 0.000000
O O5 0.460361 0.883685 0.748619
O O6 0.301954 0.906733 0.628971
O O7 0.500000 0.000000 0.667134
O O8 0.251258 0.986221 0.733727
O O9 0.500000 0.500000 0.840085
O O10 0.265646 0.587779 0.861412
O O11 0.433567 0.595703 0.745961
O O12 0.315157 0.726144 0.909492
O O13 0.242911 0.612135 0.993841
O O14 0.976941 0.238850 0.257714
O O15 0.718816 0.184796 0.228496
O O16 0.022752 0.684687 0.631801
O O17 0.435287 0.668951 0.086954
O O18 0.000000 0.716969 0.500000
#
# Coordination Sequence:
#
# PCOD8163623 Si02
#       8
#     8   8   8   8   8   8   8   8
#     4  10  20  37  66  96 123 156 212 271 318 366
#     4  12  24  40  60  92 131 172 210 257 311 377
#     4  12  26  40  60  92 134 169 214 256 316 379
#     4  10  21  39  59  92 127 168 207 254 305 387
#     4  12  24  41  67  94 123 169 216 267 314 378
#     4  12  23  40  68  92 125 168 219 265 319 372
#     4  10  20  38  61  86 130 168 209 249 310 373
#     4  10  20  36  63  96 123 156 210 270 317 365
#
# _framework density 20.392462999999999
#
# number of rings (size 3 to 8) (size 9 to 14) (size 15 to 20)
#    0.000    1.000    5.000    2.250    1.750    0.500 
#    0.000    1.250    0.000    0.750    0.000    0.000 
#    0.000    0.000    0.000    0.000    0.000    0.000 
#
# Total GULP energy -396514.636244 kJ/mol
# GULP energy per Si atom -12391.082383 kJ/mol
# Density = 2.034605 g / cm^3
# Si number density = 20.392463 Si / 1000 Ang^3
#
#
#
# Elastic Constant Matrix: (Units=GPa)
#
#
# Indices 1 2 3 4 5 6 
#
# 1 78.4420 27.1123 32.6886 0.0000 0.0000 0.0000
# 2 27.1123 77.1578 61.2763 0.0000 0.0000 0.0000
# 3 32.6886 61.2763 140.9671 0.0000 0.0000 0.0000
# 4 0.0000 0.0000 0.0000 9.7746 0.0000 0.0000
# 5 0.0000 0.0000 0.0000 0.0000 29.6351 0.0000
# 6 0.0000 0.0000 0.0000 0.0000 0.0000 28.0096
#
#
#
# Elastic Compliance Matrix: (Units=1/GPa)
#
#
# Indices 1 2 3 4 5 6 
#
# 1 0.014800 -0.003780 -0.001789 0.000000 0.000000 0.000000
# 2 -0.003780 0.020759 -0.008147 0.000000 0.000000 0.000000
# 3 -0.001789 -0.008147 0.011050 0.000000 0.000000 0.000000
# 4 0.000000 0.000000 0.000000 0.102306 0.000000 0.000000
# 5 0.000000 0.000000 0.000000 0.000000 0.033744 0.000000
# 6 0.000000 0.000000 0.000000 0.000000 0.000000 0.035702
#
#
# Mechanical properties :
#
#
# Convention : Reuss Voigt Hill
#
# Bulk Modulus (GPa) = 52.14478 59.85792 56.00135
# Shear Modulus (GPa) = 19.82674 25.18318 22.50496
#
# Velocity S-wave (km/s) = 3.12149 3.51796 3.32564
# Velocity P-wave (km/s) = 6.21431 6.77629 6.50138
#
# Compressibility (1/GPa) = 0.01917738
#
# Stress axis : x y z
#
# Youngs Moduli (GPa) = 67.56655 48.17247 90.49720
#
# Poissons Ratio (x) = 0.18209 0.16189
# Poissons Ratio (y) = 0.25539 0.73728
# Poissons Ratio (z) = 0.12087 0.39246
#
# Static dielectric constant tensor:
#      x y z
#    x 4.092650 0.000000 0.000000 
#    y 0.000000 3.499220 0.000000 
#    z 0.000000 0.000000 4.043410 
# 
# 
# High freq. dielectric constant tensor:
#      x y z
#    x 1.830370 0.000000 0.000000 
#    y 0.000000 1.752210 0.000000 
#    z 0.000000 0.000000 1.794270 
# 
# From -- ./inp_files/26411.got.cif
#   From: 2010.03.12/outbox.cif.g09.slc.cpg/sg23_14_cif.got.tgz:26411.got - 2010.04.14 02:50:06.
