data_PCOD8163414
_publ_section_title
;
Structure prediction by ZEFSAII (Michael W. Deem and Ramdas Pophale) SiO2 
 PCOD8163414
Probable space group: I 2 2 2
;
_chemical_formula_sum "Si O2"
_cell_formula_units_Z 64
_cell_length_a 11.426230
_cell_length_b 14.252733
_cell_length_c 18.403748
_cell_angle_alpha 90.000000
_cell_angle_beta 90.000000
_cell_angle_gamma 90.000000
_cell_volume 2997.142480
_symmetry_space_group_name_H-M "I 2 2 2"
_symmetry_group_IT_number 23
_symmetry_cell_setting 'orthorhombic'
loop_
_space_group_symop_operation_xyz
x,y,z
-x,-y,z
x,-y,-z
-x,y,-z
1/2+x,1/2+y,1/2+z
1/2-x,1/2-y,1/2+z
1/2+x,1/2-y,1/2-z
1/2-x,1/2+y,1/2-z
loop_
_atom_site_type_symbol
_atom_site_label
_atom_site_fract_x
_atom_site_fract_y
_atom_site_fract_z
Si Si1 0.620019 0.950570 0.667535
Si Si2 0.014204 0.891281 0.774254
Si Si3 0.766656 0.178477 0.865417
Si Si4 0.229176 0.817737 0.239556
Si Si5 0.890280 0.314102 0.960030
Si Si6 0.536007 0.099932 0.916126
Si Si7 0.731225 0.430180 0.058524
Si Si8 0.401018 0.280277 0.859704
O O1 0.685534 0.903524 0.736345
O O2 0.575622 0.869845 0.613171
O O3 0.500000 0.000000 0.694953
O O4 0.716968 0.018917 0.630520
O O5 0.117935 0.869919 0.831012
O O6 0.029471 0.842987 0.696946
O O7 0.888650 0.852857 0.799701
O O8 0.000000 0.000000 0.760766
O O9 0.706687 0.249704 0.808458
O O10 0.800895 0.232773 0.938907
O O11 0.673643 0.103817 0.895792
O O12 0.283190 0.757521 0.175442
O O13 0.841455 0.387369 0.017517
O O14 0.000000 0.266537 0.000000
O O15 0.477167 0.192241 0.883671
O O16 0.500000 0.000000 0.880917
O O17 0.500000 0.098412 0.000000
O O18 0.635802 0.350174 0.075466
O O19 0.670101 0.500000 0.000000
#
# Coordination Sequence:
#
# PCOD8163414 Si02
#       8
#     8   8   8   8   8   8   8   8
#     4  10  19  35  60  97 142 176 225 273 332 406
#     4  11  24  44  66  99 144 176 221 290 339 416
#     4  10  23  44  65  95 133 176 228 281 343 406
#     4  10  23  40  64  97 137 181 224 274 340 407
#     4  10  19  34  63  97 132 175 217 282 339 399
#     4  11  25  48  72  95 128 175 233 291 339 409
#     4  10  21  36  64  97 137 177 225 277 341 407
#     4  11  24  43  69  96 135 180 228 275 345 414
#
# _framework density 21.353674000000002
#
# number of rings (size 3 to 8) (size 9 to 14) (size 15 to 20)
#    0.000    1.625    2.500    1.500    3.500    1.500 
#    2.250    0.000    0.000    0.000    0.000    0.000 
#    0.000    0.000    0.000    0.000    0.000    0.000 
#
# Total GULP energy -396638.113337 kJ/mol
# GULP energy per Si atom -12394.941042 kJ/mol
# Density = 2.130507 g / cm^3
# Si number density = 21.353674 Si / 1000 Ang^3
#
#
#
# Elastic Constant Matrix: (Units=GPa)
#
#
# Indices 1 2 3 4 5 6 
#
# 1 126.0296 65.7403 36.5068 0.0000 0.0000 0.0000
# 2 65.7403 147.6520 39.1073 0.0000 0.0000 0.0000
# 3 36.5068 39.1073 67.2101 0.0000 0.0000 0.0000
# 4 0.0000 0.0000 0.0000 23.8962 0.0000 0.0000
# 5 0.0000 0.0000 0.0000 0.0000 12.7217 0.0000
# 6 0.0000 0.0000 0.0000 0.0000 0.0000 40.7062
#
#
#
# Elastic Compliance Matrix: (Units=1/GPa)
#
#
# Indices 1 2 3 4 5 6 
#
# 1 0.011069 -0.003943 -0.003718 0.000000 0.000000 0.000000
# 2 -0.003943 0.009412 -0.003334 0.000000 0.000000 0.000000
# 3 -0.003718 -0.003334 0.018838 0.000000 0.000000 0.000000
# 4 0.000000 0.000000 0.000000 0.041848 0.000000 0.000000
# 5 0.000000 0.000000 0.000000 0.000000 0.078606 0.000000
# 6 0.000000 0.000000 0.000000 0.000000 0.000000 0.024566
#
#
# Mechanical properties :
#
#
# Convention : Reuss Voigt Hill
#
# Bulk Modulus (GPa) = 57.71152 69.28894 63.50023
# Shear Modulus (GPa) = 23.57330 28.76730 26.17030
#
# Velocity S-wave (km/s) = 3.32617 3.67438 3.50460
# Velocity P-wave (km/s) = 6.46811 7.10775 6.79546
#
# Compressibility (1/GPa) = 0.01732756
#
# Stress axis : x y z
#
# Youngs Moduli (GPa) = 90.34622 106.25185 53.08383
#
# Poissons Ratio (x) = 0.41900 0.19734
# Poissons Ratio (y) = 0.35628 0.17700
# Poissons Ratio (z) = 0.33587 0.35427
#
# Static dielectric constant tensor:
#      x y z
#    x 3.811330 0.000000 0.000000 
#    y 0.000000 4.090620 0.000000 
#    z 0.000000 0.000000 3.741920 
# 
# 
# High freq. dielectric constant tensor:
#      x y z
#    x 1.838730 0.000000 0.000000 
#    y 0.000000 1.843380 0.000000 
#    z 0.000000 0.000000 1.823710 
# 
# From -- ./inp_files/24443.got.cif
#   From: 2010.03.12/outbox.cif.g09.slc.cpg/sg23_13_cif.got.tgz:24443.got - 2010.04.14 02:50:06.
