data_PCOD8163914
_publ_section_title
;
Structure prediction by ZEFSAII (Michael W. Deem and Ramdas Pophale) SiO2 
 PCOD8163914
Probable space group: I 2 2 2
;
_chemical_formula_sum "Si O2"
_cell_formula_units_Z 64
_cell_length_a 15.074770
_cell_length_b 16.336484
_cell_length_c 11.138468
_cell_angle_alpha 90.000000
_cell_angle_beta 90.000000
_cell_angle_gamma 90.000000
_cell_volume 2743.056468
_symmetry_space_group_name_H-M "I 2 2 2"
_symmetry_group_IT_number 23
_symmetry_cell_setting 'orthorhombic'
loop_
_space_group_symop_operation_xyz
x,y,z
-x,-y,z
x,-y,-z
-x,y,-z
1/2+x,1/2+y,1/2+z
1/2-x,1/2-y,1/2+z
1/2+x,1/2-y,1/2-z
1/2-x,1/2+y,1/2-z
loop_
_atom_site_type_symbol
_atom_site_label
_atom_site_fract_x
_atom_site_fract_y
_atom_site_fract_z
Si Si1 0.090183 0.045540 0.244320
Si Si2 0.987813 0.667742 0.362017
Si Si3 0.339678 0.867871 0.742665
Si Si4 0.782235 0.063908 0.104839
Si Si5 0.134385 0.557496 0.776037
Si Si6 0.171132 0.167756 0.096185
Si Si7 0.713108 0.837859 0.525415
Si Si8 0.594624 0.330874 0.058275
O O1 0.084209 0.118594 0.144263
O O2 0.122605 0.090173 0.364586
O O3 0.156650 0.973719 0.208158
O O4 0.000000 0.000000 0.265461
O O5 0.956988 0.600904 0.262980
O O6 0.923251 0.747856 0.364567
O O7 0.000000 0.635271 0.500000
O O8 0.086593 0.687879 0.310948
O O9 0.251305 0.868334 0.822826
O O10 0.319450 0.833143 0.611045
O O11 0.374696 0.960396 0.728366
O O12 0.693614 0.092429 0.168137
O O13 0.820841 0.145590 0.044530
O O14 0.762587 0.000000 0.000000
O O15 0.176059 0.582079 0.905946
O O16 0.166412 0.265213 0.102451
O O17 0.820648 0.824017 0.531598
O O18 0.500000 0.351496 0.000000
#
# Coordination Sequence:
#
# PCOD8163914 Si02
#       8
#     8   8   8   8   8   8   8   8
#     4  11  24  42  68 103 144 186 242 306 368 449
#     4  11  26  46  76 108 142 191 251 317 366 435
#     4  12  25  47  71 106 148 186 249 308 372 450
#     4  10  21  40  67  99 137 187 243 298 352 435
#     4  12  24  43  73 107 144 188 243 300 383 435
#     4  11  23  44  70  99 139 192 248 298 368 438
#     4  12  27  45  77 104 149 201 242 311 375 465
#     4  11  24  46  68 108 147 191 251 301 376 448
#
# _framework density 23.331638999999999
#
# number of rings (size 3 to 8) (size 9 to 14) (size 15 to 20)
#    0.000    0.750    3.750    4.500    3.500    4.500 
#    0.000    2.500    0.000    0.000    0.000    0.000 
#    0.000    0.000    0.000    0.000    0.000    0.000 
#
# Total GULP energy -396499.271243 kJ/mol
# GULP energy per Si atom -12390.602226 kJ/mol
# Density = 2.327853 g / cm^3
# Si number density = 23.331639 Si / 1000 Ang^3
#
#
#
# Elastic Constant Matrix: (Units=GPa)
#
#
# Indices 1 2 3 4 5 6 
#
# 1 48.2823 24.6746 22.7640 0.0000 0.0000 0.0000
# 2 24.6746 88.2436 25.0444 0.0000 0.0000 0.0000
# 3 22.7640 25.0444 75.3021 0.0000 0.0000 0.0000
# 4 0.0000 0.0000 0.0000 36.6960 0.0000 0.0000
# 5 0.0000 0.0000 0.0000 0.0000 59.8888 0.0000
# 6 0.0000 0.0000 0.0000 0.0000 0.0000 24.2567
#
#
#
# Elastic Compliance Matrix: (Units=1/GPa)
#
#
# Indices 1 2 3 4 5 6 
#
# 1 0.026497 -0.005671 -0.006124 0.000000 0.000000 0.000000
# 2 -0.005671 0.013727 -0.002851 0.000000 0.000000 0.000000
# 3 -0.006124 -0.002851 0.016079 0.000000 0.000000 0.000000
# 4 0.000000 0.000000 0.000000 0.027251 0.000000 0.000000
# 5 0.000000 0.000000 0.000000 0.000000 0.016698 0.000000
# 6 0.000000 0.000000 0.000000 0.000000 0.000000 0.041226
#
#
# Mechanical properties :
#
#
# Convention : Reuss Voigt Hill
#
# Bulk Modulus (GPa) = 37.02151 39.64376 38.33263
# Shear Modulus (GPa) = 27.81275 33.45799 30.63537
#
# Velocity S-wave (km/s) = 3.45637 3.79095 3.62752
# Velocity P-wave (km/s) = 5.64186 6.01582 5.83184
#
# Compressibility (1/GPa) = 0.02701132
#
# Stress axis : x y z
#
# Youngs Moduli (GPa) = 37.74011 72.84827 62.19154
#
# Poissons Ratio (x) = 0.41312 0.38086
# Poissons Ratio (y) = 0.21402 0.17731
# Poissons Ratio (z) = 0.23112 0.20770
#
# Static dielectric constant tensor:
#      x y z
#    x 4.687100 0.000000 0.000000 
#    y 0.000000 3.833600 0.000000 
#    z 0.000000 0.000000 4.237600 
# 
# 
# High freq. dielectric constant tensor:
#      x y z
#    x 1.916100 0.000000 0.000000 
#    y 0.000000 1.924870 0.000000 
#    z 0.000000 0.000000 1.923350 
# 
# From -- ./inp_files/16976.got.cif
#   From: 2010.03.12/outbox.cif.g09.slc.cpg/sg23_9_cif.got.tgz:16976.got - 2010.04.14 02:50:06.
