data_PCOD8163857
_publ_section_title
;
Structure prediction by ZEFSAII (Michael W. Deem and Ramdas Pophale) SiO2 
 PCOD8163857
Probable space group: I 2 2 2
;
_chemical_formula_sum "Si O2"
_cell_formula_units_Z 40
_cell_length_a 9.439438
_cell_length_b 11.344041
_cell_length_c 17.295797
_cell_angle_alpha 90.000000
_cell_angle_beta 90.000000
_cell_angle_gamma 90.000000
_cell_volume 1852.057667
_symmetry_space_group_name_H-M "I 2 2 2"
_symmetry_group_IT_number 23
_symmetry_cell_setting 'orthorhombic'
loop_
_space_group_symop_operation_xyz
x,y,z
-x,-y,z
x,-y,-z
-x,y,-z
1/2+x,1/2+y,1/2+z
1/2-x,1/2-y,1/2+z
1/2+x,1/2-y,1/2-z
1/2-x,1/2+y,1/2-z
loop_
_atom_site_type_symbol
_atom_site_label
_atom_site_fract_x
_atom_site_fract_y
_atom_site_fract_z
Si Si1 0.776037 0.500000 0.500000
Si Si2 0.232650 0.173713 0.339642
Si Si3 0.140898 0.434015 0.127721
Si Si4 0.500000 0.000000 0.876460
Si Si5 0.834684 0.750128 0.003457
Si Si6 0.492667 0.800777 0.761018
O O1 0.870602 0.544811 0.428711
O O2 0.685696 0.613183 0.527943
O O3 0.250479 0.227848 0.424716
O O4 0.352266 0.237484 0.285703
O O5 0.076514 0.195396 0.304029
O O6 0.248226 0.033013 0.345056
O O7 0.217480 0.345840 0.066976
O O8 0.102912 0.360462 0.203085
O O9 0.000000 0.500000 0.093788
O O10 0.442990 0.893100 0.825375
O O11 0.000000 0.725944 0.000000
#
# Coordination Sequence:
#
# PCOD8163857 Si02
#       6
#     4   8   8   4   8   8
#     4  11  27  40  64  94 131 175 220 270 330 403
#     4  11  23  40  66 101 127 174 221 271 330 395
#     4  10  21  38  67  94 126 174 215 268 331 396
#     4  11  22  46  64  83 130 182 214 253 346 412
#     4  12  22  40  65  98 131 167 222 276 326 393
#     4  11  22  41  68  94 129 171 220 270 332 395
#
# _framework density 21.597598999999999
#
# number of rings (size 3 to 8) (size 9 to 14) (size 15 to 20)
#    0.000    1.000    9.000    0.900    2.800    0.000 
#    0.000    1.000    0.000    0.000    0.000    0.000 
#    0.000    0.000    0.000    0.000    0.000    0.000 
#
# Total GULP energy -247912.256285 kJ/mol
# GULP energy per Si atom -12395.612814 kJ/mol
# Density = 2.154844 g / cm^3
# Si number density = 21.597599 Si / 1000 Ang^3
#
#
#
# Elastic Constant Matrix: (Units=GPa)
#
#
# Indices 1 2 3 4 5 6 
#
# 1 42.0801 28.9285 21.0369 0.0000 0.0000 0.0000
# 2 28.9285 102.3644 29.2576 0.0000 0.0000 0.0000
# 3 21.0369 29.2576 110.3147 0.0000 0.0000 0.0000
# 4 0.0000 0.0000 0.0000 29.5093 0.0000 0.0000
# 5 0.0000 0.0000 0.0000 0.0000 5.2327 0.0000
# 6 0.0000 0.0000 0.0000 0.0000 0.0000 38.9927
#
#
#
# Elastic Compliance Matrix: (Units=1/GPa)
#
#
# Indices 1 2 3 4 5 6 
#
# 1 0.030954 -0.007640 -0.003877 0.000000 0.000000 0.000000
# 2 -0.007640 0.012456 -0.001847 0.000000 0.000000 0.000000
# 3 -0.003877 -0.001847 0.010294 0.000000 0.000000 0.000000
# 4 0.000000 0.000000 0.000000 0.033888 0.000000 0.000000
# 5 0.000000 0.000000 0.000000 0.000000 0.191104 0.000000
# 6 0.000000 0.000000 0.000000 0.000000 0.000000 0.025646
#
#
# Mechanical properties :
#
#
# Convention : Reuss Voigt Hill
#
# Bulk Modulus (GPa) = 37.06736 45.91168 41.48952
# Shear Modulus (GPa) = 14.70324 26.44936 20.57630
#
# Velocity S-wave (km/s) = 2.61201 3.50329 3.08995
# Velocity P-wave (km/s) = 5.12804 6.13742 5.65529
#
# Compressibility (1/GPa) = 0.02697792
#
# Stress axis : x y z
#
# Youngs Moduli (GPa) = 32.30570 80.28364 97.14365
#
# Poissons Ratio (x) = 0.61335 0.37660
# Poissons Ratio (y) = 0.24681 0.17939
# Poissons Ratio (z) = 0.12524 0.14825
#
# Static dielectric constant tensor:
#      x y z
#    x 3.505770 0.000000 0.000000 
#    y 0.000000 4.003710 0.000000 
#    z 0.000000 0.000000 4.122730 
# 
# 
# High freq. dielectric constant tensor:
#      x y z
#    x 1.812420 0.000000 0.000000 
#    y 0.000000 1.847180 0.000000 
#    z 0.000000 0.000000 1.861780 
# 
# From -- ./inp_files/24187.got.cif
#   From: 2010.03.12/outbox.cif.g09.slc.cpg/sg23_13_cif.got.tgz:24187.got - 2010.04.14 02:50:06.
