data_PCOD8163106
_publ_section_title
;
Structure prediction by ZEFSAII (Michael W. Deem and Ramdas Pophale) SiO2 
 PCOD8163106
Probable space group: F 2 2 2
;
_chemical_formula_sum "Si O2"
_cell_formula_units_Z 104
_cell_length_a 19.707555
_cell_length_b 27.551796
_cell_length_c 8.847859
_cell_angle_alpha 90.000000
_cell_angle_beta 90.000000
_cell_angle_gamma 90.000000
_cell_volume 4804.197518
_symmetry_space_group_name_H-M "F 2 2 2"
_symmetry_group_IT_number 22
_symmetry_cell_setting 'orthorhombic'
loop_
_space_group_symop_operation_xyz
x,y,z
-x,-y,z
x,-y,-z
-x,y,-z
x,1/2+y,1/2+z
-x,1/2-y,1/2+z
x,1/2-y,1/2-z
-x,1/2+y,1/2-z
1/2+x,y,1/2+z
1/2-x,-y,1/2+z
1/2+x,-y,1/2-z
1/2-x,y,1/2-z
1/2+x,1/2+y,z
1/2-x,1/2-y,z
1/2+x,1/2-y,-z
1/2-x,1/2+y,-z
loop_
_atom_site_type_symbol
_atom_site_label
_atom_site_fract_x
_atom_site_fract_y
_atom_site_fract_z
Si Si1 0.825129 0.728543 0.402073
Si Si2 0.938226 0.032289 0.275054
Si Si3 0.626485 0.626105 0.176235
Si Si4 0.578822 0.119613 0.018993
Si Si5 0.184119 0.525455 0.656154
Si Si6 0.000000 0.408334 0.500000
Si Si7 0.066801 0.723890 0.099606
O O1 0.857778 0.750000 0.250000
O O2 0.750000 0.750000 0.427783
O O3 0.827790 0.670854 0.380056
O O4 0.871801 0.743601 0.540205
O O5 0.902224 0.071045 0.388012
O O6 0.961563 0.057852 0.120070
O O7 0.881838 0.992658 0.242842
O O8 0.000000 0.000000 0.344916
O O9 0.615879 0.624813 0.357613
O O10 0.673815 0.582132 0.126349
O O11 0.553765 0.625487 0.089687
O O12 0.593729 0.168401 0.116914
O O13 0.500000 0.113348 0.000000
O O14 0.195186 0.500000 0.500000
O O15 0.250000 0.513886 0.750000
O O16 0.042749 0.750000 0.250000
O O17 0.000000 0.723144 0.000000
#
# Coordination Sequence:
#
# PCOD8163106 Si02
#       7
#    16  16  16  16  16   8  16
#     4  11  26  49  74 101 141 194 240 295 378 449
#     4  12  23  46  71 102 148 190 241 301 365 433
#     4  12  26  45  77 104 143 191 248 305 368 442
#     4  11  24  41  66 110 140 179 236 298 364 425
#     4  12  28  46  67 106 147 196 248 296 362 441
#     4  12  23  44  78 108 136 188 252 306 367 424
#     4  11  26  43  71 107 143 179 237 305 364 434
#
# _framework density 21.647735999999998
#
# number of rings (size 3 to 8) (size 9 to 14) (size 15 to 20)
#    0.000    0.462    6.154    0.692    9.692    1.846 
#    0.000    0.000    0.000    0.000    0.000    0.000 
#    0.000    0.000    0.000    0.000    0.000    0.000 
#
# Total GULP energy -322365.450982 kJ/mol
# GULP energy per Si atom -12398.671192 kJ/mol
# Density = 2.159846 g / cm^3
# Si number density = 21.647736 Si / 1000 Ang^3
#
#
#
# Elastic Constant Matrix: (Units=GPa)
#
#
# Indices 1 2 3 4 5 6 
#
# 1 113.6524 50.7049 30.7404 -0.0010 -0.0002 0.0007
# 2 50.7049 183.7776 56.2925 0.0000 0.0000 0.0006
# 3 30.7404 56.2925 87.2392 -0.0036 0.0007 0.0037
# 4 -0.0010 0.0000 -0.0036 54.4934 0.0018 0.0100
# 5 -0.0002 0.0000 0.0007 0.0018 -90.2153 0.0005
# 6 0.0007 0.0006 0.0037 0.0100 0.0005 67.6427
#
#
#
# Elastic Compliance Matrix: (Units=1/GPa)
#
#
# Indices 1 2 3 4 5 6 
#
# 1 0.010378 -0.002173 -0.002255 0.000000 0.000000 0.000000
# 2 -0.002173 0.007237 -0.003904 0.000000 0.000000 0.000000
# 3 -0.002255 -0.003904 0.014776 0.000001 0.000000 -0.000001
# 4 0.000000 0.000000 0.000001 0.018351 0.000000 -0.000003
# 5 0.000000 0.000000 0.000000 0.000000 -0.011085 0.000000
# 6 0.000000 0.000000 -0.000001 -0.000003 0.000000 0.014784
#
#
# Mechanical properties :
#
#
# Convention : Reuss Voigt Hill
#
# Bulk Modulus (GPa) = 63.58129 73.34941 68.46535
# Shear Modulus (GPa) = 65.49084 22.84624 44.16854
#
# Velocity S-wave (km/s) = 5.50624 3.25216 4.52190
# Velocity P-wave (km/s) = 8.35820 6.93245 7.67849
#
# Compressibility (1/GPa) = 0.01572790
#
# Stress axis : x y z
#
# Youngs Moduli (GPa) = 96.35805 138.18628 67.67534
#
# Poissons Ratio (x) = 0.30022 0.15261
# Poissons Ratio (y) = 0.20935 0.26420
# Poissons Ratio (z) = 0.21728 0.53948
#
# Static dielectric constant tensor:
#      x y z
#    x 3.740410 0.000000 0.000050 
#    y 0.000000 4.514220 0.000010 
#    z 0.000050 0.000010 2.594870 
# 
# 
# High freq. dielectric constant tensor:
#      x y z
#    x 1.837510 0.000000 0.000000 
#    y 0.000000 1.872400 0.000000 
#    z 0.000000 0.000000 1.849650 
# 
# From -- ./inp_files/12965.got.cif
#   From: 2010.03.12/outbox.cif.g09.slc.cpg/sg22_7_cif.got.tgz:12965.got - 2010.04.14 02:24:06.
