data_PCOD8163582
_publ_section_title
;
Structure prediction by ZEFSAII (Michael W. Deem and Ramdas Pophale) SiO2 
 PCOD8163582
Probable space group: I 2 2 2
;
_chemical_formula_sum "Si O2"
_cell_formula_units_Z 32
_cell_length_a 8.376204
_cell_length_b 4.922092
_cell_length_c 36.045301
_cell_angle_alpha 90.000000
_cell_angle_beta 90.000000
_cell_angle_gamma 90.000000
_cell_volume 1486.091771
_symmetry_space_group_name_H-M "I 2 2 2"
_symmetry_group_IT_number 23
_symmetry_cell_setting 'orthorhombic'
loop_
_space_group_symop_operation_xyz
x,y,z
-x,-y,z
x,-y,-z
-x,y,-z
1/2+x,1/2+y,1/2+z
1/2-x,1/2-y,1/2+z
1/2+x,1/2-y,1/2-z
1/2-x,1/2+y,1/2-z
loop_
_atom_site_type_symbol
_atom_site_label
_atom_site_fract_x
_atom_site_fract_y
_atom_site_fract_z
Si Si1 0.177172 0.102599 0.231877
Si Si2 0.312759 0.507323 0.088023
Si Si3 0.188037 0.517174 0.459190
Si Si4 0.605394 0.246360 0.346815
O O1 0.196595 0.382912 0.253879
O O2 0.207937 0.142398 0.187800
O O3 0.000000 0.000000 0.239824
O O4 0.500000 0.500000 0.098226
O O5 0.266486 0.313934 0.054259
O O6 0.217332 0.399908 0.123299
O O7 0.256383 0.800449 0.072382
O O8 0.268870 0.500000 0.500000
O O9 0.000000 0.500000 0.463784
O O10 0.500000 0.500000 0.363020
O O11 0.500000 0.000000 0.330679
#
# Coordination Sequence:
#
# PCOD8163582 Si02
#       4
#     8   8   8   8
#     4  11  23  42  65  91 121 159 204 251 305 365
#     4  10  20  35  58  87 116 152 202 248 291 352
#     4   9  17  31  54  85 118 150 190 247 304 346
#     4  11  23  41  61  85 122 164 198 240 309 373
#
# _framework density 21.532992
#
# number of rings (size 3 to 8) (size 9 to 14) (size 15 to 20)
#    0.000    1.750    0.000    6.000    0.000    4.000 
#    0.000   10.000    0.000   11.250    0.000    0.000 
#    0.000    0.000    0.000    0.000    0.000    0.000 
#
# Total GULP energy -198284.484082 kJ/mol
# GULP energy per Si atom -12392.780255 kJ/mol
# Density = 2.148398 g / cm^3
# Si number density = 21.532992 Si / 1000 Ang^3
#
#
#
# Elastic Constant Matrix: (Units=GPa)
#
#
# Indices 1 2 3 4 5 6 
#
# 1 51.0321 26.8463 54.0120 0.0000 0.0000 0.0000
# 2 26.8463 116.2237 37.1432 0.0002 0.0002 0.0000
# 3 54.0120 37.1432 149.5889 0.0002 0.0001 0.0000
# 4 0.0000 0.0002 0.0002 63.8345 0.0001 0.0000
# 5 0.0000 0.0002 0.0001 0.0001 2.2461 0.0000
# 6 0.0000 0.0000 0.0000 0.0000 0.0000 37.2530
#
#
#
# Elastic Compliance Matrix: (Units=1/GPa)
#
#
# Indices 1 2 3 4 5 6 
#
# 1 0.033509 -0.004207 -0.011054 0.000000 0.000001 0.000000
# 2 -0.004207 0.009874 -0.000933 0.000000 -0.000001 0.000000
# 3 -0.011054 -0.000933 0.010908 0.000000 -0.000001 0.000000
# 4 0.000000 0.000000 0.000000 0.015666 -0.000001 0.000000
# 5 0.000001 -0.000001 -0.000001 -0.000001 0.445210 0.000000
# 6 0.000000 0.000000 0.000000 0.000000 0.000000 0.026843
#
#
# Mechanical properties :
#
#
# Convention : Reuss Voigt Hill
#
# Bulk Modulus (GPa) = 45.65767 61.42754 53.54260
# Shear Modulus (GPa) = 8.59552 33.92292 21.25922
#
# Velocity S-wave (km/s) = 2.00011 3.97343 3.14552
# Velocity P-wave (km/s) = 5.15592 7.04556 6.17347
#
# Compressibility (1/GPa) = 0.02190213
#
# Stress axis : x y z
#
# Youngs Moduli (GPa) = 29.84314 101.27624 91.67665
#
# Poissons Ratio (x) = 0.42610 1.01341
# Poissons Ratio (y) = 0.12556 0.08550
# Poissons Ratio (z) = 0.32989 0.09445
#
# Static dielectric constant tensor:
#      x y z
#    x 3.442480 0.000000 0.000000 
#    y 0.000000 4.608620 0.000000 
#    z 0.000000 0.000000 3.925050 
# 
# 
# High freq. dielectric constant tensor:
#      x y z
#    x 1.807860 0.000000 0.000000 
#    y 0.000000 1.873140 0.000000 
#    z 0.000000 0.000000 1.851420 
# 
# From -- ./inp_files/731.got.cif
#   From: 2010.03.12/outbox.cif.g09.slc.cpg/sg23_1_cif.got.tgz:731.got - 2010.04.14 02:50:06.
