data_PCOD8163287
_publ_section_title
;
Structure prediction by ZEFSAII (Michael W. Deem and Ramdas Pophale) SiO2 
 PCOD8163287
Probable space group: I 2 2 2
;
_chemical_formula_sum "Si O2"
_cell_formula_units_Z 44
_cell_length_a 20.647222
_cell_length_b 19.047892
_cell_length_c 6.126705
_cell_angle_alpha 90.000000
_cell_angle_beta 90.000000
_cell_angle_gamma 90.000000
_cell_volume 2409.547638
_symmetry_space_group_name_H-M "I 2 2 2"
_symmetry_group_IT_number 23
_symmetry_cell_setting 'orthorhombic'
loop_
_space_group_symop_operation_xyz
x,y,z
-x,-y,z
x,-y,-z
-x,y,-z
1/2+x,1/2+y,1/2+z
1/2-x,1/2-y,1/2+z
1/2+x,1/2-y,1/2-z
1/2-x,1/2+y,1/2-z
loop_
_atom_site_type_symbol
_atom_site_label
_atom_site_fract_x
_atom_site_fract_y
_atom_site_fract_z
Si Si1 0.714608 0.173099 0.106994
Si Si2 0.437114 0.254532 0.621380
Si Si3 0.811983 0.178139 0.766640
Si Si4 0.000000 0.333454 0.500000
Si Si5 0.774603 0.580261 0.999765
Si Si6 0.382774 0.149889 0.258527
O O1 0.720248 0.245193 0.239011
O O2 0.700850 0.107657 0.266407
O O3 0.781954 0.151467 0.993593
O O4 0.657338 0.187476 0.933361
O O5 0.500000 0.286786 0.500000
O O6 0.389795 0.317109 0.704038
O O7 0.398176 0.203770 0.455044
O O8 0.457979 0.213771 0.837292
O O9 0.788233 0.125735 0.575411
O O10 0.049951 0.378826 0.649403
O O11 0.752626 0.500000 0.000000
O O12 0.837464 0.586721 0.842076
#
# Coordination Sequence:
#
# PCOD8163287 Si02
#       6
#     8   8   8   4   8   8
#     4  11  19  34  59  82 110 146 188 242 294 346
#     4  10  20  32  54  89 114 145 192 252 293 347
#     4  11  19  33  57  85 111 146 193 239 292 355
#     4  10  18  32  56  83 117 148 192 248 294 336
#     4  11  24  36  54  85 120 154 192 243 305 358
#     4  10  19  33  55  80 116 148 195 238 290 351
#
# _framework density 18.26069
#
# number of rings (size 3 to 8) (size 9 to 14) (size 15 to 20)
#    0.000    1.455    5.455    1.091    0.000    2.909 
#    0.000    0.000    0.000   22.364    0.000    9.545 
#    0.000    0.000    0.000    0.000    0.000    0.000 
#
# Total GULP energy -272580.574125 kJ/mol
# GULP energy per Si atom -12390.026097 kJ/mol
# Density = 1.821913 g / cm^3
# Si number density = 18.260690 Si / 1000 Ang^3
#
#
#
# Elastic Constant Matrix: (Units=GPa)
#
#
# Indices 1 2 3 4 5 6 
#
# 1 114.6179 29.4595 39.0381 0.0000 0.0000 0.0000
# 2 29.4595 84.9665 33.0195 0.0000 0.0000 0.0000
# 3 39.0381 33.0195 100.5878 0.0000 0.0000 0.0000
# 4 0.0000 0.0000 0.0000 16.5421 0.0000 0.0000
# 5 0.0000 0.0000 0.0000 0.0000 42.8950 0.0000
# 6 0.0000 0.0000 0.0000 0.0000 0.0000 13.2246
#
#
#
# Elastic Compliance Matrix: (Units=1/GPa)
#
#
# Indices 1 2 3 4 5 6 
#
# 1 0.010446 -0.002346 -0.003284 0.000000 0.000000 0.000000
# 2 -0.002346 0.014017 -0.003691 0.000000 0.000000 0.000000
# 3 -0.003284 -0.003691 0.012428 0.000000 0.000000 0.000000
# 4 0.000000 0.000000 0.000000 0.060452 0.000000 0.000000
# 5 0.000000 0.000000 0.000000 0.000000 0.023313 0.000000
# 6 0.000000 0.000000 0.000000 0.000000 0.000000 0.075616
#
#
# Mechanical properties :
#
#
# Convention : Reuss Voigt Hill
#
# Bulk Modulus (GPa) = 54.79628 55.91184 55.35406
# Shear Modulus (GPa) = 22.62480 27.77601 25.20041
#
# Velocity S-wave (km/s) = 3.52375 3.90434 3.71891
# Velocity P-wave (km/s) = 6.82852 7.14215 6.98709
#
# Compressibility (1/GPa) = 0.01824941
#
# Stress axis : x y z
#
# Youngs Moduli (GPa) = 95.72980 71.34204 80.46500
#
# Poissons Ratio (x) = 0.16734 0.26426
# Poissons Ratio (y) = 0.22454 0.29699
# Poissons Ratio (z) = 0.31439 0.26332
#
# Static dielectric constant tensor:
#      x y z
#    x 3.664410 0.000000 0.000000 
#    y 0.000000 2.749100 0.000000 
#    z 0.000000 0.000000 3.745280 
# 
# 
# High freq. dielectric constant tensor:
#      x y z
#    x 1.716610 0.000000 0.000000 
#    y 0.000000 1.633530 0.000000 
#    z 0.000000 0.000000 1.738110 
# 
# From -- ./inp_files/3854.got.cif
#   From: 2010.03.12/outbox.cif.g09.slc.cpg/sg23_2_cif.got.tgz:3854.got - 2010.04.14 02:50:06.
