data_PCOD8163123
_publ_section_title
;
Structure prediction by ZEFSAII (Michael W. Deem and Ramdas Pophale) SiO2 
 PCOD8163123
Probable space group: F 2 2 2
;
_chemical_formula_sum "Si O2"
_cell_formula_units_Z 64
_cell_length_a 24.701066
_cell_length_b 10.178687
_cell_length_c 12.036680
_cell_angle_alpha 90.000000
_cell_angle_beta 90.000000
_cell_angle_gamma 90.000000
_cell_volume 3026.315280
_symmetry_space_group_name_H-M "F 2 2 2"
_symmetry_group_IT_number 22
_symmetry_cell_setting 'orthorhombic'
loop_
_space_group_symop_operation_xyz
x,y,z
-x,-y,z
x,-y,-z
-x,y,-z
x,1/2+y,1/2+z
-x,1/2-y,1/2+z
x,1/2-y,1/2-z
-x,1/2+y,1/2-z
1/2+x,y,1/2+z
1/2-x,-y,1/2+z
1/2+x,-y,1/2-z
1/2-x,y,1/2-z
1/2+x,1/2+y,z
1/2-x,1/2-y,z
1/2+x,1/2-y,-z
1/2-x,1/2+y,-z
loop_
_atom_site_type_symbol
_atom_site_label
_atom_site_fract_x
_atom_site_fract_y
_atom_site_fract_z
Si Si1 0.550967 0.301692 0.067464
Si Si2 0.596008 0.966497 0.874346
Si Si3 0.000000 0.000000 0.238978
Si Si4 0.865541 0.500000 0.500000
Si Si5 0.189145 0.094395 0.774699
O O1 0.579443 0.185439 0.132797
O O2 0.529649 0.395274 0.163506
O O3 0.593359 0.375829 0.984355
O O4 0.500000 0.246890 0.000000
O O5 0.651431 0.987484 0.808434
O O6 0.547959 0.055186 0.819888
O O7 0.607321 0.000000 0.000000
O O8 0.827342 0.457059 0.397443
O O9 0.182777 0.250000 0.750000
O O10 0.250000 0.049644 0.750000
#
# Coordination Sequence:
#
# PCOD8163123 Si02
#       5
#    16  16   8   8  16
#     4  12  21  39  66  98 136 178 222 272 343 418
#     4  12  25  41  61 102 142 176 219 284 344 412
#     4  12  20  38  60  96 130 177 217 272 332 406
#     4  12  21  44  70 100 126 175 230 286 334 412
#     4  11  24  45  72  97 130 181 232 286 341 407
#
# _framework density 21.147829999999999
#
# number of rings (size 3 to 8) (size 9 to 14) (size 15 to 20)
#    0.000    0.250    7.500    2.625    1.750    0.000 
#    0.000    1.250    0.000    1.500    0.000    0.000 
#    0.000    0.000    0.000    0.000    0.000    0.000 
#
# Total GULP energy -198236.553035 kJ/mol
# GULP energy per Si atom -12389.784565 kJ/mol
# Density = 2.109970 g / cm^3
# Si number density = 21.147830 Si / 1000 Ang^3
#
#
#
# Elastic Constant Matrix: (Units=GPa)
#
#
# Indices 1 2 3 4 5 6 
#
# 1 188.9701 24.1025 81.0350 0.0000 0.0000 0.0000
# 2 24.1025 60.4190 37.5486 0.0000 0.0000 0.0000
# 3 81.0350 37.5486 165.2348 0.0000 0.0000 0.0000
# 4 0.0000 0.0000 0.0000 25.5717 0.0000 0.0000
# 5 0.0000 0.0000 0.0000 0.0000 34.2929 0.0000
# 6 0.0000 0.0000 0.0000 0.0000 0.0000 22.0136
#
#
#
# Elastic Compliance Matrix: (Units=1/GPa)
#
#
# Indices 1 2 3 4 5 6 
#
# 1 0.006729 -0.000738 -0.003133 0.000000 0.000000 0.000000
# 2 -0.000738 0.019354 -0.004036 0.000000 0.000000 0.000000
# 3 -0.003133 -0.004036 0.008505 0.000000 0.000000 0.000000
# 4 0.000000 0.000000 0.000000 0.039106 0.000000 0.000000
# 5 0.000000 0.000000 0.000000 0.000000 0.029161 0.000000
# 6 0.000000 0.000000 0.000000 0.000000 0.000000 0.045426
#
#
# Mechanical properties :
#
#
# Convention : Reuss Voigt Hill
#
# Bulk Modulus (GPa) = 53.26074 77.77733 65.51903
# Shear Modulus (GPa) = 29.35091 34.50486 31.92788
#
# Velocity S-wave (km/s) = 3.72948 4.04369 3.88976
# Velocity P-wave (km/s) = 6.61703 7.65896 7.15698
#
# Compressibility (1/GPa) = 0.01877556
#
# Stress axis : x y z
#
# Youngs Moduli (GPa) = 148.60520 51.66955 117.57122
#
# Poissons Ratio (x) = 0.03811 0.36830
# Poissons Ratio (y) = 0.10962 0.47455
# Poissons Ratio (z) = 0.46551 0.20855
#
# Static dielectric constant tensor:
#      x y z
#    x 4.414950 0.000000 0.000000 
#    y 0.000000 4.062760 0.000000 
#    z 0.000000 0.000000 4.088320 
# 
# 
# High freq. dielectric constant tensor:
#      x y z
#    x 1.840540 0.000000 0.000000 
#    y 0.000000 1.801250 0.000000 
#    z 0.000000 0.000000 1.846460 
# 
# From -- ./inp_files/9826.got.cif
#   From: 2010.03.12/outbox.cif.g09.slc.cpg/sg22_5_cif.got.tgz:9826.got - 2010.04.14 02:24:06.
