data_PCOD8163310
_publ_section_title
;
Structure prediction by ZEFSAII (Michael W. Deem and Ramdas Pophale) SiO2 
 PCOD8163310
Probable space group: I 2 2 2
;
_chemical_formula_sum "Si O2"
_cell_formula_units_Z 56
_cell_length_a 11.953419
_cell_length_b 14.386484
_cell_length_c 14.386484
_cell_angle_alpha 90.000000
_cell_angle_beta 90.000000
_cell_angle_gamma 90.000000
_cell_volume 2474.010150
_symmetry_space_group_name_H-M "I 2 2 2"
_symmetry_group_IT_number 23
_symmetry_cell_setting 'orthorhombic'
loop_
_space_group_symop_operation_xyz
x,y,z
-x,-y,z
x,-y,-z
-x,y,-z
1/2+x,1/2+y,1/2+z
1/2-x,1/2-y,1/2+z
1/2+x,1/2-y,1/2-z
1/2-x,1/2+y,1/2-z
loop_
_atom_site_type_symbol
_atom_site_label
_atom_site_fract_x
_atom_site_fract_y
_atom_site_fract_z
Si Si1 0.000000 0.810446 0.810446
Si Si2 0.570917 0.410491 0.867172
Si Si3 0.744302 0.661067 0.684768
Si Si4 0.570917 0.867172 0.589509
Si Si5 0.702694 0.726003 0.024630
Si Si6 0.244302 0.184768 0.838933
Si Si7 0.297306 0.975370 0.273997
O O1 0.114365 0.863117 0.841889
O O2 0.009678 0.700873 0.836168
O O3 0.990322 0.836168 0.700873
O O4 0.885635 0.841889 0.863117
O O5 0.500000 0.500000 0.898036
O O6 0.608554 0.353237 0.959094
O O7 0.676266 0.453048 0.814296
O O8 0.813635 0.683911 0.591261
O O9 0.750000 0.754721 0.745279
O O10 0.806552 0.580767 0.741000
O O11 0.500000 0.898035 0.500000
O O12 0.676266 0.814296 0.546952
O O13 0.608554 0.959094 0.646763
O O14 0.693448 0.759001 0.919233
O O15 0.313635 0.091261 0.816089
#
# Coordination Sequence:
#
# PCOD8163310 Si02
#       7
#     8   8   8   8   8   8   8
#     4  10  18  34  64  87 123 176 210 264 342 402
#     4  10  18  36  63  89 128 172 228 277 335 412
#     4  11  21  38  65  91 133 175 220 282 338 411
#     4  10  18  36  63  89 128 172 228 277 335 412
#     4  10  21  36  63  96 130 176 223 282 349 401
#     4  11  21  38  65  91 133 175 220 282 338 411
#     4  10  21  36  63  96 130 176 223 282 349 401
#
# _framework density 22.635316
#
# number of rings (size 3 to 8) (size 9 to 14) (size 15 to 20)
#    0.000    1.714    8.571    0.000    0.000    0.571 
#    0.000    4.286   12.571    2.143    0.000    2.000 
#    0.000    0.000    0.000    0.000    0.000    0.000 
#
# Total GULP energy -346972.596244 kJ/mol
# GULP energy per Si atom -12391.878437 kJ/mol
# Density = 2.258380 g / cm^3
# Si number density = 22.635316 Si / 1000 Ang^3
#
#
#
# Elastic Constant Matrix: (Units=GPa)
#
#
# Indices 1 2 3 4 5 6 
#
# 1 80.8774 41.5398 41.5398 0.0000 0.0000 0.0000
# 2 41.5398 92.3825 35.6073 0.0000 0.0000 0.0000
# 3 41.5398 35.6073 92.3825 0.0000 0.0000 0.0000
# 4 0.0000 0.0000 0.0000 29.9637 0.0000 0.0000
# 5 0.0000 0.0000 0.0000 0.0000 27.5646 0.0000
# 6 0.0000 0.0000 0.0000 0.0000 0.0000 27.5646
#
#
#
# Elastic Compliance Matrix: (Units=1/GPa)
#
#
# Indices 1 2 3 4 5 6 
#
# 1 0.018548 -0.006020 -0.006020 0.000000 0.000000 0.000000
# 2 -0.006020 0.014667 -0.002946 0.000000 0.000000 0.000000
# 3 -0.006020 -0.002946 0.014667 0.000000 0.000000 0.000000
# 4 0.000000 0.000000 0.000000 0.033374 0.000000 0.000000
# 5 0.000000 0.000000 0.000000 0.000000 0.036278 0.000000
# 6 0.000000 0.000000 0.000000 0.000000 0.000000 0.036278
#
#
# Mechanical properties :
#
#
# Convention : Reuss Voigt Hill
#
# Bulk Modulus (GPa) = 55.83484 55.89068 55.86276
# Shear Modulus (GPa) = 26.34973 26.81560 26.58267
#
# Velocity S-wave (km/s) = 3.41559 3.44565 3.43065
# Velocity P-wave (km/s) = 6.34631 6.36988 6.35811
#
# Compressibility (1/GPa) = 0.01790996
#
# Stress axis : x y z
#
# Youngs Moduli (GPa) = 53.91340 68.18009 68.18015
#
# Poissons Ratio (x) = 0.41044 0.41044
# Poissons Ratio (y) = 0.32456 0.20088
# Poissons Ratio (z) = 0.32456 0.20088
#
# Static dielectric constant tensor:
#      x y z
#    x 4.278480 0.000000 0.000000 
#    y 0.000000 4.008070 0.000000 
#    z 0.000000 0.000000 4.008070 
# 
# 
# High freq. dielectric constant tensor:
#      x y z
#    x 1.892590 0.000000 0.000000 
#    y 0.000000 1.877400 0.000000 
#    z 0.000000 0.000000 1.877400 
# 
# From -- ./inp_files/20901.got.cif
#   From: 2010.03.12/outbox.cif.g09.slc.cpg/sg23_11_cif.got.tgz:20901.got - 2010.04.14 02:50:06.
