data_PCOD8163652
_publ_section_title
;
Structure prediction by ZEFSAII (Michael W. Deem and Ramdas Pophale) SiO2 
 PCOD8163652
Probable space group: I 2 2 2
;
_chemical_formula_sum "Si O2"
_cell_formula_units_Z 56
_cell_length_a 14.533320
_cell_length_b 11.568108
_cell_length_c 15.729969
_cell_angle_alpha 90.000000
_cell_angle_beta 90.000000
_cell_angle_gamma 90.000000
_cell_volume 2644.569820
_symmetry_space_group_name_H-M "I 2 2 2"
_symmetry_group_IT_number 23
_symmetry_cell_setting 'orthorhombic'
loop_
_space_group_symop_operation_xyz
x,y,z
-x,-y,z
x,-y,-z
-x,y,-z
1/2+x,1/2+y,1/2+z
1/2-x,1/2-y,1/2+z
1/2+x,1/2-y,1/2-z
1/2-x,1/2+y,1/2-z
loop_
_atom_site_type_symbol
_atom_site_label
_atom_site_fract_x
_atom_site_fract_y
_atom_site_fract_z
Si Si1 0.207150 0.447371 0.910846
Si Si2 0.262191 0.591089 0.571809
Si Si3 0.649863 0.972722 0.766006
Si Si4 0.037746 0.130152 0.615227
Si Si5 0.016684 0.311957 0.745932
Si Si6 0.859086 0.796988 0.462653
Si Si7 0.433253 0.245542 0.423118
O O1 0.195921 0.531571 0.828888
O O2 0.294272 0.363474 0.894297
O O3 0.114507 0.378555 0.933926
O O4 0.235731 0.500000 0.000000
O O5 0.287508 0.500000 0.500000
O O6 0.226366 0.533574 0.659987
O O7 0.184129 0.670158 0.527188
O O8 0.356302 0.657529 0.592184
O O9 0.581778 0.864357 0.781564
O O10 0.596165 0.093833 0.769899
O O11 0.128605 0.138153 0.555202
O O12 0.053770 0.193224 0.703982
O O13 0.959958 0.213053 0.575691
O O14 0.000000 0.000000 0.623266
O O15 0.002132 0.270926 0.841976
O O16 0.500000 0.278143 0.500000
#
# Coordination Sequence:
#
# PCOD8163652 Si02
#       7
#     8   8   8   8   8   8   8
#     4  10  20  37  65  91 122 162 213 271 318 366
#     4  11  23  42  63  91 132 172 218 261 320 392
#     4  10  21  40  67  97 125 165 219 274 323 383
#     4  11  21  37  61  93 131 163 204 257 328 392
#     4  10  21  41  65  95 127 163 218 272 331 378
#     4  10  21  38  58  92 128 161 208 255 320 389
#     4  10  23  42  60  89 128 171 217 261 314 389
#
# _framework density 21.175466
#
# number of rings (size 3 to 8) (size 9 to 14) (size 15 to 20)
#    0.000    1.714    1.429    3.429    0.000    4.000 
#    5.143    2.857    0.000    0.000    0.000    0.000 
#    0.000    0.000    0.000    0.000    0.000    0.000 
#
# Total GULP energy -346909.894431 kJ/mol
# GULP energy per Si atom -12389.639087 kJ/mol
# Density = 2.112727 g / cm^3
# Si number density = 21.175466 Si / 1000 Ang^3
#
#
#
# Elastic Constant Matrix: (Units=GPa)
#
#
# Indices 1 2 3 4 5 6 
#
# 1 75.5819 12.7984 35.6094 0.0000 0.0000 0.0000
# 2 12.7984 88.0806 36.7505 0.0000 0.0000 0.0000
# 3 35.6094 36.7505 126.9085 0.0000 0.0000 0.0000
# 4 0.0000 0.0000 0.0000 37.8012 0.0000 0.0000
# 5 0.0000 0.0000 0.0000 0.0000 32.8535 0.0000
# 6 0.0000 0.0000 0.0000 0.0000 0.0000 18.0862
#
#
#
# Elastic Compliance Matrix: (Units=1/GPa)
#
#
# Indices 1 2 3 4 5 6 
#
# 1 0.015265 -0.000490 -0.004141 0.000000 0.000000 0.000000
# 2 -0.000490 0.012929 -0.003607 0.000000 0.000000 0.000000
# 3 -0.004141 -0.003607 0.010086 0.000000 0.000000 0.000000
# 4 0.000000 0.000000 0.000000 0.026454 0.000000 0.000000
# 5 0.000000 0.000000 0.000000 0.000000 0.030438 0.000000
# 6 0.000000 0.000000 0.000000 0.000000 0.000000 0.055291
#
#
# Mechanical properties :
#
#
# Convention : Reuss Voigt Hill
#
# Bulk Modulus (GPa) = 45.86264 51.20974 48.53619
# Shear Modulus (GPa) = 28.70147 31.44236 30.07191
#
# Velocity S-wave (km/s) = 3.68559 3.85755 3.77255
# Velocity P-wave (km/s) = 6.31005 6.63905 6.47664
#
# Compressibility (1/GPa) = 0.02180424
#
# Stress axis : x y z
#
# Youngs Moduli (GPa) = 65.51037 77.34404 99.14663
#
# Poissons Ratio (x) = 0.03791 0.41059
# Poissons Ratio (y) = 0.03211 0.35758
# Poissons Ratio (z) = 0.27129 0.27895
#
# Static dielectric constant tensor:
#      x y z
#    x 3.794360 0.000000 0.000000 
#    y 0.000000 3.787550 0.000000 
#    z 0.000000 0.000000 3.937980 
# 
# 
# High freq. dielectric constant tensor:
#      x y z
#    x 1.831250 0.000000 0.000000 
#    y 0.000000 1.822280 0.000000 
#    z 0.000000 0.000000 1.829360 
# 
# From -- ./inp_files/21600.got.cif
#   From: 2010.03.12/outbox.cif.g09.slc.cpg/sg23_11_cif.got.tgz:21600.got - 2010.04.14 02:50:06.
