data_PCOD8163822
_publ_section_title
;
Structure prediction by ZEFSAII (Michael W. Deem and Ramdas Pophale) SiO2 
 PCOD8163822
Probable space group: I 2 2 2
;
_chemical_formula_sum "Si O2"
_cell_formula_units_Z 56
_cell_length_a 13.666701
_cell_length_b 20.749406
_cell_length_c 8.414596
_cell_angle_alpha 90.000000
_cell_angle_beta 90.000000
_cell_angle_gamma 90.000000
_cell_volume 2386.176867
_symmetry_space_group_name_H-M "I 2 2 2"
_symmetry_group_IT_number 23
_symmetry_cell_setting 'orthorhombic'
loop_
_space_group_symop_operation_xyz
x,y,z
-x,-y,z
x,-y,-z
-x,y,-z
1/2+x,1/2+y,1/2+z
1/2-x,1/2-y,1/2+z
1/2+x,1/2-y,1/2-z
1/2-x,1/2+y,1/2-z
loop_
_atom_site_type_symbol
_atom_site_label
_atom_site_fract_x
_atom_site_fract_y
_atom_site_fract_z
Si Si1 0.859286 0.151361 0.366288
Si Si2 0.455021 0.788092 0.338952
Si Si3 0.637799 0.201323 0.863571
Si Si4 0.957749 0.137877 0.834404
Si Si5 0.763390 0.114673 0.684111
Si Si6 0.188434 0.372529 0.325537
Si Si7 0.385743 0.997571 0.687740
O O1 0.850826 0.225455 0.422298
O O2 0.970182 0.130879 0.319786
O O3 0.806877 0.109725 0.504963
O O4 0.804212 0.138394 0.198894
O O5 0.500000 0.816234 0.500000
O O6 0.526770 0.805666 0.194520
O O7 0.432720 0.712994 0.355922
O O8 0.356594 0.827168 0.311695
O O9 0.715366 0.184891 0.722256
O O10 0.655858 0.149590 0.001531
O O11 0.857044 0.100916 0.797133
O O12 0.000000 0.109932 0.000000
O O13 0.676081 0.065975 0.731792
O O14 0.162051 0.445876 0.290082
O O15 0.500000 0.000000 0.736025
O O16 0.374014 0.000000 0.500000
#
# Coordination Sequence:
#
# PCOD8163822 Si02
#       7
#     8   8   8   8   8   8   8
#     4  11  22  39  66 101 136 179 226 281 355 429
#     4  10  21  37  64 101 140 181 222 281 359 432
#     4  11  23  37  63 103 138 174 225 289 356 418
#     4  10  22  41  66 102 142 176 224 290 358 427
#     4  12  23  43  67  95 137 186 231 284 350 418
#     4  12  23  40  65  95 135 176 227 282 344 412
#     4  11  26  47  70  97 130 178 236 286 337 417
#
# _framework density 23.468501
#
# number of rings (size 3 to 8) (size 9 to 14) (size 15 to 20)
#    0.000    1.000    1.429    6.000    2.000    5.143 
#    0.000    1.429    0.000    0.857    0.000    0.000 
#    0.000    0.000    0.000    0.000    0.000    0.000 
#
# Total GULP energy -347083.179665 kJ/mol
# GULP energy per Si atom -12395.827845 kJ/mol
# Density = 2.341509 g / cm^3
# Si number density = 23.468501 Si / 1000 Ang^3
#
#
#
# Elastic Constant Matrix: (Units=GPa)
#
#
# Indices 1 2 3 4 5 6 
#
# 1 129.4224 48.3508 11.7774 0.0000 0.0000 0.0000
# 2 48.3508 72.8826 29.8344 0.0000 0.0000 0.0000
# 3 11.7774 29.8344 84.5746 0.0000 -0.0003 -0.0001
# 4 0.0000 0.0000 0.0000 22.3893 0.0000 0.0000
# 5 0.0000 0.0000 -0.0003 0.0000 37.4202 0.0000
# 6 0.0000 0.0000 -0.0001 0.0000 0.0000 31.6183
#
#
#
# Elastic Compliance Matrix: (Units=1/GPa)
#
#
# Indices 1 2 3 4 5 6 
#
# 1 0.010367 -0.007348 0.001148 0.000000 0.000000 0.000000
# 2 -0.007348 0.021244 -0.006471 0.000000 0.000000 0.000000
# 3 0.001148 -0.006471 0.013947 0.000000 0.000000 0.000000
# 4 0.000000 0.000000 0.000000 0.044664 0.000000 0.000000
# 5 0.000000 0.000000 0.000000 0.000000 0.026724 0.000000
# 6 0.000000 0.000000 0.000000 0.000000 0.000000 0.031627
#
#
# Mechanical properties :
#
#
# Convention : Reuss Voigt Hill
#
# Bulk Modulus (GPa) = 49.46244 51.86721 50.66482
# Shear Modulus (GPa) = 27.67745 31.41335 29.54540
#
# Velocity S-wave (km/s) = 3.43788 3.66256 3.55200
# Velocity P-wave (km/s) = 6.07294 6.32729 6.20142
#
# Compressibility (1/GPa) = 0.02021736
#
# Stress axis : x y z
#
# Youngs Moduli (GPa) = 96.45837 47.07205 71.70198
#
# Poissons Ratio (x) = 0.34587 -0.08234
# Poissons Ratio (y) = 0.70875 0.46397
# Poissons Ratio (z) = -0.11076 0.30459
#
# Static dielectric constant tensor:
#      x y z
#    x 4.517400 0.000000 0.000000 
#    y 0.000000 3.828060 0.000000 
#    z 0.000000 0.000000 4.165770 
# 
# 
# High freq. dielectric constant tensor:
#      x y z
#    x 1.950870 0.000000 0.000000 
#    y 0.000000 1.889450 0.000000 
#    z 0.000000 0.000000 1.934870 
# 
# From -- ./inp_files/10223.got.cif
#   From: 2010.03.12/outbox.cif.g09.slc.cpg/sg23_6_cif.got.tgz:10223.got - 2010.04.14 02:50:06.
