data_PCOD8163615
_publ_section_title
;
Structure prediction by ZEFSAII (Michael W. Deem and Ramdas Pophale) SiO2 
 PCOD8163615
Probable space group: I 2 2 2
;
_chemical_formula_sum "Si O2"
_cell_formula_units_Z 64
_cell_length_a 8.972244
_cell_length_b 11.959008
_cell_length_c 30.116123
_cell_angle_alpha 90.000000
_cell_angle_beta 90.000000
_cell_angle_gamma 90.000000
_cell_volume 3231.434031
_symmetry_space_group_name_H-M "I 2 2 2"
_symmetry_group_IT_number 23
_symmetry_cell_setting 'orthorhombic'
loop_
_space_group_symop_operation_xyz
x,y,z
-x,-y,z
x,-y,-z
-x,y,-z
1/2+x,1/2+y,1/2+z
1/2-x,1/2-y,1/2+z
1/2+x,1/2-y,1/2-z
1/2-x,1/2+y,1/2-z
loop_
_atom_site_type_symbol
_atom_site_label
_atom_site_fract_x
_atom_site_fract_y
_atom_site_fract_z
Si Si1 0.813059 0.765463 0.955122
Si Si2 0.160610 0.137867 0.377970
Si Si3 0.660809 0.260661 0.444725
Si Si4 0.831438 0.996367 0.823484
Si Si5 0.333362 0.504317 0.574458
Si Si6 0.164885 0.285920 0.293846
Si Si7 0.686274 0.384042 0.871615
Si Si8 0.313648 0.780951 0.794947
O O1 0.722938 0.680653 0.924591
O O2 0.750234 0.893647 0.951023
O O3 0.983621 0.766471 0.938986
O O4 0.794578 0.724167 0.005568
O O5 0.210165 0.217600 0.337754
O O6 0.984386 0.136674 0.383487
O O7 0.224516 0.014776 0.367871
O O8 0.737164 0.381613 0.433803
O O9 0.716781 0.167788 0.410890
O O10 0.833007 0.959298 0.874371
O O11 0.737202 0.908328 0.795087
O O12 0.752060 0.115257 0.821691
O O13 0.000000 0.000000 0.804393
O O14 0.500000 0.500000 0.555032
O O15 0.231999 0.221813 0.251993
O O16 0.988846 0.296646 0.287897
O O17 0.723166 0.328975 0.823969
#
# Coordination Sequence:
#
# PCOD8163615 Si02
#       8
#     8   8   8   8   8   8   8   8
#     4  10  20  36  60  89 118 151 195 245 295 350
#     4  10  23  42  60  81 116 159 198 242 295 352
#     4  10  20  36  60  89 118 151 195 245 295 350
#     4  11  21  38  65  91 122 160 197 242 301 360
#     4   9  17  33  58  87 119 153 189 236 294 350
#     4  11  24  41  63  91 121 156 202 251 302 358
#     4  10  23  42  60  81 116 159 198 242 295 352
#     4  11  24  41  63  91 121 156 202 251 302 358
#
# _framework density 19.805448999999999
#
# number of rings (size 3 to 8) (size 9 to 14) (size 15 to 20)
#    0.000    1.750    2.500    1.500    1.750    4.000 
#    0.000    3.125    0.000    1.500    0.000    0.000 
#    0.000    0.000    0.000    0.000    0.000    0.000 
#
# Total GULP energy -396861.651170 kJ/mol
# GULP energy per Si atom -12401.926599 kJ/mol
# Density = 1.976037 g / cm^3
# Si number density = 19.805449 Si / 1000 Ang^3
#
#
#
# Elastic Constant Matrix: (Units=GPa)
#
#
# Indices 1 2 3 4 5 6 
#
# 1 68.3961 36.7854 37.0569 0.0000 0.0000 0.0000
# 2 36.7854 105.3752 20.0212 0.0000 0.0000 0.0000
# 3 37.0569 20.0212 88.9218 0.0000 0.0000 0.0000
# 4 0.0000 0.0000 0.0000 28.4317 0.0000 0.0000
# 5 0.0000 0.0000 0.0000 0.0000 73.3132 0.0000
# 6 0.0000 0.0000 0.0000 0.0000 0.0000 29.4985
#
#
#
# Elastic Compliance Matrix: (Units=1/GPa)
#
#
# Indices 1 2 3 4 5 6 
#
# 1 0.022255 -0.006275 -0.007862 0.000000 0.000000 0.000000
# 2 -0.006275 0.011683 -0.000015 0.000000 0.000000 0.000000
# 3 -0.007862 -0.000015 0.014526 0.000000 0.000000 0.000000
# 4 0.000000 0.000000 0.000000 0.035172 0.000000 0.000000
# 5 0.000000 0.000000 0.000000 0.000000 0.013640 0.000000
# 6 0.000000 0.000000 0.000000 0.000000 0.000000 0.033900
#
#
# Mechanical properties :
#
#
# Convention : Reuss Voigt Hill
#
# Bulk Modulus (GPa) = 49.60460 50.04667 49.82564
# Shear Modulus (GPa) = 30.08406 37.50398 33.79402
#
# Velocity S-wave (km/s) = 3.90164 4.35629 4.13522
# Velocity P-wave (km/s) = 6.73775 7.11527 6.92908
#
# Compressibility (1/GPa) = 0.02015942
#
# Stress axis : x y z
#
# Youngs Moduli (GPa) = 44.93334 85.59080 68.84440
#
# Poissons Ratio (x) = 0.53711 0.54123
# Poissons Ratio (y) = 0.28197 0.00106
# Poissons Ratio (z) = 0.35325 0.00132
#
# Static dielectric constant tensor:
#      x y z
#    x 3.432330 0.000000 0.000000 
#    y 0.000000 3.675160 0.000000 
#    z 0.000000 0.000000 3.546840 
# 
# 
# High freq. dielectric constant tensor:
#      x y z
#    x 1.753110 0.000000 0.000000 
#    y 0.000000 1.780310 0.000000 
#    z 0.000000 0.000000 1.779020 
# 
# From -- ./inp_files/18810.got.cif
#   From: 2010.03.12/outbox.cif.g09.slc.cpg/sg23_10_cif.got.tgz:18810.got - 2010.04.14 02:50:06.
