data_PCOD8163461
_publ_section_title
;
Structure prediction by ZEFSAII (Michael W. Deem and Ramdas Pophale) SiO2 
 PCOD8163461
Probable space group: I 2 2 2
;
_chemical_formula_sum "Si O2"
_cell_formula_units_Z 40
_cell_length_a 5.077414
_cell_length_b 12.072779
_cell_length_c 29.219271
_cell_angle_alpha 90.000000
_cell_angle_beta 90.000000
_cell_angle_gamma 90.000000
_cell_volume 1791.097399
_symmetry_space_group_name_H-M "I 2 2 2"
_symmetry_group_IT_number 23
_symmetry_cell_setting 'orthorhombic'
loop_
_space_group_symop_operation_xyz
x,y,z
-x,-y,z
x,-y,-z
-x,y,-z
1/2+x,1/2+y,1/2+z
1/2-x,1/2-y,1/2+z
1/2+x,1/2-y,1/2-z
1/2-x,1/2+y,1/2-z
loop_
_atom_site_type_symbol
_atom_site_label
_atom_site_fract_x
_atom_site_fract_y
_atom_site_fract_z
Si Si1 0.756366 0.051359 0.551102
Si Si2 0.556168 0.751551 0.309983
Si Si3 0.444090 0.626590 0.780342
Si Si4 0.068027 0.879227 0.898893
Si Si5 0.405264 0.192256 0.949859
O O1 0.800288 0.181772 0.552262
O O2 0.500000 0.000000 0.576233
O O3 0.753242 0.000000 0.500000
O O4 0.000000 0.000000 0.578899
O O5 0.524756 0.651968 0.273636
O O6 0.849748 0.800087 0.309034
O O7 0.507674 0.709762 0.360857
O O8 0.348663 0.847228 0.297564
O O9 0.500000 0.500000 0.789459
O O10 0.364930 0.848365 0.914988
O O11 0.861509 0.874403 0.940763
O O12 0.000000 0.000000 0.877932
O O13 0.500000 0.162263 0.000000
#
# Coordination Sequence:
#
# PCOD8163461 Si02
#       5
#     8   8   8   8   8
#     4  10  19  36  65  89 115 154 204 269 312 395
#     4  10  22  41  65  98 131 173 212 255 322 396
#     4  10  20  39  71  97 132 168 210 259 313 392
#     4  12  27  45  65  92 134 171 219 280 332 385
#     4  12  25  43  68  94 125 169 230 277 316 394
#
# _framework density 22.332678999999999
#
# number of rings (size 3 to 8) (size 9 to 14) (size 15 to 20)
#    0.000    1.200    2.000    4.800    2.800    2.400 
#    0.000   16.000    0.000    0.000    0.000    0.000 
#    0.000    0.000    0.000    0.000    0.000    0.000 
#
# Total GULP energy -247815.591876 kJ/mol
# GULP energy per Si atom -12390.779594 kJ/mol
# Density = 2.228185 g / cm^3
# Si number density = 22.332679 Si / 1000 Ang^3
#
#
#
# Elastic Constant Matrix: (Units=GPa)
#
#
# Indices 1 2 3 4 5 6 
#
# 1 135.1134 10.2791 3.8370 0.0000 0.0000 0.0000
# 2 10.2791 92.4424 12.9982 0.0000 0.0000 0.0000
# 3 3.8370 12.9982 60.4879 0.0000 0.0000 0.0000
# 4 0.0000 0.0000 0.0000 20.5631 0.0000 0.0000
# 5 0.0000 0.0000 0.0000 0.0000 23.4401 0.0000
# 6 0.0000 0.0000 0.0000 0.0000 0.0000 61.5035
#
#
#
# Elastic Compliance Matrix: (Units=1/GPa)
#
#
# Indices 1 2 3 4 5 6 
#
# 1 0.007470 -0.000788 -0.000305 0.000000 0.000000 0.000000
# 2 -0.000788 0.011238 -0.002365 0.000000 0.000000 0.000000
# 3 -0.000305 -0.002365 0.017060 0.000000 0.000000 0.000000
# 4 0.000000 0.000000 0.000000 0.048631 0.000000 0.000000
# 5 0.000000 0.000000 0.000000 0.000000 0.042662 0.000000
# 6 0.000000 0.000000 0.000000 0.000000 0.000000 0.016259
#
#
# Mechanical properties :
#
#
# Convention : Reuss Voigt Hill
#
# Bulk Modulus (GPa) = 34.65874 38.03027 36.34450
# Shear Modulus (GPa) = 31.27910 38.49664 34.88787
#
# Velocity S-wave (km/s) = 3.74652 4.15635 3.95674
# Velocity P-wave (km/s) = 5.85390 6.33242 6.09786
#
# Compressibility (1/GPa) = 0.02885275
#
# Stress axis : x y z
#
# Youngs Moduli (GPa) = 133.87294 88.98644 58.61750
#
# Poissons Ratio (x) = 0.07010 0.01785
# Poissons Ratio (y) = 0.10546 0.13862
# Poissons Ratio (z) = 0.04077 0.21044
#
# Static dielectric constant tensor:
#      x y z
#    x 3.631590 0.000000 0.000000 
#    y 0.000000 4.083820 0.000000 
#    z 0.000000 0.000000 3.628910 
# 
# 
# High freq. dielectric constant tensor:
#      x y z
#    x 1.909290 0.000000 0.000000 
#    y 0.000000 1.883070 0.000000 
#    z 0.000000 0.000000 1.857040 
# 
# From -- ./inp_files/28855.got.cif
#   From: 2010.03.12/outbox.cif.g09.slc.cpg/sg23_15_cif.got.tgz:28855.got - 2010.04.14 02:50:06.
