data_PCOD8163424
_publ_section_title
;
Structure prediction by ZEFSAII (Michael W. Deem and Ramdas Pophale) SiO2 
 PCOD8163424
Probable space group: I 2 2 2
;
_chemical_formula_sum "Si O2"
_cell_formula_units_Z 64
_cell_length_a 5.195241
_cell_length_b 31.028471
_cell_length_c 19.610441
_cell_angle_alpha 90.000000
_cell_angle_beta 90.000000
_cell_angle_gamma 90.000000
_cell_volume 3161.210633
_symmetry_space_group_name_H-M "I 2 2 2"
_symmetry_group_IT_number 23
_symmetry_cell_setting 'orthorhombic'
loop_
_space_group_symop_operation_xyz
x,y,z
-x,-y,z
x,-y,-z
-x,y,-z
1/2+x,1/2+y,1/2+z
1/2-x,1/2-y,1/2+z
1/2+x,1/2-y,1/2-z
1/2-x,1/2+y,1/2-z
loop_
_atom_site_type_symbol
_atom_site_label
_atom_site_fract_x
_atom_site_fract_y
_atom_site_fract_z
Si Si1 0.865875 0.592062 0.662000
Si Si2 0.129632 0.867110 0.193599
Si Si3 0.082162 0.548169 0.192826
Si Si4 0.415500 0.588410 0.834365
Si Si5 0.908839 0.231162 0.214747
Si Si6 0.753609 0.451419 0.470461
Si Si7 0.019195 0.725019 0.922291
Si Si8 0.520415 0.670598 0.923397
O O1 0.639895 0.627751 0.653706
O O2 0.887667 0.573060 0.736710
O O3 0.789163 0.552590 0.611070
O O4 0.131199 0.617741 0.645916
O O5 0.112564 0.900353 0.255478
O O6 0.164105 0.818863 0.222107
O O7 0.355743 0.553328 0.154302
O O8 0.000000 0.500000 0.209170
O O9 0.859505 0.568351 0.144217
O O10 0.479006 0.630803 0.875183
O O11 0.663154 0.258494 0.240710
O O12 0.965469 0.238864 0.134504
O O13 0.752845 0.500000 0.500000
O O14 0.500000 0.428130 0.500000
O O15 0.000000 0.426233 0.500000
O O16 0.806872 0.688103 0.910823
O O17 0.304807 0.706796 0.908681
O O18 0.000000 0.743628 0.000000
O O19 0.500000 0.653538 0.000000
#
# Coordination Sequence:
#
# PCOD8163424 Si02
#       8
#     8   8   8   8   8   8   8   8
#     4  10  21  38  55  78 111 144 191 237 293 346
#     4  10  21  36  56  82 113 151 186 235 294 349
#     4  10  21  34  55  80 106 147 180 228 280 334
#     4  10  19  35  54  81 113 140 183 231 280 335
#     4  12  23  37  61  91 121 157 201 245 296 351
#     4  10  21  36  55  82 105 141 189 252 299 336
#     4  10  21  37  57  87 117 151 196 239 287 344
#     4  10  20  36  61  86 114 147 185 233 284 340
#
# _framework density 20.245407
#
# number of rings (size 3 to 8) (size 9 to 14) (size 15 to 20)
#    0.000    1.750    0.000    4.875    1.750    2.000 
#    4.500    1.875    0.000    2.250    0.000    0.000 
#    0.000    0.000    0.000    0.000    0.000    0.000 
#
# Total GULP energy -396544.355633 kJ/mol
# GULP energy per Si atom -12392.011114 kJ/mol
# Density = 2.019933 g / cm^3
# Si number density = 20.245407 Si / 1000 Ang^3
#
#
#
# Elastic Constant Matrix: (Units=GPa)
#
#
# Indices 1 2 3 4 5 6 
#
# 1 155.6363 27.4742 31.7481 0.0000 0.0000 0.0000
# 2 27.4742 64.3244 7.8909 0.0000 0.0000 0.0000
# 3 31.7481 7.8909 54.4956 0.0000 0.0000 0.0000
# 4 0.0000 0.0000 0.0000 26.7768 0.0000 0.0000
# 5 0.0000 0.0000 0.0000 0.0000 17.0072 0.0000
# 6 0.0000 0.0000 0.0000 0.0000 0.0000 21.8158
#
#
#
# Elastic Compliance Matrix: (Units=1/GPa)
#
#
# Indices 1 2 3 4 5 6 
#
# 1 0.007761 -0.002810 -0.004114 0.000000 0.000000 0.000000
# 2 -0.002810 0.016845 -0.000802 0.000000 0.000000 0.000000
# 3 -0.004114 -0.000802 0.020863 0.000000 0.000000 0.000000
# 4 0.000000 0.000000 0.000000 0.037346 0.000000 0.000000
# 5 0.000000 0.000000 0.000000 0.000000 0.058799 0.000000
# 6 0.000000 0.000000 0.000000 0.000000 0.000000 0.045838
#
#
# Mechanical properties :
#
#
# Convention : Reuss Voigt Hill
#
# Bulk Modulus (GPa) = 33.31575 45.40921 39.36248
# Shear Modulus (GPa) = 23.48421 26.94283 25.21352
#
# Velocity S-wave (km/s) = 3.40954 3.65199 3.53284
# Velocity P-wave (km/s) = 5.65611 6.34514 6.01051
#
# Compressibility (1/GPa) = 0.03001583
#
# Stress axis : x y z
#
# Youngs Moduli (GPa) = 128.85702 59.36560 47.93142
#
# Poissons Ratio (x) = 0.16682 0.19720
# Poissons Ratio (y) = 0.36208 0.03844
# Poissons Ratio (z) = 0.53015 0.04762
#
# Static dielectric constant tensor:
#      x y z
#    x 5.362500 0.000000 0.000000 
#    y 0.000000 3.322280 0.000000 
#    z 0.000000 0.000000 3.638430 
# 
# 
# High freq. dielectric constant tensor:
#      x y z
#    x 1.828870 0.000000 0.000000 
#    y 0.000000 1.758940 0.000000 
#    z 0.000000 0.000000 1.768920 
# 
# From -- ./inp_files/23338.got.cif
#   From: 2010.03.12/outbox.cif.g09.slc.cpg/sg23_12_cif.got.tgz:23338.got - 2010.04.14 02:50:06.
