data_PCOD8163699
_publ_section_title
;
Structure prediction by ZEFSAII (Michael W. Deem and Ramdas Pophale) SiO2 
 PCOD8163699
Probable space group: I 2 2 2
;
_chemical_formula_sum "Si O2"
_cell_formula_units_Z 56
_cell_length_a 15.130500
_cell_length_b 10.681109
_cell_length_c 16.666158
_cell_angle_alpha 90.000000
_cell_angle_beta 90.000000
_cell_angle_gamma 90.000000
_cell_volume 2693.426456
_symmetry_space_group_name_H-M "I 2 2 2"
_symmetry_group_IT_number 23
_symmetry_cell_setting 'orthorhombic'
loop_
_space_group_symop_operation_xyz
x,y,z
-x,-y,z
x,-y,-z
-x,y,-z
1/2+x,1/2+y,1/2+z
1/2-x,1/2-y,1/2+z
1/2+x,1/2-y,1/2-z
1/2-x,1/2+y,1/2-z
loop_
_atom_site_type_symbol
_atom_site_label
_atom_site_fract_x
_atom_site_fract_y
_atom_site_fract_z
Si Si1 0.652037 0.095278 0.329416
Si Si2 0.897593 0.640209 0.492650
Si Si3 0.794748 0.327422 0.660712
Si Si4 0.476180 0.712606 0.406688
Si Si5 0.809658 0.245184 0.365415
Si Si6 0.365830 0.811195 0.693438
Si Si7 0.822739 0.037888 0.907409
O O1 0.646718 0.146729 0.238775
O O2 0.585416 0.169174 0.386575
O O3 0.755599 0.113681 0.357092
O O4 0.615165 0.954708 0.327857
O O5 0.853917 0.500000 0.500000
O O6 0.866352 0.692021 0.407967
O O7 0.872965 0.745312 0.558044
O O8 0.000000 0.622209 0.500000
O O9 0.736849 0.202478 0.667913
O O10 0.716074 0.428725 0.648135
O O11 0.500000 0.720125 0.500000
O O12 0.565886 0.720781 0.354139
O O13 0.424415 0.580762 0.389583
O O14 0.869911 0.278828 0.288250
O O15 0.733844 0.343581 0.383496
O O16 0.814159 0.000000 0.000000
#
# Coordination Sequence:
#
# PCOD8163699 Si02
#       7
#     8   8   8   8   8   8   8
#     4  10  23  40  61  85 125 163 208 252 302 384
#     4  11  21  35  63  95 121 148 200 266 314 360
#     4  11  21  39  65  90 121 164 206 256 319 376
#     4  11  26  40  60  94 129 167 206 263 313 371
#     4  10  20  39  61  89 120 160 203 256 312 367
#     4  11  23  39  61  89 122 167 208 248 312 382
#     4  11  19  39  67  91 126 156 210 263 317 373
#
# _framework density 20.791360999999998
#
# number of rings (size 3 to 8) (size 9 to 14) (size 15 to 20)
#    0.000    1.286    4.286    1.286    4.000    3.143 
#    0.000    0.000    0.000    1.714    0.000    0.000 
#    0.000    0.000    0.000    0.000    0.000    0.000 
#
# Total GULP energy -346890.081278 kJ/mol
# GULP energy per Si atom -12388.931474 kJ/mol
# Density = 2.074404 g / cm^3
# Si number density = 20.791361 Si / 1000 Ang^3
#
#
#
# Elastic Constant Matrix: (Units=GPa)
#
#
# Indices 1 2 3 4 5 6 
#
# 1 84.6161 18.8856 49.2628 0.0000 0.0000 0.0000
# 2 18.8856 14.7984 16.7149 0.0000 0.0000 0.0000
# 3 49.2628 16.7149 121.0723 0.0000 0.0000 0.0000
# 4 0.0000 0.0000 0.0000 19.1175 0.0000 0.0000
# 5 0.0000 0.0000 0.0000 0.0000 42.2520 0.0000
# 6 0.0000 0.0000 0.0000 0.0000 0.0000 29.6979
#
#
#
# Elastic Compliance Matrix: (Units=1/GPa)
#
#
# Indices 1 2 3 4 5 6 
#
# 1 0.018911 -0.018296 -0.005169 0.000000 0.000000 0.000000
# 2 -0.018296 0.097760 -0.006052 0.000000 0.000000 0.000000
# 3 -0.005169 -0.006052 0.011198 0.000000 0.000000 0.000000
# 4 0.000000 0.000000 0.000000 0.052308 0.000000 0.000000
# 5 0.000000 0.000000 0.000000 0.000000 0.023668 0.000000
# 6 0.000000 0.000000 0.000000 0.000000 0.000000 0.033672
#
#
# Mechanical properties :
#
#
# Convention : Reuss Voigt Hill
#
# Bulk Modulus (GPa) = 14.52734 43.35704 28.94219
# Shear Modulus (GPa) = 15.64969 27.25503 21.45236
#
# Velocity S-wave (km/s) = 2.74652 3.62454 3.21564
# Velocity P-wave (km/s) = 4.13040 6.19799 5.26665
#
# Compressibility (1/GPa) = 0.06883573
#
# Stress axis : x y z
#
# Youngs Moduli (GPa) = 52.88013 10.22914 89.30052
#
# Poissons Ratio (x) = 0.18715 0.46157
# Poissons Ratio (y) = 0.96748 0.54046
# Poissons Ratio (z) = 0.27332 0.06191
#
# Static dielectric constant tensor:
#      x y z
#    x 3.674030 0.000000 0.000000 
#    y 0.000000 3.841030 0.000000 
#    z 0.000000 0.000000 3.786000 
# 
# 
# High freq. dielectric constant tensor:
#      x y z
#    x 1.823390 0.000000 0.000000 
#    y 0.000000 1.794410 0.000000 
#    z 0.000000 0.000000 1.816850 
# 
# From -- ./inp_files/16785.got.cif
#   From: 2010.03.12/outbox.cif.g09.slc.cpg/sg23_9_cif.got.tgz:16785.got - 2010.04.14 02:50:06.
