data_PCOD8163361
_publ_section_title
;
Structure prediction by ZEFSAII (Michael W. Deem and Ramdas Pophale) SiO2 
 PCOD8163361
Probable space group: I 2 2 2
;
_chemical_formula_sum "Si O2"
_cell_formula_units_Z 64
_cell_length_a 19.434595
_cell_length_b 8.296003
_cell_length_c 20.960717
_cell_angle_alpha 90.000000
_cell_angle_beta 90.000000
_cell_angle_gamma 90.000000
_cell_volume 3379.485050
_symmetry_space_group_name_H-M "I 2 2 2"
_symmetry_group_IT_number 23
_symmetry_cell_setting 'orthorhombic'
loop_
_space_group_symop_operation_xyz
x,y,z
-x,-y,z
x,-y,-z
-x,y,-z
1/2+x,1/2+y,1/2+z
1/2-x,1/2-y,1/2+z
1/2+x,1/2-y,1/2-z
1/2-x,1/2+y,1/2-z
loop_
_atom_site_type_symbol
_atom_site_label
_atom_site_fract_x
_atom_site_fract_y
_atom_site_fract_z
Si Si1 0.281817 0.613219 0.897244
Si Si2 0.174157 0.820270 0.676695
Si Si3 0.580134 0.969293 0.678228
Si Si4 0.342569 0.084105 0.059918
Si Si5 0.825844 0.179730 0.823305
Si Si6 0.781817 0.113219 0.102756
Si Si7 0.419866 0.969293 0.178228
Si Si8 0.157431 0.584105 0.059918
O O1 0.332646 0.487494 0.862008
O O2 0.325341 0.725668 0.946502
O O3 0.242010 0.723353 0.845499
O O4 0.227121 0.518476 0.939185
O O5 0.184626 0.864834 0.750000
O O6 0.242010 0.723353 0.654501
O O7 0.104212 0.715867 0.666152
O O8 0.604212 0.784133 0.666152
O O9 0.603111 0.019951 0.750000
O O10 0.500000 0.000000 0.669554
O O11 0.616561 0.079595 0.626206
O O12 0.272879 0.981524 0.060816
O O13 0.383439 0.079595 0.126206
O O14 0.383463 0.000000 0.000000
O O15 0.832646 0.012506 0.862009
O O16 0.825341 0.225668 0.053498
O O17 0.500000 0.000000 0.169554
O O18 0.116537 0.500000 0.000000
#
# Coordination Sequence:
#
# PCOD8163361 Si02
#       8
#     8   8   8   8   8   8   8   8
#     4   9  18  29  46  75 104 129 163 207 258 308
#     4   9  16  28  48  73 103 136 169 210 257 307
#     4   9  19  35  51  69  97 133 172 212 253 298
#     4  10  19  32  51  74 100 132 165 204 253 308
#     4   9  16  28  48  73 103 136 169 210 257 307
#     4   9  18  29  46  75 104 129 163 207 258 308
#     4   9  19  35  51  69  97 133 172 212 253 298
#     4  10  19  32  51  74 100 132 165 204 253 308
#
# _framework density 18.937797
#
# number of rings (size 3 to 8) (size 9 to 14) (size 15 to 20)
#    0.000    2.750    0.000    1.500    0.000    7.500 
#    0.000    1.250    0.000    4.500    0.000   10.500 
#    0.000    0.000    0.000    0.000    0.000    0.000 
#
# Total GULP energy -396487.746131 kJ/mol
# GULP energy per Si atom -12390.242067 kJ/mol
# Density = 1.889469 g / cm^3
# Si number density = 18.937797 Si / 1000 Ang^3
#
#
#
# Elastic Constant Matrix: (Units=GPa)
#
#
# Indices 1 2 3 4 5 6 
#
# 1 68.2569 36.2151 32.3279 0.0000 0.0000 0.0000
# 2 36.2151 110.0342 33.0244 0.0000 0.0000 0.0000
# 3 32.3279 33.0244 85.3101 0.0000 0.0000 0.0000
# 4 0.0000 0.0000 0.0000 30.4785 0.0000 0.0000
# 5 0.0000 0.0000 0.0000 0.0000 9.1450 0.0000
# 6 0.0000 0.0000 0.0000 0.0000 0.0000 15.1597
#
#
#
# Elastic Compliance Matrix: (Units=1/GPa)
#
#
# Indices 1 2 3 4 5 6 
#
# 1 0.019908 -0.004852 -0.005666 0.000000 0.000000 0.000000
# 2 -0.004852 0.011465 -0.002600 0.000000 0.000000 0.000000
# 3 -0.005666 -0.002600 0.014875 0.000000 0.000000 0.000000
# 4 0.000000 0.000000 0.000000 0.032810 0.000000 0.000000
# 5 0.000000 0.000000 0.000000 0.000000 0.109350 0.000000
# 6 0.000000 0.000000 0.000000 0.000000 0.000000 0.065964
#
#
# Mechanical properties :
#
#
# Convention : Reuss Voigt Hill
#
# Bulk Modulus (GPa) = 49.96532 51.85956 50.91244
# Shear Modulus (GPa) = 17.40467 21.75889 19.58178
#
# Velocity S-wave (km/s) = 3.03486 3.39332 3.21908
# Velocity P-wave (km/s) = 6.22268 6.54190 6.38428
#
# Compressibility (1/GPa) = 0.02001388
#
# Stress axis : x y z
#
# Youngs Moduli (GPa) = 50.23029 87.22050 67.22502
#
# Poissons Ratio (x) = 0.42318 0.38090
# Poissons Ratio (y) = 0.24371 0.17477
# Poissons Ratio (z) = 0.28460 0.22675
#
# Static dielectric constant tensor:
#      x y z
#    x 3.160770 0.000000 0.000000 
#    y 0.000000 3.726770 0.000000 
#    z 0.000000 0.000000 3.667460 
# 
# 
# High freq. dielectric constant tensor:
#      x y z
#    x 1.687130 0.000000 0.000000 
#    y 0.000000 1.736490 0.000000 
#    z 0.000000 0.000000 1.749170 
# 
# From -- ./inp_files/27184.got.cif
#   From: 2010.03.12/outbox.cif.g09.slc.cpg/sg23_14_cif.got.tgz:27184.got - 2010.04.14 02:50:06.
