data_PCOD8163870
_publ_section_title
;
Structure prediction by ZEFSAII (Michael W. Deem and Ramdas Pophale) SiO2 
 PCOD8163870
Probable space group: I 2 2 2
;
_chemical_formula_sum "Si O2"
_cell_formula_units_Z 56
_cell_length_a 21.336544
_cell_length_b 9.405859
_cell_length_c 13.415928
_cell_angle_alpha 90.000000
_cell_angle_beta 90.000000
_cell_angle_gamma 90.000000
_cell_volume 2692.422794
_symmetry_space_group_name_H-M "I 2 2 2"
_symmetry_group_IT_number 23
_symmetry_cell_setting 'orthorhombic'
loop_
_space_group_symop_operation_xyz
x,y,z
-x,-y,z
x,-y,-z
-x,y,-z
1/2+x,1/2+y,1/2+z
1/2-x,1/2-y,1/2+z
1/2+x,1/2-y,1/2-z
1/2-x,1/2+y,1/2-z
loop_
_atom_site_type_symbol
_atom_site_label
_atom_site_fract_x
_atom_site_fract_y
_atom_site_fract_z
Si Si1 0.742811 0.613519 0.713208
Si Si2 0.218922 0.184212 0.861044
Si Si3 0.994241 0.341049 0.882836
Si Si4 0.067723 0.160928 0.466478
Si Si5 0.319771 0.841963 0.980195
Si Si6 0.601775 0.668676 0.735373
Si Si7 0.413378 0.588127 0.599113
O O1 0.789410 0.669171 0.800043
O O2 0.734839 0.444035 0.715990
O O3 0.774087 0.666656 0.612705
O O4 0.676174 0.692132 0.728670
O O5 0.277639 0.213227 0.930261
O O6 0.156941 0.143710 0.923724
O O7 0.046931 0.222064 0.861267
O O8 0.000000 0.500000 0.835668
O O9 0.928857 0.285073 0.838372
O O10 0.000000 0.357074 0.000000
O O11 0.119457 0.244532 0.530345
O O12 0.076751 0.183187 0.348122
O O13 0.000000 0.219904 0.500000
O O14 0.075099 0.000000 0.500000
O O15 0.344555 0.000000 0.000000
O O16 0.583843 0.513562 0.694390
O O17 0.436861 0.500000 0.500000
#
# Coordination Sequence:
#
# PCOD8163870 Si02
#       7
#     8   8   8   8   8   8   8
#     4  10  22  38  67  93 127 164 214 267 326 397
#     4  10  21  39  63  97 126 166 213 270 324 397
#     4  11  25  42  64 100 138 171 222 284 342 401
#     4  11  27  45  65  94 133 175 228 276 314 395
#     4  10  22  43  65  92 129 165 212 267 332 387
#     4  11  23  44  66  97 133 178 226 270 337 404
#     4  11  22  40  71  97 129 177 222 267 342 408
#
# _framework density 20.799111
#
# number of rings (size 3 to 8) (size 9 to 14) (size 15 to 20)
#    0.000    1.429    2.857    2.571    8.000    1.429 
#    2.571    0.000    0.000    0.000    0.000    0.000 
#    0.000    0.000    0.000    0.000    0.000    0.000 
#
# Total GULP energy -346993.504274 kJ/mol
# GULP energy per Si atom -12392.625153 kJ/mol
# Density = 2.075177 g / cm^3
# Si number density = 20.799111 Si / 1000 Ang^3
#
#
#
# Elastic Constant Matrix: (Units=GPa)
#
#
# Indices 1 2 3 4 5 6 
#
# 1 124.6224 46.4272 28.1341 0.0000 0.0000 0.0000
# 2 46.4272 76.6529 15.6111 0.0000 0.0000 0.0000
# 3 28.1341 15.6111 73.5646 0.0000 0.0000 0.0000
# 4 0.0000 0.0000 0.0000 32.3092 0.0000 0.0000
# 5 0.0000 0.0000 0.0000 0.0000 35.5498 0.0000
# 6 0.0000 0.0000 0.0000 0.0000 0.0000 33.1184
#
#
#
# Elastic Compliance Matrix: (Units=1/GPa)
#
#
# Indices 1 2 3 4 5 6 
#
# 1 0.010924 -0.006026 -0.002899 0.000000 0.000000 0.000000
# 2 -0.006026 0.016959 -0.001294 0.000000 0.000000 0.000000
# 3 -0.002899 -0.001294 0.014977 0.000000 0.000000 0.000000
# 4 0.000000 0.000000 0.000000 0.030951 0.000000 0.000000
# 5 0.000000 0.000000 0.000000 0.000000 0.028130 0.000000
# 6 0.000000 0.000000 0.000000 0.000000 0.000000 0.030195
#
#
# Mechanical properties :
#
#
# Convention : Reuss Voigt Hill
#
# Bulk Modulus (GPa) = 44.60023 50.57607 47.58815
# Shear Modulus (GPa) = 31.24089 32.50663 31.87376
#
# Velocity S-wave (km/s) = 3.87981 3.95762 3.91891
# Velocity P-wave (km/s) = 6.44674 6.72703 6.58838
#
# Compressibility (1/GPa) = 0.02242141
#
# Stress axis : x y z
#
# Youngs Moduli (GPa) = 91.54537 58.96527 66.76987
#
# Poissons Ratio (x) = 0.35531 0.19356
# Poissons Ratio (y) = 0.55163 0.08642
# Poissons Ratio (z) = 0.26538 0.07632
#
# Static dielectric constant tensor:
#      x y z
#    x 3.903820 0.000000 0.000000 
#    y 0.000000 4.012130 0.000000 
#    z 0.000000 0.000000 3.882150 
# 
# 
# High freq. dielectric constant tensor:
#      x y z
#    x 1.821080 0.000000 0.000000 
#    y 0.000000 1.812790 0.000000 
#    z 0.000000 0.000000 1.808390 
# 
# From -- ./inp_files/22410.got.cif
#   From: 2010.03.12/outbox.cif.g09.slc.cpg/sg23_12_cif.got.tgz:22410.got - 2010.04.14 02:50:06.
