data_PCOD8163669
_publ_section_title
;
Structure prediction by ZEFSAII (Michael W. Deem and Ramdas Pophale) SiO2 
 PCOD8163669
Probable space group: I 2 2 2
;
_chemical_formula_sum "Si O2"
_cell_formula_units_Z 64
_cell_length_a 14.412212
_cell_length_b 9.286451
_cell_length_c 24.730323
_cell_angle_alpha 90.000000
_cell_angle_beta 90.000000
_cell_angle_gamma 90.000000
_cell_volume 3309.864402
_symmetry_space_group_name_H-M "I 2 2 2"
_symmetry_group_IT_number 23
_symmetry_cell_setting 'orthorhombic'
loop_
_space_group_symop_operation_xyz
x,y,z
-x,-y,z
x,-y,-z
-x,y,-z
1/2+x,1/2+y,1/2+z
1/2-x,1/2-y,1/2+z
1/2+x,1/2-y,1/2-z
1/2-x,1/2+y,1/2-z
loop_
_atom_site_type_symbol
_atom_site_label
_atom_site_fract_x
_atom_site_fract_y
_atom_site_fract_z
Si Si1 0.535504 0.338780 0.056599
Si Si2 0.265725 0.662058 0.013297
Si Si3 0.004570 0.668579 0.664001
Si Si4 0.677490 0.665853 0.399096
Si Si5 0.010943 0.834146 0.940882
Si Si6 0.284973 0.336113 0.586954
Si Si7 0.294021 0.837923 0.204509
Si Si8 0.804088 0.674710 0.699661
O O1 0.500000 0.500000 0.065138
O O2 0.500452 0.243999 0.106070
O O3 0.500000 0.273189 0.000000
O O4 0.645414 0.337828 0.052133
O O5 0.276422 0.760736 0.959738
O O6 0.237159 0.500000 0.000000
O O7 0.187549 0.729418 0.050190
O O8 0.914187 0.713707 0.699203
O O9 0.000000 0.500000 0.651592
O O10 0.098968 0.710988 0.695629
O O11 0.566486 0.686732 0.393281
O O12 0.715667 0.509269 0.417322
O O13 0.730653 0.714835 0.345406
O O14 0.108571 0.783226 0.915769
O O15 0.000000 0.000000 0.954685
O O16 0.000000 0.755930 0.000000
O O17 0.239442 0.283816 0.642297
O O18 0.251677 0.766547 0.257169
O O19 0.288168 0.008034 0.212719
#
# Coordination Sequence:
#
# PCOD8163669 Si02
#       8
#     8   8   8   8   8   8   8   8
#     4  11  22  38  54  84 123 160 194 233 298 361
#     4  12  22  35  56  86 123 156 190 246 297 356
#     4  10  22  42  62  90 119 150 197 251 291 345
#     4  10  20  38  61  86 117 158 201 243 292 352
#     4   9  16  31  58  87 115 149 194 244 285 339
#     4  10  21  38  60  88 118 157 203 243 292 353
#     4  10  22  41  62  88 118 153 199 242 297 347
#     4  10  23  39  63  88 118 154 196 247 293 350
#
# _framework density 19.336137999999998
#
# number of rings (size 3 to 8) (size 9 to 14) (size 15 to 20)
#    0.000    1.750    3.750    1.125    0.000    3.250 
#    2.250    2.500    0.000    0.000    0.000    0.000 
#    0.000    0.000    0.000    0.000    0.000    0.000 
#
# Total GULP energy -396561.152653 kJ/mol
# GULP energy per Si atom -12392.536020 kJ/mol
# Density = 1.929213 g / cm^3
# Si number density = 19.336138 Si / 1000 Ang^3
#
#
#
# Elastic Constant Matrix: (Units=GPa)
#
#
# Indices 1 2 3 4 5 6 
#
# 1 139.2281 25.1136 61.4477 0.0000 0.0000 0.0000
# 2 25.1136 47.5334 38.0492 0.0000 0.0000 0.0000
# 3 61.4477 38.0492 106.2319 0.0000 0.0000 0.0000
# 4 0.0000 0.0000 0.0000 44.9924 0.0000 0.0000
# 5 0.0000 0.0000 0.0000 0.0000 -28.9776 0.0000
# 6 0.0000 0.0000 0.0000 0.0000 0.0000 19.9889
#
#
#
# Elastic Compliance Matrix: (Units=1/GPa)
#
#
# Indices 1 2 3 4 5 6 
#
# 1 0.009671 -0.000886 -0.005277 0.000000 0.000000 0.000000
# 2 -0.000886 0.029575 -0.010081 0.000000 0.000000 0.000000
# 3 -0.005277 -0.010081 0.016076 0.000000 0.000000 0.000000
# 4 0.000000 0.000000 0.000000 0.022226 0.000000 0.000000
# 5 0.000000 0.000000 0.000000 0.000000 -0.034509 0.000000
# 6 0.000000 0.000000 0.000000 0.000000 0.000000 0.050028
#
#
# Mechanical properties :
#
#
# Convention : Reuss Voigt Hill
#
# Bulk Modulus (GPa) = 43.79025 60.24605 52.01815
# Shear Modulus (GPa) = 37.54741 18.42627 27.98684
#
# Velocity S-wave (km/s) = 4.41140 3.09033 3.80858
# Velocity P-wave (km/s) = 6.97447 6.63011 6.80447
#
# Compressibility (1/GPa) = 0.02283613
#
# Stress axis : x y z
#
# Youngs Moduli (GPa) = 103.40057 33.81235 62.20355
#
# Poissons Ratio (x) = 0.02995 0.32824
# Poissons Ratio (y) = 0.09157 0.62705
# Poissons Ratio (z) = 0.54563 0.34085
#
# Static dielectric constant tensor:
#      x y z
#    x 3.889390 0.000000 0.000000 
#    y 0.000000 3.360350 0.000000 
#    z 0.000000 0.000000 3.403020 
# 
# 
# High freq. dielectric constant tensor:
#      x y z
#    x 1.771130 0.000000 0.000000 
#    y 0.000000 1.729580 0.000000 
#    z 0.000000 0.000000 1.744190 
# 
# From -- ./inp_files/28573.got.cif
#   From: 2010.03.12/outbox.cif.g09.slc.cpg/sg23_15_cif.got.tgz:28573.got - 2010.04.14 02:50:06.
