data_PCOD8163226
_publ_section_title
;
Structure prediction by ZEFSAII (Michael W. Deem and Ramdas Pophale) SiO2 
 PCOD8163226
Probable space group: I 2 2 2
;
_chemical_formula_sum "Si O2"
_cell_formula_units_Z 64
_cell_length_a 19.255688
_cell_length_b 9.401325
_cell_length_c 23.684470
_cell_angle_alpha 90.000000
_cell_angle_beta 90.000000
_cell_angle_gamma 90.000000
_cell_volume 4287.575469
_symmetry_space_group_name_H-M "I 2 2 2"
_symmetry_group_IT_number 23
_symmetry_cell_setting 'orthorhombic'
loop_
_space_group_symop_operation_xyz
x,y,z
-x,-y,z
x,-y,-z
-x,y,-z
1/2+x,1/2+y,1/2+z
1/2-x,1/2-y,1/2+z
1/2+x,1/2-y,1/2-z
1/2-x,1/2+y,1/2-z
loop_
_atom_site_type_symbol
_atom_site_label
_atom_site_fract_x
_atom_site_fract_y
_atom_site_fract_z
Si Si1 0.500000 0.831169 0.621818
Si Si2 0.850146 0.163525 0.263263
Si Si3 1.000000 0.837026 0.237009
Si Si4 0.723055 0.833847 0.332985
Si Si5 0.850146 0.163524 0.736737
Si Si6 0.140234 0.668366 0.062338
Si Si7 0.359766 0.168366 0.562338
Si Si8 0.276945 0.833846 0.332985
O O1 0.500000 0.763242 0.683224
O O2 0.432726 0.777613 0.587570
O O3 0.567275 0.777613 0.587570
O O4 0.500000 0.000000 0.629794
O O5 0.827710 0.256596 0.210289
O O6 0.803688 0.202122 0.318554
O O7 0.931619 0.192828 0.275405
O O8 0.837057 0.000001 0.246783
O O9 0.931619 0.807173 0.275405
O O10 0.000000 0.000000 0.215830
O O11 0.803687 0.797879 0.318554
O O12 0.703620 0.783903 0.396461
O O13 0.707017 0.000000 0.326487
O O14 0.827709 0.256595 0.789711
O O15 0.137743 0.500000 0.057076
O O16 0.152098 0.735301 0.000000
O O17 0.296380 0.216097 0.603539
#
# Coordination Sequence:
#
# PCOD8163226 Si02
#       8
#     8   8   8   8   8   8   8   8
#     4  10  17  26  40  58  80 105 135 162 186 224
#     4   9  17  27  40  57  79 104 129 159 196 235
#     4  10  18  27  39  57  83 110 130 153 194 240
#     4   9  16  27  42  59  76  99 132 166 196 227
#     4   9  17  27  40  57  79 104 129 159 196 235
#     4   9  16  25  39  59  80 102 131 166 197 224
#     4   9  16  25  39  59  80 102 131 166 197 224
#     4   9  16  27  42  59  76  99 132 166 196 227
#
# _framework density 14.926850999999999
#
# number of rings (size 3 to 8) (size 9 to 14) (size 15 to 20)
#    0.000    2.750    2.500    0.375    0.000    1.500 
#    0.000    0.000    0.000    3.750    0.000    0.875 
#    0.000    7.000    0.000    0.000    0.000   23.750 
#
# Total GULP energy -396510.236037 kJ/mol
# GULP energy per Si atom -12390.944876 kJ/mol
# Density = 1.489288 g / cm^3
# Si number density = 14.926851 Si / 1000 Ang^3
#
#
#
# Elastic Constant Matrix: (Units=GPa)
#
#
# Indices 1 2 3 4 5 6 
#
# 1 140.0386 21.3743 77.2135 0.0000 0.0000 0.0000
# 2 21.3743 19.9034 16.3384 0.0000 0.0000 0.0000
# 3 77.2135 16.3384 104.8930 0.0000 0.0000 0.0000
# 4 0.0000 0.0000 0.0000 13.2258 0.0000 0.0000
# 5 0.0000 0.0000 0.0000 0.0000 23.5981 0.0000
# 6 0.0000 0.0000 0.0000 0.0000 0.0000 13.0640
#
#
#
# Elastic Compliance Matrix: (Units=1/GPa)
#
#
# Indices 1 2 3 4 5 6 
#
# 1 0.012793 -0.006889 -0.008344 0.000000 0.000000 0.000000
# 2 -0.006889 0.061318 -0.004480 0.000000 0.000000 0.000000
# 3 -0.008344 -0.004480 0.016374 0.000000 0.000000 0.000000
# 4 0.000000 0.000000 0.000000 0.075610 0.000000 0.000000
# 5 0.000000 0.000000 0.000000 0.000000 0.042376 0.000000
# 6 0.000000 0.000000 0.000000 0.000000 0.000000 0.076546
#
#
# Mechanical properties :
#
#
# Convention : Reuss Voigt Hill
#
# Bulk Modulus (GPa) = 19.58525 54.96527 37.27526
# Shear Modulus (GPa) = 14.64286 19.97151 17.30719
#
# Velocity S-wave (km/s) = 3.13545 3.66178 3.40879
# Velocity P-wave (km/s) = 5.12419 7.40143 6.36548
#
# Compressibility (1/GPa) = 0.05105883
#
# Stress axis : x y z
#
# Youngs Moduli (GPa) = 78.16701 16.30832 61.07374
#
# Poissons Ratio (x) = 0.11235 0.50961
# Poissons Ratio (y) = 0.53849 0.27361
# Poissons Ratio (z) = 0.65224 0.07306
#
# Static dielectric constant tensor:
#      x y z
#    x 3.227770 0.000000 0.000000 
#    y 0.000000 2.729550 0.000000 
#    z 0.000000 0.000000 3.004630 
# 
# 
# High freq. dielectric constant tensor:
#      x y z
#    x 1.575000 0.000000 0.000000 
#    y 0.000000 1.550800 0.000000 
#    z 0.000000 0.000000 1.545080 
# 
# From -- ./inp_files/24510.got.cif
#   From: 2010.03.12/outbox.cif.g09.slc.cpg/sg23_13_cif.got.tgz:24510.got - 2010.04.14 02:50:06.
