data_PCOD8163644
_publ_section_title
;
Structure prediction by ZEFSAII (Michael W. Deem and Ramdas Pophale) SiO2 
 PCOD8163644
Probable space group: I 2 2 2
;
_chemical_formula_sum "Si O2"
_cell_formula_units_Z 56
_cell_length_a 21.608088
_cell_length_b 11.562605
_cell_length_c 10.621214
_cell_angle_alpha 90.000000
_cell_angle_beta 90.000000
_cell_angle_gamma 90.000000
_cell_volume 2653.665564
_symmetry_space_group_name_H-M "I 2 2 2"
_symmetry_group_IT_number 23
_symmetry_cell_setting 'orthorhombic'
loop_
_space_group_symop_operation_xyz
x,y,z
-x,-y,z
x,-y,-z
-x,y,-z
1/2+x,1/2+y,1/2+z
1/2-x,1/2-y,1/2+z
1/2+x,1/2-y,1/2-z
1/2-x,1/2+y,1/2-z
loop_
_atom_site_type_symbol
_atom_site_label
_atom_site_fract_x
_atom_site_fract_y
_atom_site_fract_z
Si Si1 0.066176 0.454633 0.768115
Si Si2 0.744708 0.504057 0.819815
Si Si3 0.168544 0.599824 0.397332
Si Si4 0.846402 0.335007 0.826886
Si Si5 0.717331 0.736420 0.915263
Si Si6 0.931150 0.750793 0.959761
Si Si7 0.669123 0.594074 0.389352
O O1 0.097651 0.390416 0.649736
O O2 0.104800 0.567703 0.795039
O O3 0.063447 0.371859 0.889743
O O4 0.000000 0.500000 0.726716
O O5 0.787691 0.573648 0.720444
O O6 0.784203 0.398014 0.880705
O O7 0.725615 0.597598 0.925260
O O8 0.683922 0.462070 0.745792
O O9 0.178992 0.500000 0.500000
O O10 0.183527 0.724096 0.456955
O O11 0.826734 0.263654 0.703913
O O12 0.881192 0.253239 0.925958
O O13 0.782648 0.801697 0.911233
O O14 0.900351 0.852712 0.876556
O O15 0.000000 0.789182 0.000000
O O16 0.674797 0.500000 0.500000
#
# Coordination Sequence:
#
# PCOD8163644 Si02
#       7
#     8   8   8   8   8   8   8
#     4  11  22  39  59  87 128 167 214 271 319 373
#     4  10  20  37  61  91 127 162 208 262 321 386
#     4  11  19  39  59  88 124 166 212 253 316 394
#     4  10  21  36  59  90 123 163 207 262 321 378
#     4  11  20  38  62  91 122 166 206 258 326 386
#     4  12  25  40  62  89 128 170 217 271 326 379
#     4  11  20  38  62  86 127 169 204 257 312 390
#
# _framework density 21.102885000000001
#
# number of rings (size 3 to 8) (size 9 to 14) (size 15 to 20)
#    0.000    1.143    7.143    3.000    0.000    0.571 
#    0.000    0.000    0.000    0.000    0.000    0.000 
#    0.000    0.286    0.000    0.000    0.000    0.000 
#
# Total GULP energy -347116.500700 kJ/mol
# GULP energy per Si atom -12397.017882 kJ/mol
# Density = 2.105485 g / cm^3
# Si number density = 21.102885 Si / 1000 Ang^3
#
#
#
# Elastic Constant Matrix: (Units=GPa)
#
#
# Indices 1 2 3 4 5 6 
#
# 1 140.2863 33.6843 35.9149 0.0000 0.0000 0.0000
# 2 33.6843 58.6419 -5.1792 0.0000 0.0000 0.0000
# 3 35.9149 -5.1792 37.3600 0.0000 0.0000 0.0000
# 4 0.0000 0.0000 0.0000 10.1030 0.0000 0.0000
# 5 0.0000 0.0000 0.0000 0.0000 28.3023 0.0000
# 6 0.0000 0.0000 0.0000 0.0000 0.0000 33.8677
#
#
#
# Elastic Compliance Matrix: (Units=1/GPa)
#
#
# Indices 1 2 3 4 5 6 
#
# 1 0.012507 -0.008348 -0.013181 0.000000 0.000000 0.000000
# 2 -0.008348 0.022836 0.011191 0.000000 0.000000 0.000000
# 3 -0.013181 0.011191 0.040989 0.000000 0.000000 0.000000
# 4 0.000000 0.000000 0.000000 0.098980 0.000000 0.000000
# 5 0.000000 0.000000 0.000000 0.000000 0.035333 0.000000
# 6 0.000000 0.000000 0.000000 0.000000 0.000000 0.029527
#
#
# Mechanical properties :
#
#
# Convention : Reuss Voigt Hill
#
# Bulk Modulus (GPa) = 17.96723 40.56978 29.26851
# Shear Modulus (GPa) = 17.89546 25.91249 21.90397
#
# Velocity S-wave (km/s) = 2.91522 3.50796 3.22524
# Velocity P-wave (km/s) = 4.45690 5.97279 5.26964
#
# Compressibility (1/GPa) = 0.05565689
#
# Stress axis : x y z
#
# Youngs Moduli (GPa) = 79.95368 43.78967 24.39679
#
# Poissons Ratio (x) = 0.36557 0.32157
# Poissons Ratio (y) = 0.66748 -0.27303
# Poissons Ratio (z) = 1.05385 -0.49006
#
# Static dielectric constant tensor:
#      x y z
#    x 4.209630 0.000000 0.000000 
#    y 0.000000 4.026660 0.000000 
#    z 0.000000 0.000000 4.191400 
# 
# 
# High freq. dielectric constant tensor:
#      x y z
#    x 1.812460 0.000000 0.000000 
#    y 0.000000 1.825230 0.000000 
#    z 0.000000 0.000000 1.825520 
# 
# From -- ./inp_files/18005.got.cif
#   From: 2010.03.12/outbox.cif.g09.slc.cpg/sg23_10_cif.got.tgz:18005.got - 2010.04.14 02:50:06.
