data_PCOD8163280
_publ_section_title
;
Structure prediction by ZEFSAII (Michael W. Deem and Ramdas Pophale) SiO2 
 PCOD8163280
Probable space group: I 2 2 2
;
_chemical_formula_sum "Si O2"
_cell_formula_units_Z 60
_cell_length_a 10.728711
_cell_length_b 13.853732
_cell_length_c 21.581648
_cell_angle_alpha 90.000000
_cell_angle_beta 90.000000
_cell_angle_gamma 90.000000
_cell_volume 3207.738330
_symmetry_space_group_name_H-M "I 2 2 2"
_symmetry_group_IT_number 23
_symmetry_cell_setting 'orthorhombic'
loop_
_space_group_symop_operation_xyz
x,y,z
-x,-y,z
x,-y,-z
-x,y,-z
1/2+x,1/2+y,1/2+z
1/2-x,1/2-y,1/2+z
1/2+x,1/2-y,1/2-z
1/2-x,1/2+y,1/2-z
loop_
_atom_site_type_symbol
_atom_site_label
_atom_site_fract_x
_atom_site_fract_y
_atom_site_fract_z
Si Si1 0.610195 0.633838 0.785212
Si Si2 0.857834 0.488597 0.649002
Si Si3 0.201475 0.168442 0.150277
Si Si4 0.497287 0.215771 0.571245
Si Si5 0.000000 0.500000 0.111606
Si Si6 0.845472 0.815402 0.713275
Si Si7 0.776761 0.786009 0.847599
Si Si8 0.691152 0.985957 0.712023
O O1 0.620536 0.662877 0.713029
O O2 0.467783 0.626672 0.806399
O O3 0.671284 0.708101 0.833298
O O4 0.671187 0.529949 0.792055
O O5 0.756513 0.567230 0.623394
O O6 0.794615 0.385318 0.633853
O O7 0.872883 0.507756 0.722511
O O8 0.000000 0.500000 0.621360
O O9 0.118404 0.224851 0.100143
O O10 0.329953 0.223112 0.169221
O O11 0.500000 0.244967 0.500000
O O12 0.629739 0.249961 0.598993
O O13 0.475049 0.098647 0.573862
O O14 0.112629 0.529812 0.156471
O O15 0.860757 0.793397 0.786013
O O16 0.714944 0.872506 0.703496
#
# Coordination Sequence:
#
# PCOD8163280 Si02
#       8
#     8   8   8   8   4   8   8   8
#     4  10  18  31  54  84 124 153 185 244 309 357
#     4  10  20  34  57  90 124 156 184 247 310 361
#     4  10  21  34  55  86 117 156 199 243 292 358
#     4  12  25  43  62  83 119 164 207 245 285 348
#     4  12  21  40  60  90 120 152 197 244 286 360
#     4  10  18  31  54  84 124 153 185 244 309 357
#     4  10  21  34  55  86 117 156 199 243 292 358
#     4  10  19  29  55  89 126 151 185 234 312 372
#
# _framework density 18.704768000000001
#
# number of rings (size 3 to 8) (size 9 to 14) (size 15 to 20)
#    0.000    1.600    4.667    1.400    0.000    0.533 
#    0.000    1.333    0.000    4.000    0.000    1.867 
#    0.000    0.000    0.000    0.000    0.000    0.000 
#
# Total GULP energy -371655.621275 kJ/mol
# GULP energy per Si atom -12388.520709 kJ/mol
# Density = 1.866219 g / cm^3
# Si number density = 18.704768 Si / 1000 Ang^3
#
#
#
# Elastic Constant Matrix: (Units=GPa)
#
#
# Indices 1 2 3 4 5 6 
#
# 1 98.6248 30.8988 29.7172 0.0000 0.0000 0.0000
# 2 30.8988 99.3058 27.9208 0.0000 0.0000 0.0000
# 3 29.7172 27.9208 78.9859 0.0000 0.0000 0.0000
# 4 0.0000 0.0000 0.0000 14.4339 0.0000 0.0000
# 5 0.0000 0.0000 0.0000 0.0000 -5.9837 0.0000
# 6 0.0000 0.0000 0.0000 0.0000 0.0000 17.0432
#
#
#
# Elastic Compliance Matrix: (Units=1/GPa)
#
#
# Indices 1 2 3 4 5 6 
#
# 1 0.012078 -0.002754 -0.003571 0.000000 0.000000 0.000000
# 2 -0.002754 0.011809 -0.003138 0.000000 0.000000 0.000000
# 3 -0.003571 -0.003138 0.015113 0.000000 0.000000 0.000000
# 4 0.000000 0.000000 0.000000 0.069281 0.000000 0.000000
# 5 0.000000 0.000000 0.000000 0.000000 -0.167122 0.000000
# 6 0.000000 0.000000 0.000000 0.000000 0.000000 0.058674
#
#
# Mechanical properties :
#
#
# Convention : Reuss Voigt Hill
#
# Bulk Modulus (GPa) = 49.81444 50.44334 50.12889
# Shear Modulus (GPa) = 196.44854 17.65734 107.05294
#
# Velocity S-wave (km/s) = 10.25933 3.07579 7.57345
# Velocity P-wave (km/s) = 12.92394 6.29609 10.16536
#
# Compressibility (1/GPa) = 0.02007450
#
# Stress axis : x y z
#
# Youngs Moduli (GPa) = 82.79372 84.67964 66.16715
#
# Poissons Ratio (x) = 0.23322 0.23626
# Poissons Ratio (y) = 0.22803 0.20765
# Poissons Ratio (z) = 0.29563 0.26574
#
# Static dielectric constant tensor:
#      x y z
#    x 3.347740 0.000000 0.000000 
#    y 0.000000 3.634410 0.000000 
#    z 0.000000 0.000000 2.903490 
# 
# 
# High freq. dielectric constant tensor:
#      x y z
#    x 1.734240 0.000000 0.000000 
#    y 0.000000 1.746500 0.000000 
#    z 0.000000 0.000000 1.662090 
# 
# From -- ./inp_files/26808.got.cif
#   From: 2010.03.12/outbox.cif.g09.slc.cpg/sg23_14_cif.got.tgz:26808.got - 2010.04.14 02:50:06.
