data_PCOD8163576
_publ_section_title
;
Structure prediction by ZEFSAII (Michael W. Deem and Ramdas Pophale) SiO2 
 PCOD8163576
Probable space group: I 2 2 2
;
_chemical_formula_sum "Si O2"
_cell_formula_units_Z 64
_cell_length_a 24.296430
_cell_length_b 8.689495
_cell_length_c 15.142022
_cell_angle_alpha 90.000000
_cell_angle_beta 90.000000
_cell_angle_gamma 90.000000
_cell_volume 3196.839816
_symmetry_space_group_name_H-M "I 2 2 2"
_symmetry_group_IT_number 23
_symmetry_cell_setting 'orthorhombic'
loop_
_space_group_symop_operation_xyz
x,y,z
-x,-y,z
x,-y,-z
-x,y,-z
1/2+x,1/2+y,1/2+z
1/2-x,1/2-y,1/2+z
1/2+x,1/2-y,1/2-z
1/2-x,1/2+y,1/2-z
loop_
_atom_site_type_symbol
_atom_site_label
_atom_site_fract_x
_atom_site_fract_y
_atom_site_fract_z
Si Si1 0.282533 0.320260 0.725033
Si Si2 0.315127 0.652130 0.711010
Si Si3 0.618561 0.184899 0.858187
Si Si4 0.635583 0.889620 0.631480
Si Si5 0.275873 0.836858 0.956138
Si Si6 0.324979 0.201820 0.456200
Si Si7 0.003771 0.819192 0.400070
Si Si8 0.443070 0.912215 0.215552
O O1 0.309733 0.482521 0.754118
O O2 0.243487 0.242614 0.798208
O O3 0.328367 0.194356 0.705220
O O4 0.245254 0.359547 0.642120
O O5 0.356217 0.750558 0.768678
O O6 0.336675 0.652813 0.608916
O O7 0.659438 0.206520 0.943059
O O8 0.564558 0.282800 0.869766
O O9 0.602504 0.005967 0.841290
O O10 0.632948 0.790634 0.539945
O O11 0.576897 0.898002 0.681590
O O12 0.664606 0.049199 0.602505
O O13 0.238391 0.709048 0.006373
O O14 0.268985 0.000000 0.000000
O O15 0.000000 0.755538 0.500000
O O16 0.956158 0.746403 0.336807
O O17 0.000000 0.000000 0.395046
O O18 0.500000 0.000000 0.220478
#
# Coordination Sequence:
#
# PCOD8163576 Si02
#       8
#     8   8   8   8   8   8   8   8
#     4  10  22  34  57  87 124 164 210 242 312 378
#     4  11  20  37  56  87 127 166 206 257 303 387
#     4  10  23  38  62  90 117 161 210 253 321 378
#     4  10  21  38  60  93 117 171 211 257 327 373
#     4  10  20  35  56  90 122 163 204 247 299 378
#     4  10  20  37  60  83 134 164 201 260 307 378
#     4  10  24  46  64  91 126 156 211 273 331 377
#     4  10  22  41  68  90 121 163 217 272 321 383
#
# _framework density 20.019770999999999
#
# number of rings (size 3 to 8) (size 9 to 14) (size 15 to 20)
#    0.000    1.875    2.500    0.750    5.250    2.750 
#    0.000    8.750    0.000    0.000    0.000    0.875 
#    0.000    0.000    0.000    0.000    0.000    0.000 
#
# Total GULP energy -396429.293592 kJ/mol
# GULP energy per Si atom -12388.415425 kJ/mol
# Density = 1.997420 g / cm^3
# Si number density = 20.019771 Si / 1000 Ang^3
#
#
#
# Elastic Constant Matrix: (Units=GPa)
#
#
# Indices 1 2 3 4 5 6 
#
# 1 75.8669 33.8226 34.0029 0.0000 0.0000 0.0000
# 2 33.8226 78.8706 34.7836 0.0000 0.0000 0.0000
# 3 34.0029 34.7836 94.6488 0.0000 0.0000 0.0000
# 4 0.0000 0.0000 0.0000 33.0644 0.0000 0.0000
# 5 0.0000 0.0000 0.0000 0.0000 28.2401 0.0000
# 6 0.0000 0.0000 0.0000 0.0000 0.0000 22.5131
#
#
#
# Elastic Compliance Matrix: (Units=1/GPa)
#
#
# Indices 1 2 3 4 5 6 
#
# 1 0.017615 -0.005684 -0.004239 0.000000 0.000000 0.000000
# 2 -0.005684 0.016966 -0.004193 0.000000 0.000000 0.000000
# 3 -0.004239 -0.004193 0.013629 0.000000 0.000000 0.000000
# 4 0.000000 0.000000 0.000000 0.030244 0.000000 0.000000
# 5 0.000000 0.000000 0.000000 0.000000 0.035411 0.000000
# 6 0.000000 0.000000 0.000000 0.000000 0.000000 0.044419
#
#
# Mechanical properties :
#
#
# Convention : Reuss Voigt Hill
#
# Bulk Modulus (GPa) = 50.05713 50.51161 50.28437
# Shear Modulus (GPa) = 25.88320 26.54866 26.21593
#
# Velocity S-wave (km/s) = 3.59957 3.64555 3.62263
# Velocity P-wave (km/s) = 6.50646 6.55787 6.53221
#
# Compressibility (1/GPa) = 0.01997717
#
# Stress axis : x y z
#
# Youngs Moduli (GPa) = 56.76919 58.94218 73.37175
#
# Poissons Ratio (x) = 0.33505 0.31104
# Poissons Ratio (y) = 0.32270 0.30763
# Poissons Ratio (z) = 0.24066 0.24713
#
# Static dielectric constant tensor:
#      x y z
#    x 3.716070 0.000000 0.000000 
#    y 0.000000 3.690870 0.000000 
#    z 0.000000 0.000000 4.045550 
# 
# 
# High freq. dielectric constant tensor:
#      x y z
#    x 1.762910 0.000000 0.000000 
#    y 0.000000 1.778310 0.000000 
#    z 0.000000 0.000000 1.786950 
# 
# From -- ./inp_files/22596.got.cif
#   From: 2010.03.12/outbox.cif.g09.slc.cpg/sg23_12_cif.got.tgz:22596.got - 2010.04.14 02:50:06.
