data_PCOD8163094
_publ_section_title
;
Structure prediction by ZEFSAII (Michael W. Deem and Ramdas Pophale) SiO2 
 PCOD8163094
Probable space group: F 2 2 2
;
_chemical_formula_sum "Si O2"
_cell_formula_units_Z 64
_cell_length_a 15.170186
_cell_length_b 9.721591
_cell_length_c 17.036806
_cell_angle_alpha 90.000000
_cell_angle_beta 90.000000
_cell_angle_gamma 90.000000
_cell_volume 2512.559931
_symmetry_space_group_name_H-M "F 2 2 2"
_symmetry_group_IT_number 22
_symmetry_cell_setting 'orthorhombic'
loop_
_space_group_symop_operation_xyz
x,y,z
-x,-y,z
x,-y,-z
-x,y,-z
x,1/2+y,1/2+z
-x,1/2-y,1/2+z
x,1/2-y,1/2-z
-x,1/2+y,1/2-z
1/2+x,y,1/2+z
1/2-x,-y,1/2+z
1/2+x,-y,1/2-z
1/2-x,y,1/2-z
1/2+x,1/2+y,z
1/2-x,1/2-y,z
1/2+x,1/2-y,-z
1/2-x,1/2+y,-z
loop_
_atom_site_type_symbol
_atom_site_label
_atom_site_fract_x
_atom_site_fract_y
_atom_site_fract_z
Si Si1 0.000000 0.000000 0.162979
Si Si2 0.946308 0.250000 0.250000
Si Si3 0.173182 0.456653 0.413858
Si Si4 0.405065 0.312425 0.466774
Si Si5 0.148199 0.432326 0.880954
O O1 0.086711 0.961323 0.113647
O O2 0.013565 0.140673 0.211535
O O3 0.885290 0.341546 0.191869
O O4 0.199956 0.500000 0.500000
O O5 0.145362 0.297128 0.412447
O O6 0.256846 0.498074 0.359595
O O7 0.500000 0.262740 0.500000
O O8 0.418052 0.445003 0.409600
O O9 0.342302 0.336246 0.542094
#
# Coordination Sequence:
#
# PCOD8163094 Si02
#       5
#     8   8  16  16  16
#     4  12  31  46  76 105 164 206 274 322 420 495
#     4  12  30  53  74 115 160 228 264 331 420 512
#     4  12  24  46  75 119 151 201 269 349 403 486
#     4  11  23  44  80 120 151 205 279 346 409 472
#     4  11  25  44  80 112 158 206 272 336 414 496
#
# _framework density 25.47203
#
# number of rings (size 3 to 8) (size 9 to 14) (size 15 to 20)
#    0.000    0.500    2.500    7.125    7.000    5.000 
#    0.000    0.000    0.000    0.000    0.000    0.000 
#    0.000    0.000    0.000    0.000    0.000    0.000 
#
# Total GULP energy -198241.259036 kJ/mol
# GULP energy per Si atom -12390.078690 kJ/mol
# Density = 2.541405 g / cm^3
# Si number density = 25.472030 Si / 1000 Ang^3
#
#
#
# Elastic Constant Matrix: (Units=GPa)
#
#
# Indices 1 2 3 4 5 6 
#
# 1 154.6529 35.3719 25.3919 0.0000 0.0000 0.0000
# 2 35.3719 124.7823 39.3693 0.0000 0.0000 0.0000
# 3 25.3919 39.3693 89.6867 0.0000 0.0000 0.0000
# 4 0.0000 0.0000 0.0000 50.9222 0.0000 0.0000
# 5 0.0000 0.0000 0.0000 0.0000 15.5901 0.0000
# 6 0.0000 0.0000 0.0000 0.0000 0.0000 49.7221
#
#
#
# Elastic Compliance Matrix: (Units=1/GPa)
#
#
# Indices 1 2 3 4 5 6 
#
# 1 0.007042 -0.001587 -0.001297 0.000000 0.000000 0.000000
# 2 -0.001587 0.009660 -0.003791 0.000000 0.000000 0.000000
# 3 -0.001297 -0.003791 0.013181 0.000000 0.000000 0.000000
# 4 0.000000 0.000000 0.000000 0.019638 0.000000 0.000000
# 5 0.000000 0.000000 0.000000 0.000000 0.064143 0.000000
# 6 0.000000 0.000000 0.000000 0.000000 0.000000 0.020112
#
#
# Mechanical properties :
#
#
# Convention : Reuss Voigt Hill
#
# Bulk Modulus (GPa) = 60.48512 63.26533 61.87523
# Shear Modulus (GPa) = 32.75736 41.17946 36.96841
#
# Velocity S-wave (km/s) = 3.58999 4.02513 3.81377
# Velocity P-wave (km/s) = 6.40167 6.81860 6.61342
#
# Compressibility (1/GPa) = 0.01653299
#
# Stress axis : x y z
#
# Youngs Moduli (GPa) = 142.00461 103.52069 75.86505
#
# Poissons Ratio (x) = 0.16428 0.09840
# Poissons Ratio (y) = 0.22536 0.28761
# Poissons Ratio (z) = 0.18419 0.39245
#
# Static dielectric constant tensor:
#      x y z
#    x 4.567600 0.000000 0.000000 
#    y 0.000000 5.014770 0.000000 
#    z 0.000000 0.000000 4.720600 
# 
# 
# High freq. dielectric constant tensor:
#      x y z
#    x 2.018500 0.000000 0.000000 
#    y 0.000000 2.037650 0.000000 
#    z 0.000000 0.000000 1.988960 
# 
# From -- ./inp_files/36842.got.cif
#   From: 2010.03.12/outbox.cif.g09.slc.cpg/sg22_19_cif.got.tgz:36842.got - 2010.04.14 02:24:06.
