data_PCOD8163393
_publ_section_title
;
Structure prediction by ZEFSAII (Michael W. Deem and Ramdas Pophale) SiO2 
 PCOD8163393
Probable space group: I 2 2 2
;
_chemical_formula_sum "Si O2"
_cell_formula_units_Z 40
_cell_length_a 5.081156
_cell_length_b 13.944522
_cell_length_c 30.541534
_cell_angle_alpha 90.000000
_cell_angle_beta 90.000000
_cell_angle_gamma 90.000000
_cell_volume 2163.998757
_symmetry_space_group_name_H-M "I 2 2 2"
_symmetry_group_IT_number 23
_symmetry_cell_setting 'orthorhombic'
loop_
_space_group_symop_operation_xyz
x,y,z
-x,-y,z
x,-y,-z
-x,y,-z
1/2+x,1/2+y,1/2+z
1/2-x,1/2-y,1/2+z
1/2+x,1/2-y,1/2-z
1/2-x,1/2+y,1/2-z
loop_
_atom_site_type_symbol
_atom_site_label
_atom_site_fract_x
_atom_site_fract_y
_atom_site_fract_z
Si Si1 0.435683 0.701235 0.842262
Si Si2 0.244626 0.393143 0.979970
Si Si3 0.001947 0.108579 0.252805
Si Si4 0.493648 0.108932 0.803633
Si Si5 0.065154 0.607582 0.118904
O O1 0.390868 0.674823 0.791640
O O2 0.453545 0.817358 0.843946
O O3 0.716951 0.653194 0.850649
O O4 0.207367 0.666875 0.875868
O O5 0.206765 0.393725 0.928273
O O6 0.247665 0.500000 0.000000
O O7 0.500000 0.339863 0.000000
O O8 0.000000 0.335083 0.000000
O O9 0.295838 0.128913 0.235183
O O10 0.800245 0.127395 0.213367
O O11 0.000000 0.000000 0.270181
O O12 0.500000 0.000000 0.821689
O O13 0.000000 0.500000 0.133796
#
# Coordination Sequence:
#
# PCOD8163393 Si02
#       5
#     8   8   8   8   8
#     4  12  23  34  52  81 113 138 187 237 282 312
#     4  10  19  34  55  71 103 150 178 189 244 334
#     4  10  19  34  53  74 103 148 188 227 281 334
#     4  10  21  37  56  72 101 150 198 233 273 325
#     4  12  23  35  52  82 114 146 170 219 274 327
#
# _framework density 18.484300000000001
#
# number of rings (size 3 to 8) (size 9 to 14) (size 15 to 20)
#    0.000    1.200    2.000    6.600    2.800    1.600 
#    0.000    0.000    0.000    0.000    0.000    0.000 
#    0.000   12.000    0.000    0.000    0.000    0.000 
#
# Total GULP energy -247796.042335 kJ/mol
# GULP energy per Si atom -12389.802117 kJ/mol
# Density = 1.844223 g / cm^3
# Si number density = 18.484300 Si / 1000 Ang^3
#
#
#
# Elastic Constant Matrix: (Units=GPa)
#
#
# Indices 1 2 3 4 5 6 
#
# 1 133.0736 36.7047 21.6045 0.0000 0.0000 0.0000
# 2 36.7047 109.6835 46.6103 0.0000 0.0000 0.0000
# 3 21.6045 46.6103 58.0303 0.0000 0.0000 0.0000
# 4 0.0000 0.0000 0.0000 11.5174 0.0000 0.0000
# 5 0.0000 0.0000 0.0000 0.0000 41.4980 0.0000
# 6 0.0000 0.0000 0.0000 0.0000 0.0000 14.5438
#
#
#
# Elastic Compliance Matrix: (Units=1/GPa)
#
#
# Indices 1 2 3 4 5 6 
#
# 1 0.008344 -0.002235 -0.001311 0.000000 0.000000 0.000000
# 2 -0.002235 0.014440 -0.010766 0.000000 0.000000 0.000000
# 3 -0.001311 -0.010766 0.026368 0.000000 0.000000 0.000000
# 4 0.000000 0.000000 0.000000 0.086825 0.000000 0.000000
# 5 0.000000 0.000000 0.000000 0.000000 0.024098 0.000000
# 6 0.000000 0.000000 0.000000 0.000000 0.000000 0.068758
#
#
# Mechanical properties :
#
#
# Convention : Reuss Voigt Hill
#
# Bulk Modulus (GPa) = 48.71617 56.73626 52.72622
# Shear Modulus (GPa) = 18.91786 26.56973 22.74379
#
# Velocity S-wave (km/s) = 3.20262 3.79545 3.51157
# Velocity P-wave (km/s) = 6.33154 7.06882 6.71031
#
# Compressibility (1/GPa) = 0.02052706
#
# Stress axis : x y z
#
# Youngs Moduli (GPa) = 119.84677 69.25060 37.92442
#
# Poissons Ratio (x) = 0.15478 0.04973
# Poissons Ratio (y) = 0.26786 0.40831
# Poissons Ratio (z) = 0.15715 0.74558
#
# Static dielectric constant tensor:
#      x y z
#    x 2.948650 0.000000 0.000000 
#    y 0.000000 3.440280 0.000000 
#    z 0.000000 0.000000 3.151070 
# 
# 
# High freq. dielectric constant tensor:
#      x y z
#    x 1.752990 0.000000 0.000000 
#    y 0.000000 1.688430 0.000000 
#    z 0.000000 0.000000 1.680570 
# 
# From -- ./inp_files/27587.got.cif
#   From: 2010.03.12/outbox.cif.g09.slc.cpg/sg23_14_cif.got.tgz:27587.got - 2010.04.14 02:50:06.
