data_PCOD8163970
_publ_section_title
;
Structure prediction by ZEFSAII (Michael W. Deem and Ramdas Pophale) SiO2 
 PCOD8163970
Probable space group: I 2 2 2
;
_chemical_formula_sum "Si O2"
_cell_formula_units_Z 64
_cell_length_a 16.142156
_cell_length_b 12.661131
_cell_length_c 16.390642
_cell_angle_alpha 90.000000
_cell_angle_beta 90.000000
_cell_angle_gamma 90.000000
_cell_volume 3349.885840
_symmetry_space_group_name_H-M "I 2 2 2"
_symmetry_group_IT_number 23
_symmetry_cell_setting 'orthorhombic'
loop_
_space_group_symop_operation_xyz
x,y,z
-x,-y,z
x,-y,-z
-x,y,-z
1/2+x,1/2+y,1/2+z
1/2-x,1/2-y,1/2+z
1/2+x,1/2-y,1/2-z
1/2-x,1/2+y,1/2-z
loop_
_atom_site_type_symbol
_atom_site_label
_atom_site_fract_x
_atom_site_fract_y
_atom_site_fract_z
Si Si1 0.410169 0.533359 0.407498
Si Si2 0.927947 0.745187 0.164998
Si Si3 0.912079 0.475162 0.906759
Si Si4 0.830882 0.293792 0.677497
Si Si5 0.811740 0.933428 0.766842
Si Si6 0.013604 0.622907 0.594602
Si Si7 0.588252 0.232789 0.766438
Si Si8 0.277144 0.891932 0.678349
O O1 0.500000 0.500000 0.376753
O O2 0.392957 0.500000 0.500000
O O3 0.407469 0.659296 0.396016
O O4 0.343946 0.472083 0.353897
O O5 0.892578 0.645577 0.115070
O O6 0.880566 0.763256 0.249784
O O7 0.025073 0.732432 0.189146
O O8 0.835256 0.548327 0.884343
O O9 0.000000 0.500000 0.860998
O O10 0.926428 0.500000 0.000000
O O11 0.778737 0.386664 0.718053
O O12 0.769899 0.207341 0.635713
O O13 0.891597 0.345362 0.611548
O O14 0.875083 0.851270 0.724112
O O15 0.796934 0.032940 0.708640
O O16 0.953663 0.695788 0.649278
O O17 0.000000 0.500000 0.616438
O O18 0.000000 0.646624 0.500000
O O19 0.664438 0.153070 0.750448
#
# Coordination Sequence:
#
# PCOD8163970 Si02
#       8
#     8   8   8   8   8   8   8   8
#     4  11  24  40  60  89 128 162 199 252 311 369
#     4  11  20  39  64  87 116 165 213 242 298 378
#     4  11  24  39  61  89 122 162 203 254 303 365
#     4  10  22  37  65  92 120 156 207 258 301 360
#     4  11  21  39  59  93 121 161 203 246 308 361
#     4  10  22  43  65  92 120 159 208 257 306 365
#     4  10  22  36  65  88 117 164 206 250 294 373
#     4  11  21  39  60  92 124 157 204 255 303 359
#
# _framework density 19.105129000000002
#
# number of rings (size 3 to 8) (size 9 to 14) (size 15 to 20)
#    0.000    1.375    5.000    0.750    1.750    4.000 
#    6.750    0.000    0.000    0.750    0.000    0.000 
#    0.000    0.000    0.000    0.000    0.000    0.000 
#
# Total GULP energy -396707.152360 kJ/mol
# GULP energy per Si atom -12397.098511 kJ/mol
# Density = 1.906164 g / cm^3
# Si number density = 19.105129 Si / 1000 Ang^3
#
#
#
# Elastic Constant Matrix: (Units=GPa)
#
#
# Indices 1 2 3 4 5 6 
#
# 1 101.5673 45.9402 35.5812 0.0000 0.0000 0.0000
# 2 45.9402 128.1740 46.2079 0.0000 0.0000 0.0000
# 3 35.5812 46.2079 87.3347 0.0000 0.0000 0.0000
# 4 0.0000 0.0000 0.0000 27.2117 0.0000 0.0000
# 5 0.0000 0.0000 0.0000 0.0000 21.4285 0.0000
# 6 0.0000 0.0000 0.0000 0.0000 0.0000 -71.9928
#
#
#
# Elastic Compliance Matrix: (Units=1/GPa)
#
#
# Indices 1 2 3 4 5 6 
#
# 1 0.012503 -0.003268 -0.003365 0.000000 0.000000 0.000000
# 2 -0.003268 0.010495 -0.004221 0.000000 0.000000 0.000000
# 3 -0.003365 -0.004221 0.015054 0.000000 0.000000 0.000000
# 4 0.000000 0.000000 0.000000 0.036749 0.000000 0.000000
# 5 0.000000 0.000000 0.000000 0.000000 0.046667 0.000000
# 6 0.000000 0.000000 0.000000 0.000000 0.000000 -0.013890
#
#
# Mechanical properties :
#
#
# Convention : Reuss Voigt Hill
#
# Bulk Modulus (GPa) = 61.18473 63.61494 62.39984
# Shear Modulus (GPa) = 37.11020 7.95258 22.53139
#
# Velocity S-wave (km/s) = 4.41207 2.04244 3.43787
# Velocity P-wave (km/s) = 7.61905 6.23953 6.96354
#
# Compressibility (1/GPa) = 0.01634395
#
# Stress axis : x y z
#
# Youngs Moduli (GPa) = 79.98322 95.28215 66.42570
#
# Poissons Ratio (x) = 0.31141 0.22349
# Poissons Ratio (y) = 0.26141 0.28041
# Poissons Ratio (z) = 0.26910 0.40222
#
# Static dielectric constant tensor:
#      x y z
#    x 3.779120 0.000000 0.000000 
#    y 0.000000 3.656310 0.000000 
#    z 0.000000 0.000000 3.235950 
# 
# 
# High freq. dielectric constant tensor:
#      x y z
#    x 1.755870 0.000000 0.000000 
#    y 0.000000 1.760190 0.000000 
#    z 0.000000 0.000000 1.710410 
# 
# From -- ./inp_files/24865.got.cif
#   From: 2010.03.12/outbox.cif.g09.slc.cpg/sg23_13_cif.got.tgz:24865.got - 2010.04.14 02:50:06.
