data_PCOD8163513
_publ_section_title
;
Structure prediction by ZEFSAII (Michael W. Deem and Ramdas Pophale) SiO2 
 PCOD8163513
Probable space group: I 2 2 2
;
_chemical_formula_sum "Si O2"
_cell_formula_units_Z 32
_cell_length_a 4.889767
_cell_length_b 16.392569
_cell_length_c 22.850000
_cell_angle_alpha 90.000000
_cell_angle_beta 90.000000
_cell_angle_gamma 90.000000
_cell_volume 1831.561011
_symmetry_space_group_name_H-M "I 2 2 2"
_symmetry_group_IT_number 23
_symmetry_cell_setting 'orthorhombic'
loop_
_space_group_symop_operation_xyz
x,y,z
-x,-y,z
x,-y,-z
-x,y,-z
1/2+x,1/2+y,1/2+z
1/2-x,1/2-y,1/2+z
1/2+x,1/2-y,1/2-z
1/2-x,1/2+y,1/2-z
loop_
_atom_site_type_symbol
_atom_site_label
_atom_site_fract_x
_atom_site_fract_y
_atom_site_fract_z
Si Si1 0.630820 0.223002 0.285251
Si Si2 0.573580 0.647011 0.365641
Si Si3 0.237139 0.053502 0.751030
Si Si4 0.061187 0.593671 0.433063
O O1 0.413271 0.233398 0.232679
O O2 0.522649 0.262836 0.345453
O O3 0.677272 0.126050 0.293237
O O4 0.591704 0.589756 0.308797
O O5 0.372898 0.610422 0.414928
O O6 0.871234 0.652903 0.394485
O O7 0.500000 0.000000 0.767980
O O8 0.000000 0.000000 0.719916
O O9 0.000000 0.500000 0.418919
O O10 0.000000 0.614536 0.500000
#
# Coordination Sequence:
#
# PCOD8163513 Si02
#       4
#     8   8   8   8
#     4  10  20  32  47  70  97 127 162 197 232 284
#     4  11  20  33  49  66  96 133 160 190 240 281
#     4  11  20  31  49  73  99 128 162 193 232 288
#     4  11  22  33  47  69  95 126 168 206 229 265
#
# _framework density 17.471437000000002
#
# number of rings (size 3 to 8) (size 9 to 14) (size 15 to 20)
#    0.000    1.250    0.000   11.250    0.000    2.000 
#    0.000    0.000    0.000    0.000    0.000    0.000 
#    0.000   15.000    0.000    0.250    0.000    0.000 
#
# Total GULP energy -198409.299412 kJ/mol
# GULP energy per Si atom -12400.581213 kJ/mol
# Density = 1.743167 g / cm^3
# Si number density = 17.471437 Si / 1000 Ang^3
#
#
#
# Elastic Constant Matrix: (Units=GPa)
#
#
# Indices 1 2 3 4 5 6 
#
# 1 80.4136 34.9983 5.7402 0.0000 0.0000 0.0000
# 2 34.9983 109.1758 35.9763 0.0000 0.0000 0.0000
# 3 5.7402 35.9763 56.8116 0.0000 0.0000 0.0000
# 4 0.0000 0.0000 0.0000 20.0549 0.0000 0.0000
# 5 0.0000 0.0000 0.0000 0.0000 20.3285 0.0000
# 6 0.0000 0.0000 0.0000 0.0000 0.0000 35.3327
#
#
#
# Elastic Compliance Matrix: (Units=1/GPa)
#
#
# Indices 1 2 3 4 5 6 
#
# 1 0.014610 -0.005304 0.001882 0.000000 0.000000 0.000000
# 2 -0.005304 0.013500 -0.008013 0.000000 0.000000 0.000000
# 3 0.001882 -0.008013 0.022486 0.000000 0.000000 0.000000
# 4 0.000000 0.000000 0.000000 0.049863 0.000000 0.000000
# 5 0.000000 0.000000 0.000000 0.000000 0.049192 0.000000
# 6 0.000000 0.000000 0.000000 0.000000 0.000000 0.028302
#
#
# Mechanical properties :
#
#
# Convention : Reuss Voigt Hill
#
# Bulk Modulus (GPa) = 36.06566 44.42563 40.24564
# Shear Modulus (GPa) = 23.80212 26.45564 25.12888
#
# Velocity S-wave (km/s) = 3.69500 3.89552 3.79659
# Velocity P-wave (km/s) = 6.23630 6.76138 6.50414
#
# Compressibility (1/GPa) = 0.02772721
#
# Stress axis : x y z
#
# Youngs Moduli (GPa) = 68.44788 74.07231 44.47150
#
# Poissons Ratio (x) = 0.39286 -0.08372
# Poissons Ratio (y) = 0.36303 0.35636
# Poissons Ratio (z) = -0.12885 0.59356
#
# Static dielectric constant tensor:
#      x y z
#    x 3.576290 0.000000 0.000000 
#    y 0.000000 3.318950 0.000000 
#    z 0.000000 0.000000 2.935570 
# 
# 
# High freq. dielectric constant tensor:
#      x y z
#    x 1.708310 0.000000 0.000000 
#    y 0.000000 1.661320 0.000000 
#    z 0.000000 0.000000 1.626290 
# 
# From -- ./inp_files/2258.got.cif
#   From: 2010.03.12/outbox.cif.g09.slc.cpg/sg23_2_cif.got.tgz:2258.got - 2010.04.14 02:50:06.
