data_PCOD8163855
_publ_section_title
;
Structure prediction by ZEFSAII (Michael W. Deem and Ramdas Pophale) SiO2 
 PCOD8163855
Probable space group: I 2 2 2
;
_chemical_formula_sum "Si O2"
_cell_formula_units_Z 48
_cell_length_a 39.746036
_cell_length_b 7.653440
_cell_length_c 7.529612
_cell_angle_alpha 90.000000
_cell_angle_beta 90.000000
_cell_angle_gamma 90.000000
_cell_volume 2290.462053
_symmetry_space_group_name_H-M "I 2 2 2"
_symmetry_group_IT_number 23
_symmetry_cell_setting 'orthorhombic'
loop_
_space_group_symop_operation_xyz
x,y,z
-x,-y,z
x,-y,-z
-x,y,-z
1/2+x,1/2+y,1/2+z
1/2-x,1/2-y,1/2+z
1/2+x,1/2-y,1/2-z
1/2-x,1/2+y,1/2-z
loop_
_atom_site_type_symbol
_atom_site_label
_atom_site_fract_x
_atom_site_fract_y
_atom_site_fract_z
Si Si1 0.587805 0.301925 0.700733
Si Si2 0.038387 0.293581 0.502252
Si Si3 0.755247 0.820999 0.958929
Si Si4 0.088693 0.804240 0.793706
Si Si5 0.636774 0.000520 0.708418
Si Si6 0.713057 0.957597 0.253967
O O1 0.578390 0.258467 0.496433
O O2 0.602236 0.497870 0.719726
O O3 0.616164 0.169871 0.773813
O O4 0.554466 0.281178 0.817700
O O5 0.041639 0.500000 0.500000
O O6 0.055960 0.216059 0.327674
O O7 0.000000 0.230714 0.500000
O O8 0.778437 0.646417 0.941127
O O9 0.734222 0.861678 0.772018
O O10 0.725650 0.814762 0.107149
O O11 0.777235 0.000000 0.000000
O O12 0.118062 0.674836 0.725110
O O13 0.640082 0.000000 0.500000
O O14 0.674168 0.008305 0.784112
#
# Coordination Sequence:
#
# PCOD8163855 Si02
#       6
#     8   8   8   8   8   8
#     4  10  22  42  63  95 126 166 215 264 320 369
#     4  11  23  39  67  95 130 179 214 260 322 374
#     4   8  21  35  57  81 113 151 188 251 303 362
#     4  10  22  42  63  91 131 162 216 270 308 381
#     4  10  21  38  65  89 120 170 200 255 318 381
#     4   9  20  38  56  86 114 154 198 243 314 362
#
# _framework density 20.956468999999998
#
# number of rings (size 3 to 8) (size 9 to 14) (size 15 to 20)
#    1.000    1.167    1.667    0.500    2.333    4.667 
#    9.000    3.333    0.000    0.000    0.000    0.000 
#    0.000    0.000    0.000    0.000    0.000    0.000 
#
# Total GULP energy -297337.699438 kJ/mol
# GULP energy per Si atom -12389.070810 kJ/mol
# Density = 2.090877 g / cm^3
# Si number density = 20.956469 Si / 1000 Ang^3
#
#
#
# Elastic Constant Matrix: (Units=GPa)
#
#
# Indices 1 2 3 4 5 6 
#
# 1 156.2012 70.5808 38.6424 0.0000 0.0000 0.0000
# 2 70.5808 136.4594 18.8550 0.0000 0.0000 0.0000
# 3 38.6424 18.8550 54.5438 0.0000 0.0000 0.0000
# 4 0.0000 0.0000 0.0000 25.8938 0.0000 0.0000
# 5 0.0000 0.0000 0.0000 0.0000 26.7199 0.0000
# 6 0.0000 0.0000 0.0000 0.0000 0.0000 15.1982
#
#
#
# Elastic Compliance Matrix: (Units=1/GPa)
#
#
# Indices 1 2 3 4 5 6 
#
# 1 0.009650 -0.004250 -0.005368 0.000000 0.000000 0.000000
# 2 -0.004250 0.009567 -0.000297 0.000000 0.000000 0.000000
# 3 -0.005368 -0.000297 0.022239 0.000000 0.000000 0.000000
# 4 0.000000 0.000000 0.000000 0.038619 0.000000 0.000000
# 5 0.000000 0.000000 0.000000 0.000000 0.037425 0.000000
# 6 0.000000 0.000000 0.000000 0.000000 0.000000 0.065797
#
#
# Mechanical properties :
#
#
# Convention : Reuss Voigt Hill
#
# Bulk Modulus (GPa) = 46.23474 67.04012 56.63743
# Shear Modulus (GPa) = 23.77149 28.17078 25.97114
#
# Velocity S-wave (km/s) = 3.37163 3.67038 3.52417
# Velocity P-wave (km/s) = 6.10470 7.07262 6.60641
#
# Compressibility (1/GPa) = 0.02162876
#
# Stress axis : x y z
#
# Youngs Moduli (GPa) = 103.62505 104.52367 44.96552
#
# Poissons Ratio (x) = 0.44419 0.24136
# Poissons Ratio (y) = 0.44037 0.01333
# Poissons Ratio (z) = 0.55624 0.03099
#
# Static dielectric constant tensor:
#      x y z
#    x 3.617490 0.000000 0.000000 
#    y 0.000000 3.932940 0.000000 
#    z 0.000000 0.000000 3.942900 
# 
# 
# High freq. dielectric constant tensor:
#      x y z
#    x 1.788430 0.000000 0.000000 
#    y 0.000000 1.830800 0.000000 
#    z 0.000000 0.000000 1.838100 
# 
# From -- ./inp_files/13358.got.cif
#   From: 2010.03.12/outbox.cif.g09.slc.cpg/sg23_7_cif.got.tgz:13358.got - 2010.04.14 02:50:06.
