data_PCOD8163410
_publ_section_title
;
Structure prediction by ZEFSAII (Michael W. Deem and Ramdas Pophale) SiO2 
 PCOD8163410
Probable space group: I 2 2 2
;
_chemical_formula_sum "Si O2"
_cell_formula_units_Z 48
_cell_length_a 20.144077
_cell_length_b 8.681439
_cell_length_c 14.396207
_cell_angle_alpha 90.000000
_cell_angle_beta 90.000000
_cell_angle_gamma 90.000000
_cell_volume 2517.602572
_symmetry_space_group_name_H-M "I 2 2 2"
_symmetry_group_IT_number 23
_symmetry_cell_setting 'orthorhombic'
loop_
_space_group_symop_operation_xyz
x,y,z
-x,-y,z
x,-y,-z
-x,y,-z
1/2+x,1/2+y,1/2+z
1/2-x,1/2-y,1/2+z
1/2+x,1/2-y,1/2-z
1/2-x,1/2+y,1/2-z
loop_
_atom_site_type_symbol
_atom_site_label
_atom_site_fract_x
_atom_site_fract_y
_atom_site_fract_z
Si Si1 0.775677 0.680166 0.495302
Si Si2 0.810562 0.182379 0.316340
Si Si3 0.365322 0.823500 0.500698
Si Si4 0.423219 0.176087 0.301338
Si Si5 0.692046 0.322648 0.199053
Si Si6 0.575100 0.179254 0.305019
O O1 0.788095 0.500000 0.500000
O O2 0.815835 0.762018 0.577841
O O3 0.697776 0.713266 0.504076
O O4 0.804713 0.739265 0.399038
O O5 0.879228 0.219720 0.265743
O O6 0.749439 0.265677 0.267008
O O7 0.796988 0.002224 0.314968
O O8 0.407105 0.785102 0.592114
O O9 0.412830 0.790353 0.413839
O O10 0.340074 0.000000 0.500000
O O11 0.499291 0.219123 0.281988
O O12 0.408543 0.997451 0.280210
O O13 0.620586 0.289824 0.243446
#
# Coordination Sequence:
#
# PCOD8163410 Si02
#       6
#     8   8   8   8   8   8
#     4  12  24  39  62  92 121 156 204 258 306 358
#     4  12  24  40  62  89 123 162 204 253 303 359
#     4  10  19  34  60  91 126 162 198 243 299 364
#     4  10  21  38  61  91 127 165 203 247 303 365
#     4  12  24  40  62  89 123 162 204 253 303 359
#     4  10  21  38  61  91 127 165 203 247 303 365
#
# _framework density 19.065759
#
# number of rings (size 3 to 8) (size 9 to 14) (size 15 to 20)
#    0.000    1.000    3.333    5.000    0.000    2.667 
#    0.000    0.833    0.000    8.000    0.000    0.000 
#    0.000    0.000    0.000    0.000    0.000    0.000 
#
# Total GULP energy -297755.703898 kJ/mol
# GULP energy per Si atom -12406.487662 kJ/mol
# Density = 1.902236 g / cm^3
# Si number density = 19.065759 Si / 1000 Ang^3
#
#
#
# Elastic Constant Matrix: (Units=GPa)
#
#
# Indices 1 2 3 4 5 6 
#
# 1 94.5191 13.9068 14.3479 0.0000 0.0000 0.0000
# 2 13.9068 81.5115 -4.6928 0.0000 0.0000 0.0000
# 3 14.3479 -4.6928 62.6272 0.0000 0.0000 0.0000
# 4 0.0000 0.0000 0.0000 31.3854 0.0000 0.0000
# 5 0.0000 0.0000 0.0000 0.0000 21.0237 0.0000
# 6 0.0000 0.0000 0.0000 0.0000 0.0000 34.4597
#
#
#
# Elastic Compliance Matrix: (Units=1/GPa)
#
#
# Indices 1 2 3 4 5 6 
#
# 1 0.011304 -0.002087 -0.002746 0.000000 0.000000 0.000000
# 2 -0.002087 0.012707 0.001430 0.000000 0.000000 0.000000
# 3 -0.002746 0.001430 0.016704 0.000000 0.000000 0.000000
# 4 0.000000 0.000000 0.000000 0.031862 0.000000 0.000000
# 5 0.000000 0.000000 0.000000 0.000000 0.047565 0.000000
# 6 0.000000 0.000000 0.000000 0.000000 0.000000 0.029019
#
#
# Mechanical properties :
#
#
# Convention : Reuss Voigt Hill
#
# Bulk Modulus (GPa) = 29.49065 31.75351 30.62208
# Shear Modulus (GPa) = 29.89201 31.71349 30.80275
#
# Velocity S-wave (km/s) = 3.96389 4.08287 4.02382
# Velocity P-wave (km/s) = 6.03749 6.23838 6.13876
#
# Compressibility (1/GPa) = 0.03390906
#
# Stress axis : x y z
#
# Youngs Moduli (GPa) = 88.46632 78.69955 59.86670
#
# Poissons Ratio (x) = 0.16422 0.16440
# Poissons Ratio (y) = 0.18460 -0.08562
# Poissons Ratio (z) = 0.24293 -0.11255
#
# Static dielectric constant tensor:
#      x y z
#    x 3.411470 0.000000 0.000000 
#    y 0.000000 3.514900 0.000000 
#    z 0.000000 0.000000 3.676670 
# 
# 
# High freq. dielectric constant tensor:
#      x y z
#    x 1.735700 0.000000 0.000000 
#    y 0.000000 1.743220 0.000000 
#    z 0.000000 0.000000 1.750460 
# 
# From -- ./inp_files/9921.got.cif
#   From: 2010.03.12/outbox.cif.g09.slc.cpg/sg23_5_cif.got.tgz:9921.got - 2010.04.14 02:50:06.
