data_PCOD8163830
_publ_section_title
;
Structure prediction by ZEFSAII (Michael W. Deem and Ramdas Pophale) SiO2 
 PCOD8163830
Probable space group: I 2 2 2
;
_chemical_formula_sum "Si O2"
_cell_formula_units_Z 56
_cell_length_a 14.579758
_cell_length_b 9.011927
_cell_length_c 20.482573
_cell_angle_alpha 90.000000
_cell_angle_beta 90.000000
_cell_angle_gamma 90.000000
_cell_volume 2691.240389
_symmetry_space_group_name_H-M "I 2 2 2"
_symmetry_group_IT_number 23
_symmetry_cell_setting 'orthorhombic'
loop_
_space_group_symop_operation_xyz
x,y,z
-x,-y,z
x,-y,-z
-x,y,-z
1/2+x,1/2+y,1/2+z
1/2-x,1/2-y,1/2+z
1/2+x,1/2-y,1/2-z
1/2-x,1/2+y,1/2-z
loop_
_atom_site_type_symbol
_atom_site_label
_atom_site_fract_x
_atom_site_fract_y
_atom_site_fract_z
Si Si1 0.174693 0.698328 0.377173
Si Si2 0.327112 0.322447 0.990132
Si Si3 0.666517 0.872508 0.665717
Si Si4 0.477168 0.826698 0.089215
Si Si5 0.330471 0.118808 0.813253
Si Si6 0.496267 0.823307 0.424599
Si Si7 0.688886 0.200381 0.623664
O O1 0.216618 0.737007 0.448010
O O2 0.237245 0.786946 0.326122
O O3 0.181486 0.530534 0.354501
O O4 0.069738 0.754930 0.386009
O O5 0.427607 0.250402 0.973555
O O6 0.253212 0.272133 0.937740
O O7 0.335183 0.500000 0.000000
O O8 0.632710 0.901435 0.739672
O O9 0.592935 0.782650 0.620008
O O10 0.690428 0.026984 0.634260
O O11 0.411209 0.794449 0.150436
O O12 0.500000 0.000000 0.074285
O O13 0.233695 0.208264 0.816177
O O14 0.500000 0.766839 0.500000
O O15 0.584275 0.748979 0.389337
O O16 0.500000 0.000000 0.423912
#
# Coordination Sequence:
#
# PCOD8163830 Si02
#       7
#     8   8   8   8   8   8   8
#     4  11  22  37  61  84 120 158 196 249 302 359
#     4  11  21  38  63  91 121 152 202 251 307 359
#     4  11  21  38  61  88 117 158 205 254 302 367
#     4   9  22  39  58  88 122 159 199 242 302 377
#     4  10  23  39  57  85 122 162 204 240 308 375
#     4   9  19  34  61  89 115 147 202 262 306 351
#     4  10  21  38  59  87 117 153 201 254 301 366
#
# _framework density 20.808247999999999
#
# number of rings (size 3 to 8) (size 9 to 14) (size 15 to 20)
#    0.000    1.857    1.429    2.143    2.000   14.286 
#    0.000    0.714    0.000    4.286    0.000    0.000 
#    0.000    0.000    0.000    0.000    0.000    0.000 
#
# Total GULP energy -346868.458170 kJ/mol
# GULP energy per Si atom -12388.159220 kJ/mol
# Density = 2.076089 g / cm^3
# Si number density = 20.808248 Si / 1000 Ang^3
#
#
#
# Elastic Constant Matrix: (Units=GPa)
#
#
# Indices 1 2 3 4 5 6 
#
# 1 120.3528 38.5035 34.7839 0.0000 0.0000 0.0000
# 2 38.5035 39.2539 22.0350 0.0000 0.0000 0.0000
# 3 34.7839 22.0350 105.4398 0.0000 0.0000 0.0000
# 4 0.0000 0.0000 0.0000 -4.0146 0.0000 0.0000
# 5 0.0000 0.0000 0.0000 0.0000 24.1726 0.0000
# 6 0.0000 0.0000 0.0000 0.0000 0.0000 27.9319
#
#
#
# Elastic Compliance Matrix: (Units=1/GPa)
#
#
# Indices 1 2 3 4 5 6 
#
# 1 0.012388 -0.011167 -0.001753 0.000000 0.000000 0.000000
# 2 -0.011167 0.038928 -0.004451 0.000000 0.000000 0.000000
# 3 -0.001753 -0.004451 0.010993 0.000000 0.000000 0.000000
# 4 0.000000 0.000000 0.000000 -0.249091 0.000000 0.000000
# 5 0.000000 0.000000 0.000000 0.000000 0.041369 0.000000
# 6 0.000000 0.000000 0.000000 0.000000 0.000000 0.035801
#
#
# Mechanical properties :
#
#
# Convention : Reuss Voigt Hill
#
# Bulk Modulus (GPa) = 36.27726 50.63239 43.45482
# Shear Modulus (GPa) = -76.12643 20.93292 -27.59676
#
# Velocity S-wave (km/s) = -6.05509 3.17518 -3.64571
# Velocity P-wave (km/s) = 5.60479 6.15045 1.79086
#
# Compressibility (1/GPa) = 0.02756548
#
# Stress axis : x y z
#
# Youngs Moduli (GPa) = 80.72174 25.68864 90.97026
#
# Poissons Ratio (x) = 0.28687 0.15947
# Poissons Ratio (y) = 0.90145 0.40492
# Poissons Ratio (z) = 0.14151 0.11434
#
# Static dielectric constant tensor:
#      x y z
#    x 4.298170 0.000000 0.000000 
#    y 0.000000 3.471360 0.000000 
#    z 0.000000 0.000000 3.903400 
# 
# 
# High freq. dielectric constant tensor:
#      x y z
#    x 1.829150 0.000000 0.000000 
#    y 0.000000 1.777200 0.000000 
#    z 0.000000 0.000000 1.822550 
# 
# From -- ./inp_files/27009.got.cif
#   From: 2010.03.12/outbox.cif.g09.slc.cpg/sg23_14_cif.got.tgz:27009.got - 2010.04.14 02:50:06.
