data_PCOD8163702
_publ_section_title
;
Structure prediction by ZEFSAII (Michael W. Deem and Ramdas Pophale) SiO2 
 PCOD8163702
Probable space group: I 2 2 2
;
_chemical_formula_sum "Si O2"
_cell_formula_units_Z 56
_cell_length_a 20.266003
_cell_length_b 9.038896
_cell_length_c 13.340491
_cell_angle_alpha 90.000000
_cell_angle_beta 90.000000
_cell_angle_gamma 90.000000
_cell_volume 2443.741737
_symmetry_space_group_name_H-M "I 2 2 2"
_symmetry_group_IT_number 23
_symmetry_cell_setting 'orthorhombic'
loop_
_space_group_symop_operation_xyz
x,y,z
-x,-y,z
x,-y,-z
-x,y,-z
1/2+x,1/2+y,1/2+z
1/2-x,1/2-y,1/2+z
1/2+x,1/2-y,1/2-z
1/2-x,1/2+y,1/2-z
loop_
_atom_site_type_symbol
_atom_site_label
_atom_site_fract_x
_atom_site_fract_y
_atom_site_fract_z
Si Si1 0.206150 0.500000 0.500000
Si Si2 0.626412 0.878787 0.827957
Si Si3 0.500000 0.000000 0.267048
Si Si4 0.659021 0.566994 0.897872
Si Si5 0.712563 0.224450 0.558549
Si Si6 0.365973 0.428394 0.307660
Si Si7 0.007802 0.777852 0.118347
Si Si8 0.856976 0.759357 0.133336
O O1 0.162807 0.498347 0.397830
O O2 0.247092 0.650985 0.498233
O O3 0.621294 0.720736 0.883173
O O4 0.667871 0.847359 0.723948
O O5 0.553932 0.936884 0.807971
O O6 0.534879 0.878927 0.339728
O O7 0.738825 0.593107 0.907161
O O8 0.641744 0.448318 0.811418
O O9 0.631314 0.500000 0.000000
O O10 0.675506 0.285767 0.656485
O O11 0.658233 0.179691 0.473087
O O12 0.442681 0.406577 0.342379
O O13 0.331290 0.570775 0.361193
O O14 0.933936 0.786675 0.160778
O O15 0.000000 0.785450 0.000000
#
# Coordination Sequence:
#
# PCOD8163702 Si02
#       8
#     4   8   4   8   8   8   8   8
#     4  10  20  39  62  91 130 176 234 280 326 418
#     4   9  22  42  66  93 131 175 228 287 350 418
#     4  10  23  45  64 100 130 174 226 284 356 420
#     4  10  25  45  63  97 138 185 242 289 339 421
#     4  11  21  41  65  96 135 181 229 284 350 421
#     4  11  22  41  66 100 136 184 230 286 358 426
#     4  11  22  38  67 101 139 173 217 286 360 425
#     4  10  20  40  64  99 135 170 228 279 352 425
#
# _framework density 22.915678
#
# number of rings (size 3 to 8) (size 9 to 14) (size 15 to 20)
#    0.000    1.714    2.857    0.643    0.000    6.571 
#   10.286    1.429    0.000   13.714    0.000    0.000 
#    0.000    0.000    0.000    0.000    0.000    0.000 
#
# Total GULP energy -346977.508822 kJ/mol
# GULP energy per Si atom -12392.053886 kJ/mol
# Density = 2.286352 g / cm^3
# Si number density = 22.915678 Si / 1000 Ang^3
#
#
#
# Elastic Constant Matrix: (Units=GPa)
#
#
# Indices 1 2 3 4 5 6 
#
# 1 87.8319 22.0252 55.3893 0.0000 0.0000 0.0000
# 2 22.0252 45.0918 44.8170 0.0000 0.0000 0.0000
# 3 55.3893 44.8170 176.2141 0.0000 0.0000 0.0000
# 4 0.0000 0.0000 0.0000 46.7891 0.0000 0.0000
# 5 0.0000 0.0000 0.0000 0.0000 36.5004 0.0000
# 6 0.0000 0.0000 0.0000 0.0000 0.0000 34.0867
#
#
#
# Elastic Compliance Matrix: (Units=1/GPa)
#
#
# Indices 1 2 3 4 5 6 
#
# 1 0.014588 -0.003437 -0.003711 0.000000 0.000000 0.000000
# 2 -0.003437 0.030489 -0.006674 0.000000 0.000000 0.000000
# 3 -0.003711 -0.006674 0.008539 0.000000 0.000000 0.000000
# 4 0.000000 0.000000 0.000000 0.021372 0.000000 0.000000
# 5 0.000000 0.000000 0.000000 0.000000 0.027397 0.000000
# 6 0.000000 0.000000 0.000000 0.000000 0.000000 0.029337
#
#
# Mechanical properties :
#
#
# Convention : Reuss Voigt Hill
#
# Bulk Modulus (GPa) = 38.50377 61.51119 50.00748
# Shear Modulus (GPa) = 29.75777 35.93567 32.84672
#
# Velocity S-wave (km/s) = 3.60749 3.96431 3.79010
# Velocity P-wave (km/s) = 5.84729 6.91773 6.40491
#
# Compressibility (1/GPa) = 0.02597148
#
# Stress axis : x y z
#
# Youngs Moduli (GPa) = 68.55134 32.79860 117.11096
#
# Poissons Ratio (x) = 0.11272 0.43463
# Poissons Ratio (y) = 0.23559 0.78161
# Poissons Ratio (z) = 0.25441 0.21890
#
# Static dielectric constant tensor:
#      x y z
#    x 4.208800 0.000000 0.000000 
#    y 0.000000 4.178640 0.000000 
#    z 0.000000 0.000000 4.265200 
# 
# 
# High freq. dielectric constant tensor:
#      x y z
#    x 1.892050 0.000000 0.000000 
#    y 0.000000 1.898810 0.000000 
#    z 0.000000 0.000000 1.909040 
# 
# From -- ./inp_files/22432.got.cif
#   From: 2010.03.12/outbox.cif.g09.slc.cpg/sg23_12_cif.got.tgz:22432.got - 2010.04.14 02:50:06.
