data_PCOD8163529
_publ_section_title
;
Structure prediction by ZEFSAII (Michael W. Deem and Ramdas Pophale) SiO2 
 PCOD8163529
Probable space group: I 2 2 2
;
_chemical_formula_sum "Si O2"
_cell_formula_units_Z 60
_cell_length_a 20.844200
_cell_length_b 12.409010
_cell_length_c 11.505442
_cell_angle_alpha 90.000000
_cell_angle_beta 90.000000
_cell_angle_gamma 90.000000
_cell_volume 2975.950297
_symmetry_space_group_name_H-M "I 2 2 2"
_symmetry_group_IT_number 23
_symmetry_cell_setting 'orthorhombic'
loop_
_space_group_symop_operation_xyz
x,y,z
-x,-y,z
x,-y,-z
-x,y,-z
1/2+x,1/2+y,1/2+z
1/2-x,1/2-y,1/2+z
1/2+x,1/2-y,1/2-z
1/2-x,1/2+y,1/2-z
loop_
_atom_site_type_symbol
_atom_site_label
_atom_site_fract_x
_atom_site_fract_y
_atom_site_fract_z
Si Si1 0.750839 0.444318 0.771826
Si Si2 0.846625 0.205222 0.615081
Si Si3 0.928384 0.459216 0.883182
Si Si4 0.575359 0.873711 0.007340
Si Si5 0.850654 0.734638 0.141109
Si Si6 0.647545 0.890516 0.232137
Si Si7 0.296735 0.279330 0.399669
Si Si8 0.828399 0.000000 0.500000
O O1 0.799693 0.355965 0.821068
O O2 0.784936 0.547556 0.710467
O O3 0.706755 0.391187 0.671761
O O4 0.712449 0.484457 0.883439
O O5 0.890880 0.310306 0.597090
O O6 0.854372 0.179197 0.753116
O O7 0.773351 0.229054 0.580160
O O8 0.870655 0.105600 0.533441
O O9 0.918391 0.329449 0.876371
O O10 0.901089 0.516722 0.770415
O O11 0.000000 0.500000 0.891588
O O12 0.891642 0.500000 0.000000
O O13 0.613953 0.833572 0.121787
O O14 0.500000 0.846500 0.000000
O O15 0.588260 0.000000 0.000000
O O16 0.829078 0.797932 0.025570
O O17 0.657142 0.800107 0.328879
#
# Coordination Sequence:
#
# PCOD8163529 Si02
#       8
#     8   8   8   8   8   8   8   4
#     4  10  20  33  59  84 120 162 200 255 317 372
#     4  11  24  38  62  86 124 173 209 262 322 375
#     4  10  20  33  56  89 122 164 201 245 319 389
#     4  11  25  43  62  92 130 166 211 268 327 386
#     4  10  20  36  54  85 124 160 210 259 315 378
#     4  11  21  36  59  87 123 165 200 253 309 383
#     4  11  20  36  59  89 124 159 208 264 317 379
#     4  12  20  40  61  88 129 168 218 260 316 388
#
# _framework density 20.161626999999999
#
# number of rings (size 3 to 8) (size 9 to 14) (size 15 to 20)
#    0.000    1.333    4.000    3.200    7.467    0.000 
#    0.000    1.000    0.000    0.000    0.000    0.000 
#    0.000    0.267    0.000    0.000    0.000    0.000 
#
# Total GULP energy -371766.287994 kJ/mol
# GULP energy per Si atom -12392.209600 kJ/mol
# Density = 2.011574 g / cm^3
# Si number density = 20.161627 Si / 1000 Ang^3
#
#
#
# Elastic Constant Matrix: (Units=GPa)
#
#
# Indices 1 2 3 4 5 6 
#
# 1 75.5640 32.1973 46.9991 0.0000 0.0000 0.0000
# 2 32.1973 71.3943 48.5433 0.0000 0.0000 0.0000
# 3 46.9991 48.5433 142.0627 0.0000 0.0000 0.0000
# 4 0.0000 0.0000 0.0000 42.8270 0.0000 0.0000
# 5 0.0000 0.0000 0.0000 0.0000 23.9865 0.0000
# 6 0.0000 0.0000 0.0000 0.0000 0.0000 23.1923
#
#
#
# Elastic Compliance Matrix: (Units=1/GPa)
#
#
# Indices 1 2 3 4 5 6 
#
# 1 0.018095 -0.005328 -0.004166 0.000000 0.000000 0.000000
# 2 -0.005328 0.019815 -0.005008 0.000000 0.000000 0.000000
# 3 -0.004166 -0.005008 0.010129 0.000000 0.000000 0.000000
# 4 0.000000 0.000000 0.000000 0.023350 0.000000 0.000000
# 5 0.000000 0.000000 0.000000 0.000000 0.041690 0.000000
# 6 0.000000 0.000000 0.000000 0.000000 0.000000 0.043118
#
#
# Mechanical properties :
#
#
# Convention : Reuss Voigt Hill
#
# Bulk Modulus (GPa) = 52.53602 60.50004 56.51803
# Shear Modulus (GPa) = 26.10357 28.75326 27.42842
#
# Velocity S-wave (km/s) = 3.60212 3.78052 3.69240
# Velocity P-wave (km/s) = 6.58896 7.00922 6.80233
#
# Compressibility (1/GPa) = 0.01903456
#
# Stress axis : x y z
#
# Youngs Moduli (GPa) = 55.26357 50.46766 98.73003
#
# Poissons Ratio (x) = 0.26889 0.41130
# Poissons Ratio (y) = 0.29444 0.49445
# Poissons Ratio (z) = 0.23022 0.25275
#
# Static dielectric constant tensor:
#      x y z
#    x 3.462020 0.000000 0.000000 
#    y 0.000000 3.718880 0.000000 
#    z 0.000000 0.000000 4.372300 
# 
# 
# High freq. dielectric constant tensor:
#      x y z
#    x 1.747930 0.000000 0.000000 
#    y 0.000000 1.767550 0.000000 
#    z 0.000000 0.000000 1.808710 
# 
# From -- ./inp_files/18032.got.cif
#   From: 2010.03.12/outbox.cif.g09.slc.cpg/sg23_10_cif.got.tgz:18032.got - 2010.04.14 02:50:06.
