data_PCOD8163202
_publ_section_title
;
Structure prediction by ZEFSAII (Michael W. Deem and Ramdas Pophale) SiO2 
 PCOD8163202
Probable space group: I 2 2 2
;
_chemical_formula_sum "Si O2"
_cell_formula_units_Z 42
_cell_length_a 7.665378
_cell_length_b 15.162604
_cell_length_c 17.498752
_cell_angle_alpha 90.000000
_cell_angle_beta 90.000000
_cell_angle_gamma 90.000000
_cell_volume 2033.829043
_symmetry_space_group_name_H-M "I 2 2 2"
_symmetry_group_IT_number 23
_symmetry_cell_setting 'orthorhombic'
loop_
_space_group_symop_operation_xyz
x,y,z
-x,-y,z
x,-y,-z
-x,y,-z
1/2+x,1/2+y,1/2+z
1/2-x,1/2-y,1/2+z
1/2+x,1/2-y,1/2-z
1/2-x,1/2+y,1/2-z
loop_
_atom_site_type_symbol
_atom_site_label
_atom_site_fract_x
_atom_site_fract_y
_atom_site_fract_z
Si Si1 0.000000 0.500000 0.000000
Si Si2 0.499093 0.297815 0.159162
Si Si3 0.859879 0.181535 0.060904
Si Si4 0.237841 0.638366 0.713518
Si Si5 0.500000 0.000000 0.733032
Si Si6 0.000000 0.278325 0.500000
Si Si7 0.661282 0.122950 0.615978
O O1 0.139851 0.555107 0.047572
O O2 0.340334 0.332979 0.210022
O O3 0.587690 0.210910 0.196338
O O4 0.643120 0.374568 0.149431
O O5 0.432440 0.278630 0.072755
O O6 0.871124 0.130510 0.141724
O O7 0.896785 0.283001 0.082744
O O8 0.667042 0.164782 0.025851
O O9 0.000000 0.146183 0.000000
O O10 0.159991 0.538925 0.718065
O O11 0.542420 0.088139 0.684910
#
# Coordination Sequence:
#
# PCOD8163202 Si02
#       7
#     2   8   8   8   4   4   8
#     4  10  16  32  56  90 130 166 198 254 326 394
#     4  10  21  39  60  92 116 170 209 257 308 397
#     4  10  20  39  63  92 118 169 215 265 306 388
#     4  10  22  37  60  91 123 166 215 260 321 386
#     4  11  22  37  56  91 131 164 194 270 325 377
#     4   8  20  32  60  94 122 144 212 260 304 360
#     4   9  20  33  57  88 126 165 201 247 327 381
#
# _framework density 20.650701999999999
#
# number of rings (size 3 to 8) (size 9 to 14) (size 15 to 20)
#    0.000    2.667    0.952    2.286    5.333    2.286 
#    0.000    3.810    0.000    9.143    0.000    0.000 
#    0.000    0.000    0.000    0.000    0.000    0.000 
#
# Total GULP energy -260153.696088 kJ/mol
# GULP energy per Si atom -12388.271242 kJ/mol
# Density = 2.060370 g / cm^3
# Si number density = 20.650702 Si / 1000 Ang^3
#
#
#
# Elastic Constant Matrix: (Units=GPa)
#
#
# Indices 1 2 3 4 5 6 
#
# 1 83.8723 29.7944 53.9436 0.0000 0.0000 0.0000
# 2 29.7944 57.9169 35.9420 0.0000 0.0000 0.0000
# 3 53.9436 35.9420 157.4844 0.0000 0.0000 0.0000
# 4 0.0000 0.0000 0.0000 8.7495 0.0000 0.0000
# 5 0.0000 0.0000 0.0000 0.0000 44.5759 0.0000
# 6 0.0000 0.0000 0.0000 0.0000 0.0000 29.7717
#
#
#
# Elastic Compliance Matrix: (Units=1/GPa)
#
#
# Indices 1 2 3 4 5 6 
#
# 1 0.016879 -0.005936 -0.004427 0.000000 0.000000 0.000000
# 2 -0.005936 0.022203 -0.003034 0.000000 0.000000 0.000000
# 3 -0.004427 -0.003034 0.008559 0.000000 0.000000 0.000000
# 4 0.000000 0.000000 0.000000 0.114292 0.000000 0.000000
# 5 0.000000 0.000000 0.000000 0.000000 0.022434 0.000000
# 6 0.000000 0.000000 0.000000 0.000000 0.000000 0.033589
#
#
# Mechanical properties :
#
#
# Convention : Reuss Voigt Hill
#
# Bulk Modulus (GPa) = 47.96937 59.84819 53.90878
# Shear Modulus (GPa) = 19.86523 28.59233 24.22878
#
# Velocity S-wave (km/s) = 3.10492 3.72502 3.42901
# Velocity P-wave (km/s) = 6.01111 6.89530 6.46833
#
# Compressibility (1/GPa) = 0.02084664
#
# Stress axis : x y z
#
# Youngs Moduli (GPa) = 59.24651 45.03989 116.84169
#
# Poissons Ratio (x) = 0.26735 0.51723
# Poissons Ratio (y) = 0.35167 0.35450
# Poissons Ratio (z) = 0.26227 0.13665
#
# Static dielectric constant tensor:
#      x y z
#    x 3.643720 0.000000 0.000000 
#    y 0.000000 3.387740 0.000000 
#    z 0.000000 0.000000 4.141800 
# 
# 
# High freq. dielectric constant tensor:
#      x y z
#    x 1.797110 0.000000 0.000000 
#    y 0.000000 1.768040 0.000000 
#    z 0.000000 0.000000 1.832210 
# 
# From -- ./inp_files/19814.got.cif
#   From: 2010.03.12/outbox.cif.g09.slc.cpg/sg23_10_cif.got.tgz:19814.got - 2010.04.14 02:50:06.
