data_PCOD8163001
_publ_section_title
;
Structure prediction by ZEFSAII (Michael W. Deem and Ramdas Pophale) SiO2 
 PCOD8163001
Probable space group: F 2 2 2
;
_chemical_formula_sum "Si O2"
_cell_formula_units_Z 72
_cell_length_a 11.378808
_cell_length_b 18.845443
_cell_length_c 15.427708
_cell_angle_alpha 90.000000
_cell_angle_beta 90.000000
_cell_angle_gamma 90.000000
_cell_volume 3308.297301
_symmetry_space_group_name_H-M "F 2 2 2"
_symmetry_group_IT_number 22
_symmetry_cell_setting 'orthorhombic'
loop_
_space_group_symop_operation_xyz
x,y,z
-x,-y,z
x,-y,-z
-x,y,-z
x,1/2+y,1/2+z
-x,1/2-y,1/2+z
x,1/2-y,1/2-z
-x,1/2+y,1/2-z
1/2+x,y,1/2+z
1/2-x,-y,1/2+z
1/2+x,-y,1/2-z
1/2-x,y,1/2-z
1/2+x,1/2+y,z
1/2-x,1/2-y,z
1/2+x,1/2-y,-z
1/2-x,1/2+y,-z
loop_
_atom_site_type_symbol
_atom_site_label
_atom_site_fract_x
_atom_site_fract_y
_atom_site_fract_z
Si Si1 0.831953 0.467659 0.128061
Si Si2 0.086386 0.439206 0.678708
Si Si3 0.089903 0.825822 0.795195
Si Si4 0.313936 0.371425 0.375714
Si Si5 0.500000 0.115232 0.000000
O O1 0.882374 0.463271 0.224493
O O2 0.705034 0.429564 0.122781
O O3 0.802448 0.547135 0.094766
O O4 0.928787 0.433129 0.067099
O O5 0.000000 0.500000 0.639787
O O6 0.029451 0.360506 0.669970
O O7 0.070858 0.750000 0.750000
O O8 0.191503 0.826530 0.870264
O O9 0.132506 0.877945 0.719884
O O10 0.407103 0.336300 0.444593
#
# Coordination Sequence:
#
# PCOD8163001 Si02
#       5
#    16  16  16  16   8
#     4  11  20  33  63  95 121 157 205 264 315 365
#     4  11  18  37  63  90 119 159 211 263 307 359
#     4  11  22  38  65  91 119 164 220 257 305 378
#     4  11  19  35  61  90 122 158 204 261 306 370
#     4  12  23  36  62 102 130 162 207 262 323 382
#
# _framework density 21.763461
#
# number of rings (size 3 to 8) (size 9 to 14) (size 15 to 20)
#    0.000    0.889    6.667    4.667    0.000    0.000 
#    0.000    3.333    9.778    0.000    0.000    0.000 
#    0.000    0.000    0.000    0.000    0.000    0.000 
#
# Total GULP energy -222989.833762 kJ/mol
# GULP energy per Si atom -12388.324098 kJ/mol
# Density = 2.171393 g / cm^3
# Si number density = 21.763461 Si / 1000 Ang^3
#
#
#
# Elastic Constant Matrix: (Units=GPa)
#
#
# Indices 1 2 3 4 5 6 
#
# 1 166.4594 59.0351 30.4266 0.0000 0.0000 0.0000
# 2 59.0351 98.5388 1.8930 0.0000 0.0000 0.0000
# 3 30.4266 1.8930 50.0695 0.0000 0.0000 0.0000
# 4 0.0000 0.0000 0.0000 9.7004 0.0000 0.0000
# 5 0.0000 0.0000 0.0000 0.0000 48.6015 0.0000
# 6 0.0000 0.0000 0.0000 0.0000 0.0000 25.4640
#
#
#
# Elastic Compliance Matrix: (Units=1/GPa)
#
#
# Indices 1 2 3 4 5 6 
#
# 1 0.008776 -0.005159 -0.005138 0.000000 0.000000 0.000000
# 2 -0.005159 0.013189 0.002637 0.000000 0.000000 0.000000
# 3 -0.005138 0.002637 0.022995 0.000000 0.000000 0.000000
# 4 0.000000 0.000000 0.000000 0.103088 0.000000 0.000000
# 5 0.000000 0.000000 0.000000 0.000000 0.020575 0.000000
# 6 0.000000 0.000000 0.000000 0.000000 0.000000 0.039271
#
#
# Mechanical properties :
#
#
# Convention : Reuss Voigt Hill
#
# Bulk Modulus (GPa) = 33.74027 55.30855 44.52441
# Shear Modulus (GPa) = 21.45037 31.66738 26.55887
#
# Velocity S-wave (km/s) = 3.14285 3.81868 3.49713
# Velocity P-wave (km/s) = 5.35788 6.70162 6.06707
#
# Compressibility (1/GPa) = 0.02963817
#
# Stress axis : x y z
#
# Youngs Moduli (GPa) = 113.94149 75.82303 43.48766
#
# Poissons Ratio (x) = 0.39119 0.22345
# Poissons Ratio (y) = 0.58786 -0.11466
# Poissons Ratio (z) = 0.58546 -0.19992
#
# Static dielectric constant tensor:
#      x y z
#    x 4.592410 0.000000 0.000000 
#    y 0.000000 3.472020 0.000000 
#    z 0.000000 0.000000 4.026380 
# 
# 
# High freq. dielectric constant tensor:
#      x y z
#    x 1.878420 0.000000 0.000000 
#    y 0.000000 1.814670 0.000000 
#    z 0.000000 0.000000 1.828490 
# 
# From -- ./inp_files/35982.got.cif
#   From: 2010.03.12/outbox.cif.g09.slc.cpg/sg22_18_cif.got.tgz:35982.got - 2010.04.14 02:24:06.
