data_PCOD8163275
_publ_section_title
;
Structure prediction by ZEFSAII (Michael W. Deem and Ramdas Pophale) SiO2 
 PCOD8163275
Probable space group: I 2 2 2
;
_chemical_formula_sum "Si O2"
_cell_formula_units_Z 40
_cell_length_a 10.402469
_cell_length_b 23.262895
_cell_length_c 8.710130
_cell_angle_alpha 90.000000
_cell_angle_beta 90.000000
_cell_angle_gamma 90.000000
_cell_volume 2107.777808
_symmetry_space_group_name_H-M "I 2 2 2"
_symmetry_group_IT_number 23
_symmetry_cell_setting 'orthorhombic'
loop_
_space_group_symop_operation_xyz
x,y,z
-x,-y,z
x,-y,-z
-x,y,-z
1/2+x,1/2+y,1/2+z
1/2-x,1/2-y,1/2+z
1/2+x,1/2-y,1/2-z
1/2-x,1/2+y,1/2-z
loop_
_atom_site_type_symbol
_atom_site_label
_atom_site_fract_x
_atom_site_fract_y
_atom_site_fract_z
Si Si1 0.500000 0.196151 0.682210
Si Si2 0.739864 0.878733 0.317455
Si Si3 0.500000 0.677972 0.817436
Si Si4 0.854533 0.500000 0.816933
Si Si5 0.239864 0.378733 0.182545
O O1 0.500000 0.202741 0.500000
O O2 0.625297 0.162114 0.741001
O O3 0.500000 0.257788 0.758274
O O4 0.374703 0.162114 0.741001
O O5 0.739956 0.879471 0.500000
O O6 0.874737 0.855027 0.253233
O O7 0.718525 0.943409 0.254827
O O8 0.374738 0.644973 0.753233
O O9 0.500000 0.678896 0.000000
O O10 0.781475 0.443409 0.754827
O O11 0.000000 0.500000 0.754140
O O12 0.857209 0.500000 0.000000
#
# Coordination Sequence:
#
# PCOD8163275 Si02
#       5
#     8   8   8   8   8
#     4  10  18  31  49  67  89 124 161 182 210 272
#     4   9  17  28  45  68  93 119 150 188 228 268
#     4  10  20  31  43  69 101 120 143 188 234 264
#     4   9  14  25  45  67  90 117 149 187 228 269
#     4   9  17  28  45  68  93 119 150 188 228 268
#
# _framework density 18.977332000000001
#
# number of rings (size 3 to 8) (size 9 to 14) (size 15 to 20)
#    0.000    2.600    2.000    1.200    0.000    0.800 
#    0.000    4.000    0.000    0.000    0.000    8.400 
#    0.000    0.000    0.000    0.000    0.000    0.000 
#
# Total GULP energy -247963.467288 kJ/mol
# GULP energy per Si atom -12398.173364 kJ/mol
# Density = 1.893414 g / cm^3
# Si number density = 18.977332 Si / 1000 Ang^3
#
#
#
# Elastic Constant Matrix: (Units=GPa)
#
#
# Indices 1 2 3 4 5 6 
#
# 1 205.7021 118.2701 10.5447 0.0000 0.0000 0.0000
# 2 118.2701 213.9989 8.5813 -0.0001 0.0000 0.0001
# 3 10.5447 8.5813 4.7353 -0.0001 0.0000 0.0007
# 4 0.0000 -0.0001 -0.0001 24.1911 0.0000 0.0001
# 5 0.0000 0.0000 0.0000 0.0000 6.7319 -0.0002
# 6 0.0000 0.0001 0.0007 0.0001 -0.0002 -13.7424
#
#
#
# Elastic Compliance Matrix: (Units=1/GPa)
#
#
# Indices 1 2 3 4 5 6 
#
# 1 0.007537 -0.003766 -0.009959 0.000000 0.000000 -0.000001
# 2 -0.003766 0.006921 -0.004155 0.000000 0.000000 0.000000
# 3 -0.009959 -0.004155 0.240887 0.000001 0.000001 0.000012
# 4 0.000000 0.000000 0.000001 0.041337 0.000000 0.000000
# 5 0.000000 0.000000 0.000001 0.000000 0.148546 -0.000002
# 6 -0.000001 0.000000 0.000012 0.000000 -0.000002 -0.072767
#
#
# Mechanical properties :
#
#
# Convention : Reuss Voigt Hill
#
# Bulk Modulus (GPa) = 4.55406 77.69206 41.12306
# Shear Modulus (GPa) = 10.38597 22.57213 16.47905
#
# Velocity S-wave (km/s) = 2.34195 3.45255 2.94998
# Velocity P-wave (km/s) = 3.11735 7.54465 5.77233
#
# Compressibility (1/GPa) = 0.21958409
#
# Stress axis : x y z
#
# Youngs Moduli (GPa) = 132.67181 144.48628 4.15132
#
# Poissons Ratio (x) = 0.54418 0.04134
# Poissons Ratio (y) = 0.49968 0.01725
# Poissons Ratio (z) = 1.32130 0.60041
#
# Static dielectric constant tensor:
#      x y z
#    x 3.916050 0.000000 0.000000 
#    y 0.000000 3.728160 0.000000 
#    z 0.000000 0.000000 2.772520 
# 
# 
# High freq. dielectric constant tensor:
#      x y z
#    x 1.750740 0.000000 0.000000 
#    y 0.000000 1.756900 0.000000 
#    z 0.000000 0.000000 1.663710 
# 
# From -- ./inp_files/6899.got.cif
#   From: 2010.03.12/outbox.cif.g09.slc.cpg/sg23_4_cif.got.tgz:6899.got - 2010.04.14 02:50:06.
