data_PCOD8163566
_publ_section_title
;
Structure prediction by ZEFSAII (Michael W. Deem and Ramdas Pophale) SiO2 
 PCOD8163566
Probable space group: I 2 2 2
;
_chemical_formula_sum "Si O2"
_cell_formula_units_Z 56
_cell_length_a 18.387761
_cell_length_b 17.218742
_cell_length_c 9.426007
_cell_angle_alpha 90.000000
_cell_angle_beta 90.000000
_cell_angle_gamma 90.000000
_cell_volume 2984.406842
_symmetry_space_group_name_H-M "I 2 2 2"
_symmetry_group_IT_number 23
_symmetry_cell_setting 'orthorhombic'
loop_
_space_group_symop_operation_xyz
x,y,z
-x,-y,z
x,-y,-z
-x,y,-z
1/2+x,1/2+y,1/2+z
1/2-x,1/2-y,1/2+z
1/2+x,1/2-y,1/2-z
1/2-x,1/2+y,1/2-z
loop_
_atom_site_type_symbol
_atom_site_label
_atom_site_fract_x
_atom_site_fract_y
_atom_site_fract_z
Si Si1 0.333374 0.147738 0.168111
Si Si2 0.666626 0.852262 0.831890
Si Si3 0.178115 0.090275 0.165759
Si Si4 0.178115 0.090275 0.834242
Si Si5 0.084233 0.799573 0.333864
Si Si6 0.415767 0.700427 0.166135
Si Si7 0.918308 0.500000 0.330423
O O1 0.249655 0.138019 0.214776
O O2 0.368139 0.227506 0.225442
O O3 0.378850 0.075984 0.231522
O O4 0.339933 0.145577 0.000000
O O5 0.750346 0.861982 0.785225
O O6 0.631862 0.772494 0.774559
O O7 0.621151 0.924016 0.768479
O O8 0.109633 0.123194 0.252259
O O9 0.189115 1.000000 0.202446
O O10 0.162868 0.101576 0.000000
O O11 0.109633 0.123194 0.747742
O O12 0.097020 0.812685 0.499999
O O13 1.000000 0.783299 0.300667
O O14 0.915550 0.500000 0.500000
O O15 0.000000 0.500000 0.273281
#
# Coordination Sequence:
#
# PCOD8163566 Si02
#       7
#     8   8   8   8   8   8   8
#     4   9  16  30  50  75 105 133 166 208 255 306
#     4   9  16  30  50  75 105 133 166 208 255 306
#     4  10  20  35  55  77 102 135 175 214 252 302
#     4  10  20  35  55  77 102 135 175 214 252 302
#     4  10  21  35  52  77 107 136 169 212 259 305
#     4  10  21  35  52  77 107 136 169 212 259 305
#     4   9  14  22  44  76 106 133 160 200 255 307
#
# _framework density 18.764196999999999
#
# number of rings (size 3 to 8) (size 9 to 14) (size 15 to 20)
#    0.000    2.429    1.429    1.714    0.000    5.143 
#    0.000    2.857    0.000    0.000    0.000    0.000 
#    0.000    4.571    0.000    0.000    0.000    0.000 
#
# Total GULP energy -347198.144414 kJ/mol
# GULP energy per Si atom -12399.933729 kJ/mol
# Density = 1.872149 g / cm^3
# Si number density = 18.764197 Si / 1000 Ang^3
#
#
#
# Elastic Constant Matrix: (Units=GPa)
#
#
# Indices 1 2 3 4 5 6 
#
# 1 100.4037 68.0984 37.4254 0.0000 0.0000 0.0000
# 2 68.0984 107.3066 39.5496 0.0000 0.0000 0.0000
# 3 37.4254 39.5496 28.9232 0.0000 0.0000 0.0000
# 4 0.0000 0.0000 0.0000 23.5112 0.0000 0.0000
# 5 0.0000 0.0000 0.0000 0.0000 23.4780 0.0000
# 6 0.0000 0.0000 0.0000 0.0000 0.0000 38.9360
#
#
#
# Elastic Compliance Matrix: (Units=1/GPa)
#
#
# Indices 1 2 3 4 5 6 
#
# 1 0.021461 -0.006823 -0.018439 0.000000 0.000000 0.000000
# 2 -0.006823 0.020957 -0.019828 0.000000 0.000000 0.000000
# 3 -0.018439 -0.019828 0.085546 0.000000 0.000000 0.000000
# 4 0.000000 0.000000 0.000000 0.042533 0.000000 0.000000
# 5 0.000000 0.000000 0.000000 0.000000 0.042593 0.000000
# 6 0.000000 0.000000 0.000000 0.000000 0.000000 0.025683
#
#
# Mechanical properties :
#
#
# Convention : Reuss Voigt Hill
#
# Bulk Modulus (GPa) = 26.46638 58.53115 42.49876
# Shear Modulus (GPa) = 14.63920 23.28904 18.96412
#
# Velocity S-wave (km/s) = 2.79618 3.52681 3.18253
# Velocity P-wave (km/s) = 4.95582 6.91702 6.01687
#
# Compressibility (1/GPa) = 0.03778379
#
# Stress axis : x y z
#
# Youngs Moduli (GPa) = 46.59626 47.71660 11.68957
#
# Poissons Ratio (x) = 0.32559 0.21555
# Poissons Ratio (y) = 0.31794 0.23178
# Poissons Ratio (z) = 0.85921 0.94611
#
# Static dielectric constant tensor:
#      x y z
#    x 3.512980 0.000000 0.000000 
#    y 0.000000 3.572790 0.000000 
#    z 0.000000 0.000000 2.864570 
# 
# 
# High freq. dielectric constant tensor:
#      x y z
#    x 1.739620 0.000000 0.000000 
#    y 0.000000 1.740300 0.000000 
#    z 0.000000 0.000000 1.669990 
# 
# From -- ./inp_files/17629.got.cif
#   From: 2010.03.12/outbox.cif.g09.slc.cpg/sg23_9_cif.got.tgz:17629.got - 2010.04.14 02:50:06.
