data_PCOD8163941
_publ_section_title
;
Structure prediction by ZEFSAII (Michael W. Deem and Ramdas Pophale) SiO2 
 PCOD8163941
Probable space group: I 2 2 2
;
_chemical_formula_sum "Si O2"
_cell_formula_units_Z 44
_cell_length_a 17.360542
_cell_length_b 7.464145
_cell_length_c 16.851770
_cell_angle_alpha 90.000000
_cell_angle_beta 90.000000
_cell_angle_gamma 90.000000
_cell_volume 2183.679366
_symmetry_space_group_name_H-M "I 2 2 2"
_symmetry_group_IT_number 23
_symmetry_cell_setting 'orthorhombic'
loop_
_space_group_symop_operation_xyz
x,y,z
-x,-y,z
x,-y,-z
-x,y,-z
1/2+x,1/2+y,1/2+z
1/2-x,1/2-y,1/2+z
1/2+x,1/2-y,1/2-z
1/2-x,1/2+y,1/2-z
loop_
_atom_site_type_symbol
_atom_site_label
_atom_site_fract_x
_atom_site_fract_y
_atom_site_fract_z
Si Si1 0.556932 0.850043 0.651941
Si Si2 0.772410 0.000000 0.500000
Si Si3 0.706780 0.037745 0.666359
Si Si4 0.500000 0.500000 0.731777
Si Si5 0.500000 0.000000 0.500000
Si Si6 0.000000 0.500000 0.500000
Si Si7 0.854807 0.342990 0.444508
Si Si8 0.346352 0.678169 0.781818
O O1 0.535516 0.650065 0.675205
O O2 0.552429 0.872138 0.556060
O O3 0.500000 0.000000 0.691587
O O4 0.643569 0.883512 0.681942
O O5 0.718031 0.057789 0.572313
O O6 0.831075 0.158295 0.482854
O O7 0.673049 0.225431 0.698829
O O8 0.786634 0.984809 0.707857
O O9 0.431909 0.590346 0.784260
O O10 0.052912 0.628626 0.445747
O O11 0.815817 0.500000 0.500000
O O12 0.833483 0.329296 0.351010
#
# Coordination Sequence:
#
# PCOD8163941 Si02
#       8
#     8   4   8   4   2   2   8   8
#     4  10  21  42  63  92 133 167 224 269 337 391
#     4  10  23  41  65  88 135 166 220 273 326 405
#     4  11  23  42  65  96 132 176 217 280 332 409
#     4  12  24  41  62 101 130 174 218 286 328 408
#     4   8  18  38  66  88 128 174 210 276 320 398
#     4   8  20  38  66  88 126 166 214 270 340 382
#     4   9  22  42  60  95 121 172 216 269 333 396
#     4  11  24  40  67  98 132 177 228 274 345 401
#
# _framework density 20.149477999999998
#
# number of rings (size 3 to 8) (size 9 to 14) (size 15 to 20)
#    1.091    0.727    1.818    1.636    2.545    5.091 
#    0.000    0.000    0.000    0.000    0.000    0.000 
#    0.000    0.000    0.000    0.000    0.000    0.000 
#
# Total GULP energy -272564.368589 kJ/mol
# GULP energy per Si atom -12389.289481 kJ/mol
# Density = 2.010362 g / cm^3
# Si number density = 20.149478 Si / 1000 Ang^3
#
#
#
# Elastic Constant Matrix: (Units=GPa)
#
#
# Indices 1 2 3 4 5 6 
#
# 1 119.1696 32.8070 38.8563 0.0000 0.0000 0.0000
# 2 32.8070 99.7346 58.3785 0.0000 0.0000 0.0000
# 3 38.8563 58.3785 101.5019 0.0000 0.0000 0.0000
# 4 0.0000 0.0000 0.0000 28.9190 0.0000 0.0000
# 5 0.0000 0.0000 0.0000 0.0000 20.0576 0.0000
# 6 0.0000 0.0000 0.0000 0.0000 0.0000 39.6667
#
#
#
# Elastic Compliance Matrix: (Units=1/GPa)
#
#
# Indices 1 2 3 4 5 6 
#
# 1 0.009743 -0.001540 -0.002844 0.000000 0.000000 0.000000
# 2 -0.001540 0.015359 -0.008244 0.000000 0.000000 0.000000
# 3 -0.002844 -0.008244 0.015682 0.000000 0.000000 0.000000
# 4 0.000000 0.000000 0.000000 0.034579 0.000000 0.000000
# 5 0.000000 0.000000 0.000000 0.000000 0.049856 0.000000
# 6 0.000000 0.000000 0.000000 0.000000 0.000000 0.025210
#
#
# Mechanical properties :
#
#
# Convention : Reuss Voigt Hill
#
# Bulk Modulus (GPa) = 64.40095 64.49886 64.44991
# Shear Modulus (GPa) = 27.64554 30.41962 29.03258
#
# Velocity S-wave (km/s) = 3.70810 3.88970 3.79998
# Velocity P-wave (km/s) = 7.09678 7.22860 7.16300
#
# Compressibility (1/GPa) = 0.01552772
#
# Stress axis : x y z
#
# Youngs Moduli (GPa) = 102.64146 65.10961 63.76688
#
# Poissons Ratio (x) = 0.10028 0.18134
# Poissons Ratio (y) = 0.15809 0.52569
# Poissons Ratio (z) = 0.29189 0.53676
#
# Static dielectric constant tensor:
#      x y z
#    x 3.709260 0.000000 0.000000 
#    y 0.000000 3.448000 0.000000 
#    z 0.000000 0.000000 3.669520 
# 
# 
# High freq. dielectric constant tensor:
#      x y z
#    x 1.792840 0.000000 0.000000 
#    y 0.000000 1.775360 0.000000 
#    z 0.000000 0.000000 1.778900 
# 
# From -- ./inp_files/21994.got.cif
#   From: 2010.03.12/outbox.cif.g09.slc.cpg/sg23_11_cif.got.tgz:21994.got - 2010.04.14 02:50:06.
