data_PCOD8163696
_publ_section_title
;
Structure prediction by ZEFSAII (Michael W. Deem and Ramdas Pophale) SiO2 
 PCOD8163696
Probable space group: I 2 2 2
;
_chemical_formula_sum "Si O2"
_cell_formula_units_Z 60
_cell_length_a 5.180511
_cell_length_b 26.826289
_cell_length_c 21.250267
_cell_angle_alpha 90.000000
_cell_angle_beta 90.000000
_cell_angle_gamma 90.000000
_cell_volume 2953.232168
_symmetry_space_group_name_H-M "I 2 2 2"
_symmetry_group_IT_number 23
_symmetry_cell_setting 'orthorhombic'
loop_
_space_group_symop_operation_xyz
x,y,z
-x,-y,z
x,-y,-z
-x,y,-z
1/2+x,1/2+y,1/2+z
1/2-x,1/2-y,1/2+z
1/2+x,1/2-y,1/2-z
1/2-x,1/2+y,1/2-z
loop_
_atom_site_type_symbol
_atom_site_label
_atom_site_fract_x
_atom_site_fract_y
_atom_site_fract_z
Si Si1 0.958787 0.596958 0.360247
Si Si2 0.908557 0.922591 0.432283
Si Si3 0.044121 0.728684 0.828068
Si Si4 0.098622 0.554604 0.775518
Si Si5 0.541605 0.790927 0.816598
Si Si6 0.466263 0.442453 0.573878
Si Si7 0.000000 0.000000 0.338157
Si Si8 0.932907 0.374976 0.885413
O O1 0.962110 0.565533 0.296275
O O2 0.987623 0.654947 0.346591
O O3 0.683676 0.590006 0.392636
O O4 0.185622 0.576855 0.404984
O O5 0.650469 0.888965 0.437133
O O6 0.000000 0.942094 0.500000
O O7 0.146048 0.890469 0.404600
O O8 0.823425 0.969043 0.387813
O O9 0.299813 0.759949 0.840741
O O10 0.041948 0.704946 0.758616
O O11 0.047688 0.684223 0.877819
O O12 0.800813 0.764296 0.840360
O O13 0.397819 0.544567 0.792606
O O14 0.988985 0.598664 0.819019
O O15 0.000000 0.500000 0.795776
O O16 0.500000 0.500000 0.593091
O O17 0.500000 0.435071 0.500000
#
# Coordination Sequence:
#
# PCOD8163696 Si02
#       8
#     8   8   8   8   8   8   4   8
#     4  12  24  39  68  97 128 163 205 266 306 381
#     4  11  23  39  60  84 119 172 220 247 292 359
#     4  10  20  39  60  89 127 161 196 257 316 389
#     4  11  22  37  57  94 132 158 195 252 324 367
#     4  10  21  37  62  94 123 158 205 248 323 383
#     4  11  25  45  65  91 129 177 213 245 300 376
#     4  10  23  38  56  86 133 166 206 254 304 358
#     4  11  22  39  62  87 122 164 201 268 312 361
#
# _framework density 20.316724000000001
#
# number of rings (size 3 to 8) (size 9 to 14) (size 15 to 20)
#    0.000    1.200    2.667    3.800    2.800    1.067 
#    0.000    1.333    0.000   16.000    0.000    0.000 
#    0.000    0.000    0.000    0.000    0.000    0.000 
#
# Total GULP energy -371810.529690 kJ/mol
# GULP energy per Si atom -12393.684323 kJ/mol
# Density = 2.027048 g / cm^3
# Si number density = 20.316724 Si / 1000 Ang^3
#
#
#
# Elastic Constant Matrix: (Units=GPa)
#
#
# Indices 1 2 3 4 5 6 
#
# 1 128.7841 52.4889 25.3295 0.0000 0.0000 0.0000
# 2 52.4889 149.7489 35.0882 0.0000 0.0000 0.0000
# 3 25.3295 35.0882 76.1465 0.0000 0.0000 0.0000
# 4 0.0000 0.0000 0.0000 15.8079 0.0000 0.0000
# 5 0.0000 0.0000 0.0000 0.0000 91.7742 0.0000
# 6 0.0000 0.0000 0.0000 0.0000 0.0000 21.2977
#
#
#
# Elastic Compliance Matrix: (Units=1/GPa)
#
#
# Indices 1 2 3 4 5 6 
#
# 1 0.009269 -0.002832 -0.001778 0.000000 0.000000 0.000000
# 2 -0.002832 0.008352 -0.002906 0.000000 0.000000 0.000000
# 3 -0.001778 -0.002906 0.015063 0.000000 0.000000 0.000000
# 4 0.000000 0.000000 0.000000 0.063259 0.000000 0.000000
# 5 0.000000 0.000000 0.000000 0.000000 0.010896 0.000000
# 6 0.000000 0.000000 0.000000 0.000000 0.000000 0.046953
#
#
# Mechanical properties :
#
#
# Convention : Reuss Voigt Hill
#
# Bulk Modulus (GPa) = 56.65566 64.49920 60.57743
# Shear Modulus (GPa) = 28.61887 41.89415 35.25651
#
# Velocity S-wave (km/s) = 3.75725 4.54591 4.17027
# Velocity P-wave (km/s) = 6.83881 7.70516 7.28488
#
# Compressibility (1/GPa) = 0.01765049
#
# Stress axis : x y z
#
# Youngs Moduli (GPa) = 107.88625 119.73806 66.38661
#
# Poissons Ratio (x) = 0.33913 0.11805
# Poissons Ratio (y) = 0.30556 0.19294
# Poissons Ratio (z) = 0.19184 0.34799
#
# Static dielectric constant tensor:
#      x y z
#    x 4.815330 0.000000 0.000000 
#    y 0.000000 3.707200 0.000000 
#    z 0.000000 0.000000 3.588210 
# 
# 
# High freq. dielectric constant tensor:
#      x y z
#    x 1.806160 0.000000 0.000000 
#    y 0.000000 1.796830 0.000000 
#    z 0.000000 0.000000 1.779150 
# 
# From -- ./inp_files/25811.got.cif
#   From: 2010.03.12/outbox.cif.g09.slc.cpg/sg23_13_cif.got.tgz:25811.got - 2010.04.14 02:50:06.
