data_PCOD8163552
_publ_section_title
;
Structure prediction by ZEFSAII (Michael W. Deem and Ramdas Pophale) SiO2 
 PCOD8163552
Probable space group: I 2 2 2
;
_chemical_formula_sum "Si O2"
_cell_formula_units_Z 64
_cell_length_a 24.014162
_cell_length_b 11.281894
_cell_length_c 11.462837
_cell_angle_alpha 90.000000
_cell_angle_beta 90.000000
_cell_angle_gamma 90.000000
_cell_volume 3105.571753
_symmetry_space_group_name_H-M "I 2 2 2"
_symmetry_group_IT_number 23
_symmetry_cell_setting 'orthorhombic'
loop_
_space_group_symop_operation_xyz
x,y,z
-x,-y,z
x,-y,-z
-x,y,-z
1/2+x,1/2+y,1/2+z
1/2-x,1/2-y,1/2+z
1/2+x,1/2-y,1/2-z
1/2-x,1/2+y,1/2-z
loop_
_atom_site_type_symbol
_atom_site_label
_atom_site_fract_x
_atom_site_fract_y
_atom_site_fract_z
Si Si1 0.863309 0.090806 0.401195
Si Si2 0.303727 0.301508 0.590011
Si Si3 0.196058 0.270130 0.457586
Si Si4 0.772154 0.940972 0.298734
Si Si5 0.578207 0.678720 0.532576
Si Si6 0.058433 0.038098 0.809772
Si Si7 0.668351 0.917762 0.742917
Si Si8 0.057668 0.564350 0.885103
O O1 0.853553 0.219887 0.459326
O O2 0.905830 0.096272 0.293387
O O3 0.885856 0.000000 0.500000
O O4 0.802561 0.053865 0.354537
O O5 0.245780 0.330634 0.527807
O O6 0.308276 0.405105 0.686084
O O7 0.356313 0.302497 0.501701
O O8 0.305261 0.174780 0.652835
O O9 0.227218 0.165238 0.390010
O O10 0.167908 0.366403 0.373645
O O11 0.707999 0.967672 0.265997
O O12 0.547590 0.633912 0.414801
O O13 0.582925 0.581006 0.634505
O O14 0.548590 0.796690 0.583363
O O15 0.000000 0.000000 0.753438
O O16 0.604393 0.951114 0.714262
O O17 0.000000 0.500000 0.845429
O O18 0.080781 0.500000 0.000000
#
# Coordination Sequence:
#
# PCOD8163552 Si02
#       8
#     8   8   8   8   8   8   8   8
#     4  10  21  40  61  86 127 165 202 250 323 381
#     4  10  20  34  60  91 126 162 204 255 315 387
#     4  10  22  36  59  94 127 168 207 256 315 386
#     4  10  20  36  57  87 128 162 201 256 315 384
#     4  10  22  39  63  96 131 158 209 268 330 376
#     4  11  24  39  65  94 127 162 209 275 325 379
#     4  10  22  37  59  95 126 162 215 256 312 386
#     4  10  24  41  64  88 124 173 218 264 315 377
#
# _framework density 20.608121000000001
#
# number of rings (size 3 to 8) (size 9 to 14) (size 15 to 20)
#    0.000    1.875    2.500    0.750   10.500    0.750 
#    0.000    0.000    0.000    0.000    0.000    1.750 
#    0.000    0.000    0.000    0.000    0.000    0.000 
#
# Total GULP energy -396640.544557 kJ/mol
# GULP energy per Si atom -12395.017017 kJ/mol
# Density = 2.056122 g / cm^3
# Si number density = 20.608121 Si / 1000 Ang^3
#
#
#
# Elastic Constant Matrix: (Units=GPa)
#
#
# Indices 1 2 3 4 5 6 
#
# 1 114.2170 30.2820 52.5986 0.0000 0.0000 0.0000
# 2 30.2820 73.3414 28.7681 0.0000 0.0000 0.0000
# 3 52.5986 28.7681 98.1351 0.0000 0.0000 0.0000
# 4 0.0000 0.0000 0.0000 20.3816 0.0000 0.0000
# 5 0.0000 0.0000 0.0000 0.0000 38.1468 0.0000
# 6 0.0000 0.0000 0.0000 0.0000 0.0000 25.8219
#
#
#
# Elastic Compliance Matrix: (Units=1/GPa)
#
#
# Indices 1 2 3 4 5 6 
#
# 1 0.012103 -0.002771 -0.005675 0.000000 0.000000 0.000000
# 2 -0.002771 0.016041 -0.003217 0.000000 0.000000 0.000000
# 3 -0.005675 -0.003217 0.014175 0.000000 0.000000 0.000000
# 4 0.000000 0.000000 0.000000 0.049064 0.000000 0.000000
# 5 0.000000 0.000000 0.000000 0.000000 0.026215 0.000000
# 6 0.000000 0.000000 0.000000 0.000000 0.000000 0.038727
#
#
# Mechanical properties :
#
#
# Convention : Reuss Voigt Hill
#
# Bulk Modulus (GPa) = 52.65171 56.55455 54.60313
# Shear Modulus (GPa) = 26.88440 28.47303 27.67871
#
# Velocity S-wave (km/s) = 3.61578 3.72108 3.66881
# Velocity P-wave (km/s) = 6.56020 6.77970 6.67085
#
# Compressibility (1/GPa) = 0.01899273
#
# Stress axis : x y z
#
# Youngs Moduli (GPa) = 82.62179 62.34024 70.54863
#
# Poissons Ratio (x) = 0.17277 0.40034
# Poissons Ratio (y) = 0.22898 0.22695
# Poissons Ratio (z) = 0.46886 0.20054
#
# Static dielectric constant tensor:
#      x y z
#    x 3.593960 0.000000 0.000000 
#    y 0.000000 3.675590 0.000000 
#    z 0.000000 0.000000 3.691120 
# 
# 
# High freq. dielectric constant tensor:
#      x y z
#    x 1.799640 0.000000 0.000000 
#    y 0.000000 1.797770 0.000000 
#    z 0.000000 0.000000 1.793180 
# 
# From -- ./inp_files/18432.got.cif
#   From: 2010.03.12/outbox.cif.g09.slc.cpg/sg23_10_cif.got.tgz:18432.got - 2010.04.14 02:50:06.
