data_PCOD8163976
_publ_section_title
;
Structure prediction by ZEFSAII (Michael W. Deem and Ramdas Pophale) SiO2 
 PCOD8163976
Probable space group: I 2 2 2
;
_chemical_formula_sum "Si O2"
_cell_formula_units_Z 48
_cell_length_a 11.749546
_cell_length_b 9.758112
_cell_length_c 21.249876
_cell_angle_alpha 90.000000
_cell_angle_beta 90.000000
_cell_angle_gamma 90.000000
_cell_volume 2436.370232
_symmetry_space_group_name_H-M "I 2 2 2"
_symmetry_group_IT_number 23
_symmetry_cell_setting 'orthorhombic'
loop_
_space_group_symop_operation_xyz
x,y,z
-x,-y,z
x,-y,-z
-x,y,-z
1/2+x,1/2+y,1/2+z
1/2-x,1/2-y,1/2+z
1/2+x,1/2-y,1/2-z
1/2-x,1/2+y,1/2-z
loop_
_atom_site_type_symbol
_atom_site_label
_atom_site_fract_x
_atom_site_fract_y
_atom_site_fract_z
Si Si1 0.878771 0.373637 0.966018
Si Si2 0.602741 0.259617 0.864499
Si Si3 0.804713 0.658741 0.510470
Si Si4 0.153205 0.745228 0.625939
Si Si5 0.634746 0.005019 0.791438
Si Si6 0.281901 0.013795 0.651669
O O1 0.815185 0.230267 0.972879
O O2 0.882384 0.422836 0.892650
O O3 0.811854 0.500000 0.000000
O O4 0.000000 0.357955 0.000000
O O5 0.607728 0.186006 0.932814
O O6 0.470920 0.290181 0.848221
O O7 0.665570 0.158404 0.814521
O O8 0.666850 0.403212 0.862843
O O9 0.779823 0.500000 0.500000
O O10 0.858108 0.722574 0.448168
O O11 0.190311 0.605607 0.661227
O O12 0.252059 0.855658 0.638689
O O13 0.500000 0.000000 0.794332
O O14 0.679979 0.970877 0.722879
#
# Coordination Sequence:
#
# PCOD8163976 Si02
#       6
#     8   8   8   8   8   8
#     4  10  22  39  59  86 113 145 194 234 281 333
#     4  10  22  37  57  88 115 146 191 234 285 340
#     4  11  21  37  62  85 114 150 185 237 290 337
#     4  11  21  37  58  87 115 148 189 233 286 339
#     4  10  22  37  58  83 112 153 192 227 282 342
#     4  11  22  38  60  82 116 153 187 240 281 337
#
# _framework density 19.701439000000001
#
# number of rings (size 3 to 8) (size 9 to 14) (size 15 to 20)
#    0.000    1.500    3.333    2.000    2.333    1.000 
#    0.000    1.667    0.000    2.000    0.000    0.000 
#    0.000    0.000    0.000    0.000    0.000    0.000 
#
# Total GULP energy -297520.539462 kJ/mol
# GULP energy per Si atom -12396.689144 kJ/mol
# Density = 1.965660 g / cm^3
# Si number density = 19.701439 Si / 1000 Ang^3
#
#
#
# Elastic Constant Matrix: (Units=GPa)
#
#
# Indices 1 2 3 4 5 6 
#
# 1 53.6093 17.1795 9.3283 0.0000 0.0000 0.0000
# 2 17.1795 85.7974 10.2787 0.0000 0.0000 0.0000
# 3 9.3283 10.2787 125.2307 0.0000 0.0000 0.0000
# 4 0.0000 0.0000 0.0000 34.5055 0.0000 0.0000
# 5 0.0000 0.0000 0.0000 0.0000 25.1022 0.0000
# 6 0.0000 0.0000 0.0000 0.0000 0.0000 12.6218
#
#
#
# Elastic Compliance Matrix: (Units=1/GPa)
#
#
# Indices 1 2 3 4 5 6 
#
# 1 0.020103 -0.003884 -0.001179 0.000000 0.000000 0.000000
# 2 -0.003884 0.012522 -0.000738 0.000000 0.000000 0.000000
# 3 -0.001179 -0.000738 0.008134 0.000000 0.000000 0.000000
# 4 0.000000 0.000000 0.000000 0.028981 0.000000 0.000000
# 5 0.000000 0.000000 0.000000 0.000000 0.039837 0.000000
# 6 0.000000 0.000000 0.000000 0.000000 0.000000 0.079228
#
#
# Mechanical properties :
#
#
# Convention : Reuss Voigt Hill
#
# Bulk Modulus (GPa) = 34.29820 37.57893 35.93857
# Shear Modulus (GPa) = 23.79527 29.63596 26.71562
#
# Velocity S-wave (km/s) = 3.47910 3.88268 3.68642
# Velocity P-wave (km/s) = 5.79531 6.26226 6.03330
#
# Compressibility (1/GPa) = 0.02915605
#
# Stress axis : x y z
#
# Youngs Moduli (GPa) = 49.74315 79.86220 122.94577
#
# Poissons Ratio (x) = 0.31020 0.14491
# Poissons Ratio (y) = 0.19321 0.09079
# Poissons Ratio (z) = 0.05863 0.05897
#
# Static dielectric constant tensor:
#      x y z
#    x 3.221380 0.000000 0.000000 
#    y 0.000000 3.803740 0.000000 
#    z 0.000000 0.000000 4.020360 
# 
# 
# High freq. dielectric constant tensor:
#      x y z
#    x 1.741910 0.000000 0.000000 
#    y 0.000000 1.777220 0.000000 
#    z 0.000000 0.000000 1.778890 
# 
# From -- ./inp_files/10086.got.cif
#   From: 2010.03.12/outbox.cif.g09.slc.cpg/sg23_6_cif.got.tgz:10086.got - 2010.04.14 02:50:06.
