data_PCOD8163593
_publ_section_title
;
Structure prediction by ZEFSAII (Michael W. Deem and Ramdas Pophale) SiO2 
 PCOD8163593
Probable space group: I 2 2 2
;
_chemical_formula_sum "Si O2"
_cell_formula_units_Z 40
_cell_length_a 8.195812
_cell_length_b 9.157574
_cell_length_c 24.489305
_cell_angle_alpha 90.000000
_cell_angle_beta 90.000000
_cell_angle_gamma 90.000000
_cell_volume 1838.014295
_symmetry_space_group_name_H-M "I 2 2 2"
_symmetry_group_IT_number 23
_symmetry_cell_setting 'orthorhombic'
loop_
_space_group_symop_operation_xyz
x,y,z
-x,-y,z
x,-y,-z
-x,y,-z
1/2+x,1/2+y,1/2+z
1/2-x,1/2-y,1/2+z
1/2+x,1/2-y,1/2-z
1/2-x,1/2+y,1/2-z
loop_
_atom_site_type_symbol
_atom_site_label
_atom_site_fract_x
_atom_site_fract_y
_atom_site_fract_z
Si Si1 0.818362 0.189582 0.888850
Si Si2 0.182386 0.326674 0.497346
Si Si3 0.391180 0.866248 0.216835
Si Si4 0.619555 0.369892 0.801235
Si Si5 0.815828 0.157587 0.117257
O O1 0.691737 0.282402 0.852873
O O2 0.004331 0.222356 0.872329
O O3 0.796848 0.017051 0.881166
O O4 0.787555 0.233820 0.951906
O O5 0.181026 0.500000 0.500000
O O6 0.260433 0.275260 0.440471
O O7 0.000000 0.263470 0.500000
O O8 0.512754 0.738673 0.237207
O O9 0.269062 0.924302 0.263611
O O10 0.299104 0.788797 0.166041
O O11 0.500000 0.000000 0.196011
O O12 0.500000 0.500000 0.820450
#
# Coordination Sequence:
#
# PCOD8163593 Si02
#       5
#     8   8   8   8   8
#     4  10  20  37  59  93 132 166 211 269 329 384
#     4   9  17  30  57  93 127 158 204 265 325 377
#     4  12  24  42  65  90 126 174 223 271 321 383
#     4  12  26  41  62  94 132 176 217 270 333 392
#     4  10  20  35  64  92 125 167 217 270 320 379
#
# _framework density 21.762618
#
# number of rings (size 3 to 8) (size 9 to 14) (size 15 to 20)
#    0.000    1.400    2.000    4.200    5.600    2.400 
#    0.000    0.000    0.000    5.400    0.000    5.600 
#    0.000    0.000    0.000    0.000    0.000    0.000 
#
# Total GULP energy -247916.200539 kJ/mol
# GULP energy per Si atom -12395.810027 kJ/mol
# Density = 2.171309 g / cm^3
# Si number density = 21.762618 Si / 1000 Ang^3
#
#
#
# Elastic Constant Matrix: (Units=GPa)
#
#
# Indices 1 2 3 4 5 6 
#
# 1 147.9175 47.8045 53.5971 0.0000 0.0000 0.0000
# 2 47.8045 60.1460 19.9420 0.0000 0.0000 0.0000
# 3 53.5971 19.9420 122.2088 0.0000 0.0000 0.0000
# 4 0.0000 0.0000 0.0000 17.7414 0.0000 0.0000
# 5 0.0000 0.0000 0.0000 0.0000 34.9543 0.0000
# 6 0.0000 0.0000 0.0000 0.0000 0.0000 32.1646
#
#
#
# Elastic Compliance Matrix: (Units=1/GPa)
#
#
# Indices 1 2 3 4 5 6 
#
# 1 0.010246 -0.007034 -0.003346 0.000000 0.000000 0.000000
# 2 -0.007034 0.022407 -0.000571 0.000000 0.000000 0.000000
# 3 -0.003346 -0.000571 0.009743 0.000000 0.000000 0.000000
# 4 0.000000 0.000000 0.000000 0.056365 0.000000 0.000000
# 5 0.000000 0.000000 0.000000 0.000000 0.028609 0.000000
# 6 0.000000 0.000000 0.000000 0.000000 0.000000 0.031090
#
#
# Mechanical properties :
#
#
# Convention : Reuss Voigt Hill
#
# Bulk Modulus (GPa) = 48.79665 63.66219 56.22942
# Shear Modulus (GPa) = 26.71015 30.90062 28.80539
#
# Velocity S-wave (km/s) = 3.50714 3.77224 3.64210
# Velocity P-wave (km/s) = 6.23466 6.94907 6.60153
#
# Compressibility (1/GPa) = 0.02049321
#
# Stress axis : x y z
#
# Youngs Moduli (GPa) = 97.59610 44.62959 102.63451
#
# Poissons Ratio (x) = 0.31395 0.34340
# Poissons Ratio (y) = 0.68654 0.05862
# Poissons Ratio (z) = 0.32654 0.02549
#
# Static dielectric constant tensor:
#      x y z
#    x 4.277770 0.000000 0.000000 
#    y 0.000000 3.396540 0.000000 
#    z 0.000000 0.000000 3.915310 
# 
# 
# High freq. dielectric constant tensor:
#      x y z
#    x 1.881850 0.000000 0.000000 
#    y 0.000000 1.799050 0.000000 
#    z 0.000000 0.000000 1.857410 
# 
# From -- ./inp_files/27884.got.cif
#   From: 2010.03.12/outbox.cif.g09.slc.cpg/sg23_14_cif.got.tgz:27884.got - 2010.04.14 02:50:06.
