data_PCOD8163957
_publ_section_title
;
Structure prediction by ZEFSAII (Michael W. Deem and Ramdas Pophale) SiO2 
 PCOD8163957
Probable space group: I 2 2 2
;
_chemical_formula_sum "Si O2"
_cell_formula_units_Z 34
_cell_length_a 8.255764
_cell_length_b 13.136997
_cell_length_c 14.555796
_cell_angle_alpha 90.000000
_cell_angle_beta 90.000000
_cell_angle_gamma 90.000000
_cell_volume 1578.662638
_symmetry_space_group_name_H-M "I 2 2 2"
_symmetry_group_IT_number 23
_symmetry_cell_setting 'orthorhombic'
loop_
_space_group_symop_operation_xyz
x,y,z
-x,-y,z
x,-y,-z
-x,y,-z
1/2+x,1/2+y,1/2+z
1/2-x,1/2-y,1/2+z
1/2+x,1/2-y,1/2-z
1/2-x,1/2+y,1/2-z
loop_
_atom_site_type_symbol
_atom_site_label
_atom_site_fract_x
_atom_site_fract_y
_atom_site_fract_z
Si Si1 0.174198 0.815759 0.809730
Si Si2 0.500000 0.500000 0.000000
Si Si3 0.184742 0.233800 0.865754
Si Si4 0.160970 0.194584 0.541349
Si Si5 0.185937 0.512704 0.607883
O O1 0.211178 0.806408 0.701720
O O2 0.302753 0.743431 0.861238
O O3 0.000051 0.771836 0.835258
O O4 0.198769 0.931639 0.841133
O O5 0.619603 0.574394 0.058363
O O6 0.258194 0.122213 0.860169
O O7 0.196254 0.284339 0.967201
O O8 0.000000 0.250135 0.500000
O O9 0.212063 0.500000 0.500000
O O10 0.000000 0.500000 0.637526
#
# Coordination Sequence:
#
# PCOD8163957 Si02
#       5
#     8   2   8   8   8
#     4  12  25  42  68 101 139 178 226 278 336 406
#     4   8  24  40  74  86 132 182 218 272 352 394
#     4  12  25  42  68 101 139 178 226 278 336 406
#     4  10  21  44  66  94 129 177 222 277 335 394
#     4  11  23  42  71 102 134 178 224 281 342 399
#
# _framework density 21.537216999999998
#
# number of rings (size 3 to 8) (size 9 to 14) (size 15 to 20)
#    0.706    0.235    2.353    5.647    0.000    2.824 
#    0.000    4.706    0.000    0.000    0.000    0.000 
#    0.000    0.000    0.000    0.000    0.000    0.000 
#
# Total GULP energy -210788.259938 kJ/mol
# GULP energy per Si atom -12399.309408 kJ/mol
# Density = 2.148820 g / cm^3
# Si number density = 21.537217 Si / 1000 Ang^3
#
#
#
# Elastic Constant Matrix: (Units=GPa)
#
#
# Indices 1 2 3 4 5 6 
#
# 1 82.0650 8.3144 -6.3124 0.0000 0.0000 0.0000
# 2 8.3144 127.3629 14.1308 0.0000 0.0000 0.0000
# 3 -6.3124 14.1308 62.7443 0.0000 0.0000 0.0000
# 4 0.0000 0.0000 0.0000 36.9037 0.0000 0.0000
# 5 0.0000 0.0000 0.0000 0.0000 24.1851 0.0000
# 6 0.0000 0.0000 0.0000 0.0000 0.0000 22.0089
#
#
#
# Elastic Compliance Matrix: (Units=1/GPa)
#
#
# Indices 1 2 3 4 5 6 
#
# 1 0.012397 -0.000972 0.001466 0.000000 0.000000 0.000000
# 2 -0.000972 0.008129 -0.001929 0.000000 0.000000 0.000000
# 3 0.001466 -0.001929 0.016520 0.000000 0.000000 0.000000
# 4 0.000000 0.000000 0.000000 0.027098 0.000000 0.000000
# 5 0.000000 0.000000 0.000000 0.000000 0.041348 0.000000
# 6 0.000000 0.000000 0.000000 0.000000 0.000000 0.045436
#
#
# Mechanical properties :
#
#
# Convention : Reuss Voigt Hill
#
# Bulk Modulus (GPa) = 29.25994 33.82643 31.54319
# Shear Modulus (GPa) = 30.26860 33.68882 31.97871
#
# Velocity S-wave (km/s) = 3.75295 3.95931 3.85751
# Velocity P-wave (km/s) = 5.69164 6.05323 5.87522
#
# Compressibility (1/GPa) = 0.03417642
#
# Stress axis : x y z
#
# Youngs Moduli (GPa) = 80.66659 123.01641 60.53448
#
# Poissons Ratio (x) = 0.11956 -0.08875
# Poissons Ratio (y) = 0.07840 0.11674
# Poissons Ratio (z) = -0.11826 0.23724
#
# Static dielectric constant tensor:
#      x y z
#    x 4.075130 0.000000 0.000000 
#    y 0.000000 3.921780 0.000000 
#    z 0.000000 0.000000 3.785040 
# 
# 
# High freq. dielectric constant tensor:
#      x y z
#    x 1.853410 0.000000 0.000000 
#    y 0.000000 1.844780 0.000000 
#    z 0.000000 0.000000 1.836270 
# 
# From -- ./inp_files/19583.got.cif
#   From: 2010.03.12/outbox.cif.g09.slc.cpg/sg23_10_cif.got.tgz:19583.got - 2010.04.14 02:50:06.
