data_PCOD8163413
_publ_section_title
;
Structure prediction by ZEFSAII (Michael W. Deem and Ramdas Pophale) SiO2 
 PCOD8163413
Probable space group: I 2 2 2
;
_chemical_formula_sum "Si O2"
_cell_formula_units_Z 52
_cell_length_a 8.184251
_cell_length_b 19.474434
_cell_length_c 14.200433
_cell_angle_alpha 90.000000
_cell_angle_beta 90.000000
_cell_angle_gamma 90.000000
_cell_volume 2263.316927
_symmetry_space_group_name_H-M "I 2 2 2"
_symmetry_group_IT_number 23
_symmetry_cell_setting 'orthorhombic'
loop_
_space_group_symop_operation_xyz
x,y,z
-x,-y,z
x,-y,-z
-x,y,-z
1/2+x,1/2+y,1/2+z
1/2-x,1/2-y,1/2+z
1/2+x,1/2-y,1/2-z
1/2-x,1/2+y,1/2-z
loop_
_atom_site_type_symbol
_atom_site_label
_atom_site_fract_x
_atom_site_fract_y
_atom_site_fract_z
Si Si1 0.154695 0.374956 0.370989
Si Si2 0.882701 0.710200 0.708914
Si Si3 0.500000 0.000000 0.788086
Si Si4 0.689760 0.353417 0.986127
Si Si5 0.399485 0.631331 0.783409
Si Si6 0.757794 0.590968 0.824409
Si Si7 0.184586 0.794886 0.973520
O O1 0.038380 0.440644 0.363318
O O2 0.305719 0.398404 0.305662
O O3 0.208198 0.354147 0.475615
O O4 0.058875 0.308786 0.332864
O O5 0.912274 0.787905 0.738758
O O6 0.846658 0.662340 0.798149
O O7 0.731614 0.699620 0.636222
O O8 0.352546 0.974404 0.719174
O O9 0.708314 0.380685 0.878979
O O10 0.782319 0.282491 0.007138
O O11 0.500000 0.336163 0.000000
O O12 0.755050 0.410250 0.060772
O O13 0.571224 0.591916 0.788553
O O14 0.000000 0.813220 0.000000
#
# Coordination Sequence:
#
# PCOD8163413 Si02
#       7
#     8   8   4   8   8   8   8
#     4  11  22  40  58  81 120 159 194 239 287 343
#     4  10  20  35  59  93 122 151 184 234 306 362
#     4  10  26  42  58  78 112 168 210 236 280 338
#     4   9  19  36  61  93 123 149 182 236 304 361
#     4  10  19  34  63  93 117 148 190 243 303 355
#     4  10  20  39  59  84 122 158 196 239 284 347
#     4  11  21  34  60  95 121 145 185 241 303 361
#
# _framework density 22.975131000000001
#
# number of rings (size 3 to 8) (size 9 to 14) (size 15 to 20)
#    0.000    1.846    0.000    6.000    0.000    6.769 
#    0.000    7.692    0.000    6.462    0.000    0.000 
#    0.000    0.000    0.000    0.000    0.000    0.000 
#
# Total GULP energy -322254.074939 kJ/mol
# GULP energy per Si atom -12394.387498 kJ/mol
# Density = 2.292284 g / cm^3
# Si number density = 22.975131 Si / 1000 Ang^3
#
#
#
# Elastic Constant Matrix: (Units=GPa)
#
#
# Indices 1 2 3 4 5 6 
#
# 1 85.5235 13.7402 4.2211 0.0000 0.0000 0.0000
# 2 13.7402 51.2851 6.3837 0.0000 0.0000 0.0000
# 3 4.2211 6.3837 52.9441 0.0002 0.0000 0.0000
# 4 0.0000 0.0000 0.0002 21.3588 0.0000 0.0000
# 5 0.0000 0.0000 0.0000 0.0000 27.2875 0.0000
# 6 0.0000 0.0000 0.0000 0.0000 0.0000 28.8063
#
#
#
# Elastic Compliance Matrix: (Units=1/GPa)
#
#
# Indices 1 2 3 4 5 6 
#
# 1 0.012237 -0.003205 -0.000589 0.000000 0.000000 0.000000
# 2 -0.003205 0.020635 -0.002233 0.000000 0.000000 0.000000
# 3 -0.000589 -0.002233 0.019204 0.000000 0.000000 0.000000
# 4 0.000000 0.000000 0.000000 0.046819 0.000000 0.000000
# 5 0.000000 0.000000 0.000000 0.000000 0.036647 0.000000
# 6 0.000000 0.000000 0.000000 0.000000 0.000000 0.034715
#
#
# Mechanical properties :
#
#
# Convention : Reuss Voigt Hill
#
# Bulk Modulus (GPa) = 24.98595 26.49365 25.73980
# Shear Modulus (GPa) = 25.55569 26.51770 26.03670
#
# Velocity S-wave (km/s) = 3.33876 3.40103 3.37004
# Velocity P-wave (km/s) = 5.07562 5.19414 5.13522
#
# Compressibility (1/GPa) = 0.04002250
#
# Stress axis : x y z
#
# Youngs Moduli (GPa) = 81.72137 48.46035 52.07242
#
# Poissons Ratio (x) = 0.15532 0.03068
# Poissons Ratio (y) = 0.26192 0.11626
# Poissons Ratio (z) = 0.04815 0.10819
#
# Static dielectric constant tensor:
#      x y z
#    x 4.273360 0.000000 0.000000 
#    y 0.000000 3.777660 0.000000 
#    z 0.000000 0.000000 4.259100 
# 
# 
# High freq. dielectric constant tensor:
#      x y z
#    x 1.912540 0.000000 0.000000 
#    y 0.000000 1.880040 0.000000 
#    z 0.000000 0.000000 1.904290 
# 
# From -- ./inp_files/20164.got.cif
#   From: 2010.03.12/outbox.cif.g09.slc.cpg/sg23_11_cif.got.tgz:20164.got - 2010.04.14 02:50:06.
