data_PCOD8163460
_publ_section_title
;
Structure prediction by ZEFSAII (Michael W. Deem and Ramdas Pophale) SiO2 
 PCOD8163460
Probable space group: I 2 2 2
;
_chemical_formula_sum "Si O2"
_cell_formula_units_Z 56
_cell_length_a 7.399388
_cell_length_b 17.103954
_cell_length_c 21.987381
_cell_angle_alpha 90.000000
_cell_angle_beta 90.000000
_cell_angle_gamma 90.000000
_cell_volume 2782.696378
_symmetry_space_group_name_H-M "I 2 2 2"
_symmetry_group_IT_number 23
_symmetry_cell_setting 'orthorhombic'
loop_
_space_group_symop_operation_xyz
x,y,z
-x,-y,z
x,-y,-z
-x,y,-z
1/2+x,1/2+y,1/2+z
1/2-x,1/2-y,1/2+z
1/2+x,1/2-y,1/2-z
1/2-x,1/2+y,1/2-z
loop_
_atom_site_type_symbol
_atom_site_label
_atom_site_fract_x
_atom_site_fract_y
_atom_site_fract_z
Si Si1 0.785477 0.000000 0.931955
Si Si2 0.000000 0.089383 0.354320
Si Si3 1.000000 0.236652 0.428083
Si Si4 0.290926 0.343445 0.369876
Si Si5 0.207847 0.410938 0.244804
Si Si6 0.290926 0.343445 0.630124
Si Si7 0.792153 0.410938 0.244804
O O1 0.711981 0.922997 0.898859
O O2 0.711981 0.077003 0.898859
O O3 0.000000 0.000000 0.930435
O O4 0.708975 0.000000 0.000000
O O5 0.822934 0.108500 0.314660
O O6 0.000000 0.144358 0.413459
O O7 0.177066 0.108500 0.314660
O O8 0.000000 0.000000 0.377142
O O9 0.178958 0.272528 0.397805
O O10 0.000000 0.250001 0.500000
O O11 0.821042 0.272528 0.397805
O O12 0.264068 0.350511 0.297498
O O13 0.500000 0.329176 0.386086
O O14 0.249077 0.500000 0.266451
O O15 0.000000 0.399428 0.226979
O O16 0.264069 0.350511 0.702502
#
# Coordination Sequence:
#
# PCOD8163460 Si02
#       7
#     8   8   8   8   8   8   8
#     4   9  18  31  53  83 122 177 211 223 275 360
#     4  10  24  45  69  89 116 160 208 270 329 368
#     4  12  28  44  60  90 125 165 217 261 307 367
#     4  11  21  37  61  91 132 167 202 249 301 361
#     4  10  19  36  64  97 127 157 201 251 307 371
#     4  11  21  37  61  91 132 167 202 249 301 361
#     4  10  19  36  64  97 127 157 201 251 307 371
#
# _framework density 20.124365999999998
#
# number of rings (size 3 to 8) (size 9 to 14) (size 15 to 20)
#    0.000    1.571    4.286    0.857    0.000    4.857 
#    0.000    1.429    0.000    0.000    0.000    6.000 
#    0.000    0.000    0.000    0.000    0.000    0.000 
#
# Total GULP energy -347299.598389 kJ/mol
# GULP energy per Si atom -12403.557085 kJ/mol
# Density = 2.007856 g / cm^3
# Si number density = 20.124366 Si / 1000 Ang^3
#
#
#
# Elastic Constant Matrix: (Units=GPa)
#
#
# Indices 1 2 3 4 5 6 
#
# 1 121.0360 34.6780 22.1123 0.0000 0.0000 0.0000
# 2 34.6780 102.9771 38.4152 0.0000 0.0000 0.0000
# 3 22.1123 38.4152 51.7385 0.0000 0.0000 0.0000
# 4 0.0000 0.0000 0.0000 33.8027 0.0000 0.0000
# 5 0.0000 0.0000 0.0000 0.0000 15.7535 0.0000
# 6 0.0000 0.0000 0.0000 0.0000 0.0000 20.3571
#
#
#
# Elastic Compliance Matrix: (Units=1/GPa)
#
#
# Indices 1 2 3 4 5 6 
#
# 1 0.009336 -0.002290 -0.002290 0.000000 0.000000 0.000000
# 2 -0.002290 0.013993 -0.009411 0.000000 0.000000 0.000000
# 3 -0.002290 -0.009411 0.027294 0.000000 0.000000 0.000000
# 4 0.000000 0.000000 0.000000 0.029583 0.000000 0.000000
# 5 0.000000 0.000000 0.000000 0.000000 0.063478 0.000000
# 6 0.000000 0.000000 0.000000 0.000000 0.000000 0.049123
#
#
# Mechanical properties :
#
#
# Convention : Reuss Voigt Hill
#
# Bulk Modulus (GPa) = 44.16597 51.79584 47.98091
# Shear Modulus (GPa) = 21.89755 26.01907 23.95831
#
# Velocity S-wave (km/s) = 3.30223 3.59961 3.45412
# Velocity P-wave (km/s) = 6.04432 6.56278 6.30888
#
# Compressibility (1/GPa) = 0.02264187
#
# Stress axis : x y z
#
# Youngs Moduli (GPa) = 107.10729 71.46621 36.63797
#
# Poissons Ratio (x) = 0.16364 0.08391
# Poissons Ratio (y) = 0.24525 0.34479
# Poissons Ratio (z) = 0.24529 0.67255
#
# Static dielectric constant tensor:
#      x y z
#    x 3.644740 0.000000 0.000000 
#    y 0.000000 3.517110 0.000000 
#    z 0.000000 0.000000 3.407000 
# 
# 
# High freq. dielectric constant tensor:
#      x y z
#    x 1.795660 0.000000 0.000000 
#    y 0.000000 1.769560 0.000000 
#    z 0.000000 0.000000 1.765440 
# 
# From -- ./inp_files/26260.got.cif
#   From: 2010.03.12/outbox.cif.g09.slc.cpg/sg23_14_cif.got.tgz:26260.got - 2010.04.14 02:50:06.
