data_PCOD8163776
_publ_section_title
;
Structure prediction by ZEFSAII (Michael W. Deem and Ramdas Pophale) SiO2 
 PCOD8163776
Probable space group: I 2 2 2
;
_chemical_formula_sum "Si O2"
_cell_formula_units_Z 64
_cell_length_a 9.292065
_cell_length_b 20.866272
_cell_length_c 17.955644
_cell_angle_alpha 90.000000
_cell_angle_beta 90.000000
_cell_angle_gamma 90.000000
_cell_volume 3481.433385
_symmetry_space_group_name_H-M "I 2 2 2"
_symmetry_group_IT_number 23
_symmetry_cell_setting 'orthorhombic'
loop_
_space_group_symop_operation_xyz
x,y,z
-x,-y,z
x,-y,-z
-x,y,-z
1/2+x,1/2+y,1/2+z
1/2-x,1/2-y,1/2+z
1/2+x,1/2-y,1/2-z
1/2-x,1/2+y,1/2-z
loop_
_atom_site_type_symbol
_atom_site_label
_atom_site_fract_x
_atom_site_fract_y
_atom_site_fract_z
Si Si1 0.147296 0.632483 0.330736
Si Si2 0.567943 0.930750 0.927780
Si Si3 0.188517 0.724178 0.206362
Si Si4 0.387978 0.752552 0.937898
Si Si5 0.357363 0.757386 0.538955
Si Si6 0.113174 0.891211 0.060956
Si Si7 0.997729 0.186853 0.296765
Si Si8 0.555935 0.427548 0.297965
O O1 0.123288 0.663337 0.250001
O O2 0.182222 0.688893 0.390571
O O3 0.276976 0.579778 0.325575
O O4 0.992348 0.603384 0.353407
O O5 0.740695 0.933027 0.934374
O O6 0.500000 0.000000 0.925703
O O7 0.500000 0.895144 0.000000
O O8 0.152193 0.712611 0.120429
O O9 0.123183 0.789543 0.238845
O O10 0.359367 0.728442 0.219038
O O11 0.453822 0.698874 0.882382
O O12 0.500000 0.777847 0.000000
O O13 0.266231 0.716294 0.984971
O O14 0.500000 0.781618 0.500000
O O15 0.342698 0.680703 0.541742
O O16 0.039068 0.892910 0.140389
O O17 0.000000 0.919317 0.000000
O O18 0.029874 0.111786 0.279121
O O19 0.500000 0.500000 0.286942
#
# Coordination Sequence:
#
# PCOD8163776 Si02
#       8
#     8   8   8   8   8   8   8   8
#     4  10  21  36  55  82 113 148 187 230 288 337
#     4  11  22  36  52  75 110 151 196 227 261 333
#     4  10  21  35  56  81 114 146 178 240 284 350
#     4  11  20  35  59  82 114 149 179 237 298 348
#     4  11  21  34  54  85 115 142 181 225 295 354
#     4  11  22  35  55  81 113 149 190 232 279 336
#     4  10  22  37  54  84 114 147 197 231 294 344
#     4  11  22  38  56  78 116 159 195 238 277 335
#
# _framework density 18.383233000000001
#
# number of rings (size 3 to 8) (size 9 to 14) (size 15 to 20)
#    0.000    1.375    2.500    4.875    5.250    1.250 
#    0.000    0.000    0.000    0.375    0.000    0.000 
#    0.000    0.000    0.000    0.000    0.000    0.000 
#
# Total GULP energy -396580.758740 kJ/mol
# GULP energy per Si atom -12393.148711 kJ/mol
# Density = 1.834139 g / cm^3
# Si number density = 18.383233 Si / 1000 Ang^3
#
#
#
# Elastic Constant Matrix: (Units=GPa)
#
#
# Indices 1 2 3 4 5 6 
#
# 1 129.6228 37.2637 53.4709 0.0000 0.0000 0.0000
# 2 37.2637 62.8709 44.6142 0.0000 0.0000 0.0000
# 3 53.4709 44.6142 128.5532 0.0000 0.0000 0.0001
# 4 0.0000 0.0000 0.0000 19.6954 0.0000 0.0001
# 5 0.0000 0.0000 0.0000 0.0000 34.8214 0.0000
# 6 0.0000 0.0000 0.0001 0.0001 0.0000 73.5077
#
#
#
# Elastic Compliance Matrix: (Units=1/GPa)
#
#
# Indices 1 2 3 4 5 6 
#
# 1 0.010000 -0.003948 -0.002790 0.000000 0.000000 0.000000
# 2 -0.003948 0.022661 -0.006222 0.000000 0.000000 0.000000
# 3 -0.002790 -0.006222 0.011099 0.000000 0.000000 0.000000
# 4 0.000000 0.000000 0.000000 0.050773 0.000000 0.000000
# 5 0.000000 0.000000 0.000000 0.000000 0.028718 0.000000
# 6 0.000000 0.000000 0.000000 0.000000 0.000000 0.013604
#
#
# Mechanical properties :
#
#
# Convention : Reuss Voigt Hill
#
# Bulk Modulus (GPa) = 56.05195 65.74940 60.90068
# Shear Modulus (GPa) = 29.63467 37.98478 33.80972
#
# Velocity S-wave (km/s) = 4.01939 4.55056 4.29320
# Velocity P-wave (km/s) = 7.21787 7.96578 7.60103
#
# Compressibility (1/GPa) = 0.01784059
#
# Stress axis : x y z
#
# Youngs Moduli (GPa) = 99.99725 44.12882 90.10112
#
# Poissons Ratio (x) = 0.17421 0.25134
# Poissons Ratio (y) = 0.39476 0.56065
# Poissons Ratio (z) = 0.27894 0.27459
#
# Static dielectric constant tensor:
#      x y z
#    x 3.580860 0.000000 0.000000 
#    y 0.000000 3.058090 0.000000 
#    z 0.000000 0.000000 3.632420 
# 
# 
# High freq. dielectric constant tensor:
#      x y z
#    x 1.729620 0.000000 0.000000 
#    y 0.000000 1.668710 0.000000 
#    z 0.000000 0.000000 1.714100 
# 
# From -- ./inp_files/11397.got.cif
#   From: 2010.03.12/outbox.cif.g09.slc.cpg/sg23_6_cif.got.tgz:11397.got - 2010.04.14 02:50:06.
