data_PCOD8163930
_publ_section_title
;
Structure prediction by ZEFSAII (Michael W. Deem and Ramdas Pophale) SiO2 
 PCOD8163930
Probable space group: I 2 2 2
;
_chemical_formula_sum "Si O2"
_cell_formula_units_Z 52
_cell_length_a 17.319167
_cell_length_b 9.029013
_cell_length_c 16.189189
_cell_angle_alpha 90.000000
_cell_angle_beta 90.000000
_cell_angle_gamma 90.000000
_cell_volume 2531.584171
_symmetry_space_group_name_H-M "I 2 2 2"
_symmetry_group_IT_number 23
_symmetry_cell_setting 'orthorhombic'
loop_
_space_group_symop_operation_xyz
x,y,z
-x,-y,z
x,-y,-z
-x,y,-z
1/2+x,1/2+y,1/2+z
1/2-x,1/2-y,1/2+z
1/2+x,1/2-y,1/2-z
1/2-x,1/2+y,1/2-z
loop_
_atom_site_type_symbol
_atom_site_label
_atom_site_fract_x
_atom_site_fract_y
_atom_site_fract_z
Si Si1 0.171795 0.648514 0.581789
Si Si2 0.689592 0.500000 0.500000
Si Si3 0.142175 0.526151 0.128113
Si Si4 0.426076 0.727672 0.942697
Si Si5 0.410718 0.224897 0.519424
Si Si6 0.578681 0.060195 0.799018
Si Si7 0.804532 0.982892 0.409796
O O1 0.256012 0.575695 0.569502
O O2 0.128450 0.656702 0.492615
O O3 0.126021 0.559633 0.650018
O O4 0.173963 0.816264 0.614872
O O5 0.634371 0.623659 0.541343
O O6 0.132832 0.652882 0.058970
O O7 0.122300 0.602617 0.215274
O O8 0.230721 0.469140 0.144076
O O9 0.092018 0.383487 0.099497
O O10 0.447240 0.804008 0.856932
O O11 0.381867 0.581246 0.911169
O O12 0.500000 0.687432 0.000000
O O13 0.500000 0.258243 0.500000
O O14 0.500000 0.000000 0.763116
O O15 0.767344 0.000000 0.500000
#
# Coordination Sequence:
#
# PCOD8163930 Si02
#       7
#     8   4   8   8   8   8   8
#     4  11  22  39  62  90 128 168 215 270 330 390
#     4  12  21  40  67  98 124 166 222 276 331 410
#     4  11  22  42  67  91 130 170 227 263 334 405
#     4  11  22  41  65  96 134 174 221 270 331 398
#     4  11  22  42  66  92 123 169 213 278 335 398
#     4  12  24  39  62  96 132 176 219 275 331 393
#     4  10  21  41  65  96 124 174 224 271 329 399
#
# _framework density 20.540497999999999
#
# number of rings (size 3 to 8) (size 9 to 14) (size 15 to 20)
#    0.000    0.923    6.154    3.000    0.000    4.000 
#    0.000    0.000    0.000    0.000    0.000    0.000 
#    0.000    0.000    0.000    0.000    0.000    0.000 
#
# Total GULP energy -322127.450761 kJ/mol
# GULP energy per Si atom -12389.517337 kJ/mol
# Density = 2.049375 g / cm^3
# Si number density = 20.540498 Si / 1000 Ang^3
#
#
#
# Elastic Constant Matrix: (Units=GPa)
#
#
# Indices 1 2 3 4 5 6 
#
# 1 142.5546 47.1872 29.0659 0.0000 0.0000 0.0000
# 2 47.1872 104.3467 29.4966 0.0000 0.0000 0.0000
# 3 29.0659 29.4966 87.1752 0.0000 0.0000 0.0000
# 4 0.0000 0.0000 0.0000 6.9165 0.0000 0.0000
# 5 0.0000 0.0000 0.0000 0.0000 27.3064 0.0000
# 6 0.0000 0.0000 0.0000 0.0000 0.0000 29.6817
#
#
#
# Elastic Compliance Matrix: (Units=1/GPa)
#
#
# Indices 1 2 3 4 5 6 
#
# 1 0.008469 -0.003352 -0.001689 0.000000 0.000000 0.000000
# 2 -0.003352 0.011924 -0.002917 0.000000 0.000000 0.000000
# 3 -0.001689 -0.002917 0.013021 0.000000 0.000000 0.000000
# 4 0.000000 0.000000 0.000000 0.144582 0.000000 0.000000
# 5 0.000000 0.000000 0.000000 0.000000 0.036621 0.000000
# 6 0.000000 0.000000 0.000000 0.000000 0.000000 0.033691
#
#
# Mechanical properties :
#
#
# Convention : Reuss Voigt Hill
#
# Bulk Modulus (GPa) = 57.15215 60.61955 58.88585
# Shear Modulus (GPa) = 18.51454 28.00271 23.25863
#
# Velocity S-wave (km/s) = 3.00554 3.69629 3.36866
# Velocity P-wave (km/s) = 6.31893 6.91325 6.62276
#
# Compressibility (1/GPa) = 0.01749715
#
# Stress axis : x y z
#
# Youngs Moduli (GPa) = 118.07851 83.86521 76.79658
#
# Poissons Ratio (x) = 0.28113 0.12974
# Poissons Ratio (y) = 0.39582 0.22401
# Poissons Ratio (z) = 0.19949 0.24463
#
# Static dielectric constant tensor:
#      x y z
#    x 3.903170 0.000000 0.000000 
#    y 0.000000 7.274400 0.000000 
#    z 0.000000 0.000000 3.506900 
# 
# 
# High freq. dielectric constant tensor:
#      x y z
#    x 1.824100 0.000000 0.000000 
#    y 0.000000 1.802500 0.000000 
#    z 0.000000 0.000000 1.766440 
# 
# From -- ./inp_files/25046.got.cif
#   From: 2010.03.12/outbox.cif.g09.slc.cpg/sg23_13_cif.got.tgz:25046.got - 2010.04.14 02:50:06.
