data_PCOD8163733
_publ_section_title
;
Structure prediction by ZEFSAII (Michael W. Deem and Ramdas Pophale) SiO2 
 PCOD8163733
Probable space group: I 2 2 2
;
_chemical_formula_sum "Si O2"
_cell_formula_units_Z 42
_cell_length_a 11.447462
_cell_length_b 8.568502
_cell_length_c 23.200589
_cell_angle_alpha 90.000000
_cell_angle_beta 90.000000
_cell_angle_gamma 90.000000
_cell_volume 2275.690118
_symmetry_space_group_name_H-M "I 2 2 2"
_symmetry_group_IT_number 23
_symmetry_cell_setting 'orthorhombic'
loop_
_space_group_symop_operation_xyz
x,y,z
-x,-y,z
x,-y,-z
-x,y,-z
1/2+x,1/2+y,1/2+z
1/2-x,1/2-y,1/2+z
1/2+x,1/2-y,1/2-z
1/2-x,1/2+y,1/2-z
loop_
_atom_site_type_symbol
_atom_site_label
_atom_site_fract_x
_atom_site_fract_y
_atom_site_fract_z
Si Si1 0.394469 0.209114 0.684508
Si Si2 0.000000 0.000000 0.756767
Si Si3 0.500000 0.000000 0.591703
Si Si4 0.600401 0.298522 0.959655
Si Si5 0.000000 0.500000 0.500000
Si Si6 0.306425 0.000000 0.500000
Si Si7 0.000000 0.500000 0.277620
Si Si8 0.124775 0.211489 0.668656
O O1 0.436524 0.379590 0.701794
O O2 0.471950 0.149901 0.630982
O O3 0.405855 0.090212 0.738105
O O4 0.262696 0.225709 0.664743
O O5 0.905300 0.915589 0.716713
O O6 0.387976 0.952134 0.553647
O O7 0.726178 0.351622 0.983891
O O8 0.580802 0.349285 0.893501
O O9 0.586661 0.109529 0.962116
O O10 0.500000 0.375762 0.000000
O O11 0.931219 0.378859 0.317475
#
# Coordination Sequence:
#
# PCOD8163733 Si02
#       8
#     8   4   4   8   2   4   4   8
#     4  10  20  41  57  85 119 150 196 246 288 351
#     4  10  24  36  59  93 112 150 208 230 298 358
#     4  10  22  39  63  86 114 160 196 236 300 342
#     4  10  22  38  59  89 122 150 196 246 289 353
#     4   8  22  38  54  90 122 142 190 240 294 336
#     4  11  21  40  62  88 115 157 202 236 284 367
#     4   9  21  35  59  83 115 152 198 234 294 360
#     4  11  20  37  60  84 117 158 184 251 295 342
#
# _framework density 18.455939999999998
#
# number of rings (size 3 to 8) (size 9 to 14) (size 15 to 20)
#    0.571    1.333    1.905    2.000    2.667    0.000 
#    3.429    0.000    0.000    2.286    0.000    0.000 
#    0.000    0.000    0.000    0.000    0.000    0.000 
#
# Total GULP energy -260345.423844 kJ/mol
# GULP energy per Si atom -12397.401135 kJ/mol
# Density = 1.841393 g / cm^3
# Si number density = 18.455940 Si / 1000 Ang^3
#
#
#
# Elastic Constant Matrix: (Units=GPa)
#
#
# Indices 1 2 3 4 5 6 
#
# 1 127.8194 53.1538 66.0900 0.0000 0.0000 0.0000
# 2 53.1538 119.3787 53.6216 0.0000 0.0000 0.0000
# 3 66.0900 53.6216 134.1471 0.0000 0.0000 0.0000
# 4 0.0000 0.0000 0.0000 -20.9668 0.0000 0.0000
# 5 0.0000 0.0000 0.0000 0.0000 30.9667 0.0000
# 6 0.0000 0.0000 0.0000 0.0000 0.0000 23.3297
#
#
#
# Elastic Compliance Matrix: (Units=1/GPa)
#
#
# Indices 1 2 3 4 5 6 
#
# 1 0.011369 -0.003103 -0.004361 0.000000 0.000000 0.000000
# 2 -0.003103 0.011057 -0.002891 0.000000 0.000000 0.000000
# 3 -0.004361 -0.002891 0.010758 0.000000 0.000000 0.000000
# 4 0.000000 0.000000 0.000000 -0.047694 0.000000 0.000000
# 5 0.000000 0.000000 0.000000 0.000000 0.032293 0.000000
# 6 0.000000 0.000000 0.000000 0.000000 0.000000 0.042864
#
#
# Mechanical properties :
#
#
# Convention : Reuss Voigt Hill
#
# Bulk Modulus (GPa) = 80.16259 80.78624 80.47442
# Shear Modulus (GPa) = 58.47019 20.56456 39.51737
#
# Velocity S-wave (km/s) = 5.63469 3.34166 4.63230
# Velocity P-wave (km/s) = 9.26617 7.66528 8.50348
#
# Compressibility (1/GPa) = 0.01247465
#
# Stress axis : x y z
#
# Youngs Moduli (GPa) = 87.96076 90.44096 92.95139
#
# Poissons Ratio (x) = 0.28067 0.40532
# Poissons Ratio (y) = 0.27297 0.26870
# Poissons Ratio (z) = 0.38356 0.26145
#
# Static dielectric constant tensor:
#      x y z
#    x 3.308380 0.000000 0.000000 
#    y 0.000000 3.356550 0.000000 
#    z 0.000000 0.000000 3.479440 
# 
# 
# High freq. dielectric constant tensor:
#      x y z
#    x 1.713660 0.000000 0.000000 
#    y 0.000000 1.713280 0.000000 
#    z 0.000000 0.000000 1.725470 
# 
# From -- ./inp_files/8652.got.cif
#   From: 2010.03.12/outbox.cif.g09.slc.cpg/sg23_5_cif.got.tgz:8652.got - 2010.04.14 02:50:06.
