data_PCOD8163058
_publ_section_title
;
Structure prediction by ZEFSAII (Michael W. Deem and Ramdas Pophale) SiO2 
 PCOD8163058
Probable space group: F 2 2 2
;
_chemical_formula_sum "Si O2"
_cell_formula_units_Z 92
_cell_length_a 8.720579
_cell_length_b 20.145183
_cell_length_c 23.465371
_cell_angle_alpha 90.000000
_cell_angle_beta 90.000000
_cell_angle_gamma 90.000000
_cell_volume 4122.341464
_symmetry_space_group_name_H-M "F 2 2 2"
_symmetry_group_IT_number 22
_symmetry_cell_setting 'orthorhombic'
loop_
_space_group_symop_operation_xyz
x,y,z
-x,-y,z
x,-y,-z
-x,y,-z
x,1/2+y,1/2+z
-x,1/2-y,1/2+z
x,1/2-y,1/2-z
-x,1/2+y,1/2-z
1/2+x,y,1/2+z
1/2-x,-y,1/2+z
1/2+x,-y,1/2-z
1/2-x,y,1/2-z
1/2+x,1/2+y,z
1/2-x,1/2-y,z
1/2+x,1/2-y,-z
1/2-x,1/2+y,-z
loop_
_atom_site_type_symbol
_atom_site_label
_atom_site_fract_x
_atom_site_fract_y
_atom_site_fract_z
Si Si1 0.518095 0.578343 0.677473
Si Si2 0.500000 0.000000 0.604637
Si Si3 0.171995 0.816799 0.986513
Si Si4 0.193405 0.614421 0.630083
Si Si5 0.226740 0.914975 0.426214
Si Si6 0.500000 0.000000 0.000000
Si Si7 0.075233 0.323561 0.266456
O O1 0.500000 0.500000 0.690662
O O2 0.371030 0.609708 0.646033
O O3 0.668789 0.593002 0.639086
O O4 0.532670 0.620736 0.736353
O O5 0.383309 0.957079 0.642873
O O6 0.607399 0.950561 0.567754
O O7 0.250000 0.750000 0.964558
O O8 0.184730 0.871145 0.936811
O O9 0.256225 0.843892 0.043260
O O10 0.000000 0.798226 0.000000
O O11 0.086802 0.667206 0.664942
O O12 0.099802 0.956657 0.458182
O O13 0.016903 0.250000 0.250000
O O14 0.250000 0.336798 0.250000
#
# Coordination Sequence:
#
# PCOD8163058 Si02
#       7
#    16   8  16  16  16   4  16
#     4  11  22  42  70 107 137 172 232 296 350 414
#     4  12  22  43  67  98 135 178 228 283 362 418
#     4  12  29  44  66  99 140 189 233 285 347 425
#     4  11  24  43  70  98 137 181 231 290 347 420
#     4  12  24  43  67 103 141 180 225 288 354 426
#     4  12  24  38  70 100 138 178 228 270 358 410
#     4   9  22  42  69  97 131 186 233 282 343 414
#
# _framework density 22.317413999999999
#
# number of rings (size 3 to 8) (size 9 to 14) (size 15 to 20)
#    0.000    0.870    4.348    2.087    9.739    0.696 
#    0.000    0.870    0.000    1.043    0.000    0.000 
#    0.000    0.000    0.000    0.000    0.000    0.000 
#
# Total GULP energy -285130.690537 kJ/mol
# GULP energy per Si atom -12396.986545 kJ/mol
# Density = 2.226662 g / cm^3
# Si number density = 22.317414 Si / 1000 Ang^3
#
#
#
# Elastic Constant Matrix: (Units=GPa)
#
#
# Indices 1 2 3 4 5 6 
#
# 1 91.3175 22.2294 22.7020 0.0000 0.0000 0.0000
# 2 22.2294 119.6354 39.5701 0.0000 0.0000 0.0000
# 3 22.7020 39.5701 87.2995 0.0000 0.0000 0.0000
# 4 0.0000 0.0000 0.0000 30.4078 0.0000 0.0000
# 5 0.0000 0.0000 0.0000 0.0000 4.2668 0.0000
# 6 0.0000 0.0000 0.0000 0.0000 0.0000 37.4604
#
#
#
# Elastic Compliance Matrix: (Units=1/GPa)
#
#
# Indices 1 2 3 4 5 6 
#
# 1 0.011903 -0.001397 -0.002462 0.000000 0.000000 0.000000
# 2 -0.001397 0.009997 -0.004168 0.000000 0.000000 0.000000
# 3 -0.002462 -0.004168 0.013984 0.000000 0.000000 0.000000
# 4 0.000000 0.000000 0.000000 0.032886 0.000000 0.000000
# 5 0.000000 0.000000 0.000000 0.000000 0.234368 0.000000
# 6 0.000000 0.000000 0.000000 0.000000 0.000000 0.026695
#
#
# Mechanical properties :
#
#
# Convention : Reuss Voigt Hill
#
# Bulk Modulus (GPa) = 50.42943 51.91724 51.17333
# Shear Modulus (GPa) = 14.18448 28.67708 21.43078
#
# Velocity S-wave (km/s) = 2.52380 3.58853 3.10219
# Velocity P-wave (km/s) = 5.58017 6.36268 5.98423
#
# Compressibility (1/GPa) = 0.01982969
#
# Stress axis : x y z
#
# Youngs Moduli (GPa) = 84.01227 100.03065 71.50913
#
# Poissons Ratio (x) = 0.13978 0.17605
# Poissons Ratio (y) = 0.11740 0.29804
# Poissons Ratio (z) = 0.20683 0.41692
#
# Static dielectric constant tensor:
#      x y z
#    x 4.034450 0.000000 0.000000 
#    y 0.000000 3.968890 0.000000 
#    z 0.000000 0.000000 4.220120 
# 
# 
# High freq. dielectric constant tensor:
#      x y z
#    x 1.875610 0.000000 0.000000 
#    y 0.000000 1.877480 0.000000 
#    z 0.000000 0.000000 1.871760 
# 
# From -- ./inp_files/47313.got.cif
#   From: 2010.03.12/outbox.cif.g09.slc.cpg/sg22_24_cif.got.tgz:47313.got - 2010.04.14 02:24:06.
