data_PCOD8163337
_publ_section_title
;
Structure prediction by ZEFSAII (Michael W. Deem and Ramdas Pophale) SiO2 
 PCOD8163337
Probable space group: I 2 2 2
;
_chemical_formula_sum "Si O2"
_cell_formula_units_Z 52
_cell_length_a 14.926462
_cell_length_b 18.633541
_cell_length_c 10.518904
_cell_angle_alpha 90.000000
_cell_angle_beta 90.000000
_cell_angle_gamma 90.000000
_cell_volume 2925.652661
_symmetry_space_group_name_H-M "I 2 2 2"
_symmetry_group_IT_number 23
_symmetry_cell_setting 'orthorhombic'
loop_
_space_group_symop_operation_xyz
x,y,z
-x,-y,z
x,-y,-z
-x,y,-z
1/2+x,1/2+y,1/2+z
1/2-x,1/2-y,1/2+z
1/2+x,1/2-y,1/2-z
1/2-x,1/2+y,1/2-z
loop_
_atom_site_type_symbol
_atom_site_label
_atom_site_fract_x
_atom_site_fract_y
_atom_site_fract_z
Si Si1 0.982888 0.420161 0.852038
Si Si2 0.285339 0.313593 0.649191
Si Si3 0.806599 0.192120 0.119488
Si Si4 0.704308 0.149247 0.346507
Si Si5 0.500000 0.720203 0.000000
Si Si6 0.185741 0.827875 0.579310
Si Si7 0.086348 0.295252 0.723480
O O1 0.880710 0.400298 0.821893
O O2 0.000000 0.500000 0.799929
O O3 0.053118 0.368417 0.784487
O O4 0.000000 0.414673 0.000000
O O5 0.321944 0.348579 0.516459
O O6 0.325472 0.232675 0.650819
O O7 0.315695 0.358741 0.774957
O O8 0.177673 0.309096 0.646770
O O9 0.774176 0.137264 0.229383
O O10 0.725672 0.247916 0.091929
O O11 0.894917 0.235268 0.167005
O O12 0.751790 0.127480 0.480943
O O13 0.586495 0.670609 0.978693
O O14 0.488417 0.768609 0.874792
#
# Coordination Sequence:
#
# PCOD8163337 Si02
#       7
#     8   8   8   8   4   8   8
#     4  11  22  33  47  68 100 140 178 205 236 289
#     4   9  16  28  47  68  91 123 164 206 258 297
#     4   9  15  30  46  68  89 124 160 204 261 297
#     4   9  16  31  45  62  93 127 165 202 248 293
#     4  12  16  28  47  74  96 131 166 212 262 298
#     4   9  16  26  43  68  93 126 161 199 256 308
#     4  10  19  28  48  68  94 127 173 202 247 301
#
# _framework density 17.773812
#
# number of rings (size 3 to 8) (size 9 to 14) (size 15 to 20)
#    0.000    2.615    4.615    4.615    0.000    0.000 
#    0.000    0.385    0.000    0.000    0.000    0.000 
#    0.000   22.154    0.000    0.000   41.846    9.231 
#
# Total GULP energy -322116.389967 kJ/mol
# GULP energy per Si atom -12389.091922 kJ/mol
# Density = 1.773336 g / cm^3
# Si number density = 17.773812 Si / 1000 Ang^3
#
#
#
# Elastic Constant Matrix: (Units=GPa)
#
#
# Indices 1 2 3 4 5 6 
#
# 1 81.6629 40.1156 23.1504 0.0000 0.0000 0.0000
# 2 40.1156 51.0277 29.1863 0.0000 0.0000 0.0000
# 3 23.1504 29.1863 154.3357 0.0000 0.0000 0.0000
# 4 0.0000 0.0000 0.0000 11.3620 0.0000 0.0000
# 5 0.0000 0.0000 0.0000 0.0000 32.4090 0.0000
# 6 0.0000 0.0000 0.0000 0.0000 0.0000 14.9168
#
#
#
# Elastic Compliance Matrix: (Units=1/GPa)
#
#
# Indices 1 2 3 4 5 6 
#
# 1 0.019950 -0.015667 -0.000030 0.000000 0.000000 0.000000
# 2 -0.015667 0.034277 -0.004132 0.000000 0.000000 0.000000
# 3 -0.000030 -0.004132 0.007265 0.000000 0.000000 0.000000
# 4 0.000000 0.000000 0.000000 0.088013 0.000000 0.000000
# 5 0.000000 0.000000 0.000000 0.000000 0.030856 0.000000
# 6 0.000000 0.000000 0.000000 0.000000 0.000000 0.067038
#
#
# Mechanical properties :
#
#
# Convention : Reuss Voigt Hill
#
# Bulk Modulus (GPa) = 45.79777 52.43678 49.11727
# Shear Modulus (GPa) = 16.98746 24.70915 20.84831
#
# Velocity S-wave (km/s) = 3.09489 3.73258 3.42859
# Velocity P-wave (km/s) = 6.21241 6.93848 6.58546
#
# Compressibility (1/GPa) = 0.02183513
#
# Stress axis : x y z
#
# Youngs Moduli (GPa) = 50.12551 29.17405 137.64123
#
# Poissons Ratio (x) = 0.45706 0.00410
# Poissons Ratio (y) = 0.78530 0.56875
# Poissons Ratio (z) = 0.00149 0.12055
#
# Static dielectric constant tensor:
#      x y z
#    x 3.187350 0.000000 0.000000 
#    y 0.000000 2.648650 0.000000 
#    z 0.000000 0.000000 4.271850 
# 
# 
# High freq. dielectric constant tensor:
#      x y z
#    x 1.681470 0.000000 0.000000 
#    y 0.000000 1.590510 0.000000 
#    z 0.000000 0.000000 1.720490 
# 
# From -- ./inp_files/16894.got.cif
#   From: 2010.03.12/outbox.cif.g09.slc.cpg/sg23_9_cif.got.tgz:16894.got - 2010.04.14 02:50:06.
