data_PCOD8163779
_publ_section_title
;
Structure prediction by ZEFSAII (Michael W. Deem and Ramdas Pophale) SiO2 
 PCOD8163779
Probable space group: I 2 2 2
;
_chemical_formula_sum "Si O2"
_cell_formula_units_Z 32
_cell_length_a 5.238128
_cell_length_b 31.928099
_cell_length_c 8.559793
_cell_angle_alpha 90.000000
_cell_angle_beta 90.000000
_cell_angle_gamma 90.000000
_cell_volume 1431.569478
_symmetry_space_group_name_H-M "I 2 2 2"
_symmetry_group_IT_number 23
_symmetry_cell_setting 'orthorhombic'
loop_
_space_group_symop_operation_xyz
x,y,z
-x,-y,z
x,-y,-z
-x,y,-z
1/2+x,1/2+y,1/2+z
1/2-x,1/2-y,1/2+z
1/2+x,1/2-y,1/2-z
1/2-x,1/2+y,1/2-z
loop_
_atom_site_type_symbol
_atom_site_label
_atom_site_fract_x
_atom_site_fract_y
_atom_site_fract_z
Si Si1 0.249652 0.764454 0.897071
Si Si2 0.511633 0.093005 0.183535
Si Si3 0.478148 0.818386 0.323200
Si Si4 0.005301 0.952463 0.813509
O O1 0.267485 0.795912 0.748110
O O2 0.242218 0.717510 0.823903
O O3 0.500000 0.771728 0.000000
O O4 0.000000 0.774029 0.000000
O O5 0.572028 0.141346 0.218335
O O6 0.248686 0.073722 0.252918
O O7 0.749131 0.067897 0.255559
O O8 0.500000 0.087058 0.000000
O O9 0.500000 0.834489 0.500000
O O10 0.000000 0.000000 0.752562
O O11 0.000000 0.951108 0.000000
#
# Coordination Sequence:
#
# PCOD8163779 Si02
#       4
#     8   8   8   8
#     4  11  25  44  65  89 124 172 219 263 311 368
#     4  10  21  35  58  88 118 152 195 250 305 364
#     4  11  24  41  63  91 125 164 209 257 311 370
#     4   9  18  35  59  86 114 149 196 248 301 359
#
# _framework density 22.353088
#
# number of rings (size 3 to 8) (size 9 to 14) (size 15 to 20)
#    0.000    1.750    0.000    4.500    0.000   14.000 
#    0.000    1.250    0.000    4.500    0.000    0.000 
#    0.000    0.000    0.000    0.000    0.000    0.000 
#
# Total GULP energy -198246.265704 kJ/mol
# GULP energy per Si atom -12390.391606 kJ/mol
# Density = 2.230221 g / cm^3
# Si number density = 22.353088 Si / 1000 Ang^3
#
#
#
# Elastic Constant Matrix: (Units=GPa)
#
#
# Indices 1 2 3 4 5 6 
#
# 1 180.2335 65.6080 44.8709 -0.0009 0.0000 0.0000
# 2 65.6080 155.5363 8.0078 -0.0034 -0.0002 -0.0001
# 3 44.8709 8.0078 39.0182 -0.0050 -0.0006 -0.0003
# 4 -0.0009 -0.0034 -0.0050 -7.1061 -0.0006 -0.0003
# 5 0.0000 -0.0002 -0.0006 -0.0006 20.0742 0.0000
# 6 0.0000 -0.0001 -0.0003 -0.0003 0.0000 43.8108
#
#
#
# Elastic Compliance Matrix: (Units=1/GPa)
#
#
# Indices 1 2 3 4 5 6 
#
# 1 0.009262 -0.003395 -0.009955 0.000007 0.000000 0.000000
# 2 -0.003395 0.007742 0.002315 -0.000005 0.000000 0.000000
# 3 -0.009955 0.002315 0.036602 -0.000025 0.000001 0.000000
# 4 0.000007 -0.000005 -0.000025 -0.140724 -0.000004 -0.000001
# 5 0.000000 0.000000 0.000001 -0.000004 0.049815 0.000000
# 6 0.000000 0.000000 0.000000 -0.000001 0.000000 0.022825
#
#
# Mechanical properties :
#
#
# Convention : Reuss Voigt Hill
#
# Bulk Modulus (GPa) = 31.70862 67.97347 49.84105
# Shear Modulus (GPa) = 276.16387 28.44255 152.30321
#
# Velocity S-wave (km/s) = 11.12719 3.57097 8.26336
# Velocity P-wave (km/s) = 13.39037 6.89039 10.64846
#
# Compressibility (1/GPa) = 0.03153717
#
# Stress axis : x y z
#
# Youngs Moduli (GPa) = 107.96275 129.16459 27.32057
#
# Poissons Ratio (x) = 0.43845 0.27198
# Poissons Ratio (y) = 0.36648 -0.06324
# Poissons Ratio (z) = 1.07479 -0.29899
#
# Static dielectric constant tensor:
#      x y z
#    x 4.790730 0.000000 0.000010 
#    y 0.000000 3.978410 0.000000 
#    z 0.000010 0.000000 3.973090 
# 
# 
# High freq. dielectric constant tensor:
#      x y z
#    x 1.884540 0.000000 0.000000 
#    y 0.000000 1.880860 0.000000 
#    z 0.000000 0.000000 1.855340 
# 
# From -- ./inp_files/720.got.cif
#   From: 2010.03.12/outbox.cif.g09.slc.cpg/sg23_1_cif.got.tgz:720.got - 2010.04.14 02:50:06.
