data_PCOD8163364
_publ_section_title
;
Structure prediction by ZEFSAII (Michael W. Deem and Ramdas Pophale) SiO2 
 PCOD8163364
Probable space group: I 2 2 2
;
_chemical_formula_sum "Si O2"
_cell_formula_units_Z 48
_cell_length_a 19.824475
_cell_length_b 8.886138
_cell_length_c 15.996150
_cell_angle_alpha 90.000000
_cell_angle_beta 90.000000
_cell_angle_gamma 90.000000
_cell_volume 2817.930102
_symmetry_space_group_name_H-M "I 2 2 2"
_symmetry_group_IT_number 23
_symmetry_cell_setting 'orthorhombic'
loop_
_space_group_symop_operation_xyz
x,y,z
-x,-y,z
x,-y,-z
-x,y,-z
1/2+x,1/2+y,1/2+z
1/2-x,1/2-y,1/2+z
1/2+x,1/2-y,1/2-z
1/2-x,1/2+y,1/2-z
loop_
_atom_site_type_symbol
_atom_site_label
_atom_site_fract_x
_atom_site_fract_y
_atom_site_fract_z
Si Si1 0.349923 0.659155 0.139046
Si Si2 0.755109 0.419984 0.913546
Si Si3 0.134431 0.368141 0.220294
Si Si4 0.436952 0.104063 0.170162
Si Si5 0.332432 0.838306 0.972382
Si Si6 0.973912 0.153488 0.743709
O O1 0.300614 0.516843 0.135692
O O2 0.322168 0.777307 0.209204
O O3 0.357052 0.740683 0.050608
O O4 0.425275 0.607260 0.165514
O O5 0.822968 0.407318 0.860681
O O6 0.774694 0.500000 0.000000
O O7 0.727241 0.251710 0.926281
O O8 0.109293 0.522900 0.260982
O O9 0.069710 0.262399 0.194500
O O10 0.460802 0.259876 0.210144
O O11 0.500000 0.000000 0.144687
O O12 0.396356 0.137802 0.086437
O O13 0.302953 0.000000 0.000000
O O14 0.000000 0.000000 0.788162
#
# Coordination Sequence:
#
# PCOD8163364 Si02
#       6
#     8   8   8   8   8   8
#     4   9  20  33  49  78 113 137 179 210 264 331
#     4  10  22  37  53  77 112 140 182 228 267 322
#     4   9  20  35  53  78 104 143 182 215 275 317
#     4  10  19  32  52  76 112 141 180 216 256 327
#     4  11  19  33  50  79 109 146 177 217 259 319
#     4   9  18  34  51  80 107 141 180 220 259 319
#
# _framework density 17.033778999999999
#
# number of rings (size 3 to 8) (size 9 to 14) (size 15 to 20)
#    1.000    1.333    1.667    1.000    2.333    2.333 
#    0.000    2.500    0.000    4.500    0.000    1.167 
#    0.000    0.000    0.000    0.000    0.000    0.000 
#
# Total GULP energy -297430.412938 kJ/mol
# GULP energy per Si atom -12392.933872 kJ/mol
# Density = 1.699501 g / cm^3
# Si number density = 17.033779 Si / 1000 Ang^3
#
#
#
# Elastic Constant Matrix: (Units=GPa)
#
#
# Indices 1 2 3 4 5 6 
#
# 1 79.4517 53.3135 51.9988 0.0000 0.0000 0.0000
# 2 53.3135 119.6337 32.6403 0.0000 0.0000 0.0000
# 3 51.9988 32.6403 68.7519 0.0000 0.0000 0.0000
# 4 0.0000 0.0000 0.0000 11.8632 0.0000 0.0000
# 5 0.0000 0.0000 0.0000 0.0000 30.6155 0.0000
# 6 0.0000 0.0000 0.0000 0.0000 0.0000 22.5117
#
#
#
# Elastic Compliance Matrix: (Units=1/GPa)
#
#
# Indices 1 2 3 4 5 6 
#
# 1 0.031004 -0.008523 -0.019403 0.000000 0.000000 0.000000
# 2 -0.008523 0.011946 0.000775 0.000000 0.000000 0.000000
# 3 -0.019403 0.000775 0.028852 0.000000 0.000000 0.000000
# 4 0.000000 0.000000 0.000000 0.084294 0.000000 0.000000
# 5 0.000000 0.000000 0.000000 0.000000 0.032663 0.000000
# 6 0.000000 0.000000 0.000000 0.000000 0.000000 0.044421
#
#
# Mechanical properties :
#
#
# Convention : Reuss Voigt Hill
#
# Bulk Modulus (GPa) = 57.14317 60.41582 58.77949
# Shear Modulus (GPa) = 17.04656 21.65706 19.35181
#
# Velocity S-wave (km/s) = 3.16690 3.56956 3.37424
# Velocity P-wave (km/s) = 6.85508 7.24805 7.05430
#
# Compressibility (1/GPa) = 0.01749991
#
# Stress axis : x y z
#
# Youngs Moduli (GPa) = 32.25435 83.71341 34.65970
#
# Poissons Ratio (x) = 0.71346 0.67249
# Poissons Ratio (y) = 0.27489 -0.02685
# Poissons Ratio (z) = 0.62582 -0.06486
#
# Static dielectric constant tensor:
#      x y z
#    x 3.015770 0.000000 0.000000 
#    y 0.000000 3.436790 0.000000 
#    z 0.000000 0.000000 2.850220 
# 
# 
# High freq. dielectric constant tensor:
#      x y z
#    x 1.640420 0.000000 0.000000 
#    y 0.000000 1.674810 0.000000 
#    z 0.000000 0.000000 1.623700 
# 
# From -- ./inp_files/22032.got.cif
#   From: 2010.03.12/outbox.cif.g09.slc.cpg/sg23_12_cif.got.tgz:22032.got - 2010.04.14 02:50:06.
