data_PCOD8163260
_publ_section_title
;
Structure prediction by ZEFSAII (Michael W. Deem and Ramdas Pophale) SiO2 
 PCOD8163260
Probable space group: I 2 2 2
;
_chemical_formula_sum "Si O2"
_cell_formula_units_Z 52
_cell_length_a 18.010210
_cell_length_b 12.783149
_cell_length_c 11.961108
_cell_angle_alpha 90.000000
_cell_angle_beta 90.000000
_cell_angle_gamma 90.000000
_cell_volume 2753.772379
_symmetry_space_group_name_H-M "I 2 2 2"
_symmetry_group_IT_number 23
_symmetry_cell_setting 'orthorhombic'
loop_
_space_group_symop_operation_xyz
x,y,z
-x,-y,z
x,-y,-z
-x,y,-z
1/2+x,1/2+y,1/2+z
1/2-x,1/2-y,1/2+z
1/2+x,1/2-y,1/2-z
1/2-x,1/2+y,1/2-z
loop_
_atom_site_type_symbol
_atom_site_label
_atom_site_fract_x
_atom_site_fract_y
_atom_site_fract_z
Si Si1 0.159123 0.679594 0.028400
Si Si2 0.795964 0.104787 0.395775
Si Si3 0.000000 0.261159 0.000000
Si Si4 0.776446 0.705773 0.752320
Si Si5 0.700494 0.602448 0.562436
Si Si6 0.854287 0.876042 0.374148
Si Si7 0.546817 0.396638 0.317601
O O1 0.165673 0.654432 0.160549
O O2 0.212469 0.608693 0.950211
O O3 0.184213 0.800699 0.019105
O O4 0.072804 0.665200 0.996581
O O5 0.801875 0.179553 0.288594
O O6 0.856245 0.140431 0.491517
O O7 0.814654 0.989133 0.353378
O O8 0.997988 0.191437 0.886587
O O9 0.767949 0.631545 0.644925
O O10 0.697009 0.712940 0.816694
O O11 0.728418 0.500000 0.500000
O O12 0.625481 0.576859 0.628118
O O13 0.935061 0.867813 0.313306
O O14 0.500000 0.500000 0.320750
#
# Coordination Sequence:
#
# PCOD8163260 Si02
#       7
#     8   8   4   8   8   8   8
#     4   9  18  31  48  74 103 135 169 210 260 305
#     4   9  18  34  50  71 107 139 179 220 246 320
#     4  10  19  30  50  77 112 132 164 218 265 323
#     4   9  18  29  50  72  96 136 174 214 257 299
#     4   9  17  28  44  72 104 132 165 205 249 304
#     4   9  19  33  51  73 107 143 170 213 268 303
#     4  10  18  28  46  77 108 140 161 196 261 331
#
# _framework density 18.883187
#
# number of rings (size 3 to 8) (size 9 to 14) (size 15 to 20)
#    0.000    2.769    0.000    3.000    6.462    0.000 
#    0.000    1.538    0.000    7.385    0.000    0.000 
#    4.615    0.000    0.000    0.000    0.000    0.000 
#
# Total GULP energy -322114.656570 kJ/mol
# GULP energy per Si atom -12389.025253 kJ/mol
# Density = 1.884021 g / cm^3
# Si number density = 18.883187 Si / 1000 Ang^3
#
#
#
# Elastic Constant Matrix: (Units=GPa)
#
#
# Indices 1 2 3 4 5 6 
#
# 1 63.3023 3.3417 20.4389 0.0000 0.0000 0.0000
# 2 3.3417 35.9290 7.8384 0.0000 0.0000 0.0000
# 3 20.4389 7.8384 75.4937 0.0000 0.0000 0.0000
# 4 0.0000 0.0000 0.0000 29.3362 0.0000 0.0000
# 5 0.0000 0.0000 0.0000 0.0000 30.5092 0.0000
# 6 0.0000 0.0000 0.0000 0.0000 0.0000 20.2043
#
#
#
# Elastic Compliance Matrix: (Units=1/GPa)
#
#
# Indices 1 2 3 4 5 6 
#
# 1 0.017323 -0.000602 -0.004628 0.000000 0.000000 0.000000
# 2 -0.000602 0.028499 -0.002796 0.000000 0.000000 0.000000
# 3 -0.004628 -0.002796 0.014789 0.000000 0.000000 0.000000
# 4 0.000000 0.000000 0.000000 0.034088 0.000000 0.000000
# 5 0.000000 0.000000 0.000000 0.000000 0.032777 0.000000
# 6 0.000000 0.000000 0.000000 0.000000 0.000000 0.049494
#
#
# Mechanical properties :
#
#
# Convention : Reuss Voigt Hill
#
# Bulk Modulus (GPa) = 22.44141 26.44033 24.44087
# Shear Modulus (GPa) = 24.05305 25.55036 24.80170
#
# Velocity S-wave (km/s) = 3.57288 3.68241 3.62806
# Velocity P-wave (km/s) = 5.37873 5.66680 5.52464
#
# Compressibility (1/GPa) = 0.04456049
#
# Stress axis : x y z
#
# Youngs Moduli (GPa) = 57.72641 35.08945 67.61652
#
# Poissons Ratio (x) = 0.02111 0.31290
# Poissons Ratio (y) = 0.03473 0.18906
# Poissons Ratio (z) = 0.26713 0.09811
#
# Static dielectric constant tensor:
#      x y z
#    x 3.407320 0.000000 0.000000 
#    y 0.000000 3.251200 0.000000 
#    z 0.000000 0.000000 3.872490 
# 
# 
# High freq. dielectric constant tensor:
#      x y z
#    x 1.698750 0.000000 0.000000 
#    y 0.000000 1.706160 0.000000 
#    z 0.000000 0.000000 1.747200 
# 
# From -- ./inp_files/17513.got.cif
#   From: 2010.03.12/outbox.cif.g09.slc.cpg/sg23_9_cif.got.tgz:17513.got - 2010.04.14 02:50:06.
