data_PCOD8163224
_publ_section_title
;
Structure prediction by ZEFSAII (Michael W. Deem and Ramdas Pophale) SiO2 
 PCOD8163224
Probable space group: I 2 2 2
;
_chemical_formula_sum "Si O2"
_cell_formula_units_Z 44
_cell_length_a 9.344448
_cell_length_b 28.458496
_cell_length_c 8.303147
_cell_angle_alpha 90.000000
_cell_angle_beta 90.000000
_cell_angle_gamma 90.000000
_cell_volume 2208.047047
_symmetry_space_group_name_H-M "I 2 2 2"
_symmetry_group_IT_number 23
_symmetry_cell_setting 'orthorhombic'
loop_
_space_group_symop_operation_xyz
x,y,z
-x,-y,z
x,-y,-z
-x,y,-z
1/2+x,1/2+y,1/2+z
1/2-x,1/2-y,1/2+z
1/2+x,1/2-y,1/2-z
1/2-x,1/2+y,1/2-z
loop_
_atom_site_type_symbol
_atom_site_label
_atom_site_fract_x
_atom_site_fract_y
_atom_site_fract_z
Si Si1 0.918495 0.569900 0.253323
Si Si2 0.000000 0.500000 0.000000
Si Si3 0.258010 0.652676 0.684741
Si Si4 0.000000 0.500000 0.500000
Si Si5 0.048048 0.824998 0.683099
Si Si6 0.456427 0.777238 0.314839
Si Si7 0.837735 0.353681 0.316072
O O1 0.905620 0.535787 0.102017
O O2 0.897254 0.534268 0.400438
O O3 0.066094 0.600607 0.272431
O O4 0.783425 0.603439 0.234513
O O5 0.427949 0.657252 0.690865
O O6 0.191302 0.693975 0.795738
O O7 0.193464 0.651406 0.505448
O O8 0.000000 0.832750 0.500000
O O9 0.074157 0.770613 0.720944
O O10 0.190131 0.855685 0.716150
O O11 0.500000 0.768160 0.500000
O O12 0.582256 0.805941 0.230240
#
# Coordination Sequence:
#
# PCOD8163224 Si02
#       7
#     8   2   8   2   8   8   8
#     4  10  21  38  66  93 115 144 193 239 295 346
#     4  10  24  34  68  92 120 138 192 244 292 354
#     4  11  22  39  61  87 122 155 199 241 290 343
#     4  10  16  42  64  96 104 146 188 248 284 362
#     4  12  25  38  57  84 124 164 196 238 292 344
#     4  11  22  38  60  86 119 160 207 241 277 335
#     4  11  22  39  61  87 122 155 199 241 290 343
#
# _framework density 19.927112000000001
#
# number of rings (size 3 to 8) (size 9 to 14) (size 15 to 20)
#    0.000    1.091    1.818    6.545    7.636    0.000 
#    0.000    0.000    0.000    6.545    0.000    0.000 
#    0.000    0.000    0.000    0.000    0.000    0.000 
#
# Total GULP energy -272686.015352 kJ/mol
# GULP energy per Si atom -12394.818880 kJ/mol
# Density = 1.988176 g / cm^3
# Si number density = 19.927112 Si / 1000 Ang^3
#
#
#
# Elastic Constant Matrix: (Units=GPa)
#
#
# Indices 1 2 3 4 5 6 
#
# 1 100.7780 37.7318 3.1223 -0.0002 0.0001 -0.0003
# 2 37.7318 120.6028 25.6154 0.0004 -0.0009 0.0004
# 3 3.1223 25.6154 90.1079 0.0003 -0.0030 0.0006
# 4 -0.0002 0.0004 0.0003 47.4193 -0.0014 -0.0003
# 5 0.0001 -0.0009 -0.0030 -0.0014 27.6515 0.0001
# 6 -0.0003 0.0004 0.0006 -0.0003 0.0001 6.8586
#
#
#
# Elastic Compliance Matrix: (Units=1/GPa)
#
#
# Indices 1 2 3 4 5 6 
#
# 1 0.011275 -0.003666 0.000651 0.000000 0.000000 0.000001
# 2 -0.003666 0.010016 -0.002720 0.000000 0.000000 0.000000
# 3 0.000651 -0.002720 0.011849 0.000000 0.000001 -0.000001
# 4 0.000000 0.000000 0.000000 0.021088 0.000001 0.000001
# 5 0.000000 0.000000 0.000001 0.000001 0.036164 -0.000001
# 6 0.000001 0.000000 -0.000001 0.000001 -0.000001 0.145802
#
#
# Mechanical properties :
#
#
# Convention : Reuss Voigt Hill
#
# Bulk Modulus (GPa) = 46.14590 49.38086 47.76338
# Shear Modulus (GPa) = 19.61647 32.72052 26.16850
#
# Velocity S-wave (km/s) = 3.14094 4.05657 3.62776
# Velocity P-wave (km/s) = 6.03006 6.83926 6.44737
#
# Compressibility (1/GPa) = 0.02167040
#
# Stress axis : x y z
#
# Youngs Moduli (GPa) = 88.69067 99.83645 84.39843
#
# Poissons Ratio (x) = 0.36599 -0.05498
# Poissons Ratio (y) = 0.32513 0.22960
# Poissons Ratio (z) = -0.05778 0.27159
#
# Static dielectric constant tensor:
#      x y z
#    x 3.655850 0.000000 0.000010 
#    y 0.000000 3.781790 0.000010 
#    z 0.000010 0.000010 4.206100 
# 
# 
# High freq. dielectric constant tensor:
#      x y z
#    x 1.758820 0.000000 0.000000 
#    y 0.000000 1.777150 0.000000 
#    z 0.000000 0.000000 1.795890 
# 
# From -- ./inp_files/7276.got.cif
#   From: 2010.03.12/outbox.cif.g09.slc.cpg/sg23_4_cif.got.tgz:7276.got - 2010.04.14 02:50:06.
