data_PCOD8163934
_publ_section_title
;
Structure prediction by ZEFSAII (Michael W. Deem and Ramdas Pophale) SiO2 
 PCOD8163934
Probable space group: I 2 2 2
;
_chemical_formula_sum "Si O2"
_cell_formula_units_Z 52
_cell_length_a 18.030449
_cell_length_b 15.212160
_cell_length_c 8.734789
_cell_angle_alpha 90.000000
_cell_angle_beta 90.000000
_cell_angle_gamma 90.000000
_cell_volume 2395.796052
_symmetry_space_group_name_H-M "I 2 2 2"
_symmetry_group_IT_number 23
_symmetry_cell_setting 'orthorhombic'
loop_
_space_group_symop_operation_xyz
x,y,z
-x,-y,z
x,-y,-z
-x,y,-z
1/2+x,1/2+y,1/2+z
1/2-x,1/2-y,1/2+z
1/2+x,1/2-y,1/2-z
1/2-x,1/2+y,1/2-z
loop_
_atom_site_type_symbol
_atom_site_label
_atom_site_fract_x
_atom_site_fract_y
_atom_site_fract_z
Si Si1 0.000000 0.000000 0.000000
Si Si2 0.081728 0.759241 0.475760
Si Si3 0.183667 0.785401 0.743876
Si Si4 0.000000 0.500000 0.500000
Si Si5 0.606269 0.386859 0.712175
Si Si6 0.623341 0.904447 0.193789
Si Si7 0.834312 0.719637 0.935281
Si Si8 0.720380 0.522109 0.668924
O O1 0.047507 0.943971 0.119927
O O2 0.110216 0.779255 0.644051
O O3 0.076800 0.847319 0.372941
O O4 0.136998 0.686114 0.401128
O O5 0.000000 0.719133 0.500000
O O6 0.255075 0.766423 0.642852
O O7 0.185115 0.884432 0.800629
O O8 0.177231 0.714204 0.881589
O O9 0.049502 0.446182 0.622153
O O10 0.619572 0.306311 0.598195
O O11 0.679710 0.444045 0.763191
O O12 0.622582 0.868372 0.370874
O O13 0.690088 0.975173 0.183988
O O14 0.696049 0.500000 0.500000
#
# Coordination Sequence:
#
# PCOD8163934 Si02
#       8
#     2   8   8   2   8   8   8   8
#     4  12  24  38  66  96 144 188 222 276 356 392
#     4  11  26  43  64 101 137 183 234 286 350 428
#     4  11  22  41  68 100 131 175 235 290 335 411
#     4  12  20  42  72 106 140 176 234 296 364 428
#     4  11  24  40  63  98 136 181 229 275 345 421
#     4  10  23  41  70 101 130 182 228 283 353 417
#     4  10  21  41  68  97 131 177 234 280 342 413
#     4  11  20  38  65  97 128 180 223 278 343 405
#
# _framework density 21.704685999999999
#
# number of rings (size 3 to 8) (size 9 to 14) (size 15 to 20)
#    0.000    1.231    3.846    2.769    4.308    0.615 
#    0.000    0.000    0.000    1.846    0.000    0.000 
#    0.000    0.000    0.000    0.000    0.000    0.000 
#
# Total GULP energy -322147.410602 kJ/mol
# GULP energy per Si atom -12390.285023 kJ/mol
# Density = 2.165529 g / cm^3
# Si number density = 21.704686 Si / 1000 Ang^3
#
#
#
# Elastic Constant Matrix: (Units=GPa)
#
#
# Indices 1 2 3 4 5 6 
#
# 1 122.6023 43.6715 52.5420 0.0000 0.0000 0.0000
# 2 43.6715 72.0571 34.2503 0.0000 0.0000 0.0000
# 3 52.5420 34.2503 150.4332 0.0000 0.0000 0.0000
# 4 0.0000 0.0000 0.0000 26.8839 0.0000 0.0000
# 5 0.0000 0.0000 0.0000 0.0000 34.6079 0.0000
# 6 0.0000 0.0000 0.0000 0.0000 0.0000 31.9510
#
#
#
# Elastic Compliance Matrix: (Units=1/GPa)
#
#
# Indices 1 2 3 4 5 6 
#
# 1 0.011286 -0.005569 -0.002674 0.000000 0.000000 0.000000
# 2 -0.005569 0.018310 -0.002224 0.000000 0.000000 0.000000
# 3 -0.002674 -0.002224 0.008088 0.000000 0.000000 0.000000
# 4 0.000000 0.000000 0.000000 0.037197 0.000000 0.000000
# 5 0.000000 0.000000 0.000000 0.000000 0.028895 0.000000
# 6 0.000000 0.000000 0.000000 0.000000 0.000000 0.031298
#
#
# Mechanical properties :
#
#
# Convention : Reuss Voigt Hill
#
# Bulk Modulus (GPa) = 59.70012 67.33557 63.51785
# Shear Modulus (GPa) = 30.94230 32.99715 31.96973
#
# Velocity S-wave (km/s) = 3.77981 3.90330 3.84206
# Velocity P-wave (km/s) = 6.82749 7.16974 7.00071
#
# Compressibility (1/GPa) = 0.01675039
#
# Stress axis : x y z
#
# Youngs Moduli (GPa) = 88.60402 54.61456 123.64487
#
# Poissons Ratio (x) = 0.30416 0.33062
# Poissons Ratio (y) = 0.49345 0.27494
# Poissons Ratio (z) = 0.23692 0.12144
#
# Static dielectric constant tensor:
#      x y z
#    x 3.945580 0.000000 0.000000 
#    y 0.000000 3.792800 0.000000 
#    z 0.000000 0.000000 3.874180 
# 
# 
# High freq. dielectric constant tensor:
#      x y z
#    x 1.851750 0.000000 0.000000 
#    y 0.000000 1.852610 0.000000 
#    z 0.000000 0.000000 1.847670 
# 
# From -- ./inp_files/12027.got.cif
#   From: 2010.03.12/outbox.cif.g09.slc.cpg/sg23_7_cif.got.tgz:12027.got - 2010.04.14 02:50:06.
