data_PCOD8163805
_publ_section_title
;
Structure prediction by ZEFSAII (Michael W. Deem and Ramdas Pophale) SiO2 
 PCOD8163805
Probable space group: I 2 2 2
;
_chemical_formula_sum "Si O2"
_cell_formula_units_Z 58
_cell_length_a 8.671268
_cell_length_b 25.355412
_cell_length_c 14.469316
_cell_angle_alpha 90.000000
_cell_angle_beta 90.000000
_cell_angle_gamma 90.000000
_cell_volume 3181.275510
_symmetry_space_group_name_H-M "I 2 2 2"
_symmetry_group_IT_number 23
_symmetry_cell_setting 'orthorhombic'
loop_
_space_group_symop_operation_xyz
x,y,z
-x,-y,z
x,-y,-z
-x,y,-z
1/2+x,1/2+y,1/2+z
1/2-x,1/2-y,1/2+z
1/2+x,1/2-y,1/2-z
1/2-x,1/2+y,1/2-z
loop_
_atom_site_type_symbol
_atom_site_label
_atom_site_fract_x
_atom_site_fract_y
_atom_site_fract_z
Si Si1 0.196645 0.292404 0.306346
Si Si2 0.166241 0.307491 0.705987
Si Si3 0.500000 0.000000 0.500000
Si Si4 0.336296 0.387629 0.198462
Si Si5 0.801909 0.100901 0.683595
Si Si6 0.318858 0.230446 0.008041
Si Si7 0.660615 0.012545 0.321339
Si Si8 0.182555 0.152933 0.504956
O O1 0.246415 0.235154 0.269303
O O2 0.294633 0.338173 0.260560
O O3 0.239037 0.297813 0.414849
O O4 0.016072 0.298877 0.286476
O O5 0.208241 0.366383 0.739118
O O6 0.224584 0.302179 0.599908
O O7 0.384574 0.969608 0.427873
O O8 0.518307 0.393681 0.203168
O O9 0.252017 0.441159 0.231410
O O10 0.271990 0.379038 0.095718
O O11 0.750339 0.123719 0.584480
O O12 0.764737 0.039398 0.683121
O O13 0.244120 0.288734 0.013357
O O14 0.500000 0.237673 0.000000
O O15 0.500000 0.000000 0.267529
O O16 0.000000 0.156833 0.500000
#
# Coordination Sequence:
#
# PCOD8163805 Si02
#       8
#     8   8   2   8   8   8   8   8
#     4  11  21  36  56  82 111 150 191 237 283 339
#     4  11  21  36  56  82 111 150 191 237 283 339
#     4   8  20  36  58  80 124 138 198 236 272 326
#     4  11  21  36  57  81 113 152 193 230 281 341
#     4  11  21  36  57  81 113 152 193 230 281 341
#     4   9  18  35  54  76 114 150 185 225 284 339
#     4  10  21  37  53  80 114 149 184 236 275 331
#     4   9  17  30  51  78 111 151 182 218 272 340
#
# _framework density 18.231680999999998
#
# number of rings (size 3 to 8) (size 9 to 14) (size 15 to 20)
#    0.414    1.379    2.759    2.897    0.000    0.000 
#    0.000    6.897    0.000    0.828    0.000    5.793 
#    0.000    0.000    0.000    0.000    0.000    0.000 
#
# Total GULP energy -359375.982611 kJ/mol
# GULP energy per Si atom -12392.275262 kJ/mol
# Density = 1.819019 g / cm^3
# Si number density = 18.231681 Si / 1000 Ang^3
#
#
#
# Elastic Constant Matrix: (Units=GPa)
#
#
# Indices 1 2 3 4 5 6 
#
# 1 73.4361 25.1905 23.5706 0.0000 0.0000 0.0000
# 2 25.1905 90.0677 19.3612 -0.0001 0.0000 0.0001
# 3 23.5706 19.3612 86.0181 0.0000 0.0002 0.0000
# 4 0.0000 -0.0001 0.0000 17.3229 0.0001 0.0000
# 5 0.0000 0.0000 0.0002 0.0001 19.5940 0.0000
# 6 0.0000 0.0001 0.0000 0.0000 0.0000 31.9369
#
#
#
# Elastic Compliance Matrix: (Units=1/GPa)
#
#
# Indices 1 2 3 4 5 6 
#
# 1 0.016035 -0.003720 -0.003557 0.000000 0.000000 0.000000
# 2 -0.003720 0.012530 -0.001801 0.000000 0.000000 0.000000
# 3 -0.003557 -0.001801 0.013005 0.000000 0.000000 0.000000
# 4 0.000000 0.000000 0.000000 0.057727 0.000000 0.000000
# 5 0.000000 0.000000 0.000000 0.000000 0.051036 0.000000
# 6 0.000000 0.000000 0.000000 0.000000 0.000000 0.031312
#
#
# Mechanical properties :
#
#
# Convention : Reuss Voigt Hill
#
# Bulk Modulus (GPa) = 42.70709 42.86294 42.78501
# Shear Modulus (GPa) = 24.08409 25.86407 24.97408
#
# Velocity S-wave (km/s) = 3.63850 3.77056 3.70512
# Velocity P-wave (km/s) = 6.41304 6.52053 6.46701
#
# Compressibility (1/GPa) = 0.02341532
#
# Stress axis : x y z
#
# Youngs Moduli (GPa) = 62.36388 79.80603 76.89124
#
# Poissons Ratio (x) = 0.29689 0.27347
# Poissons Ratio (y) = 0.23201 0.13848
# Poissons Ratio (z) = 0.22180 0.14373
#
# Static dielectric constant tensor:
#      x y z
#    x 3.247340 0.000000 0.000000 
#    y 0.000000 3.264290 0.000000 
#    z 0.000000 0.000000 3.467430 
# 
# 
# High freq. dielectric constant tensor:
#      x y z
#    x 1.702720 0.000000 0.000000 
#    y 0.000000 1.701080 0.000000 
#    z 0.000000 0.000000 1.687270 
# 
# From -- ./inp_files/10334.got.cif
#   From: 2010.03.12/outbox.cif.g09.slc.cpg/sg23_6_cif.got.tgz:10334.got - 2010.04.14 02:50:06.
