data_PCOD8163223
_publ_section_title
;
Structure prediction by ZEFSAII (Michael W. Deem and Ramdas Pophale) SiO2 
 PCOD8163223
Probable space group: I 2 2 2
;
_chemical_formula_sum "Si O2"
_cell_formula_units_Z 44
_cell_length_a 8.874777
_cell_length_b 8.060959
_cell_length_c 30.336438
_cell_angle_alpha 90.000000
_cell_angle_beta 90.000000
_cell_angle_gamma 90.000000
_cell_volume 2170.244916
_symmetry_space_group_name_H-M "I 2 2 2"
_symmetry_group_IT_number 23
_symmetry_cell_setting 'orthorhombic'
loop_
_space_group_symop_operation_xyz
x,y,z
-x,-y,z
x,-y,-z
-x,y,-z
1/2+x,1/2+y,1/2+z
1/2-x,1/2-y,1/2+z
1/2+x,1/2-y,1/2-z
1/2-x,1/2+y,1/2-z
loop_
_atom_site_type_symbol
_atom_site_label
_atom_site_fract_x
_atom_site_fract_y
_atom_site_fract_z
Si Si1 0.727079 0.630221 0.289298
Si Si2 0.386132 0.263810 0.705621
Si Si3 0.124435 0.748283 0.435443
Si Si4 0.597301 0.651748 0.860229
Si Si5 0.851349 0.417503 0.885476
Si Si6 0.500000 0.500000 0.000000
Si Si7 0.000000 0.500000 0.500000
O O1 0.561986 0.708752 0.284965
O O2 0.707474 0.435092 0.300253
O O3 0.812731 0.651230 0.243371
O O4 0.832536 0.719799 0.325449
O O5 0.377426 0.150996 0.662986
O O6 0.292550 0.763923 0.415251
O O7 0.108125 0.899891 0.468324
O O8 0.003452 0.747019 0.395321
O O9 0.112489 0.591078 0.466813
O O10 0.500000 0.500000 0.837498
O O11 0.729514 0.564039 0.887088
O O12 0.000000 0.500000 0.905586
#
# Coordination Sequence:
#
# PCOD8163223 Si02
#       7
#     8   8   8   8   8   2   2
#     4  11  25  42  61  91 131 178 230 277 330 384
#     4  11  26  40  62  90 132 176 226 283 324 389
#     4  10  22  39  69  96 127 168 208 266 327 395
#     4  10  21  40  64  90 126 171 218 264 324 395
#     4  11  21  41  64  94 125 171 216 272 331 387
#     4  10  16  42  62  94 120 158 214 254 316 398
#     4  10  24  42  72 100 136 158 220 272 324 406
#
# _framework density 20.274208000000002
#
# number of rings (size 3 to 8) (size 9 to 14) (size 15 to 20)
#    0.000    1.455    4.545    1.091   10.182    0.000 
#    0.000    0.455    0.000    1.091    0.000    0.000 
#    0.000    0.000    0.000    0.000    0.000    0.000 
#
# Total GULP energy -272637.866951 kJ/mol
# GULP energy per Si atom -12392.630316 kJ/mol
# Density = 2.022806 g / cm^3
# Si number density = 20.274208 Si / 1000 Ang^3
#
#
#
# Elastic Constant Matrix: (Units=GPa)
#
#
# Indices 1 2 3 4 5 6 
#
# 1 135.3898 42.8205 50.5004 0.0000 0.0000 0.0000
# 2 42.8205 85.3946 33.9129 0.0000 0.0000 0.0000
# 3 50.5004 33.9129 98.4295 0.0000 0.0000 0.0000
# 4 0.0000 0.0000 0.0000 39.4437 0.0000 0.0000
# 5 0.0000 0.0000 0.0000 0.0000 15.6327 0.0000
# 6 0.0000 0.0000 0.0000 0.0000 0.0000 23.6819
#
#
#
# Elastic Compliance Matrix: (Units=1/GPa)
#
#
# Indices 1 2 3 4 5 6 
#
# 1 0.009929 -0.003424 -0.003914 0.000000 0.000000 0.000000
# 2 -0.003424 0.014748 -0.003324 0.000000 0.000000 0.000000
# 3 -0.003914 -0.003324 0.013313 0.000000 0.000000 0.000000
# 4 0.000000 0.000000 0.000000 0.025353 0.000000 0.000000
# 5 0.000000 0.000000 0.000000 0.000000 0.063969 0.000000
# 6 0.000000 0.000000 0.000000 0.000000 0.000000 0.042226
#
#
# Mechanical properties :
#
#
# Convention : Reuss Voigt Hill
#
# Bulk Modulus (GPa) = 60.00981 63.74240 61.87610
# Shear Modulus (GPa) = 25.45586 28.55032 27.00309
#
# Velocity S-wave (km/s) = 3.54726 3.75668 3.65347
# Velocity P-wave (km/s) = 6.81474 7.09403 6.95579
#
# Compressibility (1/GPa) = 0.01666394
#
# Stress axis : x y z
#
# Youngs Moduli (GPa) = 100.71280 67.80754 75.11319
#
# Poissons Ratio (x) = 0.23220 0.29403
# Poissons Ratio (y) = 0.34488 0.24969
# Poissons Ratio (z) = 0.39424 0.22541
#
# Static dielectric constant tensor:
#      x y z
#    x 3.912130 0.000000 0.000000 
#    y 0.000000 1.391590 0.000000 
#    z 0.000000 0.000000 3.876420 
# 
# 
# High freq. dielectric constant tensor:
#      x y z
#    x 1.792230 0.000000 0.000000 
#    y 0.000000 1.792870 0.000000 
#    z 0.000000 0.000000 1.791610 
# 
# From -- ./inp_files/7291.got.cif
#   From: 2010.03.12/outbox.cif.g09.slc.cpg/sg23_4_cif.got.tgz:7291.got - 2010.04.14 02:50:06.
