data_PCOD8163939
_publ_section_title
;
Structure prediction by ZEFSAII (Michael W. Deem and Ramdas Pophale) SiO2 
 PCOD8163939
Probable space group: I 2 2 2
;
_chemical_formula_sum "Si O2"
_cell_formula_units_Z 38
_cell_length_a 6.960121
_cell_length_b 24.973172
_cell_length_c 10.612442
_cell_angle_alpha 90.000000
_cell_angle_beta 90.000000
_cell_angle_gamma 90.000000
_cell_volume 1844.615390
_symmetry_space_group_name_H-M "I 2 2 2"
_symmetry_group_IT_number 23
_symmetry_cell_setting 'orthorhombic'
loop_
_space_group_symop_operation_xyz
x,y,z
-x,-y,z
x,-y,-z
-x,y,-z
1/2+x,1/2+y,1/2+z
1/2-x,1/2-y,1/2+z
1/2+x,1/2-y,1/2-z
1/2-x,1/2+y,1/2-z
loop_
_atom_site_type_symbol
_atom_site_label
_atom_site_fract_x
_atom_site_fract_y
_atom_site_fract_z
Si Si1 0.179238 0.308096 0.279359
Si Si2 0.500000 0.861104 0.000000
Si Si3 0.441694 0.697722 0.136103
Si Si4 0.500000 0.500000 0.500000
Si Si5 0.341580 0.045699 0.155514
Si Si6 0.607955 0.881592 0.372660
O O1 0.381103 0.324192 0.218510
O O2 0.158798 0.243614 0.279038
O O3 0.158991 0.326529 0.424861
O O4 0.016239 0.337260 0.199565
O O5 0.613171 0.897478 0.096450
O O6 0.310744 0.646843 0.104305
O O7 0.500000 0.722193 0.000000
O O8 0.634068 0.531682 0.598400
O O9 0.348608 0.061327 0.303147
O O10 0.500000 0.000000 0.124572
O O11 0.500000 0.897761 0.500000
#
# Coordination Sequence:
#
# PCOD8163939 Si02
#       6
#     8   4   8   2   8   8
#     4  11  23  38  63  95 140 178 227 270 337 397
#     4  10  21  42  62  96 132 176 218 281 334 408
#     4  12  23  40  63  98 139 185 228 275 327 414
#     4  12  22  44  72 104 128 164 222 298 352 394
#     4  11  24  44  69  96 133 169 223 289 347 407
#     4  11  25  43  65  95 134 185 224 279 342 409
#
# _framework density 20.600501999999999
#
# number of rings (size 3 to 8) (size 9 to 14) (size 15 to 20)
#    0.000    0.842    7.368    0.000    2.947    0.421 
#    0.000    4.211    0.000    0.000    0.000    0.000 
#    0.000    0.000    0.000    0.000    0.000    0.000 
#
# Total GULP energy -235456.667026 kJ/mol
# GULP energy per Si atom -12392.456159 kJ/mol
# Density = 2.055361 g / cm^3
# Si number density = 20.600502 Si / 1000 Ang^3
#
#
#
# Elastic Constant Matrix: (Units=GPa)
#
#
# Indices 1 2 3 4 5 6 
#
# 1 136.9080 46.2674 58.7408 0.0001 0.0000 0.0000
# 2 46.2674 77.7298 44.1893 0.0001 0.0000 0.0000
# 3 58.7408 44.1893 135.9294 -0.0004 0.0005 0.0004
# 4 0.0001 0.0001 -0.0004 34.0293 0.0000 0.0000
# 5 0.0000 0.0000 0.0005 0.0000 42.5833 0.0001
# 6 0.0000 0.0000 0.0004 0.0000 0.0001 11.7075
#
#
#
# Elastic Compliance Matrix: (Units=1/GPa)
#
#
# Indices 1 2 3 4 5 6 
#
# 1 0.010013 -0.004294 -0.002931 0.000000 0.000000 0.000000
# 2 -0.004294 0.017623 -0.003874 0.000000 0.000000 0.000000
# 3 -0.002931 -0.003874 0.009883 0.000000 0.000000 0.000000
# 4 0.000000 0.000000 0.000000 0.029386 0.000000 0.000000
# 5 0.000000 0.000000 0.000000 0.000000 0.023483 0.000000
# 6 0.000000 0.000000 0.000000 0.000000 0.000000 0.085416
#
#
# Mechanical properties :
#
#
# Convention : Reuss Voigt Hill
#
# Bulk Modulus (GPa) = 65.26677 72.10691 68.68684
# Shear Modulus (GPa) = 24.61749 31.08866 27.85307
#
# Velocity S-wave (km/s) = 3.46062 3.88896 3.68102
# Velocity P-wave (km/s) = 6.90788 7.43262 7.17505
#
# Compressibility (1/GPa) = 0.01532173
#
# Stress axis : x y z
#
# Youngs Moduli (GPa) = 99.87218 56.74432 101.18699
#
# Poissons Ratio (x) = 0.24364 0.29659
# Poissons Ratio (y) = 0.42881 0.39196
# Poissons Ratio (z) = 0.29274 0.21980
#
# Static dielectric constant tensor:
#      x y z
#    x 3.643300 0.000000 0.000000 
#    y 0.000000 3.626120 0.000000 
#    z 0.000000 0.000000 4.133620 
# 
# 
# High freq. dielectric constant tensor:
#      x y z
#    x 1.800890 0.000000 0.000000 
#    y 0.000000 1.796200 0.000000 
#    z 0.000000 0.000000 1.818090 
# 
# From -- ./inp_files/1731.got.cif
#   From: 2010.03.12/outbox.cif.g09.slc.cpg/sg23_1_cif.got.tgz:1731.got - 2010.04.14 02:50:06.
