data_PCOD8163889
_publ_section_title
;
Structure prediction by ZEFSAII (Michael W. Deem and Ramdas Pophale) SiO2 
 PCOD8163889
Probable space group: I 2 2 2
;
_chemical_formula_sum "Si O2"
_cell_formula_units_Z 56
_cell_length_a 21.206860
_cell_length_b 15.606880
_cell_length_c 7.729052
_cell_angle_alpha 90.000000
_cell_angle_beta 90.000000
_cell_angle_gamma 90.000000
_cell_volume 2558.106903
_symmetry_space_group_name_H-M "I 2 2 2"
_symmetry_group_IT_number 23
_symmetry_cell_setting 'orthorhombic'
loop_
_space_group_symop_operation_xyz
x,y,z
-x,-y,z
x,-y,-z
-x,y,-z
1/2+x,1/2+y,1/2+z
1/2-x,1/2-y,1/2+z
1/2+x,1/2-y,1/2-z
1/2-x,1/2+y,1/2-z
loop_
_atom_site_type_symbol
_atom_site_label
_atom_site_fract_x
_atom_site_fract_y
_atom_site_fract_z
Si Si1 0.630350 0.056984 0.327527
Si Si2 0.000000 0.782214 0.000000
Si Si3 0.692189 0.500000 0.500000
Si Si4 0.647484 0.256521 0.972863
Si Si5 0.129454 0.837352 0.108679
Si Si6 0.287381 0.188374 0.493053
Si Si7 0.459646 0.811158 0.171879
Si Si8 0.693871 0.910573 0.150672
O O1 0.686058 0.127557 0.355579
O O2 0.567664 0.102648 0.259852
O O3 0.617125 0.000000 0.500000
O O4 0.653834 0.997145 0.170988
O O5 0.002620 0.726458 0.175603
O O6 0.063396 0.838198 0.005494
O O7 0.650347 0.436821 0.619236
O O8 0.734568 0.561929 0.617596
O O9 0.619754 0.296579 0.797614
O O10 0.661939 0.153695 0.985783
O O11 0.711949 0.307401 0.007551
O O12 0.593297 0.261037 0.119669
O O13 0.180830 0.782310 0.998187
O O14 0.309703 0.147514 0.317715
O O15 0.500000 0.834390 0.000000
#
# Coordination Sequence:
#
# PCOD8163889 Si02
#       8
#     8   4   4   8   8   8   8   8
#     4  10  22  42  68 102 145 178 224 295 356 416
#     4  12  26  49  69  98 136 188 252 288 333 429
#     4  12  22  39  64 106 139 182 220 302 358 414
#     4  11  23  41  69 105 133 182 234 283 348 430
#     4  11  24  41  69  98 137 183 237 283 354 411
#     4  10  21  39  69  99 135 183 220 283 357 419
#     4  12  26  46  73  98 139 196 241 287 336 423
#     4  10  22  37  63 106 144 167 220 285 357 424
#
# _framework density 21.891186999999999
#
# number of rings (size 3 to 8) (size 9 to 14) (size 15 to 20)
#    0.000    1.143    4.286    1.714    6.000    0.286 
#    0.000    4.643    0.000    0.000    0.000    0.000 
#    0.000    0.000    0.000    0.000    0.000    0.000 
#
# Total GULP energy -347015.020753 kJ/mol
# GULP energy per Si atom -12393.393598 kJ/mol
# Density = 2.184136 g / cm^3
# Si number density = 21.891187 Si / 1000 Ang^3
#
#
#
# Elastic Constant Matrix: (Units=GPa)
#
#
# Indices 1 2 3 4 5 6 
#
# 1 111.3427 27.0306 27.2323 0.0000 0.0000 0.0000
# 2 27.0306 110.1800 26.4119 0.0000 0.0000 0.0000
# 3 27.2323 26.4119 78.4045 0.0000 0.0000 0.0000
# 4 0.0000 0.0000 0.0000 15.7183 0.0000 0.0000
# 5 0.0000 0.0000 0.0000 0.0000 38.1275 0.0000
# 6 0.0000 0.0000 0.0000 0.0000 0.0000 28.7543
#
#
#
# Elastic Compliance Matrix: (Units=1/GPa)
#
#
# Indices 1 2 3 4 5 6 
#
# 1 0.010128 -0.001786 -0.002916 0.000000 0.000000 0.000000
# 2 -0.001786 0.010188 -0.002812 0.000000 0.000000 0.000000
# 3 -0.002916 -0.002812 0.014714 0.000000 0.000000 0.000000
# 4 0.000000 0.000000 0.000000 0.063620 0.000000 0.000000
# 5 0.000000 0.000000 0.000000 0.000000 0.026228 0.000000
# 6 0.000000 0.000000 0.000000 0.000000 0.000000 0.034777
#
#
# Mechanical properties :
#
#
# Convention : Reuss Voigt Hill
#
# Bulk Modulus (GPa) = 49.99199 51.25297 50.62248
# Shear Modulus (GPa) = 27.57079 31.13684 29.35382
#
# Velocity S-wave (km/s) = 3.55272 3.77549 3.66580
# Velocity P-wave (km/s) = 6.30200 6.51684 6.41032
#
# Compressibility (1/GPa) = 0.02000320
#
# Stress axis : x y z
#
# Youngs Moduli (GPa) = 98.73578 98.15302 67.96025
#
# Poissons Ratio (x) = 0.17527 0.19819
# Poissons Ratio (y) = 0.17631 0.19109
# Poissons Ratio (z) = 0.28794 0.27599
#
# Static dielectric constant tensor:
#      x y z
#    x 3.862230 0.000000 0.000000 
#    y 0.000000 4.150380 0.000000 
#    z 0.000000 0.000000 4.120910 
# 
# 
# High freq. dielectric constant tensor:
#      x y z
#    x 1.857270 0.000000 0.000000 
#    y 0.000000 1.849930 0.000000 
#    z 0.000000 0.000000 1.868990 
# 
# From -- ./inp_files/12077.got.cif
#   From: 2010.03.12/outbox.cif.g09.slc.cpg/sg23_7_cif.got.tgz:12077.got - 2010.04.14 02:50:06.
