data_PCOD8163838
_publ_section_title
;
Structure prediction by ZEFSAII (Michael W. Deem and Ramdas Pophale) SiO2 
 PCOD8163838
Probable space group: I 2 2 2
;
_chemical_formula_sum "Si O2"
_cell_formula_units_Z 56
_cell_length_a 8.483274
_cell_length_b 21.685545
_cell_length_c 13.467117
_cell_angle_alpha 90.000000
_cell_angle_beta 90.000000
_cell_angle_gamma 90.000000
_cell_volume 2477.470369
_symmetry_space_group_name_H-M "I 2 2 2"
_symmetry_group_IT_number 23
_symmetry_cell_setting 'orthorhombic'
loop_
_space_group_symop_operation_xyz
x,y,z
-x,-y,z
x,-y,-z
-x,y,-z
1/2+x,1/2+y,1/2+z
1/2-x,1/2-y,1/2+z
1/2+x,1/2-y,1/2-z
1/2-x,1/2+y,1/2-z
loop_
_atom_site_type_symbol
_atom_site_label
_atom_site_fract_x
_atom_site_fract_y
_atom_site_fract_z
Si Si1 0.707585 0.453366 0.584416
Si Si2 0.000000 0.602793 0.500000
Si Si3 0.595799 0.922313 0.600415
Si Si4 0.173170 0.987558 0.701691
Si Si5 0.000000 0.148757 0.000000
Si Si6 0.783661 0.698249 0.609243
Si Si7 0.309782 0.858378 0.686461
Si Si8 0.327079 0.672124 0.982982
O O1 0.648884 0.500000 0.500000
O O2 0.893393 0.439534 0.571558
O O3 0.677348 0.483761 0.689562
O O4 0.606948 0.391104 0.574691
O O5 0.111886 0.642635 0.430838
O O6 0.500000 0.936683 0.500000
O O7 0.678377 0.985678 0.638042
O O8 0.483210 0.889267 0.680846
O O9 0.738645 0.875284 0.587308
O O10 0.188170 0.913900 0.706831
O O11 0.000000 0.000000 0.654161
O O12 0.105153 0.192118 0.070487
O O13 0.794889 0.693083 0.728156
O O14 0.849481 0.763250 0.573157
O O15 0.268215 0.821417 0.585998
O O16 0.500000 0.644554 0.000000
#
# Coordination Sequence:
#
# PCOD8163838 Si02
#       8
#     8   4   8   8   4   8   8   8
#     4  11  21  37  63  98 143 177 217 269 330 405
#     4  10  21  38  60  98 130 185 218 272 330 396
#     4  10  25  46  69  99 135 175 224 282 346 408
#     4  12  23  41  70 103 138 178 222 278 343 410
#     4  10  23  38  64  98 138 179 222 266 340 394
#     4  11  23  44  66  94 138 176 227 279 330 397
#     4  11  25  43  69 100 134 178 229 275 343 406
#     4  11  25  47  67  95 134 173 231 286 338 397
#
# _framework density 22.603701999999998
#
# number of rings (size 3 to 8) (size 9 to 14) (size 15 to 20)
#    0.000    1.143    0.714    6.000    3.000    6.286 
#    5.143    3.571    0.000    0.000    0.000    0.000 
#    0.000    0.000    0.000    0.000    0.000    0.000 
#
# Total GULP energy -347317.363278 kJ/mol
# GULP energy per Si atom -12404.191546 kJ/mol
# Density = 2.255226 g / cm^3
# Si number density = 22.603702 Si / 1000 Ang^3
#
#
#
# Elastic Constant Matrix: (Units=GPa)
#
#
# Indices 1 2 3 4 5 6 
#
# 1 127.3068 16.0419 15.7291 -0.0001 0.0000 0.0000
# 2 16.0419 74.3807 25.7334 -0.0001 0.0000 0.0000
# 3 15.7291 25.7334 98.6510 -0.0008 0.0002 0.0001
# 4 -0.0001 -0.0001 -0.0008 37.0868 0.0001 0.0000
# 5 0.0000 0.0000 0.0002 0.0001 28.1720 0.0000
# 6 0.0000 0.0000 0.0001 0.0000 0.0000 31.5696
#
#
#
# Elastic Compliance Matrix: (Units=1/GPa)
#
#
# Indices 1 2 3 4 5 6 
#
# 1 0.008150 -0.001438 -0.000924 0.000000 0.000000 0.000000
# 2 -0.001438 0.015032 -0.003692 0.000000 0.000000 0.000000
# 3 -0.000924 -0.003692 0.011247 0.000000 0.000000 0.000000
# 4 0.000000 0.000000 0.000000 0.026964 0.000000 0.000000
# 5 0.000000 0.000000 0.000000 0.000000 0.035496 0.000000
# 6 0.000000 0.000000 0.000000 0.000000 0.000000 0.031676
#
#
# Mechanical properties :
#
#
# Convention : Reuss Voigt Hill
#
# Bulk Modulus (GPa) = 44.80106 46.14971 45.47539
# Shear Modulus (GPa) = 33.75776 35.55462 34.65619
#
# Velocity S-wave (km/s) = 3.86873 3.97035 3.91987
# Velocity P-wave (km/s) = 6.31025 6.44046 6.37569
#
# Compressibility (1/GPa) = 0.02232090
#
# Stress axis : x y z
#
# Youngs Moduli (GPa) = 122.69247 66.52594 88.91143
#
# Poissons Ratio (x) = 0.09567 0.08219
# Poissons Ratio (y) = 0.17643 0.32824
# Poissons Ratio (z) = 0.11342 0.24560
#
# Static dielectric constant tensor:
#      x y z
#    x 4.509770 0.000000 0.000000 
#    y 0.000000 3.911650 0.000000 
#    z 0.000000 0.000000 3.939700 
# 
# 
# High freq. dielectric constant tensor:
#      x y z
#    x 1.913870 0.000000 0.000000 
#    y 0.000000 1.885790 0.000000 
#    z 0.000000 0.000000 1.881640 
# 
# From -- ./inp_files/20243.got.cif
#   From: 2010.03.12/outbox.cif.g09.slc.cpg/sg23_11_cif.got.tgz:20243.got - 2010.04.14 02:50:06.
