data_PCOD8163257
_publ_section_title
;
Structure prediction by ZEFSAII (Michael W. Deem and Ramdas Pophale) SiO2 
 PCOD8163257
Probable space group: I 2 2 2
;
_chemical_formula_sum "Si O2"
_cell_formula_units_Z 56
_cell_length_a 8.600052
_cell_length_b 18.655308
_cell_length_c 16.684701
_cell_angle_alpha 90.000000
_cell_angle_beta 90.000000
_cell_angle_gamma 90.000000
_cell_volume 2676.837015
_symmetry_space_group_name_H-M "I 2 2 2"
_symmetry_group_IT_number 23
_symmetry_cell_setting 'orthorhombic'
loop_
_space_group_symop_operation_xyz
x,y,z
-x,-y,z
x,-y,-z
-x,y,-z
1/2+x,1/2+y,1/2+z
1/2-x,1/2-y,1/2+z
1/2+x,1/2-y,1/2-z
1/2-x,1/2+y,1/2-z
loop_
_atom_site_type_symbol
_atom_site_label
_atom_site_fract_x
_atom_site_fract_y
_atom_site_fract_z
Si Si1 0.067734 0.676916 0.258316
Si Si2 0.787491 0.267852 0.648502
Si Si3 0.803269 0.936407 0.208579
Si Si4 0.818029 0.839682 0.490540
Si Si5 0.858090 0.095288 0.189274
Si Si6 0.671375 0.472403 0.112555
Si Si7 0.801182 0.617323 0.151247
O O1 0.191464 0.729762 0.218976
O O2 0.157427 0.615182 0.309564
O O3 0.963882 0.723230 0.319694
O O4 0.967052 0.637729 0.189102
O O5 0.770966 0.226002 0.565862
O O6 0.720255 0.347237 0.630283
O O7 0.840273 0.932518 0.302843
O O8 0.960474 0.908139 0.166746
O O9 0.772580 0.018001 0.179567
O O10 0.767043 0.915717 0.452482
O O11 0.735655 0.829544 0.576908
O O12 0.000000 0.839136 0.500000
O O13 0.832015 0.122838 0.280664
O O14 0.500000 0.500000 0.087924
O O15 0.797437 0.536297 0.116941
#
# Coordination Sequence:
#
# PCOD8163257 Si02
#       7
#     8   8   8   8   8   8   8
#     4  11  24  39  62  87 126 161 209 256 305 360
#     4  11  25  38  57  86 127 159 205 257 304 357
#     4  10  17  37  65  89 117 159 203 248 305 369
#     4  12  23  37  60  84 126 168 209 235 305 369
#     4   9  19  38  64  89 123 158 202 253 306 363
#     4  11  18  34  58  86 117 166 202 236 277 369
#     4  10  22  35  58  84 120 164 205 241 289 359
#
# _framework density 20.920214000000001
#
# number of rings (size 3 to 8) (size 9 to 14) (size 15 to 20)
#    0.000    1.429    5.714    1.286    4.000    5.714 
#    0.000    0.000    6.286    0.000    0.000    2.000 
#    0.000    0.000    0.000    0.000    0.000    0.000 
#
# Total GULP energy -347118.190423 kJ/mol
# GULP energy per Si atom -12397.078229 kJ/mol
# Density = 2.087260 g / cm^3
# Si number density = 20.920214 Si / 1000 Ang^3
#
#
#
# Elastic Constant Matrix: (Units=GPa)
#
#
# Indices 1 2 3 4 5 6 
#
# 1 94.3855 52.8369 11.6356 0.0000 0.0000 0.0000
# 2 52.8369 116.4177 30.4413 0.0000 0.0000 0.0000
# 3 11.6356 30.4413 45.8826 0.0000 0.0000 0.0000
# 4 0.0000 0.0000 0.0000 25.0280 0.0000 0.0000
# 5 0.0000 0.0000 0.0000 0.0000 20.5343 0.0000
# 6 0.0000 0.0000 0.0000 0.0000 0.0000 45.3263
#
#
#
# Elastic Compliance Matrix: (Units=1/GPa)
#
#
# Indices 1 2 3 4 5 6 
#
# 1 0.014229 -0.006672 0.000818 0.000000 0.000000 0.000000
# 2 -0.006672 0.013521 -0.007279 0.000000 0.000000 0.000000
# 3 0.000818 -0.007279 0.026416 0.000000 0.000000 0.000000
# 4 0.000000 0.000000 0.000000 0.039955 0.000000 0.000000
# 5 0.000000 0.000000 0.000000 0.000000 0.048699 0.000000
# 6 0.000000 0.000000 0.000000 0.000000 0.000000 0.022062
#
#
# Mechanical properties :
#
#
# Convention : Reuss Voigt Hill
#
# Bulk Modulus (GPa) = 35.84041 49.61263 42.72652
# Shear Modulus (GPa) = 24.94410 28.96253 26.95332
#
# Velocity S-wave (km/s) = 3.45678 3.72483 3.59330
# Velocity P-wave (km/s) = 5.75340 6.50121 6.13870
#
# Compressibility (1/GPa) = 0.02790147
#
# Stress axis : x y z
#
# Youngs Moduli (GPa) = 70.27978 73.95862 37.85516
#
# Poissons Ratio (x) = 0.49344 -0.03097
# Poissons Ratio (y) = 0.46889 0.27554
# Poissons Ratio (z) = -0.05750 0.53833
#
# Static dielectric constant tensor:
#      x y z
#    x 3.754330 0.000000 0.000000 
#    y 0.000000 4.361370 0.000000 
#    z 0.000000 0.000000 3.571100 
# 
# 
# High freq. dielectric constant tensor:
#      x y z
#    x 1.812090 0.000000 0.000000 
#    y 0.000000 1.831170 0.000000 
#    z 0.000000 0.000000 1.769590 
# 
# From -- ./inp_files/26327.got.cif
#   From: 2010.03.12/outbox.cif.g09.slc.cpg/sg23_14_cif.got.tgz:26327.got - 2010.04.14 02:50:06.
