data_PCOD8163168
_publ_section_title
;
Structure prediction by ZEFSAII (Michael W. Deem and Ramdas Pophale) SiO2 
 PCOD8163168
Probable space group: F 2 2 2
;
_chemical_formula_sum "Si O2"
_cell_formula_units_Z 72
_cell_length_a 12.129080
_cell_length_b 14.449660
_cell_length_c 16.666814
_cell_angle_alpha 90.000000
_cell_angle_beta 90.000000
_cell_angle_gamma 90.000000
_cell_volume 2921.043857
_symmetry_space_group_name_H-M "F 2 2 2"
_symmetry_group_IT_number 22
_symmetry_cell_setting 'orthorhombic'
loop_
_space_group_symop_operation_xyz
x,y,z
-x,-y,z
x,-y,-z
-x,y,-z
x,1/2+y,1/2+z
-x,1/2-y,1/2+z
x,1/2-y,1/2-z
-x,1/2+y,1/2-z
1/2+x,y,1/2+z
1/2-x,-y,1/2+z
1/2+x,-y,1/2-z
1/2-x,y,1/2-z
1/2+x,1/2+y,z
1/2-x,1/2-y,z
1/2+x,1/2-y,-z
1/2-x,1/2+y,-z
loop_
_atom_site_type_symbol
_atom_site_label
_atom_site_fract_x
_atom_site_fract_y
_atom_site_fract_z
Si Si1 0.410617 0.874142 0.068348
Si Si2 0.500000 0.000000 0.200339
Si Si3 0.067821 0.796016 0.165161
Si Si4 0.154568 0.381193 0.302596
Si Si5 0.317456 0.034338 0.580897
O O1 0.454983 0.914511 0.150827
O O2 0.398692 0.765617 0.088440
O O3 0.293411 0.917663 0.046940
O O4 0.500000 0.894798 0.000000
O O5 0.598409 0.962221 0.252667
O O6 0.111170 0.750000 0.250000
O O7 0.117200 0.897008 0.142115
O O8 0.934628 0.804817 0.169426
O O9 0.250000 0.331946 0.250000
O O10 0.210618 0.437413 0.375434
O O11 0.382799 0.000000 0.500000
#
# Coordination Sequence:
#
# PCOD8163168 Si02
#       5
#    16   8  16  16  16
#     4  12  27  47  74 110 158 201 261 325 398 470
#     4  12  21  48  73 106 140 208 256 318 377 478
#     4  12  27  50  77 115 160 202 262 334 391 475
#     4  12  25  46  78 112 152 204 267 320 393 475
#     4  12  27  47  81 113 155 210 265 324 402 473
#
# _framework density 24.648723
#
# number of rings (size 3 to 8) (size 9 to 14) (size 15 to 20)
#    0.000    0.000    6.667    2.333    3.111    2.222 
#    0.000    0.000    0.000    0.000    0.000    0.000 
#    0.000    0.000    0.000    0.000    0.000    0.000 
#
# Total GULP energy -223065.110089 kJ/mol
# GULP energy per Si atom -12392.506116 kJ/mol
# Density = 2.459262 g / cm^3
# Si number density = 24.648723 Si / 1000 Ang^3
#
#
#
# Elastic Constant Matrix: (Units=GPa)
#
#
# Indices 1 2 3 4 5 6 
#
# 1 114.6819 9.8304 24.9328 0.0000 0.0000 0.0000
# 2 9.8304 87.1744 31.6394 0.0000 0.0000 0.0000
# 3 24.9328 31.6394 96.1847 0.0000 0.0000 0.0000
# 4 0.0000 0.0000 0.0000 54.5583 0.0000 0.0000
# 5 0.0000 0.0000 0.0000 0.0000 32.3529 0.0000
# 6 0.0000 0.0000 0.0000 0.0000 0.0000 38.9271
#
#
#
# Elastic Compliance Matrix: (Units=1/GPa)
#
#
# Indices 1 2 3 4 5 6 
#
# 1 0.009243 -0.000196 -0.002332 0.000000 0.000000 0.000000
# 2 -0.000196 0.013031 -0.004236 0.000000 0.000000 0.000000
# 3 -0.002332 -0.004236 0.012394 0.000000 0.000000 0.000000
# 4 0.000000 0.000000 0.000000 0.018329 0.000000 0.000000
# 5 0.000000 0.000000 0.000000 0.000000 0.030909 0.000000
# 6 0.000000 0.000000 0.000000 0.000000 0.000000 0.025689
#
#
# Mechanical properties :
#
#
# Convention : Reuss Voigt Hill
#
# Bulk Modulus (GPa) = 47.29924 47.87182 47.58553
# Shear Modulus (GPa) = 38.41151 40.61023 39.51087
#
# Velocity S-wave (km/s) = 3.95189 4.06342 4.00804
# Velocity P-wave (km/s) = 6.32884 6.44041 6.38487
#
# Compressibility (1/GPa) = 0.02114199
#
# Stress axis : x y z
#
# Youngs Moduli (GPa) = 108.18433 76.74231 80.68229
#
# Poissons Ratio (x) = 0.01505 0.18812
# Poissons Ratio (y) = 0.02122 0.34173
# Poissons Ratio (z) = 0.25224 0.32504
#
# Static dielectric constant tensor:
#      x y z
#    x 4.288590 0.000000 0.000000 
#    y 0.000000 4.463020 0.000000 
#    z 0.000000 0.000000 4.482290 
# 
# 
# High freq. dielectric constant tensor:
#      x y z
#    x 1.969660 0.000000 0.000000 
#    y 0.000000 1.993650 0.000000 
#    z 0.000000 0.000000 1.985820 
# 
# From -- ./inp_files/36959.got.cif
#   From: 2010.03.12/outbox.cif.g09.slc.cpg/sg22_19_cif.got.tgz:36959.got - 2010.04.14 02:24:06.
