data_PCOD8163055
_publ_section_title
;
Structure prediction by ZEFSAII (Michael W. Deem and Ramdas Pophale) SiO2 
 PCOD8163055
Probable space group: F 2 2 2
;
_chemical_formula_sum "Si O2"
_cell_formula_units_Z 80
_cell_length_a 22.048395
_cell_length_b 12.068818
_cell_length_c 13.242013
_cell_angle_alpha 90.000000
_cell_angle_beta 90.000000
_cell_angle_gamma 90.000000
_cell_volume 3523.674055
_symmetry_space_group_name_H-M "F 2 2 2"
_symmetry_group_IT_number 22
_symmetry_cell_setting 'orthorhombic'
loop_
_space_group_symop_operation_xyz
x,y,z
-x,-y,z
x,-y,-z
-x,y,-z
x,1/2+y,1/2+z
-x,1/2-y,1/2+z
x,1/2-y,1/2-z
-x,1/2+y,1/2-z
1/2+x,y,1/2+z
1/2-x,-y,1/2+z
1/2+x,-y,1/2-z
1/2-x,y,1/2-z
1/2+x,1/2+y,z
1/2-x,1/2-y,z
1/2+x,1/2-y,-z
1/2-x,1/2+y,-z
loop_
_atom_site_type_symbol
_atom_site_label
_atom_site_fract_x
_atom_site_fract_y
_atom_site_fract_z
Si Si1 0.642478 0.327111 0.047665
Si Si2 0.747483 0.041091 0.357561
Si Si3 0.067392 0.036356 0.790016
Si Si4 0.121314 0.075192 0.588580
Si Si5 0.156846 0.854463 0.821283
O O1 0.708563 0.383543 0.065505
O O2 0.593235 0.389512 0.118128
O O3 0.644010 0.197667 0.065031
O O4 0.625751 0.334055 0.930243
O O5 0.750000 0.105726 0.250000
O O6 0.815464 0.011956 0.390398
O O7 0.718936 0.919981 0.339593
O O8 0.073628 0.094892 0.680544
O O9 0.107320 0.928811 0.765502
O O10 0.000000 0.000000 0.817639
O O11 0.090186 0.000000 0.500000
O O12 0.169255 0.750000 0.750000
#
# Coordination Sequence:
#
# PCOD8163055 Si02
#       5
#    16  16  16  16  16
#     4  11  24  42  72  99 137 181 228 282 353 427
#     4  11  22  41  68 100 142 180 229 279 345 427
#     4  11  25  46  68  95 133 179 239 290 347 422
#     4  12  24  43  67 102 140 181 228 290 348 414
#     4  11  24  45  66 102 137 179 225 290 357 422
#
# _framework density 22.703575000000001
#
# number of rings (size 3 to 8) (size 9 to 14) (size 15 to 20)
#    0.000    0.800    4.000    6.000    0.000    4.800 
#    0.000    2.000    0.000    0.000    0.000    0.000 
#    0.000    0.000    0.000    0.000    0.000    0.000 
#
# Total GULP energy -247823.102045 kJ/mol
# GULP energy per Si atom -12391.155102 kJ/mol
# Density = 2.265190 g / cm^3
# Si number density = 22.703575 Si / 1000 Ang^3
#
#
#
# Elastic Constant Matrix: (Units=GPa)
#
#
# Indices 1 2 3 4 5 6 
#
# 1 97.2383 23.7201 15.8480 0.0000 0.0000 0.0000
# 2 23.7201 134.2431 33.1149 0.0000 0.0000 0.0000
# 3 15.8480 33.1149 144.4902 0.0000 0.0000 0.0000
# 4 0.0000 0.0000 0.0000 36.2656 0.0000 0.0000
# 5 0.0000 0.0000 0.0000 0.0000 16.2621 0.0000
# 6 0.0000 0.0000 0.0000 0.0000 0.0000 14.7390
#
#
#
# Elastic Compliance Matrix: (Units=1/GPa)
#
#
# Indices 1 2 3 4 5 6 
#
# 1 0.010833 -0.001718 -0.000794 0.000000 0.000000 0.000000
# 2 -0.001718 0.008168 -0.001684 0.000000 0.000000 0.000000
# 3 -0.000794 -0.001684 0.007394 0.000000 0.000000 0.000000
# 4 0.000000 0.000000 0.000000 0.027574 0.000000 0.000000
# 5 0.000000 0.000000 0.000000 0.000000 0.061492 0.000000
# 6 0.000000 0.000000 0.000000 0.000000 0.000000 0.067847
#
#
# Mechanical properties :
#
#
# Convention : Reuss Voigt Hill
#
# Bulk Modulus (GPa) = 55.54806 57.92641 56.73724
# Shear Modulus (GPa) = 25.29064 33.67259 29.48161
#
# Velocity S-wave (km/s) = 3.34121 3.85533 3.60744
# Velocity P-wave (km/s) = 6.27731 6.73704 6.51124
#
# Compressibility (1/GPa) = 0.01800243
#
# Stress axis : x y z
#
# Youngs Moduli (GPa) = 92.31403 122.42828 135.24740
#
# Poissons Ratio (x) = 0.21035 0.10744
# Poissons Ratio (y) = 0.15861 0.22769
# Poissons Ratio (z) = 0.07333 0.20611
#
# Static dielectric constant tensor:
#      x y z
#    x 3.748970 0.000000 0.000000 
#    y 0.000000 4.027830 0.000000 
#    z 0.000000 0.000000 4.676520 
# 
# 
# High freq. dielectric constant tensor:
#      x y z
#    x 1.864100 0.000000 0.000000 
#    y 0.000000 1.895320 0.000000 
#    z 0.000000 0.000000 1.922230 
# 
# From -- ./inp_files/32261.got.cif
#   From: 2010.03.12/outbox.cif.g09.slc.cpg/sg22_17_cif.got.tgz:32261.got - 2010.04.14 02:24:06.
