data_PCOD8163809
_publ_section_title
;
Structure prediction by ZEFSAII (Michael W. Deem and Ramdas Pophale) SiO2 
 PCOD8163809
Probable space group: I 2 2 2
;
_chemical_formula_sum "Si O2"
_cell_formula_units_Z 64
_cell_length_a 21.893725
_cell_length_b 17.157627
_cell_length_c 8.828676
_cell_angle_alpha 90.000000
_cell_angle_beta 90.000000
_cell_angle_gamma 90.000000
_cell_volume 3316.442409
_symmetry_space_group_name_H-M "I 2 2 2"
_symmetry_group_IT_number 23
_symmetry_cell_setting 'orthorhombic'
loop_
_space_group_symop_operation_xyz
x,y,z
-x,-y,z
x,-y,-z
-x,y,-z
1/2+x,1/2+y,1/2+z
1/2-x,1/2-y,1/2+z
1/2+x,1/2-y,1/2-z
1/2-x,1/2+y,1/2-z
loop_
_atom_site_type_symbol
_atom_site_label
_atom_site_fract_x
_atom_site_fract_y
_atom_site_fract_z
Si Si1 0.355323 0.889069 0.605549
Si Si2 0.225487 0.960984 0.646965
Si Si3 0.297966 0.333162 0.635447
Si Si4 0.265718 0.385320 0.320088
Si Si5 0.437189 0.956132 0.855314
Si Si6 0.064089 0.295551 0.485661
Si Si7 0.860204 0.322347 0.792129
Si Si8 0.171008 0.253800 0.681662
O O1 0.288414 0.924497 0.588580
O O2 0.394901 0.950599 0.705270
O O3 0.377763 0.879464 0.431793
O O4 0.355660 0.801989 0.675876
O O5 0.187613 0.890232 0.722435
O O6 0.192569 0.000000 0.500000
O O7 0.236111 0.025078 0.774936
O O8 0.299449 0.381998 0.481395
O O9 0.346240 0.263478 0.641707
O O10 0.229190 0.301973 0.628357
O O11 0.196846 0.351769 0.309512
O O12 0.309627 0.334479 0.212607
O O13 0.450258 0.869144 0.907993
O O14 0.500000 0.000000 0.814027
O O15 0.404825 0.000000 0.000000
O O16 0.080040 0.320021 0.313643
O O17 0.120922 0.246489 0.549385
O O18 0.000000 0.247338 0.500000
#
# Coordination Sequence:
#
# PCOD8163809 Si02
#       8
#     8   8   8   8   8   8   8   8
#     4  10  21  37  56  82 117 157 206 246 286 346
#     4  11  23  32  53  91 120 144 188 244 308 371
#     4  10  21  37  57  83 118 156 197 238 310 364
#     4  11  20  35  57  83 121 153 192 245 310 365
#     4  10  21  39  59  73 112 163 207 244 293 336
#     4  11  22  38  59  82 111 160 212 244 290 352
#     4  11  22  37  60  85 115 162 208 253 294 358
#     4   9  20  35  57  80 111 159 199 241 289 359
#
# _framework density 19.297785999999999
#
# number of rings (size 3 to 8) (size 9 to 14) (size 15 to 20)
#    0.000    1.625    5.000    0.375    3.500    0.000 
#    0.000    3.125    2.750    0.000    0.000    1.750 
#    0.000    2.000    0.000    0.000    0.000    0.000 
#
# Total GULP energy -396549.462748 kJ/mol
# GULP energy per Si atom -12392.170711 kJ/mol
# Density = 1.925386 g / cm^3
# Si number density = 19.297786 Si / 1000 Ang^3
#
#
#
# Elastic Constant Matrix: (Units=GPa)
#
#
# Indices 1 2 3 4 5 6 
#
# 1 63.2167 15.9720 29.4476 0.0000 0.0000 0.0000
# 2 15.9720 63.9326 26.5523 0.0000 0.0000 0.0000
# 3 29.4476 26.5523 108.1856 0.0000 0.0000 0.0000
# 4 0.0000 0.0000 0.0000 30.3471 0.0000 0.0000
# 5 0.0000 0.0000 0.0000 0.0000 20.3122 0.0000
# 6 0.0000 0.0000 0.0000 0.0000 0.0000 20.3994
#
#
#
# Elastic Compliance Matrix: (Units=1/GPa)
#
#
# Indices 1 2 3 4 5 6 
#
# 1 0.018563 -0.002827 -0.004359 0.000000 0.000000 0.000000
# 2 -0.002827 0.017847 -0.003611 0.000000 0.000000 0.000000
# 3 -0.004359 -0.003611 0.011316 0.000000 0.000000 0.000000
# 4 0.000000 0.000000 0.000000 0.032952 0.000000 0.000000
# 5 0.000000 0.000000 0.000000 0.000000 0.049231 0.000000
# 6 0.000000 0.000000 0.000000 0.000000 0.000000 0.049021
#
#
# Mechanical properties :
#
#
# Convention : Reuss Voigt Hill
#
# Bulk Modulus (GPa) = 38.26597 42.14209 40.20403
# Shear Modulus (GPa) = 23.89640 25.10260 24.49950
#
# Velocity S-wave (km/s) = 3.52276 3.61058 3.56694
# Velocity P-wave (km/s) = 6.03479 6.26633 6.15165
#
# Compressibility (1/GPa) = 0.02613288
#
# Stress axis : x y z
#
# Youngs Moduli (GPa) = 53.86937 56.03052 88.36998
#
# Poissons Ratio (x) = 0.15841 0.38520
# Poissons Ratio (y) = 0.15230 0.31908
# Poissons Ratio (z) = 0.23481 0.20231
#
# Static dielectric constant tensor:
#      x y z
#    x 3.314950 0.000000 0.000000 
#    y 0.000000 3.503550 0.000000 
#    z 0.000000 0.000000 3.746690 
# 
# 
# High freq. dielectric constant tensor:
#      x y z
#    x 1.697830 0.000000 0.000000 
#    y 0.000000 1.741480 0.000000 
#    z 0.000000 0.000000 1.767680 
# 
# From -- ./inp_files/12178.got.cif
#   From: 2010.03.12/outbox.cif.g09.slc.cpg/sg23_7_cif.got.tgz:12178.got - 2010.04.14 02:50:06.
