data_PCOD8163181
_publ_section_title
;
Structure prediction by ZEFSAII (Michael W. Deem and Ramdas Pophale) SiO2 
 PCOD8163181
Probable space group: F 2 2 2
;
_chemical_formula_sum "Si O2"
_cell_formula_units_Z 60
_cell_length_a 11.006879
_cell_length_b 15.539375
_cell_length_c 14.165633
_cell_angle_alpha 90.000000
_cell_angle_beta 90.000000
_cell_angle_gamma 90.000000
_cell_volume 2422.890157
_symmetry_space_group_name_H-M "F 2 2 2"
_symmetry_group_IT_number 22
_symmetry_cell_setting 'orthorhombic'
loop_
_space_group_symop_operation_xyz
x,y,z
-x,-y,z
x,-y,-z
-x,y,-z
x,1/2+y,1/2+z
-x,1/2-y,1/2+z
x,1/2-y,1/2-z
-x,1/2+y,1/2-z
1/2+x,y,1/2+z
1/2-x,-y,1/2+z
1/2+x,-y,1/2-z
1/2-x,y,1/2-z
1/2+x,1/2+y,z
1/2-x,1/2-y,z
1/2+x,1/2-y,-z
1/2-x,1/2+y,-z
loop_
_atom_site_type_symbol
_atom_site_label
_atom_site_fract_x
_atom_site_fract_y
_atom_site_fract_z
Si Si1 0.500000 0.699010 0.500000
Si Si2 0.501306 0.845121 0.210935
Si Si3 0.500000 0.000000 0.500000
Si Si4 0.250000 0.568832 0.750000
Si Si5 0.250000 0.750000 0.056789
Si Si6 0.171426 0.580994 0.356916
O O1 0.503992 0.645102 0.597177
O O2 0.625782 0.754327 0.495184
O O3 0.473654 0.750000 0.250000
O O4 0.633476 0.870864 0.247425
O O5 0.399723 0.906462 0.257439
O O6 0.422158 0.932767 0.440591
O O7 0.246928 0.507250 0.656876
O O8 0.255483 0.836039 0.121194
#
# Coordination Sequence:
#
# PCOD8163181 Si02
#       6
#     8  16   4   8   8  16
#     4  12  29  46  85 112 158 204 268 315 390 471
#     4  12  27  51  74 115 158 208 263 322 396 469
#     4  12  26  52  80 114 156 214 260 324 404 474
#     4  12  27  47  76 114 158 204 254 343 383 456
#     4  12  28  51  83 120 152 216 263 324 389 486
#     4  12  27  51  78 112 159 206 265 321 398 471
#
# _framework density 24.763812999999999
#
# number of rings (size 3 to 8) (size 9 to 14) (size 15 to 20)
#    0.000    0.000    5.333    2.800    7.467    1.067 
#    0.000    5.333    0.000    0.000    0.000    0.000 
#    0.000    0.000    0.000    0.000    0.000    0.000 
#
# Total GULP energy -185950.962493 kJ/mol
# GULP energy per Si atom -12396.730833 kJ/mol
# Density = 2.470745 g / cm^3
# Si number density = 24.763813 Si / 1000 Ang^3
#
#
#
# Elastic Constant Matrix: (Units=GPa)
#
#
# Indices 1 2 3 4 5 6 
#
# 1 115.1346 8.5615 7.2435 0.0000 0.0000 0.0000
# 2 8.5615 73.7623 26.5309 0.0000 0.0000 0.0000
# 3 7.2435 26.5309 147.2109 0.0000 0.0000 0.0000
# 4 0.0000 0.0000 0.0000 31.5770 0.0000 0.0000
# 5 0.0000 0.0000 0.0000 0.0000 35.5669 0.0000
# 6 0.0000 0.0000 0.0000 0.0000 0.0000 45.8181
#
#
#
# Elastic Compliance Matrix: (Units=1/GPa)
#
#
# Indices 1 2 3 4 5 6 
#
# 1 0.008771 -0.000923 -0.000265 0.000000 0.000000 0.000000
# 2 -0.000923 0.014594 -0.002585 0.000000 0.000000 0.000000
# 3 -0.000265 -0.002585 0.007272 0.000000 0.000000 0.000000
# 4 0.000000 0.000000 0.000000 0.031669 0.000000 0.000000
# 5 0.000000 0.000000 0.000000 0.000000 0.028116 0.000000
# 6 0.000000 0.000000 0.000000 0.000000 0.000000 0.021825
#
#
# Mechanical properties :
#
#
# Convention : Reuss Voigt Hill
#
# Bulk Modulus (GPa) = 43.30655 46.75327 45.02991
# Shear Modulus (GPa) = 39.21911 42.17721 40.69816
#
# Velocity S-wave (km/s) = 3.98392 4.13144 4.05835
# Velocity P-wave (km/s) = 6.21997 6.45593 6.33905
#
# Compressibility (1/GPa) = 0.02309120
#
# Stress axis : x y z
#
# Youngs Moduli (GPa) = 114.01495 68.52212 137.51631
#
# Poissons Ratio (x) = 0.06322 0.03648
# Poissons Ratio (y) = 0.10519 0.35545
# Poissons Ratio (z) = 0.03025 0.17711
#
# Static dielectric constant tensor:
#      x y z
#    x 4.801010 0.000000 0.000000 
#    y 0.000000 4.266300 0.000000 
#    z 0.000000 0.000000 4.421360 
# 
# 
# High freq. dielectric constant tensor:
#      x y z
#    x 2.016310 0.000000 0.000000 
#    y 0.000000 1.977530 0.000000 
#    z 0.000000 0.000000 1.980230 
# 
# From -- ./inp_files/19330.got.cif
#   From: 2010.03.12/outbox.cif.g09.slc.cpg/sg22_10_cif.got.tgz:19330.got - 2010.04.14 02:24:06.
