data_PCOD8163999
_publ_section_title
;
Structure prediction by ZEFSAII (Michael W. Deem and Ramdas Pophale) SiO2 
 PCOD8163999
Probable space group: I 2 2 2
;
_chemical_formula_sum "Si O2"
_cell_formula_units_Z 58
_cell_length_a 9.423058
_cell_length_b 16.463647
_cell_length_c 17.417442
_cell_angle_alpha 90.000000
_cell_angle_beta 90.000000
_cell_angle_gamma 90.000000
_cell_volume 2702.105385
_symmetry_space_group_name_H-M "I 2 2 2"
_symmetry_group_IT_number 23
_symmetry_cell_setting 'orthorhombic'
loop_
_space_group_symop_operation_xyz
x,y,z
-x,-y,z
x,-y,-z
-x,y,-z
1/2+x,1/2+y,1/2+z
1/2-x,1/2-y,1/2+z
1/2+x,1/2-y,1/2-z
1/2-x,1/2+y,1/2-z
loop_
_atom_site_type_symbol
_atom_site_label
_atom_site_fract_x
_atom_site_fract_y
_atom_site_fract_z
Si Si1 0.788321 0.664265 0.255224
Si Si2 0.755514 0.578465 0.408159
Si Si3 0.951722 0.083596 0.323003
Si Si4 0.099562 0.321503 0.721049
Si Si5 0.362435 0.307826 0.536991
Si Si6 0.000000 0.500000 0.500000
Si Si7 0.844892 0.920578 0.177108
Si Si8 0.082453 0.766133 0.424967
O O1 0.786206 0.645500 0.344659
O O2 0.713069 0.593334 0.204015
O O3 0.700096 0.747026 0.246144
O O4 0.954474 0.671700 0.228657
O O5 0.674311 0.618965 0.478893
O O6 0.904738 0.551003 0.441966
O O7 0.662677 0.505988 0.368561
O O8 0.978017 0.151304 0.387514
O O9 0.040944 0.086132 0.244501
O O10 0.000000 0.000000 0.363949
O O11 0.192181 0.403837 0.718734
O O12 0.051635 0.306414 0.633543
O O13 0.500000 0.264465 0.500000
O O14 0.390116 0.349067 0.619360
O O15 0.248518 0.235673 0.550344
O O16 0.000000 0.743151 0.500000
#
# Coordination Sequence:
#
# PCOD8163999 Si02
#       8
#     8   8   8   8   8   2   8   8
#     4  11  22  38  62  90 128 177 225 281 333 409
#     4  12  23  37  64  90 137 179 220 275 341 413
#     4  11  23  42  65  92 128 173 226 283 340 400
#     4  10  22  39  62  93 130 173 225 275 343 410
#     4  11  24  38  61  95 135 171 216 273 347 407
#     4  12  24  40  54 100 132 184 218 272 344 424
#     4  11  22  41  60  97 134 176 227 271 340 419
#     4  10  23  42  64  92 125 170 227 279 335 406
#
# _framework density 21.464742999999999
#
# number of rings (size 3 to 8) (size 9 to 14) (size 15 to 20)
#    0.000    1.103    2.759    4.138    2.897    3.034 
#    0.000    0.000    0.000    0.000    0.000    0.966 
#    0.000    0.000    0.000    0.000    0.000    0.000 
#
# Total GULP energy -359280.413363 kJ/mol
# GULP energy per Si atom -12388.979771 kJ/mol
# Density = 2.141589 g / cm^3
# Si number density = 21.464743 Si / 1000 Ang^3
#
#
#
# Elastic Constant Matrix: (Units=GPa)
#
#
# Indices 1 2 3 4 5 6 
#
# 1 119.1515 29.0048 22.1180 0.0000 0.0000 0.0000
# 2 29.0048 76.5088 22.9747 0.0000 0.0000 0.0000
# 3 22.1180 22.9747 74.9204 0.0000 0.0000 0.0000
# 4 0.0000 0.0000 0.0000 122.1862 0.0000 0.0000
# 5 0.0000 0.0000 0.0000 0.0000 40.7221 0.0000
# 6 0.0000 0.0000 0.0000 0.0000 0.0000 4.3078
#
#
#
# Elastic Compliance Matrix: (Units=1/GPa)
#
#
# Indices 1 2 3 4 5 6 
#
# 1 0.009478 -0.003032 -0.001868 0.000000 0.000000 0.000000
# 2 -0.003032 0.015366 -0.003817 0.000000 0.000000 0.000000
# 3 -0.001868 -0.003817 0.015070 0.000000 0.000000 0.000000
# 4 0.000000 0.000000 0.000000 0.008184 0.000000 0.000000
# 5 0.000000 0.000000 0.000000 0.000000 0.024557 0.000000
# 6 0.000000 0.000000 0.000000 0.000000 0.000000 0.232134
#
#
# Mechanical properties :
#
#
# Convention : Reuss Voigt Hill
#
# Bulk Modulus (GPa) = 44.48633 46.53062 45.50848
# Shear Modulus (GPa) = 15.16459 46.54212 30.85336
#
# Velocity S-wave (km/s) = 2.66087 4.66156 3.79541
# Velocity P-wave (km/s) = 5.49642 7.12027 6.36038
#
# Compressibility (1/GPa) = 0.02247882
#
# Stress axis : x y z
#
# Youngs Moduli (GPa) = 105.51264 65.07874 66.35915
#
# Poissons Ratio (x) = 0.19732 0.12397
# Poissons Ratio (y) = 0.31991 0.25329
# Poissons Ratio (z) = 0.19712 0.24840
#
# Static dielectric constant tensor:
#      x y z
#    x 3.861880 0.000000 0.000000 
#    y 0.000000 3.964850 0.000000 
#    z 0.000000 0.000000 3.993870 
# 
# 
# High freq. dielectric constant tensor:
#      x y z
#    x 1.857110 0.000000 0.000000 
#    y 0.000000 1.819330 0.000000 
#    z 0.000000 0.000000 1.835660 
# 
# From -- ./inp_files/11293.got.cif
#   From: 2010.03.12/outbox.cif.g09.slc.cpg/sg23_6_cif.got.tgz:11293.got - 2010.04.14 02:50:06.
