data_PCOD8163250
_publ_section_title
;
Structure prediction by ZEFSAII (Michael W. Deem and Ramdas Pophale) SiO2 
 PCOD8163250
Probable space group: I 2 2 2
;
_chemical_formula_sum "Si O2"
_cell_formula_units_Z 56
_cell_length_a 12.058118
_cell_length_b 11.258521
_cell_length_c 21.704267
_cell_angle_alpha 90.000000
_cell_angle_beta 90.000000
_cell_angle_gamma 90.000000
_cell_volume 2946.496945
_symmetry_space_group_name_H-M "I 2 2 2"
_symmetry_group_IT_number 23
_symmetry_cell_setting 'orthorhombic'
loop_
_space_group_symop_operation_xyz
x,y,z
-x,-y,z
x,-y,-z
-x,y,-z
1/2+x,1/2+y,1/2+z
1/2-x,1/2-y,1/2+z
1/2+x,1/2-y,1/2-z
1/2-x,1/2+y,1/2-z
loop_
_atom_site_type_symbol
_atom_site_label
_atom_site_fract_x
_atom_site_fract_y
_atom_site_fract_z
Si Si1 0.787505 0.130766 0.983639
Si Si2 0.089301 0.322303 0.873696
Si Si3 0.000000 0.500000 0.215774
Si Si4 0.500000 0.212794 0.500000
Si Si5 0.042081 0.867710 0.800451
Si Si6 0.006488 0.303168 0.303876
Si Si7 0.698541 0.826522 0.889271
Si Si8 0.223093 0.407460 0.649957
O O1 0.725273 0.144309 0.919051
O O2 0.698642 0.165546 0.036625
O O3 0.896428 0.208749 0.980126
O O4 0.830933 0.000000 0.000000
O O5 0.214176 0.274953 0.871539
O O6 0.089240 0.434538 0.827953
O O7 0.010055 0.215059 0.852872
O O8 0.043940 0.363341 0.941272
O O9 0.062233 0.401685 0.258023
O O10 0.174528 0.864398 0.808560
O O11 0.005718 0.821546 0.732621
O O12 0.000000 0.000000 0.810408
O O13 0.884809 0.353130 0.317806
O O14 0.076807 0.287283 0.366239
O O15 0.726120 0.950086 0.855270
#
# Coordination Sequence:
#
# PCOD8163250 Si02
#       8
#     8   8   4   4   8   8   8   8
#     4   9  19  30  55  83 115 146 183 243 292 349
#     4  10  21  36  59  82 115 150 188 242 293 344
#     4  10  22  39  52  83 114 160 194 234 286 340
#     4  10  17  33  54  88 110 142 193 235 298 338
#     4  11  23  37  57  85 113 150 195 243 289 345
#     4  11  24  38  57  82 119 159 195 238 283 356
#     4  10  20  36  58  85 116 150 191 239 298 347
#     4  11  20  37  57  86 119 153 191 237 298 343
#
# _framework density 19.00562
#
# number of rings (size 3 to 8) (size 9 to 14) (size 15 to 20)
#    0.000    1.714    4.286    0.214    4.000    0.857 
#    0.000    2.143    0.000    0.000    0.000    1.000 
#    0.000    0.000    0.000    0.000    0.000    0.000 
#
# Total GULP energy -347025.851041 kJ/mol
# GULP energy per Si atom -12393.780394 kJ/mol
# Density = 1.896236 g / cm^3
# Si number density = 19.005620 Si / 1000 Ang^3
#
#
#
# Elastic Constant Matrix: (Units=GPa)
#
#
# Indices 1 2 3 4 5 6 
#
# 1 104.7708 25.7854 43.1436 0.0000 0.0000 0.0000
# 2 25.7854 53.5492 27.6363 0.0000 0.0000 0.0000
# 3 43.1436 27.6363 105.0563 0.0000 0.0000 0.0000
# 4 0.0000 0.0000 0.0000 28.8974 0.0000 0.0000
# 5 0.0000 0.0000 0.0000 0.0000 30.0122 0.0000
# 6 0.0000 0.0000 0.0000 0.0000 0.0000 18.5343
#
#
#
# Elastic Compliance Matrix: (Units=1/GPa)
#
#
# Indices 1 2 3 4 5 6 
#
# 1 0.012114 -0.003779 -0.003981 0.000000 0.000000 0.000000
# 2 -0.003779 0.022787 -0.004443 0.000000 0.000000 0.000000
# 3 -0.003981 -0.004443 0.012322 0.000000 0.000000 0.000000
# 4 0.000000 0.000000 0.000000 0.034605 0.000000 0.000000
# 5 0.000000 0.000000 0.000000 0.000000 0.033320 0.000000
# 6 0.000000 0.000000 0.000000 0.000000 0.000000 0.053954
#
#
# Mechanical properties :
#
#
# Convention : Reuss Voigt Hill
#
# Bulk Modulus (GPa) = 43.82364 50.72299 47.27331
# Shear Modulus (GPa) = 24.86179 26.60953 25.73566
#
# Velocity S-wave (km/s) = 3.62073 3.74583 3.68381
# Velocity P-wave (km/s) = 6.37086 6.74201 6.55906
#
# Compressibility (1/GPa) = 0.02281874
#
# Stress axis : x y z
#
# Youngs Moduli (GPa) = 82.54993 43.88524 81.15458
#
# Poissons Ratio (x) = 0.16583 0.32306
# Poissons Ratio (y) = 0.31193 0.36053
# Poissons Ratio (z) = 0.32861 0.19496
#
# Static dielectric constant tensor:
#      x y z
#    x 3.305190 0.000000 0.000000 
#    y 0.000000 3.333940 0.000000 
#    z 0.000000 0.000000 3.778800 
# 
# 
# High freq. dielectric constant tensor:
#      x y z
#    x 1.721900 0.000000 0.000000 
#    y 0.000000 1.717430 0.000000 
#    z 0.000000 0.000000 1.753410 
# 
# From -- ./inp_files/28394.got.cif
#   From: 2010.03.12/outbox.cif.g09.slc.cpg/sg23_15_cif.got.tgz:28394.got - 2010.04.14 02:50:06.
