data_PCOD8163157
_publ_section_title
;
Structure prediction by ZEFSAII (Michael W. Deem and Ramdas Pophale) SiO2 
 PCOD8163157
Probable space group: F 2 2 2
;
_chemical_formula_sum "Si O2"
_cell_formula_units_Z 72
_cell_length_a 24.438549
_cell_length_b 12.231325
_cell_length_c 11.029703
_cell_angle_alpha 90.000000
_cell_angle_beta 90.000000
_cell_angle_gamma 90.000000
_cell_volume 3296.952886
_symmetry_space_group_name_H-M "F 2 2 2"
_symmetry_group_IT_number 22
_symmetry_cell_setting 'orthorhombic'
loop_
_space_group_symop_operation_xyz
x,y,z
-x,-y,z
x,-y,-z
-x,y,-z
x,1/2+y,1/2+z
-x,1/2-y,1/2+z
x,1/2-y,1/2-z
-x,1/2+y,1/2-z
1/2+x,y,1/2+z
1/2-x,-y,1/2+z
1/2+x,-y,1/2-z
1/2-x,y,1/2-z
1/2+x,1/2+y,z
1/2-x,1/2-y,z
1/2+x,1/2-y,-z
1/2-x,1/2+y,-z
loop_
_atom_site_type_symbol
_atom_site_label
_atom_site_fract_x
_atom_site_fract_y
_atom_site_fract_z
Si Si1 0.469030 0.750000 0.750000
Si Si2 0.500000 0.700792 0.000000
Si Si3 0.892999 0.100522 0.068368
Si Si4 0.142049 0.500000 0.000000
Si Si5 0.690692 0.781449 0.891761
Si Si6 0.436363 0.025411 0.212678
O O1 0.503920 0.772763 0.874927
O O2 0.433828 0.642543 0.780119
O O3 0.551655 0.621713 0.004470
O O4 0.855701 0.206042 0.051006
O O5 0.908134 0.070443 0.207928
O O6 0.863210 0.000000 0.000000
O O7 0.178876 0.593149 0.067170
O O8 0.100661 0.449706 0.096735
O O9 0.690358 0.750000 0.750000
O O10 0.750000 0.750000 0.945370
O O11 0.500000 0.000000 0.183685
#
# Coordination Sequence:
#
# PCOD8163157 Si02
#       6
#     8   8  16   8  16  16
#     4  12  26  38  60  96 154 196 242 296 360 460
#     4  12  25  40  65 102 148 193 240 294 379 454
#     4  12  23  45  71 101 142 194 241 294 367 452
#     4  12  27  46  74 110 142 185 246 310 372 450
#     4  11  27  51  75 101 141 194 249 311 376 443
#     4  12  25  41  66 105 150 190 237 295 379 452
#
# _framework density 21.838346999999999
#
# number of rings (size 3 to 8) (size 9 to 14) (size 15 to 20)
#    0.000    0.222    6.667    2.000    9.333    0.000 
#    0.000    0.000    0.000    1.333    0.000    0.000 
#    0.000    0.000    0.000    0.000    0.000    0.000 
#
# Total GULP energy -222986.202900 kJ/mol
# GULP energy per Si atom -12388.122383 kJ/mol
# Density = 2.178864 g / cm^3
# Si number density = 21.838347 Si / 1000 Ang^3
#
#
#
# Elastic Constant Matrix: (Units=GPa)
#
#
# Indices 1 2 3 4 5 6 
#
# 1 122.1200 59.5689 26.6454 0.0000 0.0000 0.0000
# 2 59.5689 146.4719 33.0974 0.0000 0.0000 0.0000
# 3 26.6454 33.0974 139.2538 0.0000 0.0000 0.0000
# 4 0.0000 0.0000 0.0000 36.8350 0.0000 0.0000
# 5 0.0000 0.0000 0.0000 0.0000 17.6565 0.0000
# 6 0.0000 0.0000 0.0000 0.0000 0.0000 25.4017
#
#
#
# Elastic Compliance Matrix: (Units=1/GPa)
#
#
# Indices 1 2 3 4 5 6 
#
# 1 0.010355 -0.003977 -0.001036 0.000000 0.000000 0.000000
# 2 -0.003977 0.008742 -0.001317 0.000000 0.000000 0.000000
# 3 -0.001036 -0.001317 0.007692 0.000000 0.000000 0.000000
# 4 0.000000 0.000000 0.000000 0.027148 0.000000 0.000000
# 5 0.000000 0.000000 0.000000 0.000000 0.056636 0.000000
# 6 0.000000 0.000000 0.000000 0.000000 0.000000 0.039367
#
#
# Mechanical properties :
#
#
# Convention : Reuss Voigt Hill
#
# Bulk Modulus (GPa) = 70.77448 71.82990 71.30219
# Shear Modulus (GPa) = 29.88448 35.21423 32.54936
#
# Velocity S-wave (km/s) = 3.70326 4.01994 3.86485
# Velocity P-wave (km/s) = 7.12490 7.38307 7.25513
#
# Compressibility (1/GPa) = 0.01412939
#
# Stress axis : x y z
#
# Youngs Moduli (GPa) = 96.57455 114.38716 129.99911
#
# Poissons Ratio (x) = 0.45492 0.13469
# Poissons Ratio (y) = 0.38408 0.17119
# Poissons Ratio (z) = 0.10006 0.15063
#
# Static dielectric constant tensor:
#      x y z
#    x 3.806660 0.000000 0.000000 
#    y 0.000000 4.104100 0.000000 
#    z 0.000000 0.000000 4.271850 
# 
# 
# High freq. dielectric constant tensor:
#      x y z
#    x 1.826890 0.000000 0.000000 
#    y 0.000000 1.870780 0.000000 
#    z 0.000000 0.000000 1.872700 
# 
# From -- ./inp_files/18135.got.cif
#   From: 2010.03.12/outbox.cif.g09.slc.cpg/sg22_10_cif.got.tgz:18135.got - 2010.04.14 02:24:06.
