data_PCOD8163846
_publ_section_title
;
Structure prediction by ZEFSAII (Michael W. Deem and Ramdas Pophale) SiO2 
 PCOD8163846
Probable space group: I 2 2 2
;
_chemical_formula_sum "Si O2"
_cell_formula_units_Z 40
_cell_length_a 4.879301
_cell_length_b 20.112264
_cell_length_c 18.002224
_cell_angle_alpha 90.000000
_cell_angle_beta 90.000000
_cell_angle_gamma 90.000000
_cell_volume 1766.626467
_symmetry_space_group_name_H-M "I 2 2 2"
_symmetry_group_IT_number 23
_symmetry_cell_setting 'orthorhombic'
loop_
_space_group_symop_operation_xyz
x,y,z
-x,-y,z
x,-y,-z
-x,y,-z
1/2+x,1/2+y,1/2+z
1/2-x,1/2-y,1/2+z
1/2+x,1/2-y,1/2-z
1/2-x,1/2+y,1/2-z
loop_
_atom_site_type_symbol
_atom_site_label
_atom_site_fract_x
_atom_site_fract_y
_atom_site_fract_z
Si Si1 0.998420 0.244637 0.582206
Si Si2 0.000561 0.826084 0.127561
Si Si3 0.554979 0.077922 0.918336
Si Si4 0.885219 0.573470 0.259686
Si Si5 0.403804 0.355824 0.788360
O O1 0.794014 0.308704 0.589098
O O2 0.000000 0.214082 0.500000
O O3 0.301707 0.269007 0.598066
O O4 0.918226 0.185821 0.637255
O O5 0.864513 0.898794 0.104800
O O6 0.012314 0.814998 0.216611
O O7 0.352913 0.098059 0.847220
O O8 0.500000 0.000000 0.925700
O O9 0.500000 0.109900 0.000000
O O10 0.092039 0.622612 0.218691
O O11 0.000000 0.500000 0.259636
O O12 0.602526 0.578769 0.213682
#
# Coordination Sequence:
#
# PCOD8163846 Si02
#       5
#     8   8   8   8   8
#     4  12  25  40  61  88 120 156 199 250 301 350
#     4  11  22  39  61  88 120 160 201 240 291 354
#     4   9  19  37  60  90 125 161 199 243 291 346
#     4  10  21  38  63  89 116 156 199 242 294 355
#     4  11  22  40  62  86 120 156 197 244 294 356
#
# _framework density 22.642023999999999
#
# number of rings (size 3 to 8) (size 9 to 14) (size 15 to 20)
#    0.000    1.400    0.000    6.600    0.000    1.600 
#    0.000    6.000    0.000   30.000    0.000    0.000 
#    0.000    0.000    0.000    0.000    0.000    0.000 
#
# Total GULP energy -247830.115025 kJ/mol
# GULP energy per Si atom -12391.505751 kJ/mol
# Density = 2.259049 g / cm^3
# Si number density = 22.642024 Si / 1000 Ang^3
#
#
#
# Elastic Constant Matrix: (Units=GPa)
#
#
# Indices 1 2 3 4 5 6 
#
# 1 68.7836 7.1826 29.4244 0.0000 0.0000 0.0000
# 2 7.1826 85.3140 68.6802 0.0000 0.0000 0.0000
# 3 29.4244 68.6802 174.7892 0.0000 0.0000 0.0000
# 4 0.0000 0.0000 0.0000 32.6216 0.0000 0.0000
# 5 0.0000 0.0000 0.0000 0.0000 18.4378 0.0000
# 6 0.0000 0.0000 0.0000 0.0000 0.0000 32.8243
#
#
#
# Elastic Compliance Matrix: (Units=1/GPa)
#
#
# Indices 1 2 3 4 5 6 
#
# 1 0.015748 0.001182 -0.003116 0.000000 0.000000 0.000000
# 2 0.001182 0.017233 -0.006971 0.000000 0.000000 0.000000
# 3 -0.003116 -0.006971 0.008985 0.000000 0.000000 0.000000
# 4 0.000000 0.000000 0.000000 0.030655 0.000000 0.000000
# 5 0.000000 0.000000 0.000000 0.000000 0.054236 0.000000
# 6 0.000000 0.000000 0.000000 0.000000 0.000000 0.030465
#
#
# Mechanical properties :
#
#
# Convention : Reuss Voigt Hill
#
# Bulk Modulus (GPa) = 41.39414 59.94013 50.66714
# Shear Modulus (GPa) = 27.29524 31.68339 29.48931
#
# Velocity S-wave (km/s) = 3.47582 3.74480 3.61281
# Velocity P-wave (km/s) = 5.86771 6.72521 6.31104
#
# Compressibility (1/GPa) = 0.02415801
#
# Stress axis : x y z
#
# Youngs Moduli (GPa) = 63.50150 58.02696 111.30136
#
# Poissons Ratio (x) = -0.06861 0.34677
# Poissons Ratio (y) = -0.07508 0.77583
# Poissons Ratio (z) = 0.19784 0.40448
#
# Static dielectric constant tensor:
#      x y z
#    x 4.464500 0.000000 0.000000 
#    y 0.000000 3.830460 0.000000 
#    z 0.000000 0.000000 4.164010 
# 
# 
# High freq. dielectric constant tensor:
#      x y z
#    x 1.914490 0.000000 0.000000 
#    y 0.000000 1.881200 0.000000 
#    z 0.000000 0.000000 1.881950 
# 
# From -- ./inp_files/23021.got.cif
#   From: 2010.03.12/outbox.cif.g09.slc.cpg/sg23_12_cif.got.tgz:23021.got - 2010.04.14 02:50:06.
