data_PCOD8163433
_publ_section_title
;
Structure prediction by ZEFSAII (Michael W. Deem and Ramdas Pophale) SiO2 
 PCOD8163433
Probable space group: I 2 2 2
;
_chemical_formula_sum "Si O2"
_cell_formula_units_Z 56
_cell_length_a 21.022459
_cell_length_b 12.544625
_cell_length_c 10.973206
_cell_angle_alpha 90.000000
_cell_angle_beta 90.000000
_cell_angle_gamma 90.000000
_cell_volume 2893.841429
_symmetry_space_group_name_H-M "I 2 2 2"
_symmetry_group_IT_number 23
_symmetry_cell_setting 'orthorhombic'
loop_
_space_group_symop_operation_xyz
x,y,z
-x,-y,z
x,-y,-z
-x,y,-z
1/2+x,1/2+y,1/2+z
1/2-x,1/2-y,1/2+z
1/2+x,1/2-y,1/2-z
1/2-x,1/2+y,1/2-z
loop_
_atom_site_type_symbol
_atom_site_label
_atom_site_fract_x
_atom_site_fract_y
_atom_site_fract_z
Si Si1 0.237676 0.029659 0.272266
Si Si2 0.668109 0.167593 0.890017
Si Si3 0.845847 0.376710 0.839991
Si Si4 0.708153 0.741415 0.863600
Si Si5 0.664063 0.665527 0.308739
Si Si6 0.434081 0.038792 0.224851
Si Si7 0.068467 0.296101 0.942508
O O1 0.274693 0.095913 0.166236
O O2 0.204327 0.112622 0.365704
O O3 0.286252 0.958533 0.352872
O O4 0.182272 0.958934 0.208014
O O5 0.661529 0.280641 0.823670
O O6 0.603048 0.101920 0.879392
O O7 0.671830 0.196205 0.031109
O O8 0.819486 0.274645 0.767796
O O9 0.899110 0.430776 0.758986
O O10 0.877903 0.340856 0.965721
O O11 0.781099 0.774754 0.884203
O O12 0.597757 0.688297 0.380581
O O13 0.442857 0.111544 0.344663
O O14 0.500000 0.000000 0.168857
O O15 0.000000 0.266472 0.000000
#
# Coordination Sequence:
#
# PCOD8163433 Si02
#       7
#     8   8   8   8   8   8   8
#     4   9  20  38  56  87 118 159 197 239 298 361
#     4   9  20  37  54  88 120 151 201 239 293 361
#     4  10  21  35  55  89 116 153 196 236 299 354
#     4  10  21  38  55  81 122 158 190 249 290 351
#     4   9  21  35  57  88 116 156 195 242 292 351
#     4  10  19  35  58  86 118 152 191 241 302 357
#     4  11  21  36  61  89 121 151 194 252 294 351
#
# _framework density 19.35144
#
# number of rings (size 3 to 8) (size 9 to 14) (size 15 to 20)
#    0.000    2.286    1.429    1.286    6.000    5.714 
#    5.143    1.429    0.000    1.714    0.000    0.000 
#    4.286    0.000    0.000    0.000    0.000    0.000 
#
# Total GULP energy -346962.473718 kJ/mol
# GULP energy per Si atom -12391.516918 kJ/mol
# Density = 1.930739 g / cm^3
# Si number density = 19.351440 Si / 1000 Ang^3
#
#
#
# Elastic Constant Matrix: (Units=GPa)
#
#
# Indices 1 2 3 4 5 6 
#
# 1 107.8816 50.4922 29.9785 0.0000 0.0000 0.0000
# 2 50.4922 105.8631 37.2127 0.0000 0.0000 0.0000
# 3 29.9785 37.2127 63.3403 0.0000 0.0000 0.0000
# 4 0.0000 0.0000 0.0000 17.0839 0.0000 0.0000
# 5 0.0000 0.0000 0.0000 0.0000 26.1575 0.0000
# 6 0.0000 0.0000 0.0000 0.0000 0.0000 24.6343
#
#
#
# Elastic Compliance Matrix: (Units=1/GPa)
#
#
# Indices 1 2 3 4 5 6 
#
# 1 0.012373 -0.004843 -0.003011 0.000000 0.000000 0.000000
# 2 -0.004843 0.013800 -0.005816 0.000000 0.000000 0.000000
# 3 -0.003011 -0.005816 0.020629 0.000000 0.000000 0.000000
# 4 0.000000 0.000000 0.000000 0.058535 0.000000 0.000000
# 5 0.000000 0.000000 0.000000 0.000000 0.038230 0.000000
# 6 0.000000 0.000000 0.000000 0.000000 0.000000 0.040594
#
#
# Mechanical properties :
#
#
# Convention : Reuss Voigt Hill
#
# Bulk Modulus (GPa) = 51.37706 56.93908 54.15807
# Shear Modulus (GPa) = 22.93713 24.20193 23.56953
#
# Velocity S-wave (km/s) = 3.44654 3.54029 3.49373
# Velocity P-wave (km/s) = 6.51501 6.79699 6.65749
#
# Compressibility (1/GPa) = 0.01946394
#
# Stress axis : x y z
#
# Youngs Moduli (GPa) = 80.82315 72.46205 48.47462
#
# Poissons Ratio (x) = 0.35093 0.14594
# Poissons Ratio (y) = 0.39142 0.28191
# Poissons Ratio (z) = 0.24333 0.42141
#
# Static dielectric constant tensor:
#      x y z
#    x 3.621200 0.000000 0.000000 
#    y 0.000000 3.604780 0.000000 
#    z 0.000000 0.000000 3.321740 
# 
# 
# High freq. dielectric constant tensor:
#      x y z
#    x 1.736630 0.000000 0.000000 
#    y 0.000000 1.748140 0.000000 
#    z 0.000000 0.000000 1.741670 
# 
# From -- ./inp_files/15938.got.cif
#   From: 2010.03.12/outbox.cif.g09.slc.cpg/sg23_8_cif.got.tgz:15938.got - 2010.04.14 02:50:06.
