data_PCOD8163019
_publ_section_title
;
Structure prediction by ZEFSAII (Michael W. Deem and Ramdas Pophale) SiO2 
 PCOD8163019
Probable space group: F 2 2 2
;
_chemical_formula_sum "Si O2"
_cell_formula_units_Z 96
_cell_length_a 28.155657
_cell_length_b 9.997106
_cell_length_c 16.656586
_cell_angle_alpha 90.000000
_cell_angle_beta 90.000000
_cell_angle_gamma 90.000000
_cell_volume 4688.414002
_symmetry_space_group_name_H-M "F 2 2 2"
_symmetry_group_IT_number 22
_symmetry_cell_setting 'orthorhombic'
loop_
_space_group_symop_operation_xyz
x,y,z
-x,-y,z
x,-y,-z
-x,y,-z
x,1/2+y,1/2+z
-x,1/2-y,1/2+z
x,1/2-y,1/2-z
-x,1/2+y,1/2-z
1/2+x,y,1/2+z
1/2-x,-y,1/2+z
1/2+x,-y,1/2-z
1/2-x,y,1/2-z
1/2+x,1/2+y,z
1/2-x,1/2-y,z
1/2+x,1/2-y,-z
1/2-x,1/2+y,-z
loop_
_atom_site_type_symbol
_atom_site_label
_atom_site_fract_x
_atom_site_fract_y
_atom_site_fract_z
Si Si1 0.653629 0.481538 0.145798
Si Si2 0.403854 0.260983 0.104317
Si Si3 0.996341 0.648986 0.595090
Si Si4 0.747982 0.600336 0.345279
Si Si5 0.896895 0.267289 0.081497
Si Si6 0.353416 0.986354 0.832226
O O1 0.617680 0.591237 0.111388
O O2 0.707456 0.517611 0.121145
O O3 0.643027 0.340377 0.104558
O O4 0.648488 0.466368 0.240927
O O5 0.459432 0.264945 0.128497
O O6 0.377773 0.159581 0.164325
O O7 0.398541 0.211712 0.013344
O O8 0.947161 0.719970 0.619121
O O9 0.000000 0.500000 0.632327
O O10 0.000000 0.638015 0.500000
O O11 0.750000 0.611138 0.250000
O O12 0.750000 0.750000 0.381944
O O13 0.699363 0.525845 0.370222
O O14 0.884333 0.410186 0.117820
#
# Coordination Sequence:
#
# PCOD8163019 Si02
#       6
#    16  16  16  16  16  16
#     4  11  21  39  64  86 113 159 202 235 289 356
#     4  11  21  39  64  86 113 159 202 235 289 356
#     4   9  18  36  61  84 113 160 203 229 281 371
#     4   9  18  36  61  84 113 160 203 229 281 371
#     4  11  23  39  59  90 122 150 192 251 297 339
#     4  11  23  39  59  90 122 150 192 251 297 339
#
# _framework density 20.476008
#
# number of rings (size 3 to 8) (size 9 to 14) (size 15 to 20)
#    0.000    1.667    3.333    2.000    0.000    1.333 
#    0.000   15.000    0.000    0.000    0.000    0.000 
#    0.000    0.000    0.000    0.000    0.000    0.000 
#
# Total GULP energy -297676.533187 kJ/mol
# GULP energy per Si atom -12403.188883 kJ/mol
# Density = 2.042940 g / cm^3
# Si number density = 20.476008 Si / 1000 Ang^3
#
#
#
# Elastic Constant Matrix: (Units=GPa)
#
#
# Indices 1 2 3 4 5 6 
#
# 1 158.9040 33.0514 15.4994 0.0000 0.0000 0.0000
# 2 33.0514 78.3682 11.4113 0.0000 0.0000 0.0000
# 3 15.4994 11.4113 32.3369 0.0000 0.0000 0.0000
# 4 0.0000 0.0000 0.0000 31.4298 0.0000 0.0000
# 5 0.0000 0.0000 0.0000 0.0000 20.5427 0.0000
# 6 0.0000 0.0000 0.0000 0.0000 0.0000 40.6713
#
#
#
# Elastic Compliance Matrix: (Units=1/GPa)
#
#
# Indices 1 2 3 4 5 6 
#
# 1 0.007080 -0.002627 -0.002467 0.000000 0.000000 0.000000
# 2 -0.002627 0.014426 -0.003832 0.000000 0.000000 0.000000
# 3 -0.002467 -0.003832 0.033459 0.000000 0.000000 0.000000
# 4 0.000000 0.000000 0.000000 0.031817 0.000000 0.000000
# 5 0.000000 0.000000 0.000000 0.000000 0.048679 0.000000
# 6 0.000000 0.000000 0.000000 0.000000 0.000000 0.024587
#
#
# Mechanical properties :
#
#
# Convention : Reuss Voigt Hill
#
# Bulk Modulus (GPa) = 26.94346 43.28145 35.11246
# Shear Modulus (GPa) = 26.27842 32.50522 29.39182
#
# Velocity S-wave (km/s) = 3.58631 3.98864 3.79281
# Velocity P-wave (km/s) = 5.50781 6.51121 6.03042
#
# Compressibility (1/GPa) = 0.03711475
#
# Stress axis : x y z
#
# Youngs Moduli (GPa) = 141.24166 69.31892 29.88748
#
# Poissons Ratio (x) = 0.18209 0.07372
# Poissons Ratio (y) = 0.37102 0.11452
# Poissons Ratio (z) = 0.34838 0.26561
#
# Static dielectric constant tensor:
#      x y z
#    x 4.090400 0.000000 0.000000 
#    y 0.000000 3.601890 0.000000 
#    z 0.000000 0.000000 3.365190 
# 
# 
# High freq. dielectric constant tensor:
#      x y z
#    x 1.816680 0.000000 0.000000 
#    y 0.000000 1.798360 0.000000 
#    z 0.000000 0.000000 1.771600 
# 
# From -- ./inp_files/45720.got.cif
#   From: 2010.03.12/outbox.cif.g09.slc.cpg/sg22_23_cif.got.tgz:45720.got - 2010.04.14 02:24:06.
