data_PCOD8163594
_publ_section_title
;
Structure prediction by ZEFSAII (Michael W. Deem and Ramdas Pophale) SiO2 
 PCOD8163594
Probable space group: I 2 2 2
;
_chemical_formula_sum "Si O2"
_cell_formula_units_Z 60
_cell_length_a 21.542789
_cell_length_b 5.137820
_cell_length_c 25.056463
_cell_angle_alpha 90.000000
_cell_angle_beta 90.000000
_cell_angle_gamma 90.000000
_cell_volume 2773.323797
_symmetry_space_group_name_H-M "I 2 2 2"
_symmetry_group_IT_number 23
_symmetry_cell_setting 'orthorhombic'
loop_
_space_group_symop_operation_xyz
x,y,z
-x,-y,z
x,-y,-z
-x,y,-z
1/2+x,1/2+y,1/2+z
1/2-x,1/2-y,1/2+z
1/2+x,1/2-y,1/2-z
1/2-x,1/2+y,1/2-z
loop_
_atom_site_type_symbol
_atom_site_label
_atom_site_fract_x
_atom_site_fract_y
_atom_site_fract_z
Si Si1 0.114844 0.479660 0.936818
Si Si2 0.635308 0.923681 0.056784
Si Si3 0.652440 0.506547 0.380212
Si Si4 0.851626 0.069545 0.695359
Si Si5 0.563879 0.397665 0.295330
Si Si6 0.285288 0.927661 0.840233
Si Si7 0.571357 0.432987 0.090881
Si Si8 0.000000 0.500000 0.871841
O O1 0.132753 0.764086 0.916357
O O2 0.049131 0.371671 0.913320
O O3 0.164780 0.259724 0.917475
O O4 0.112335 0.500000 0.000000
O O5 0.689813 0.907720 0.099541
O O6 0.603535 0.641691 0.051689
O O7 0.583369 0.138824 0.071882
O O8 0.665316 0.000000 0.000000
O O9 0.598718 0.587720 0.337212
O O10 0.711404 0.420415 0.344782
O O11 0.888036 0.156714 0.748241
O O12 0.803627 0.298125 0.684601
O O13 0.902918 0.030023 0.650200
O O14 0.811489 0.802605 0.698007
O O15 0.500000 0.500000 0.269651
O O16 0.543952 0.159163 0.332181
O O17 0.500000 0.500000 0.091798
#
# Coordination Sequence:
#
# PCOD8163594 Si02
#       8
#     8   8   8   8   8   8   8   4
#     4  11  23  41  66  97 131 174 217 261 336 398
#     4  10  21  35  55  78 111 155 195 250 311 367
#     4  11  24  42  66  94 131 168 216 276 321 387
#     4  10  23  39  64  88 122 171 208 261 324 382
#     4  11  23  41  66  95 132 166 219 265 333 393
#     4  10  23  43  59  89 127 160 216 268 313 382
#     4  10  20  36  52  83 116 147 197 249 307 378
#     4  10  23  42  62  98 138 170 209 284 322 394
#
# _framework density 21.634689999999999
#
# number of rings (size 3 to 8) (size 9 to 14) (size 15 to 20)
#    0.000    1.600    1.333    2.600    1.867    3.733 
#    2.400    1.333    0.000    0.000    0.000    0.000 
#    0.000    0.000    0.000    0.000    0.000    0.000 
#
# Total GULP energy -371744.476196 kJ/mol
# GULP energy per Si atom -12391.482540 kJ/mol
# Density = 2.158545 g / cm^3
# Si number density = 21.634690 Si / 1000 Ang^3
#
#
#
# Elastic Constant Matrix: (Units=GPa)
#
#
# Indices 1 2 3 4 5 6 
#
# 1 97.3898 16.2333 42.6045 0.0000 0.0000 0.0000
# 2 16.2333 93.9293 21.0245 0.0000 0.0000 0.0000
# 3 42.6045 21.0245 106.0777 0.0000 0.0000 0.0000
# 4 0.0000 0.0000 0.0000 20.9561 0.0000 0.0000
# 5 0.0000 0.0000 0.0000 0.0000 1.8467 0.0000
# 6 0.0000 0.0000 0.0000 0.0000 0.0000 22.7393
#
#
#
# Elastic Compliance Matrix: (Units=1/GPa)
#
#
# Indices 1 2 3 4 5 6 
#
# 1 0.012562 -0.001090 -0.004829 0.000000 0.000000 0.000000
# 2 -0.001090 0.011235 -0.001789 0.000000 0.000000 0.000000
# 3 -0.004829 -0.001789 0.011721 0.000000 0.000000 0.000000
# 4 0.000000 0.000000 0.000000 0.047719 0.000000 0.000000
# 5 0.000000 0.000000 0.000000 0.000000 0.541492 0.000000
# 6 0.000000 0.000000 0.000000 0.000000 0.000000 0.043977
#
#
# Mechanical properties :
#
#
# Convention : Reuss Voigt Hill
#
# Bulk Modulus (GPa) = 49.74674 50.79125 50.26900
# Shear Modulus (GPa) = 7.23773 23.61074 15.42424
#
# Velocity S-wave (km/s) = 1.83104 3.30712 2.67299
# Velocity P-wave (km/s) = 5.24539 6.17337 5.72820
#
# Compressibility (1/GPa) = 0.02010182
#
# Stress axis : x y z
#
# Youngs Moduli (GPa) = 79.60249 89.00648 85.31484
#
# Poissons Ratio (x) = 0.09703 0.41202
# Poissons Ratio (y) = 0.08678 0.15263
# Poissons Ratio (z) = 0.38444 0.15923
#
# Static dielectric constant tensor:
#      x y z
#    x 4.087180 0.000000 0.000000 
#    y 0.000000 4.096490 0.000000 
#    z 0.000000 0.000000 3.936230 
# 
# 
# High freq. dielectric constant tensor:
#      x y z
#    x 1.848710 0.000000 0.000000 
#    y 0.000000 1.852110 0.000000 
#    z 0.000000 0.000000 1.854430 
# 
# From -- ./inp_files/28700.got.cif
#   From: 2010.03.12/outbox.cif.g09.slc.cpg/sg23_15_cif.got.tgz:28700.got - 2010.04.14 02:50:06.
