data_PCOD8163812
_publ_section_title
;
Structure prediction by ZEFSAII (Michael W. Deem and Ramdas Pophale) SiO2 
 PCOD8163812
Probable space group: I 2 2 2
;
_chemical_formula_sum "Si O2"
_cell_formula_units_Z 56
_cell_length_a 5.016504
_cell_length_b 21.643146
_cell_length_c 26.072104
_cell_angle_alpha 90.000000
_cell_angle_beta 90.000000
_cell_angle_gamma 90.000000
_cell_volume 2830.724683
_symmetry_space_group_name_H-M "I 2 2 2"
_symmetry_group_IT_number 23
_symmetry_cell_setting 'orthorhombic'
loop_
_space_group_symop_operation_xyz
x,y,z
-x,-y,z
x,-y,-z
-x,y,-z
1/2+x,1/2+y,1/2+z
1/2-x,1/2-y,1/2+z
1/2+x,1/2-y,1/2-z
1/2-x,1/2+y,1/2-z
loop_
_atom_site_type_symbol
_atom_site_label
_atom_site_fract_x
_atom_site_fract_y
_atom_site_fract_z
Si Si1 0.074692 0.264287 0.640687
Si Si2 0.741798 0.758418 0.533322
Si Si3 0.878035 0.637722 0.723715
Si Si4 0.883263 0.934337 0.748779
Si Si5 0.070132 0.310837 0.830132
Si Si6 0.852703 0.436328 0.856612
Si Si7 0.760433 0.600654 0.033902
O O1 0.187402 0.280497 0.584056
O O2 0.053656 0.328822 0.670500
O O3 0.278305 0.217993 0.666965
O O4 0.787441 0.230089 0.639295
O O5 0.500000 0.729046 0.500000
O O6 0.670543 0.828644 0.549554
O O7 0.000000 0.759304 0.500000
O O8 0.575709 0.614318 0.723830
O O9 0.883527 0.687715 0.769314
O O10 0.083379 0.580423 0.731587
O O11 0.878382 0.927938 0.686521
O O12 0.000000 0.000000 0.765757
O O13 0.066918 0.380388 0.852997
O O14 0.723861 0.437504 0.913358
O O15 0.000000 0.500000 0.844231
O O16 0.500000 0.593603 0.000000
O O17 0.000000 0.572829 0.000000
#
# Coordination Sequence:
#
# PCOD8163812 Si02
#       7
#     8   8   8   8   8   8   8
#     4  12  22  38  61  85 118 149 189 245 297 351
#     4  10  21  37  58  81 111 154 194 233 298 355
#     4  11  23  37  60  90 116 149 196 231 288 356
#     4  11  23  42  60  85 121 155 187 233 289 354
#     4  11  22  36  57  83 116 151 189 249 303 350
#     4  11  24  41  62  82 109 159 214 254 297 348
#     4  10  23  39  58  76 107 148 202 261 305 338
#
# _framework density 19.782917999999999
#
# number of rings (size 3 to 8) (size 9 to 14) (size 15 to 20)
#    0.000    1.143    1.429    6.429    4.000    2.571 
#    0.000    0.714    0.000    0.000    0.000    0.000 
#    0.000    8.571    0.000    0.000    0.000    0.000 
#
# Total GULP energy -347196.405397 kJ/mol
# GULP energy per Si atom -12399.871621 kJ/mol
# Density = 1.973789 g / cm^3
# Si number density = 19.782918 Si / 1000 Ang^3
#
#
#
# Elastic Constant Matrix: (Units=GPa)
#
#
# Indices 1 2 3 4 5 6 
#
# 1 94.6300 26.5958 18.2291 0.0000 0.0000 0.0000
# 2 26.5958 70.7614 48.8574 0.0000 0.0000 0.0000
# 3 18.2291 48.8574 95.8705 0.0000 0.0000 0.0000
# 4 0.0000 0.0000 0.0000 27.0917 0.0000 0.0000
# 5 0.0000 0.0000 0.0000 0.0000 21.2035 0.0000
# 6 0.0000 0.0000 0.0000 0.0000 0.0000 22.9195
#
#
#
# Elastic Compliance Matrix: (Units=1/GPa)
#
#
# Indices 1 2 3 4 5 6 
#
# 1 0.011816 -0.004459 0.000025 0.000000 0.000000 0.000000
# 2 -0.004459 0.023487 -0.011121 0.000000 0.000000 0.000000
# 3 0.000025 -0.011121 0.016094 0.000000 0.000000 0.000000
# 4 0.000000 0.000000 0.000000 0.036912 0.000000 0.000000
# 5 0.000000 0.000000 0.000000 0.000000 0.047162 0.000000
# 6 0.000000 0.000000 0.000000 0.000000 0.000000 0.043631
#
#
# Mechanical properties :
#
#
# Convention : Reuss Voigt Hill
#
# Bulk Modulus (GPa) = 49.29305 49.84739 49.57022
# Shear Modulus (GPa) = 23.04448 25.41492 24.22970
#
# Velocity S-wave (km/s) = 3.41672 3.58815 3.50348
# Velocity P-wave (km/s) = 6.36682 6.51293 6.44029
#
# Compressibility (1/GPa) = 0.02028684
#
# Stress axis : x y z
#
# Youngs Moduli (GPa) = 84.63361 42.57747 62.13659
#
# Poissons Ratio (x) = 0.18983 -0.00158
# Poissons Ratio (y) = 0.37734 0.69105
# Poissons Ratio (z) = -0.00216 0.47352
#
# Static dielectric constant tensor:
#      x y z
#    x 3.784120 0.000000 0.000000 
#    y 0.000000 3.367680 0.000000 
#    z 0.000000 0.000000 3.556110 
# 
# 
# High freq. dielectric constant tensor:
#      x y z
#    x 1.789280 0.000000 0.000000 
#    y 0.000000 1.730920 0.000000 
#    z 0.000000 0.000000 1.759240 
# 
# From -- ./inp_files/27708.got.cif
#   From: 2010.03.12/outbox.cif.g09.slc.cpg/sg23_14_cif.got.tgz:27708.got - 2010.04.14 02:50:06.
