data_PCOD8163391
_publ_section_title
;
Structure prediction by ZEFSAII (Michael W. Deem and Ramdas Pophale) SiO2 
 PCOD8163391
Probable space group: I 2 2 2
;
_chemical_formula_sum "Si O2"
_cell_formula_units_Z 64
_cell_length_a 16.373944
_cell_length_b 13.451177
_cell_length_c 14.797935
_cell_angle_alpha 90.000000
_cell_angle_beta 90.000000
_cell_angle_gamma 90.000000
_cell_volume 3259.227706
_symmetry_space_group_name_H-M "I 2 2 2"
_symmetry_group_IT_number 23
_symmetry_cell_setting 'orthorhombic'
loop_
_space_group_symop_operation_xyz
x,y,z
-x,-y,z
x,-y,-z
-x,y,-z
1/2+x,1/2+y,1/2+z
1/2-x,1/2-y,1/2+z
1/2+x,1/2-y,1/2-z
1/2-x,1/2+y,1/2-z
loop_
_atom_site_type_symbol
_atom_site_label
_atom_site_fract_x
_atom_site_fract_y
_atom_site_fract_z
Si Si1 0.923029 0.429500 0.222097
Si Si2 0.677437 0.665870 0.871023
Si Si3 0.747808 0.987487 0.717495
Si Si4 0.865206 0.260204 0.333109
Si Si5 0.501042 0.385663 0.106535
Si Si6 0.298984 0.326521 0.341490
Si Si7 0.587414 0.209929 0.545958
Si Si8 0.250686 0.840962 0.447456
O O1 0.848665 0.505674 0.224869
O O2 0.916440 0.361135 0.313459
O O3 0.924332 0.369471 0.126734
O O4 0.000000 0.500000 0.229936
O O5 0.713362 0.596443 0.791714
O O6 0.581038 0.670552 0.856917
O O7 0.714389 0.777332 0.876730
O O8 0.703594 0.614686 0.965805
O O9 0.785298 0.939664 0.809874
O O10 0.766231 0.917916 0.632480
O O11 0.817314 0.245399 0.241122
O O12 0.796775 0.261074 0.413897
O O13 0.924902 0.167641 0.349015
O O14 0.500000 0.500000 0.138079
O O15 0.500000 0.375254 0.000000
O O16 0.372843 0.312524 0.414112
O O17 0.500000 0.231872 0.500000
O O18 0.652834 0.171749 0.470595
#
# Coordination Sequence:
#
# PCOD8163391 Si02
#       8
#     8   8   8   8   8   8   8   8
#     4  11  23  36  57  92 126 160 198 248 306 373
#     4  11  20  36  57  89 114 150 195 240 298 355
#     4  11  20  35  60  84 123 156 197 242 301 368
#     4  10  20  40  53  84 126 154 196 239 301 371
#     4  11  22  33  57  88 114 144 186 245 298 345
#     4   9  21  37  55  85 120 160 192 238 302 364
#     4  10  20  38  58  91 124 150 204 253 309 358
#     4  10  19  33  61  85 117 156 188 248 303 352
#
# _framework density 19.636554
#
# number of rings (size 3 to 8) (size 9 to 14) (size 15 to 20)
#    0.000    1.625    5.000    2.625    3.500    1.250 
#    2.250    0.000    0.000    6.375    0.000    6.125 
#    0.000    0.000    0.000    0.000    0.000    0.000 
#
# Total GULP energy -396421.639576 kJ/mol
# GULP energy per Si atom -12388.176237 kJ/mol
# Density = 1.959186 g / cm^3
# Si number density = 19.636554 Si / 1000 Ang^3
#
#
#
# Elastic Constant Matrix: (Units=GPa)
#
#
# Indices 1 2 3 4 5 6 
#
# 1 130.9152 32.3504 31.8016 0.0000 0.0000 0.0000
# 2 32.3504 74.1569 37.5528 0.0000 0.0000 0.0000
# 3 31.8016 37.5528 51.9796 0.0000 0.0000 0.0000
# 4 0.0000 0.0000 0.0000 29.6465 0.0000 0.0000
# 5 0.0000 0.0000 0.0000 0.0000 30.2972 0.0000
# 6 0.0000 0.0000 0.0000 0.0000 0.0000 21.7017
#
#
#
# Elastic Compliance Matrix: (Units=1/GPa)
#
#
# Indices 1 2 3 4 5 6 
#
# 1 0.009125 -0.001819 -0.004268 0.000000 0.000000 0.000000
# 2 -0.001819 0.021627 -0.014512 0.000000 0.000000 0.000000
# 3 -0.004268 -0.014512 0.032334 0.000000 0.000000 0.000000
# 4 0.000000 0.000000 0.000000 0.033731 0.000000 0.000000
# 5 0.000000 0.000000 0.000000 0.000000 0.033006 0.000000
# 6 0.000000 0.000000 0.000000 0.000000 0.000000 0.046079
#
#
# Mechanical properties :
#
#
# Convention : Reuss Voigt Hill
#
# Bulk Modulus (GPa) = 45.68843 51.16235 48.42539
# Shear Modulus (GPa) = 22.28199 26.68554 24.48377
#
# Velocity S-wave (km/s) = 3.37221 3.69042 3.53490
# Velocity P-wave (km/s) = 6.20322 6.65358 6.43235
#
# Compressibility (1/GPa) = 0.02188738
#
# Stress axis : x y z
#
# Youngs Moduli (GPa) = 109.58965 46.23823 30.92746
#
# Poissons Ratio (x) = 0.08411 0.13201
# Poissons Ratio (y) = 0.19936 0.44881
# Poissons Ratio (z) = 0.46778 0.67099
#
# Static dielectric constant tensor:
#      x y z
#    x 3.860130 0.000000 0.000000 
#    y 0.000000 3.535360 0.000000 
#    z 0.000000 0.000000 3.717530 
# 
# 
# High freq. dielectric constant tensor:
#      x y z
#    x 1.780140 0.000000 0.000000 
#    y 0.000000 1.735570 0.000000 
#    z 0.000000 0.000000 1.751040 
# 
# From -- ./inp_files/22180.got.cif
#   From: 2010.03.12/outbox.cif.g09.slc.cpg/sg23_12_cif.got.tgz:22180.got - 2010.04.14 02:50:06.
