data_PCOD8163117
_publ_section_title
;
Structure prediction by ZEFSAII (Michael W. Deem and Ramdas Pophale) SiO2 
 PCOD8163117
Probable space group: F 2 2 2
;
_chemical_formula_sum "Si O2"
_cell_formula_units_Z 88
_cell_length_a 22.938216
_cell_length_b 14.586692
_cell_length_c 11.380286
_cell_angle_alpha 90.000000
_cell_angle_beta 90.000000
_cell_angle_gamma 90.000000
_cell_volume 3807.760526
_symmetry_space_group_name_H-M "F 2 2 2"
_symmetry_group_IT_number 22
_symmetry_cell_setting 'orthorhombic'
loop_
_space_group_symop_operation_xyz
x,y,z
-x,-y,z
x,-y,-z
-x,y,-z
x,1/2+y,1/2+z
-x,1/2-y,1/2+z
x,1/2-y,1/2-z
-x,1/2+y,1/2-z
1/2+x,y,1/2+z
1/2-x,-y,1/2+z
1/2+x,-y,1/2-z
1/2-x,y,1/2-z
1/2+x,1/2+y,z
1/2-x,1/2-y,z
1/2+x,1/2-y,-z
1/2-x,1/2+y,-z
loop_
_atom_site_type_symbol
_atom_site_label
_atom_site_fract_x
_atom_site_fract_y
_atom_site_fract_z
Si Si1 0.825139 0.865322 0.488020
Si Si2 0.293566 0.074913 0.400271
Si Si3 0.602336 0.805772 0.462533
Si Si4 0.847883 0.994888 0.690584
Si Si5 0.475513 0.250000 0.250000
Si Si6 0.043264 0.083392 0.828980
O O1 0.761498 0.857529 0.423797
O O2 0.855053 0.769302 0.520845
O O3 0.818203 0.916123 0.611942
O O4 0.866287 0.922100 0.397168
O O5 0.355529 0.125226 0.396157
O O6 0.293168 0.000000 0.500000
O O7 0.294467 0.026220 0.273434
O O8 0.561729 0.755740 0.368485
O O9 0.563370 0.861243 0.555420
O O10 0.902718 0.959754 0.762117
O O11 0.513842 0.157176 0.241482
O O12 0.000000 0.000000 0.864148
#
# Coordination Sequence:
#
# PCOD8163117 Si02
#       6
#    16  16  16  16   8  16
#     4  11  25  45  71 107 148 186 228 302 368 436
#     4  12  23  43  73 105 138 185 234 287 357 437
#     4  12  26  46  72 105 143 185 243 301 366 432
#     4  11  24  44  72 102 145 188 243 291 362 435
#     4  12  28  44  69 108 143 188 248 310 370 430
#     4  12  26  47  74 103 142 195 251 305 364 434
#
# _framework density 23.110696999999998
#
# number of rings (size 3 to 8) (size 9 to 14) (size 15 to 20)
#    0.000    0.364    3.636    6.000    0.000    2.182 
#    0.000    8.182    4.000    0.000    0.000    0.000 
#    0.000    0.000    0.000    0.000    0.000    0.000 
#
# Total GULP energy -272679.193495 kJ/mol
# GULP energy per Si atom -12394.508795 kJ/mol
# Density = 2.305810 g / cm^3
# Si number density = 23.110697 Si / 1000 Ang^3
#
#
#
# Elastic Constant Matrix: (Units=GPa)
#
#
# Indices 1 2 3 4 5 6 
#
# 1 164.1685 67.8648 65.4423 0.0000 0.0000 0.0000
# 2 67.8648 130.6115 50.7459 0.0000 0.0000 0.0000
# 3 65.4423 50.7459 136.6885 0.0000 0.0000 0.0000
# 4 0.0000 0.0000 0.0000 28.0182 0.0000 0.0000
# 5 0.0000 0.0000 0.0000 0.0000 20.7939 0.0000
# 6 0.0000 0.0000 0.0000 0.0000 0.0000 56.8026
#
#
#
# Elastic Compliance Matrix: (Units=1/GPa)
#
#
# Indices 1 2 3 4 5 6 
#
# 1 0.008632 -0.003365 -0.002883 0.000000 0.000000 0.000000
# 2 -0.003365 0.010258 -0.002198 0.000000 0.000000 0.000000
# 3 -0.002883 -0.002198 0.009512 0.000000 0.000000 0.000000
# 4 0.000000 0.000000 0.000000 0.035691 0.000000 0.000000
# 5 0.000000 0.000000 0.000000 0.000000 0.048091 0.000000
# 6 0.000000 0.000000 0.000000 0.000000 0.000000 0.017605
#
#
# Mechanical properties :
#
#
# Convention : Reuss Voigt Hill
#
# Bulk Modulus (GPa) = 86.87358 88.84162 87.85760
# Shear Modulus (GPa) = 33.21876 37.61730 35.41803
#
# Velocity S-wave (km/s) = 3.79539 4.03885 3.91901
# Velocity P-wave (km/s) = 7.54178 7.76370 7.65354
#
# Compressibility (1/GPa) = 0.01151098
#
# Stress axis : x y z
#
# Youngs Moduli (GPa) = 115.85321 97.48163 105.12768
#
# Poissons Ratio (x) = 0.32799 0.30313
# Poissons Ratio (y) = 0.38980 0.23102
# Poissons Ratio (z) = 0.33405 0.21422
#
# Static dielectric constant tensor:
#      x y z
#    x 4.741460 0.000000 0.000000 
#    y 0.000000 4.430330 0.000000 
#    z 0.000000 0.000000 4.052060 
# 
# 
# High freq. dielectric constant tensor:
#      x y z
#    x 1.930650 0.000000 0.000000 
#    y 0.000000 1.917890 0.000000 
#    z 0.000000 0.000000 1.917430 
# 
# From -- ./inp_files/23642.got.cif
#   From: 2010.03.12/outbox.cif.g09.slc.cpg/sg22_12_cif.got.tgz:23642.got - 2010.04.14 02:24:06.
