data_PCOD8163432
_publ_section_title
;
Structure prediction by ZEFSAII (Michael W. Deem and Ramdas Pophale) SiO2 
 PCOD8163432
Probable space group: I 2 2 2
;
_chemical_formula_sum "Si O2"
_cell_formula_units_Z 48
_cell_length_a 27.487673
_cell_length_b 8.689520
_cell_length_c 10.827186
_cell_angle_alpha 90.000000
_cell_angle_beta 90.000000
_cell_angle_gamma 90.000000
_cell_volume 2586.124094
_symmetry_space_group_name_H-M "I 2 2 2"
_symmetry_group_IT_number 23
_symmetry_cell_setting 'orthorhombic'
loop_
_space_group_symop_operation_xyz
x,y,z
-x,-y,z
x,-y,-z
-x,y,-z
1/2+x,1/2+y,1/2+z
1/2-x,1/2-y,1/2+z
1/2+x,1/2-y,1/2-z
1/2-x,1/2+y,1/2-z
loop_
_atom_site_type_symbol
_atom_site_label
_atom_site_fract_x
_atom_site_fract_y
_atom_site_fract_z
Si Si1 0.673460 0.664713 0.384210
Si Si2 0.629902 0.868188 0.588203
Si Si3 0.661078 0.075961 0.806267
Si Si4 0.000000 0.000000 0.691900
Si Si5 0.760016 0.500000 0.500000
Si Si6 0.084237 0.939019 0.874566
Si Si7 0.000000 0.742396 0.500000
Si Si8 0.080459 0.500000 0.500000
O O1 0.665912 0.771191 0.503120
O O2 0.665777 0.759653 0.259241
O O3 0.728046 0.607761 0.409937
O O4 0.637389 0.519553 0.369977
O O5 0.588873 0.747084 0.632422
O O6 0.605902 0.000000 0.500000
O O7 0.660073 0.939716 0.703371
O O8 0.705885 0.082462 0.900320
O O9 0.611587 0.055818 0.883025
O O10 0.950341 0.013033 0.765554
O O11 0.011703 0.151913 0.615862
O O12 0.058869 0.000000 0.000000
O O13 0.953418 0.642060 0.461465
#
# Coordination Sequence:
#
# PCOD8163432 Si02
#       8
#     8   8   8   4   4   8   4   4
#     4  10  20  37  55  79 111 150 183 234 290 328
#     4   9  18  35  56  80 109 150 184 229 283 334
#     4  10  22  35  59  80 110 146 193 232 279 345
#     4  11  21  34  56  88 107 147 184 228 280 339
#     4  11  22  35  56  82 112 147 190 235 288 328
#     4  10  19  35  58  79 113 144 183 233 278 333
#     4  10  22  36  58  80 116 142 184 224 286 346
#     4  10  20  41  56  82 110 149 182 234 282 338
#
# _framework density 18.560596
#
# number of rings (size 3 to 8) (size 9 to 14) (size 15 to 20)
#    0.000    2.000    2.500    2.250    2.333    0.000 
#    0.000    0.000    0.000   10.000    0.000    0.000 
#    0.000    0.000    0.000    0.000    0.000    0.000 
#
# Total GULP energy -297348.846066 kJ/mol
# GULP energy per Si atom -12389.535253 kJ/mol
# Density = 1.851835 g / cm^3
# Si number density = 18.560596 Si / 1000 Ang^3
#
#
#
# Elastic Constant Matrix: (Units=GPa)
#
#
# Indices 1 2 3 4 5 6 
#
# 1 111.4201 52.6936 55.2912 0.0000 0.0000 0.0000
# 2 52.6936 128.3524 53.7371 0.0000 0.0000 0.0000
# 3 55.2912 53.7371 112.8116 0.0000 0.0000 0.0000
# 4 0.0000 0.0000 0.0000 16.7550 0.0000 0.0000
# 5 0.0000 0.0000 0.0000 0.0000 29.6112 0.0000
# 6 0.0000 0.0000 0.0000 0.0000 0.0000 13.8673
#
#
#
# Elastic Compliance Matrix: (Units=1/GPa)
#
#
# Indices 1 2 3 4 5 6 
#
# 1 0.012893 -0.003307 -0.004744 0.000000 0.000000 0.000000
# 2 -0.003307 0.010580 -0.003419 0.000000 0.000000 0.000000
# 3 -0.004744 -0.003419 0.012818 0.000000 0.000000 0.000000
# 4 0.000000 0.000000 0.000000 0.059684 0.000000 0.000000
# 5 0.000000 0.000000 0.000000 0.000000 0.033771 0.000000
# 6 0.000000 0.000000 0.000000 0.000000 0.000000 0.072112
#
#
# Mechanical properties :
#
#
# Convention : Reuss Voigt Hill
#
# Bulk Modulus (GPa) = 74.89769 75.11421 75.00595
# Shear Modulus (GPa) = 21.81044 24.77085 23.29064
#
# Velocity S-wave (km/s) = 3.43168 3.65717 3.54622
# Velocity P-wave (km/s) = 7.49284 7.64139 7.56748
#
# Compressibility (1/GPa) = 0.01335155
#
# Stress axis : x y z
#
# Youngs Moduli (GPa) = 77.56063 94.51702 78.01524
#
# Poissons Ratio (x) = 0.31257 0.37010
# Poissons Ratio (y) = 0.25649 0.26673
# Poissons Ratio (z) = 0.36794 0.32315
#
# Static dielectric constant tensor:
#      x y z
#    x 3.219480 0.000000 0.000000 
#    y 0.000000 3.614710 0.000000 
#    z 0.000000 0.000000 3.667200 
# 
# 
# High freq. dielectric constant tensor:
#      x y z
#    x 1.705300 0.000000 0.000000 
#    y 0.000000 1.729180 0.000000 
#    z 0.000000 0.000000 1.732640 
# 
# From -- ./inp_files/18341.got.cif
#   From: 2010.03.12/outbox.cif.g09.slc.cpg/sg23_10_cif.got.tgz:18341.got - 2010.04.14 02:50:06.
