data_PCOD8163964
_publ_section_title
;
Structure prediction by ZEFSAII (Michael W. Deem and Ramdas Pophale) SiO2 
 PCOD8163964
Probable space group: I 2 2 2
;
_chemical_formula_sum "Si O2"
_cell_formula_units_Z 34
_cell_length_a 13.908157
_cell_length_b 5.013671
_cell_length_c 26.063085
_cell_angle_alpha 90.000000
_cell_angle_beta 90.000000
_cell_angle_gamma 90.000000
_cell_volume 1817.402984
_symmetry_space_group_name_H-M "I 2 2 2"
_symmetry_group_IT_number 23
_symmetry_cell_setting 'orthorhombic'
loop_
_space_group_symop_operation_xyz
x,y,z
-x,-y,z
x,-y,-z
-x,y,-z
1/2+x,1/2+y,1/2+z
1/2-x,1/2-y,1/2+z
1/2+x,1/2-y,1/2-z
1/2-x,1/2+y,1/2-z
loop_
_atom_site_type_symbol
_atom_site_label
_atom_site_fract_x
_atom_site_fract_y
_atom_site_fract_z
Si Si1 0.000000 0.000000 0.167730
Si Si2 0.500000 0.000000 0.738239
Si Si3 0.682777 0.896358 0.552041
Si Si4 0.293270 0.961051 0.223004
Si Si5 0.500000 0.000000 0.500000
Si Si6 0.195540 0.080273 0.882983
O O1 0.975598 0.251281 0.202715
O O2 0.906164 0.952622 0.133590
O O3 0.408297 0.057173 0.773784
O O4 0.571365 0.825321 0.536328
O O5 0.733312 0.629708 0.573949
O O6 0.736800 0.000000 0.500000
O O7 0.684628 0.125664 0.594810
O O8 0.255007 0.251145 0.238490
O O9 0.268588 0.902069 0.164157
#
# Coordination Sequence:
#
# PCOD8163964 Si02
#       6
#     4   4   8   8   2   8
#     4  12  22  32  59  82 118 154 201 216 286 338
#     4  12  22  41  54  86 116 158 188 247 272 330
#     4  10  22  35  52  79 113 149 184 233 278 338
#     4  12  23  40  57  85 117 152 197 237 277 342
#     4   8  20  36  52  78 124 132 192 228 280 342
#     4  12  21  36  56  81 113 158 187 224 283 342
#
# _framework density 18.708013999999999
#
# number of rings (size 3 to 8) (size 9 to 14) (size 15 to 20)
#    0.706    0.000    4.706    4.941    0.000    0.941 
#    0.000    0.000    0.000    0.000    0.000    4.941 
#    0.000    0.000    0.000    0.000    0.000    0.000 
#
# Total GULP energy -210761.619956 kJ/mol
# GULP energy per Si atom -12397.742350 kJ/mol
# Density = 1.866543 g / cm^3
# Si number density = 18.708014 Si / 1000 Ang^3
#
#
#
# Elastic Constant Matrix: (Units=GPa)
#
#
# Indices 1 2 3 4 5 6 
#
# 1 79.0583 4.1119 29.4024 0.0000 0.0000 0.0000
# 2 4.1119 89.4815 25.8468 0.0000 0.0000 0.0000
# 3 29.4024 25.8468 103.6355 0.0000 0.0000 0.0000
# 4 0.0000 0.0000 0.0000 31.1654 0.0000 0.0000
# 5 0.0000 0.0000 0.0000 0.0000 40.0556 0.0000
# 6 0.0000 0.0000 0.0000 0.0000 0.0000 13.8597
#
#
#
# Elastic Compliance Matrix: (Units=1/GPa)
#
#
# Indices 1 2 3 4 5 6 
#
# 1 0.014166 0.000550 -0.004156 0.000000 0.000000 0.000000
# 2 0.000550 0.012064 -0.003165 0.000000 0.000000 0.000000
# 3 -0.004156 -0.003165 0.011618 0.000000 0.000000 0.000000
# 4 0.000000 0.000000 0.000000 0.032087 0.000000 0.000000
# 5 0.000000 0.000000 0.000000 0.000000 0.024965 0.000000
# 6 0.000000 0.000000 0.000000 0.000000 0.000000 0.072152
#
#
# Mechanical properties :
#
#
# Convention : Reuss Voigt Hill
#
# Bulk Modulus (GPa) = 41.14323 43.43305 42.28814
# Shear Modulus (GPa) = 26.49763 31.20376 28.85069
#
# Velocity S-wave (km/s) = 3.76756 4.08847 3.93129
# Velocity P-wave (km/s) = 6.40048 6.74938 6.57724
#
# Compressibility (1/GPa) = 0.02430533
#
# Stress axis : x y z
#
# Youngs Moduli (GPa) = 70.59165 82.88857 86.07616
#
# Poissons Ratio (x) = -0.04555 0.35774
# Poissons Ratio (y) = -0.03879 0.27241
# Poissons Ratio (z) = 0.29338 0.26232
#
# Static dielectric constant tensor:
#      x y z
#    x 3.113190 0.000000 0.000000 
#    y 0.000000 3.376990 0.000000 
#    z 0.000000 0.000000 3.542340 
# 
# 
# High freq. dielectric constant tensor:
#      x y z
#    x 1.675450 0.000000 0.000000 
#    y 0.000000 1.740280 0.000000 
#    z 0.000000 0.000000 1.735880 
# 
# From -- ./inp_files/19122.got.cif
#   From: 2010.03.12/outbox.cif.g09.slc.cpg/sg23_10_cif.got.tgz:19122.got - 2010.04.14 02:50:06.
