data_PCOD8163507
_publ_section_title
;
Structure prediction by ZEFSAII (Michael W. Deem and Ramdas Pophale) SiO2 
 PCOD8163507
Probable space group: I 2 2 2
;
_chemical_formula_sum "Si O2"
_cell_formula_units_Z 64
_cell_length_a 22.560290
_cell_length_b 9.232857
_cell_length_c 19.872264
_cell_angle_alpha 90.000000
_cell_angle_beta 90.000000
_cell_angle_gamma 90.000000
_cell_volume 4139.311740
_symmetry_space_group_name_H-M "I 2 2 2"
_symmetry_group_IT_number 23
_symmetry_cell_setting 'orthorhombic'
loop_
_space_group_symop_operation_xyz
x,y,z
-x,-y,z
x,-y,-z
-x,y,-z
1/2+x,1/2+y,1/2+z
1/2-x,1/2-y,1/2+z
1/2+x,1/2-y,1/2-z
1/2-x,1/2+y,1/2-z
loop_
_atom_site_type_symbol
_atom_site_label
_atom_site_fract_x
_atom_site_fract_y
_atom_site_fract_z
Si Si1 0.164900 0.160078 0.721733
Si Si2 0.149373 0.333394 0.078239
Si Si3 0.335100 0.339922 0.778267
Si Si4 0.649373 0.833394 0.421761
Si Si5 0.068163 0.829901 0.178877
Si Si6 0.246947 0.161466 0.851847
Si Si7 0.246947 0.161466 0.148153
Si Si8 0.568163 0.329901 0.321123
O O1 0.101342 0.211515 0.751199
O O2 0.209520 0.156019 0.784070
O O3 0.188827 0.267914 0.664190
O O4 0.159845 0.000000 0.689738
O O5 0.154309 0.500000 0.101322
O O6 0.212042 0.256350 0.093347
O O7 0.095128 0.258410 0.116833
O O8 0.134968 0.319871 0.000000
O O9 0.311173 0.232086 0.835810
O O10 0.290481 0.343981 0.715930
O O11 0.398658 0.288485 0.748801
O O12 0.595128 0.758410 0.383167
O O13 0.712042 0.756350 0.406653
O O14 0.000000 0.786992 0.187309
O O15 0.077173 0.000000 0.163576
O O16 0.257259 0.000000 0.880449
#
# Coordination Sequence:
#
# PCOD8163507 Si02
#       8
#     8   8   8   8   8   8   8   8
#     4   8  14  25  41  60  81 103 129 166 209 247
#     4  10  20  31  42  58  82 112 144 176 209 244
#     4   8  14  25  41  60  81 103 129 166 209 247
#     4  10  20  31  42  58  82 112 144 176 209 244
#     4   9  18  31  45  61  82 111 145 175 203 239
#     4   9  16  26  42  61  79 102 133 169 209 250
#     4   9  16  26  42  61  79 102 133 169 209 250
#     4   9  18  31  45  61  82 111 145 175 203 239
#
# _framework density 15.461508
#
# number of rings (size 3 to 8) (size 9 to 14) (size 15 to 20)
#    0.000    3.000    0.000    3.000    0.000    9.000 
#    0.000    2.500    0.000    0.000    0.000    0.000 
#    0.000    1.000    0.000   11.500    0.000    3.750 
#
# Total GULP energy -396665.144405 kJ/mol
# GULP energy per Si atom -12395.785763 kJ/mol
# Density = 1.542632 g / cm^3
# Si number density = 15.461508 Si / 1000 Ang^3
#
#
#
# Elastic Constant Matrix: (Units=GPa)
#
#
# Indices 1 2 3 4 5 6 
#
# 1 112.6834 62.8737 50.1016 0.0000 0.0000 0.0000
# 2 62.8737 102.6823 30.6797 0.0000 0.0000 0.0000
# 3 50.1016 30.6797 24.9698 0.0000 0.0000 0.0000
# 4 0.0000 0.0000 0.0000 21.0816 0.0000 0.0000
# 5 0.0000 0.0000 0.0000 0.0000 15.1262 0.0000
# 6 0.0000 0.0000 0.0000 0.0000 0.0000 23.2044
#
#
#
# Elastic Compliance Matrix: (Units=1/GPa)
#
#
# Indices 1 2 3 4 5 6 
#
# 1 0.082448 -0.001669 -0.163380 0.000000 0.000000 0.000000
# 2 -0.001669 0.015421 -0.015599 0.000000 0.000000 0.000000
# 3 -0.163380 -0.015599 0.387035 0.000000 0.000000 0.000000
# 4 0.000000 0.000000 0.000000 0.047435 0.000000 0.000000
# 5 0.000000 0.000000 0.000000 0.000000 0.066110 0.000000
# 6 0.000000 0.000000 0.000000 0.000000 0.000000 0.043095
#
#
# Mechanical properties :
#
#
# Convention : Reuss Voigt Hill
#
# Bulk Modulus (GPa) = 8.09015 58.62728 33.35872
# Shear Modulus (GPa) = 4.78907 18.32781 11.55844
#
# Velocity S-wave (km/s) = 1.76186 3.44667 2.73712
# Velocity P-wave (km/s) = 3.06311 7.33757 5.62239
#
# Compressibility (1/GPa) = 0.12360709
#
# Stress axis : x y z
#
# Youngs Moduli (GPa) = 12.12885 64.84474 2.58375
#
# Poissons Ratio (x) = 0.10821 0.42213
# Poissons Ratio (y) = 0.02024 0.04031
# Poissons Ratio (z) = 1.98161 1.01154
#
# Static dielectric constant tensor:
#      x y z
#    x 3.052320 0.000000 0.000000 
#    y 0.000000 3.217220 0.000000 
#    z 0.000000 0.000000 2.632560 
# 
# 
# High freq. dielectric constant tensor:
#      x y z
#    x 1.576260 0.000000 0.000000 
#    y 0.000000 1.606660 0.000000 
#    z 0.000000 0.000000 1.547830 
# 
# From -- ./inp_files/12281.got.cif
#   From: 2010.03.12/outbox.cif.g09.slc.cpg/sg23_7_cif.got.tgz:12281.got - 2010.04.14 02:50:06.
