data_PCOD8163602
_publ_section_title
;
Structure prediction by ZEFSAII (Michael W. Deem and Ramdas Pophale) SiO2 
 PCOD8163602
Probable space group: I 2 2 2
;
_chemical_formula_sum "Si O2"
_cell_formula_units_Z 64
_cell_length_a 9.366881
_cell_length_b 16.543067
_cell_length_c 22.016452
_cell_angle_alpha 90.000000
_cell_angle_beta 90.000000
_cell_angle_gamma 90.000000
_cell_volume 3411.602031
_symmetry_space_group_name_H-M "I 2 2 2"
_symmetry_group_IT_number 23
_symmetry_cell_setting 'orthorhombic'
loop_
_space_group_symop_operation_xyz
x,y,z
-x,-y,z
x,-y,-z
-x,y,-z
1/2+x,1/2+y,1/2+z
1/2-x,1/2-y,1/2+z
1/2+x,1/2-y,1/2-z
1/2-x,1/2+y,1/2-z
loop_
_atom_site_type_symbol
_atom_site_label
_atom_site_fract_x
_atom_site_fract_y
_atom_site_fract_z
Si Si1 0.164321 1.000000 0.428466
Si Si2 0.165737 0.821989 0.120812
Si Si3 0.330252 0.408531 0.500000
Si Si4 0.664370 0.136236 0.362541
Si Si5 0.833597 0.406729 0.273246
Si Si6 0.834263 0.821989 0.120812
Si Si7 0.335629 0.136236 0.362541
Si Si8 0.333595 0.093270 0.773245
O O1 0.237678 0.079996 0.403197
O O2 0.182117 0.000000 0.500000
O O3 0.237679 0.920002 0.403199
O O4 0.000000 0.000000 0.408304
O O5 0.227341 0.863287 0.059858
O O6 0.190870 0.726802 0.114999
O O7 0.247841 0.855582 0.178321
O O8 1.000000 0.842718 0.129956
O O9 0.271617 0.500000 0.500000
O O10 0.500000 0.406701 0.500000
O O11 0.272658 0.363286 0.559858
O O12 0.690868 0.226801 0.385001
O O13 0.499999 0.109801 0.371123
O O14 0.708309 0.127629 0.292441
O O15 0.747845 0.355580 0.321680
O O16 0.791692 0.372370 0.207560
O O17 0.788074 0.499999 0.277288
O O18 0.000001 0.395332 0.286397
#
# Coordination Sequence:
#
# PCOD8163602 Si02
#       8
#     8   8   8   8   8   8   8   8
#     4  11  25  41  59  87 121 154 191 236 291 345
#     4  10  21  35  58  87 111 149 198 240 288 340
#     4   9  18  34  53  80 117 146 184 239 279 327
#     4  10  21  39  61  85 114 151 195 239 286 345
#     4  10  20  36  56  82 117 152 188 237 292 342
#     4  10  21  35  58  87 111 149 198 240 288 340
#     4  10  21  39  61  85 114 151 195 239 286 345
#     4  10  20  36  56  82 117 152 188 237 292 342
#
# _framework density 18.759515
#
# number of rings (size 3 to 8) (size 9 to 14) (size 15 to 20)
#    0.000    2.000    1.250    1.875    1.750    4.500 
#    0.000    0.625    0.000    2.250    0.000    0.000 
#    0.000    0.000    0.000    0.000    0.000    0.000 
#
# Total GULP energy -396938.749688 kJ/mol
# GULP energy per Si atom -12404.335928 kJ/mol
# Density = 1.871682 g / cm^3
# Si number density = 18.759515 Si / 1000 Ang^3
#
#
#
# Elastic Constant Matrix: (Units=GPa)
#
#
# Indices 1 2 3 4 5 6 
#
# 1 70.8064 53.4373 62.3710 0.0000 0.0000 0.0000
# 2 53.4373 117.9009 67.9383 0.0000 0.0000 0.0000
# 3 62.3710 67.9383 126.8030 0.0000 0.0000 0.0000
# 4 0.0000 0.0000 0.0000 26.1263 0.0000 0.0000
# 5 0.0000 0.0000 0.0000 0.0000 135.5233 0.0000
# 6 0.0000 0.0000 0.0000 0.0000 0.0000 -32.1983
#
#
#
# Elastic Compliance Matrix: (Units=1/GPa)
#
#
# Indices 1 2 3 4 5 6 
#
# 1 0.028401 -0.006977 -0.010232 0.000000 0.000000 0.000000
# 2 -0.006977 0.013984 -0.004060 0.000000 0.000000 0.000000
# 3 -0.010232 -0.004060 0.015095 0.000000 0.000000 0.000000
# 4 0.000000 0.000000 0.000000 0.038276 0.000000 0.000000
# 5 0.000000 0.000000 0.000000 0.000000 0.007379 0.000000
# 6 0.000000 0.000000 0.000000 0.000000 0.000000 -0.031058
#
#
# Mechanical properties :
#
#
# Convention : Reuss Voigt Hill
#
# Bulk Modulus (GPa) = 66.92830 75.88930 71.40880
# Shear Modulus (GPa) = 41.80802 34.67450 38.24126
#
# Velocity S-wave (km/s) = 4.72596 4.30393 4.51987
# Velocity P-wave (km/s) = 8.09531 8.07713 8.08622
#
# Compressibility (1/GPa) = 0.01494136
#
# Stress axis : x y z
#
# Youngs Moduli (GPa) = 35.20994 71.51264 66.24908
#
# Poissons Ratio (x) = 0.49891 0.67785
# Poissons Ratio (y) = 0.24564 0.26900
# Poissons Ratio (z) = 0.36026 0.29038
#
# Static dielectric constant tensor:
#      x y z
#    x 3.298670 0.000000 0.000000 
#    y 0.000000 3.597880 0.000000 
#    z 0.000000 0.000000 3.543040 
# 
# 
# High freq. dielectric constant tensor:
#      x y z
#    x 1.708870 0.000000 0.000000 
#    y 0.000000 1.745060 0.000000 
#    z 0.000000 0.000000 1.740420 
# 
# From -- ./inp_files/28100.got.cif
#   From: 2010.03.12/outbox.cif.g09.slc.cpg/sg23_15_cif.got.tgz:28100.got - 2010.04.14 02:50:06.
