data_PCOD8163625
_publ_section_title
;
Structure prediction by ZEFSAII (Michael W. Deem and Ramdas Pophale) SiO2 
 PCOD8163625
Probable space group: I 2 2 2
;
_chemical_formula_sum "Si O2"
_cell_formula_units_Z 60
_cell_length_a 10.615926
_cell_length_b 21.408945
_cell_length_c 13.018828
_cell_angle_alpha 90.000000
_cell_angle_beta 90.000000
_cell_angle_gamma 90.000000
_cell_volume 2958.864234
_symmetry_space_group_name_H-M "I 2 2 2"
_symmetry_group_IT_number 23
_symmetry_cell_setting 'orthorhombic'
loop_
_space_group_symop_operation_xyz
x,y,z
-x,-y,z
x,-y,-z
-x,y,-z
1/2+x,1/2+y,1/2+z
1/2-x,1/2-y,1/2+z
1/2+x,1/2-y,1/2-z
1/2-x,1/2+y,1/2-z
loop_
_atom_site_type_symbol
_atom_site_label
_atom_site_fract_x
_atom_site_fract_y
_atom_site_fract_z
Si Si1 0.310168 0.488941 0.385560
Si Si2 0.000000 0.000000 0.284114
Si Si3 0.142933 0.816834 0.506958
Si Si4 0.427507 0.098492 0.896669
Si Si5 0.165310 0.593326 0.276662
Si Si6 0.710890 0.556498 0.924091
Si Si7 0.834834 0.262451 0.311887
Si Si8 0.883643 0.730766 0.318884
O O1 0.368764 0.500000 0.500000
O O2 0.408080 0.464144 0.297726
O O3 0.200977 0.438258 0.389186
O O4 0.257148 0.555756 0.351652
O O5 0.079882 0.045330 0.360057
O O6 0.211618 0.883621 0.499999
O O7 0.177139 0.762589 0.427393
O O8 0.170453 0.789387 0.618865
O O9 0.000000 0.835669 0.500000
O O10 0.518627 0.080549 0.801925
O O11 0.400148 0.172139 0.894523
O O12 0.500000 0.080542 0.000000
O O13 0.180924 0.570120 0.159596
O O14 0.201941 0.665139 0.300314
O O15 0.744944 0.500000 0.000000
O O16 0.728418 0.218352 0.260836
O O17 0.978456 0.252836 0.269499
#
# Coordination Sequence:
#
# PCOD8163625 Si02
#       8
#     8   4   8   8   8   8   8   8
#     4  11  22  37  64  94 132 170 209 269 344 389
#     4  10  24  40  60  96 136 160 220 278 322 400
#     4  10  20  36  64  88 118 170 223 255 321 392
#     4  11  21  38  65  96 126 169 218 268 325 412
#     4  10  21  38  62  94 131 164 222 266 322 386
#     4  11  22  40  66  91 132 176 220 267 320 394
#     4  10  21  40  64  92 124 168 215 271 319 393
#     4  10  21  38  63  91 126 162 215 268 326 383
#
# _framework density 20.278051000000001
#
# number of rings (size 3 to 8) (size 9 to 14) (size 15 to 20)
#    0.000    1.600    2.667    3.600    0.000    4.267 
#    0.000    0.667    0.000   16.800    0.000    0.000 
#    0.000    0.000    0.000    0.000    0.000    0.000 
#
# Total GULP energy -371650.458205 kJ/mol
# GULP energy per Si atom -12388.348607 kJ/mol
# Density = 2.023190 g / cm^3
# Si number density = 20.278051 Si / 1000 Ang^3
#
#
#
# Elastic Constant Matrix: (Units=GPa)
#
#
# Indices 1 2 3 4 5 6 
#
# 1 103.8168 32.9311 46.7443 0.0000 0.0000 0.0000
# 2 32.9311 98.9389 46.6655 -0.0004 0.0000 0.0000
# 3 46.7443 46.6655 103.7099 -0.0015 0.0000 0.0002
# 4 0.0000 -0.0004 -0.0015 54.9328 -0.0001 0.0001
# 5 0.0000 0.0000 0.0000 -0.0001 27.1410 0.0000
# 6 0.0000 0.0000 0.0002 0.0001 0.0000 21.1519
#
#
#
# Elastic Compliance Matrix: (Units=1/GPa)
#
#
# Indices 1 2 3 4 5 6 
#
# 1 0.012356 -0.001886 -0.004720 0.000000 0.000000 0.000000
# 2 -0.001886 0.013118 -0.005052 0.000000 0.000000 0.000000
# 3 -0.004720 -0.005052 0.014043 0.000000 0.000000 0.000000
# 4 0.000000 0.000000 0.000000 0.018204 0.000000 0.000000
# 5 0.000000 0.000000 0.000000 0.000000 0.036845 0.000000
# 6 0.000000 0.000000 0.000000 0.000000 0.000000 0.047277
#
#
# Mechanical properties :
#
#
# Convention : Reuss Voigt Hill
#
# Bulk Modulus (GPa) = 61.73128 62.12749 61.92939
# Shear Modulus (GPa) = 29.31495 32.65344 30.98419
#
# Velocity S-wave (km/s) = 3.80629 4.01719 3.91316
# Velocity P-wave (km/s) = 7.05873 7.22644 7.14308
#
# Compressibility (1/GPa) = 0.01619924
#
# Stress axis : x y z
#
# Youngs Moduli (GPa) = 80.93185 76.23046 71.20824
#
# Poissons Ratio (x) = 0.14379 0.33613
# Poissons Ratio (y) = 0.15265 0.35978
# Poissons Ratio (z) = 0.38203 0.38515
#
# Static dielectric constant tensor:
#      x y z
#    x 3.656590 0.000000 0.000000 
#    y 0.000000 3.605040 0.000000 
#    z 0.000000 0.000000 3.408260 
# 
# 
# High freq. dielectric constant tensor:
#      x y z
#    x 1.780400 0.000000 0.000000 
#    y 0.000000 1.794540 0.000000 
#    z 0.000000 0.000000 1.789620 
# 
# From -- ./inp_files/15956.got.cif
#   From: 2010.03.12/outbox.cif.g09.slc.cpg/sg23_8_cif.got.tgz:15956.got - 2010.04.14 02:50:06.
