data_PCOD8163828
_publ_section_title
;
Structure prediction by ZEFSAII (Michael W. Deem and Ramdas Pophale) SiO2 
 PCOD8163828
Probable space group: I 2 2 2
;
_chemical_formula_sum "Si O2"
_cell_formula_units_Z 64
_cell_length_a 23.681841
_cell_length_b 13.747396
_cell_length_c 9.336508
_cell_angle_alpha 90.000000
_cell_angle_beta 90.000000
_cell_angle_gamma 90.000000
_cell_volume 3039.627588
_symmetry_space_group_name_H-M "I 2 2 2"
_symmetry_group_IT_number 23
_symmetry_cell_setting 'orthorhombic'
loop_
_space_group_symop_operation_xyz
x,y,z
-x,-y,z
x,-y,-z
-x,y,-z
1/2+x,1/2+y,1/2+z
1/2-x,1/2-y,1/2+z
1/2+x,1/2-y,1/2-z
1/2-x,1/2+y,1/2-z
loop_
_atom_site_type_symbol
_atom_site_label
_atom_site_fract_x
_atom_site_fract_y
_atom_site_fract_z
Si Si1 0.516214 0.890934 0.335745
Si Si2 0.618338 0.243316 0.699535
Si Si3 0.237046 0.668921 0.104558
Si Si4 0.788813 0.453906 0.360845
Si Si5 0.164694 0.575766 0.889893
Si Si6 0.654666 0.223157 0.995667
Si Si7 0.915726 0.268209 0.771135
Si Si8 0.433606 0.391734 0.511361
O O1 0.500000 0.879573 0.500000
O O2 0.580876 0.857149 0.305620
O O3 0.477667 0.813102 0.253052
O O4 0.500000 0.000000 0.281864
O O5 0.678997 0.226107 0.627814
O O6 0.587169 0.330710 0.623234
O O7 0.630949 0.282615 0.860090
O O8 0.251150 0.606903 0.250501
O O9 0.287627 0.739822 0.067766
O O10 0.224691 0.602431 0.965315
O O11 0.755839 0.500000 0.500000
O O12 0.821991 0.534870 0.268112
O O13 0.835858 0.385183 0.433912
O O14 0.122552 0.665746 0.876193
O O15 0.134167 0.500000 0.000000
O O16 0.606851 0.232963 0.112014
O O17 0.916309 0.160402 0.839570
O O18 0.407184 0.500000 0.500000
O O19 0.500000 0.397834 0.500000
#
# Coordination Sequence:
#
# PCOD8163828 Si02
#       8
#     8   8   8   8   8   8   8   8
#     4  11  23  38  70 109 139 176 227 279 348 444
#     4  11  22  45  66 100 136 179 231 282 345 408
#     4  10  23  42  63  90 139 187 229 275 341 399
#     4  10  21  38  62  96 133 179 223 269 346 413
#     4  10  21  37  68  98 135 183 220 271 341 419
#     4  11  27  40  64  96 147 182 220 280 350 409
#     4  12  22  41  68  98 142 171 228 272 353 408
#     4  11  23  45  72  97 122 168 232 290 341 401
#
# _framework density 21.055209999999999
#
# number of rings (size 3 to 8) (size 9 to 14) (size 15 to 20)
#    0.000    1.250    5.000    0.000   10.500    0.500 
#    0.000    8.750    0.000    1.500    0.000    0.000 
#    0.000    0.000    0.000    0.000    0.000    0.000 
#
# Total GULP energy -396558.474568 kJ/mol
# GULP energy per Si atom -12392.452330 kJ/mol
# Density = 2.100729 g / cm^3
# Si number density = 21.055210 Si / 1000 Ang^3
#
#
#
# Elastic Constant Matrix: (Units=GPa)
#
#
# Indices 1 2 3 4 5 6 
#
# 1 79.4620 33.8900 41.1095 0.0000 0.0000 0.0000
# 2 33.8900 123.9701 46.7844 0.0000 0.0000 0.0000
# 3 41.1095 46.7844 149.8846 0.0000 0.0000 0.0000
# 4 0.0000 0.0000 0.0000 10.5606 0.0000 0.0000
# 5 0.0000 0.0000 0.0000 0.0000 30.4464 0.0000
# 6 0.0000 0.0000 0.0000 0.0000 0.0000 18.7663
#
#
#
# Elastic Compliance Matrix: (Units=1/GPa)
#
#
# Indices 1 2 3 4 5 6 
#
# 1 0.015593 -0.003002 -0.003340 0.000000 0.000000 0.000000
# 2 -0.003002 0.009722 -0.002211 0.000000 0.000000 0.000000
# 3 -0.003340 -0.002211 0.008278 0.000000 0.000000 0.000000
# 4 0.000000 0.000000 0.000000 0.094692 0.000000 0.000000
# 5 0.000000 0.000000 0.000000 0.000000 0.032845 0.000000
# 6 0.000000 0.000000 0.000000 0.000000 0.000000 0.053287
#
#
# Mechanical properties :
#
#
# Convention : Reuss Voigt Hill
#
# Bulk Modulus (GPa) = 60.65567 66.32049 63.48808
# Shear Modulus (GPa) = 21.09555 27.39019 24.24287
#
# Velocity S-wave (km/s) = 3.16874 3.61068 3.39690
# Velocity P-wave (km/s) = 6.50064 6.99639 6.75306
#
# Compressibility (1/GPa) = 0.01648650
#
# Stress axis : x y z
#
# Youngs Moduli (GPa) = 64.13207 102.86353 120.80373
#
# Poissons Ratio (x) = 0.30883 0.40343
# Poissons Ratio (y) = 0.19255 0.26710
# Poissons Ratio (z) = 0.21417 0.22743
#
# Static dielectric constant tensor:
#      x y z
#    x 3.779630 0.000000 0.000000 
#    y 0.000000 4.066830 0.000000 
#    z 0.000000 0.000000 4.137160 
# 
# 
# High freq. dielectric constant tensor:
#      x y z
#    x 1.804330 0.000000 0.000000 
#    y 0.000000 1.814720 0.000000 
#    z 0.000000 0.000000 1.837160 
# 
# From -- ./inp_files/12729.got.cif
#   From: 2010.03.12/outbox.cif.g09.slc.cpg/sg23_7_cif.got.tgz:12729.got - 2010.04.14 02:50:06.
