data_PCOD8163367
_publ_section_title
;
Structure prediction by ZEFSAII (Michael W. Deem and Ramdas Pophale) SiO2 
 PCOD8163367
Probable space group: I 2 2 2
;
_chemical_formula_sum "Si O2"
_cell_formula_units_Z 64
_cell_length_a 17.981063
_cell_length_b 20.538288
_cell_length_c 9.133802
_cell_angle_alpha 90.000000
_cell_angle_beta 90.000000
_cell_angle_gamma 90.000000
_cell_volume 3373.115366
_symmetry_space_group_name_H-M "I 2 2 2"
_symmetry_group_IT_number 23
_symmetry_cell_setting 'orthorhombic'
loop_
_space_group_symop_operation_xyz
x,y,z
-x,-y,z
x,-y,-z
-x,y,-z
1/2+x,1/2+y,1/2+z
1/2-x,1/2-y,1/2+z
1/2+x,1/2-y,1/2-z
1/2-x,1/2+y,1/2-z
loop_
_atom_site_type_symbol
_atom_site_label
_atom_site_fract_x
_atom_site_fract_y
_atom_site_fract_z
Si Si1 0.854297 0.500000 0.834276
Si Si2 0.147308 0.371677 0.328422
Si Si3 0.322551 0.500000 0.835352
Si Si4 0.180319 0.872787 0.829446
Si Si5 0.585567 0.249868 0.667295
Si Si6 0.585567 0.750132 0.667295
Si Si7 0.319681 0.372787 0.329446
Si Si8 0.852692 0.371677 0.328422
O O1 0.883813 0.436113 0.751129
O O2 0.765901 0.500000 0.830709
O O3 0.883813 0.563887 0.751129
O O4 0.884907 0.500000 0.000000
O O5 0.100663 0.311134 0.270448
O O6 0.233712 0.360056 0.291195
O O7 0.133889 0.380077 0.500000
O O8 0.351950 0.435438 0.754809
O O9 0.351950 0.564562 0.754809
O O10 0.353352 0.500000 0.000000
O O11 0.134631 0.810165 0.776316
O O12 0.266288 0.860056 0.791195
O O13 0.168814 0.886510 0.000000
O O14 0.500000 0.270390 0.680144
O O15 0.606756 0.232000 0.500000
O O16 0.634631 0.310165 0.723684
O O17 0.600663 0.188866 0.770448
#
# Coordination Sequence:
#
# PCOD8163367 Si02
#       8
#     8   8   8   8   8   8   8   8
#     4   9  17  31  52  77 104 131 163 205 250 299
#     4  10  19  32  53  79 104 130 164 208 255 299
#     4   9  17  29  50  79 104 128 163 208 254 297
#     4   9  18  33  53  76 102 133 168 206 249 298
#     4  10  21  36  52  72 101 137 174 208 245 295
#     4  10  21  36  52  72 101 137 174 208 245 295
#     4   9  18  33  53  76 102 133 168 206 249 298
#     4  10  19  32  53  79 104 130 164 208 255 299
#
# _framework density 18.973557
#
# number of rings (size 3 to 8) (size 9 to 14) (size 15 to 20)
#    0.000    2.500    0.000    2.250    0.000    5.500 
#    0.000    1.250    0.000    7.500    0.000    0.000 
#    0.000    0.000    0.000    0.000    0.000    0.000 
#
# Total GULP energy -396901.948149 kJ/mol
# GULP energy per Si atom -12403.185880 kJ/mol
# Density = 1.893037 g / cm^3
# Si number density = 18.973557 Si / 1000 Ang^3
#
#
#
# Elastic Constant Matrix: (Units=GPa)
#
#
# Indices 1 2 3 4 5 6 
#
# 1 34.5317 20.3190 17.1059 0.0000 0.0000 0.0000
# 2 20.3190 132.8325 54.8677 0.0000 0.0000 0.0000
# 3 17.1059 54.8677 90.6191 0.0000 0.0000 0.0000
# 4 0.0000 0.0000 0.0000 33.8764 0.0000 0.0000
# 5 0.0000 0.0000 0.0000 0.0000 18.4684 0.0000
# 6 0.0000 0.0000 0.0000 0.0000 0.0000 1.9383
#
#
#
# Elastic Compliance Matrix: (Units=1/GPa)
#
#
# Indices 1 2 3 4 5 6 
#
# 1 0.032996 -0.003300 -0.004231 0.000000 0.000000 0.000000
# 2 -0.003300 0.010369 -0.005655 0.000000 0.000000 0.000000
# 3 -0.004231 -0.005655 0.015258 0.000000 0.000000 0.000000
# 4 0.000000 0.000000 0.000000 0.029519 0.000000 0.000000
# 5 0.000000 0.000000 0.000000 0.000000 0.054147 0.000000
# 6 0.000000 0.000000 0.000000 0.000000 0.000000 0.515929
#
#
# Mechanical properties :
#
#
# Convention : Reuss Voigt Hill
#
# Bulk Modulus (GPa) = 31.00607 49.17426 40.09017
# Shear Modulus (GPa) = 7.19073 21.90266 14.54669
#
# Velocity S-wave (km/s) = 1.94887 3.40130 2.77191
# Velocity P-wave (km/s) = 4.63048 6.43418 5.60535
#
# Compressibility (1/GPa) = 0.03225175
#
# Stress axis : x y z
#
# Youngs Moduli (GPa) = 30.30639 96.44126 65.53965
#
# Poissons Ratio (x) = 0.31824 0.27728
# Poissons Ratio (y) = 0.10001 0.37064
# Poissons Ratio (z) = 0.12822 0.54540
#
# Static dielectric constant tensor:
#      x y z
#    x 3.144740 0.000000 0.000000 
#    y 0.000000 3.615530 0.000000 
#    z 0.000000 0.000000 3.516450 
# 
# 
# High freq. dielectric constant tensor:
#      x y z
#    x 1.702500 0.000000 0.000000 
#    y 0.000000 1.749620 0.000000 
#    z 0.000000 0.000000 1.740780 
# 
# From -- ./inp_files/11427.got.cif
#   From: 2010.03.12/outbox.cif.g09.slc.cpg/sg23_6_cif.got.tgz:11427.got - 2010.04.14 02:50:06.
