data_PCOD8163349
_publ_section_title
;
Structure prediction by ZEFSAII (Michael W. Deem and Ramdas Pophale) SiO2 
 PCOD8163349
Probable space group: I 2 2 2
;
_chemical_formula_sum "Si O2"
_cell_formula_units_Z 52
_cell_length_a 23.582309
_cell_length_b 12.880012
_cell_length_c 9.548882
_cell_angle_alpha 90.000000
_cell_angle_beta 90.000000
_cell_angle_gamma 90.000000
_cell_volume 2900.381457
_symmetry_space_group_name_H-M "I 2 2 2"
_symmetry_group_IT_number 23
_symmetry_cell_setting 'orthorhombic'
loop_
_space_group_symop_operation_xyz
x,y,z
-x,-y,z
x,-y,-z
-x,y,-z
1/2+x,1/2+y,1/2+z
1/2-x,1/2-y,1/2+z
1/2+x,1/2-y,1/2-z
1/2-x,1/2+y,1/2-z
loop_
_atom_site_type_symbol
_atom_site_label
_atom_site_fract_x
_atom_site_fract_y
_atom_site_fract_z
Si Si1 0.279914 0.307357 0.430696
Si Si2 0.807470 0.000000 0.500000
Si Si3 0.725731 0.031826 0.253981
Si Si4 0.646796 0.837517 0.233847
Si Si5 0.348780 0.224574 0.665062
Si Si6 0.066045 0.382333 0.975640
Si Si7 0.841186 0.782006 0.470220
O O1 0.261099 0.421902 0.378311
O O2 0.313906 0.247108 0.309842
O O3 0.317321 0.314180 0.573094
O O4 0.225401 0.240267 0.469018
O O5 0.768732 0.018102 0.636064
O O6 0.848751 0.901259 0.516403
O O7 0.692680 0.126072 0.327258
O O8 0.681509 0.943735 0.206019
O O9 0.588759 0.855279 0.320166
O O10 0.628167 0.792772 0.082677
O O11 0.405982 0.192479 0.588718
O O12 0.367518 0.265360 0.816656
O O13 0.084657 0.500000 0.000000
O O14 0.000000 0.365554 0.000000
#
# Coordination Sequence:
#
# PCOD8163349 Si02
#       7
#     8   4   8   8   8   8   8
#     4  10  19  31  48  76 111 155 190 207 260 344
#     4  12  18  32  50  74 110 156 174 222 254 320
#     4  11  19  31  51  74 115 155 181 216 267 323
#     4  11  20  35  53  80 111 155 187 226 272 336
#     4  10  20  35  51  79 111 146 181 230 266 335
#     4  10  20  38  61  81 104 143 187 232 289 343
#     4  11  21  33  50  78 113 143 190 218 274 334
#
# _framework density 17.928675999999999
#
# number of rings (size 3 to 8) (size 9 to 14) (size 15 to 20)
#    0.000    1.385    6.154    1.846    0.000    2.462 
#    0.000    0.769    0.000    1.846    0.000    3.231 
#    0.000    0.000    0.000    0.000    0.000    0.000 
#
# Total GULP energy -322352.021755 kJ/mol
# GULP energy per Si atom -12398.154683 kJ/mol
# Density = 1.788787 g / cm^3
# Si number density = 17.928676 Si / 1000 Ang^3
#
#
#
# Elastic Constant Matrix: (Units=GPa)
#
#
# Indices 1 2 3 4 5 6 
#
# 1 59.4088 33.2956 40.8240 0.0000 0.0000 0.0000
# 2 33.2956 93.1345 56.7106 0.0000 0.0000 0.0000
# 3 40.8240 56.7106 142.2528 0.0000 0.0000 0.0000
# 4 0.0000 0.0000 0.0000 28.5880 0.0000 0.0000
# 5 0.0000 0.0000 0.0000 0.0000 11.1502 0.0000
# 6 0.0000 0.0000 0.0000 0.0000 0.0000 13.7341
#
#
#
# Elastic Compliance Matrix: (Units=1/GPa)
#
#
# Indices 1 2 3 4 5 6 
#
# 1 0.022944 -0.005537 -0.004377 0.000000 0.000000 0.000000
# 2 -0.005537 0.015515 -0.004596 0.000000 0.000000 0.000000
# 3 -0.004377 -0.004596 0.010118 0.000000 0.000000 0.000000
# 4 0.000000 0.000000 0.000000 0.034980 0.000000 0.000000
# 5 0.000000 0.000000 0.000000 0.000000 0.089684 0.000000
# 6 0.000000 0.000000 0.000000 0.000000 0.000000 0.072812
#
#
# Mechanical properties :
#
#
# Convention : Reuss Voigt Hill
#
# Bulk Modulus (GPa) = 51.13427 61.82849 56.48138
# Shear Modulus (GPa) = 17.75615 21.62553 19.69084
#
# Velocity S-wave (km/s) = 3.15044 3.47680 3.31764
# Velocity P-wave (km/s) = 6.46657 7.11886 6.80054
#
# Compressibility (1/GPa) = 0.01955636
#
# Stress axis : x y z
#
# Youngs Moduli (GPa) = 43.58528 64.45193 98.83164
#
# Poissons Ratio (x) = 0.35688 0.43258
# Poissons Ratio (y) = 0.24134 0.45426
# Poissons Ratio (z) = 0.19077 0.29624
#
# Static dielectric constant tensor:
#      x y z
#    x 2.845740 0.000000 0.000000 
#    y 0.000000 3.354690 0.000000 
#    z 0.000000 0.000000 3.567020 
# 
# 
# High freq. dielectric constant tensor:
#      x y z
#    x 1.634690 0.000000 0.000000 
#    y 0.000000 1.694790 0.000000 
#    z 0.000000 0.000000 1.709590 
# 
# From -- ./inp_files/12667.got.cif
#   From: 2010.03.12/outbox.cif.g09.slc.cpg/sg23_7_cif.got.tgz:12667.got - 2010.04.14 02:50:06.
