data_PCOD8163210
_publ_section_title
;
Structure prediction by ZEFSAII (Michael W. Deem and Ramdas Pophale) SiO2 
 PCOD8163210
Probable space group: I 2 2 2
;
_chemical_formula_sum "Si O2"
_cell_formula_units_Z 44
_cell_length_a 9.609435
_cell_length_b 17.166268
_cell_length_c 13.659364
_cell_angle_alpha 90.000000
_cell_angle_beta 90.000000
_cell_angle_gamma 90.000000
_cell_volume 2253.223232
_symmetry_space_group_name_H-M "I 2 2 2"
_symmetry_group_IT_number 23
_symmetry_cell_setting 'orthorhombic'
loop_
_space_group_symop_operation_xyz
x,y,z
-x,-y,z
x,-y,-z
-x,y,-z
1/2+x,1/2+y,1/2+z
1/2-x,1/2-y,1/2+z
1/2+x,1/2-y,1/2-z
1/2-x,1/2+y,1/2-z
loop_
_atom_site_type_symbol
_atom_site_label
_atom_site_fract_x
_atom_site_fract_y
_atom_site_fract_z
Si Si1 0.689423 0.653659 0.750541
Si Si2 0.993142 0.288954 0.292923
Si Si3 0.621887 0.947276 0.740604
Si Si4 0.263722 0.044023 0.087533
Si Si5 0.000000 0.651744 0.500000
Si Si6 0.839997 0.015155 0.612124
O O1 0.554339 0.708336 0.752066
O O2 0.665731 0.594886 0.658625
O O3 0.700619 0.602131 0.850016
O O4 0.829944 0.704004 0.734428
O O5 0.074256 0.358949 0.241745
O O6 0.028480 0.291235 0.408367
O O7 0.500000 0.000000 0.693268
O O8 0.652279 0.980402 0.848952
O O9 0.757338 0.950432 0.673155
O O10 0.371377 0.099006 0.031526
O O11 0.179050 0.000000 0.000000
O O12 0.800722 0.000000 0.500000
O O13 0.000000 0.000000 0.632827
#
# Coordination Sequence:
#
# PCOD8163210 Si02
#       6
#     8   8   8   8   4   8
#     4  10  24  39  60  95 126 163 200 255 322 362
#     4  11  22  39  60  93 131 161 201 258 318 375
#     4  11  18  36  65  92 120 157 209 268 302 359
#     4  10  16  33  63  94 114 149 216 251 299 364
#     4  10  17  30  66  88 113 158 208 250 293 368
#     4  10  23  42  63  87 118 169 222 253 299 379
#
# _framework density 19.527583
#
# number of rings (size 3 to 8) (size 9 to 14) (size 15 to 20)
#    0.000    1.636    7.273    0.273    2.545    1.818 
#    3.273    0.000    0.000   21.818    0.000    0.000 
#    0.000    0.000    0.000    0.000    0.000    0.000 
#
# Total GULP energy -272666.689274 kJ/mol
# GULP energy per Si atom -12393.940422 kJ/mol
# Density = 1.948314 g / cm^3
# Si number density = 19.527583 Si / 1000 Ang^3
#
#
#
# Elastic Constant Matrix: (Units=GPa)
#
#
# Indices 1 2 3 4 5 6 
#
# 1 56.4622 19.9390 51.2775 0.0000 0.0000 0.0000
# 2 19.9390 91.0240 45.8234 -0.0001 0.0000 0.0000
# 3 51.2775 45.8234 126.0567 -0.0001 0.0000 0.0000
# 4 0.0000 -0.0001 -0.0001 62.6451 0.0000 0.0000
# 5 0.0000 0.0000 0.0000 0.0000 22.9795 0.0000
# 6 0.0000 0.0000 0.0000 0.0000 0.0000 31.8881
#
#
#
# Elastic Compliance Matrix: (Units=1/GPa)
#
#
# Indices 1 2 3 4 5 6 
#
# 1 0.028105 -0.000491 -0.011254 0.000000 0.000000 0.000000
# 2 -0.000491 0.013455 -0.004692 0.000000 0.000000 0.000000
# 3 -0.011254 -0.004692 0.014216 0.000000 0.000000 0.000000
# 4 0.000000 0.000000 0.000000 0.015963 0.000000 0.000000
# 5 0.000000 0.000000 0.000000 0.000000 0.043517 0.000000
# 6 0.000000 0.000000 0.000000 0.000000 0.000000 0.031360
#
#
# Mechanical properties :
#
#
# Convention : Reuss Voigt Hill
#
# Bulk Modulus (GPa) = 43.66113 56.40252 50.03183
# Shear Modulus (GPa) = 26.72017 33.93607 30.32812
#
# Velocity S-wave (km/s) = 3.70311 4.17328 3.94520
# Velocity P-wave (km/s) = 6.37897 7.22273 6.81392
#
# Compressibility (1/GPa) = 0.02290367
#
# Stress axis : x y z
#
# Youngs Moduli (GPa) = 35.58074 74.31912 70.34132
#
# Poissons Ratio (x) = 0.03648 0.79163
# Poissons Ratio (y) = 0.01747 0.33001
# Poissons Ratio (z) = 0.40043 0.34867
#
# Static dielectric constant tensor:
#      x y z
#    x 3.303130 0.000000 0.000000 
#    y 0.000000 3.547210 0.000000 
#    z 0.000000 0.000000 3.867080 
# 
# 
# High freq. dielectric constant tensor:
#      x y z
#    x 1.743390 0.000000 0.000000 
#    y 0.000000 1.754190 0.000000 
#    z 0.000000 0.000000 1.762300 
# 
# From -- ./inp_files/19930.got.cif
#   From: 2010.03.12/outbox.cif.g09.slc.cpg/sg23_10_cif.got.tgz:19930.got - 2010.04.14 02:50:06.
