data_PCOD8163255
_publ_section_title
;
Structure prediction by ZEFSAII (Michael W. Deem and Ramdas Pophale) SiO2 
 PCOD8163255
Probable space group: I 2 2 2
;
_chemical_formula_sum "Si O2"
_cell_formula_units_Z 38
_cell_length_a 12.055469
_cell_length_b 7.575491
_cell_length_c 24.760857
_cell_angle_alpha 90.000000
_cell_angle_beta 90.000000
_cell_angle_gamma 90.000000
_cell_volume 2261.312426
_symmetry_space_group_name_H-M "I 2 2 2"
_symmetry_group_IT_number 23
_symmetry_cell_setting 'orthorhombic'
loop_
_space_group_symop_operation_xyz
x,y,z
-x,-y,z
x,-y,-z
-x,y,-z
1/2+x,1/2+y,1/2+z
1/2-x,1/2-y,1/2+z
1/2+x,1/2-y,1/2-z
1/2-x,1/2+y,1/2-z
loop_
_atom_site_type_symbol
_atom_site_label
_atom_site_fract_x
_atom_site_fract_y
_atom_site_fract_z
Si Si1 0.500000 0.500000 0.256497
Si Si2 0.697184 0.467648 0.339163
Si Si3 0.000000 0.500000 0.000000
Si Si4 0.601616 0.177415 0.401838
Si Si5 0.589320 0.142135 0.777687
Si Si6 0.133195 0.653040 0.154664
O O1 0.602925 0.442721 0.293808
O O2 0.536344 0.662216 0.218361
O O3 0.665283 0.362072 0.394244
O O4 0.808759 0.379058 0.318086
O O5 0.710584 0.674594 0.354284
O O6 0.924483 0.631139 0.035997
O O7 0.489567 0.194346 0.367004
O O8 0.677834 0.017820 0.377568
O O9 0.630608 0.103151 0.717341
O O10 0.500000 0.000000 0.796233
#
# Coordination Sequence:
#
# PCOD8163255 Si02
#       6
#     4   8   2   8   8   8
#     4  10  22  32  46  75 102 149 186 202 260 312
#     4  11  20  31  51  69 106 145 176 212 264 314
#     4   8  20  32  58  72 104 132 180 216 290 302
#     4  10  17  36  49  73 102 138 165 230 258 321
#     4  11  21  31  46  73 106 150 182 210 251 322
#     4   9  18  29  47  67 102 134 173 204 256 307
#
# _framework density 16.804400000000001
#
# number of rings (size 3 to 8) (size 9 to 14) (size 15 to 20)
#    0.000    2.105    6.316    0.000   11.789    0.000 
#    0.000    8.421    0.000    0.000    0.000    0.000 
#    0.000   34.526    0.000    0.000    0.000    0.000 
#
# Total GULP energy -235448.550365 kJ/mol
# GULP energy per Si atom -12392.028967 kJ/mol
# Density = 1.676615 g / cm^3
# Si number density = 16.804400 Si / 1000 Ang^3
#
#
#
# Elastic Constant Matrix: (Units=GPa)
#
#
# Indices 1 2 3 4 5 6 
#
# 1 57.9063 40.8641 22.0980 0.0000 0.0000 0.0000
# 2 40.8641 109.8815 22.7451 0.0000 0.0000 0.0000
# 3 22.0980 22.7451 66.1285 0.0000 0.0000 0.0000
# 4 0.0000 0.0000 0.0000 18.6805 0.0000 0.0000
# 5 0.0000 0.0000 0.0000 0.0000 4.0106 0.0000
# 6 0.0000 0.0000 0.0000 0.0000 0.0000 23.8825
#
#
#
# Elastic Compliance Matrix: (Units=1/GPa)
#
#
# Indices 1 2 3 4 5 6 
#
# 1 0.025201 -0.008214 -0.005596 0.000000 0.000000 0.000000
# 2 -0.008214 0.012475 -0.001546 0.000000 0.000000 0.000000
# 3 -0.005596 -0.001546 0.017524 0.000000 0.000000 0.000000
# 4 0.000000 0.000000 0.000000 0.053532 0.000000 0.000000
# 5 0.000000 0.000000 0.000000 0.000000 0.249337 0.000000
# 6 0.000000 0.000000 0.000000 0.000000 0.000000 0.041872
#
#
# Mechanical properties :
#
#
# Convention : Reuss Voigt Hill
#
# Bulk Modulus (GPa) = 40.83599 45.03674 42.93636
# Shear Modulus (GPa) = 11.39428 19.19534 15.29481
#
# Velocity S-wave (km/s) = 2.60677 3.38343 3.02017
# Velocity P-wave (km/s) = 5.78047 6.49016 6.14557
#
# Compressibility (1/GPa) = 0.02448820
#
# Stress axis : x y z
#
# Youngs Moduli (GPa) = 39.68046 80.15775 57.06468
#
# Poissons Ratio (x) = 0.65840 0.31935
# Poissons Ratio (y) = 0.32593 0.08823
# Poissons Ratio (z) = 0.22206 0.12394
#
# Static dielectric constant tensor:
#      x y z
#    x 2.887840 0.000000 0.000000 
#    y 0.000000 3.862960 0.000000 
#    z 0.000000 0.000000 2.806840 
# 
# 
# High freq. dielectric constant tensor:
#      x y z
#    x 1.608690 0.000000 0.000000 
#    y 0.000000 1.673960 0.000000 
#    z 0.000000 0.000000 1.599510 
# 
# From -- ./inp_files/12506.got.cif
#   From: 2010.03.12/outbox.cif.g09.slc.cpg/sg23_7_cif.got.tgz:12506.got - 2010.04.14 02:50:06.
