data_PCOD8163071
_publ_section_title
;
Structure prediction by ZEFSAII (Michael W. Deem and Ramdas Pophale) SiO2 
 PCOD8163071
Probable space group: F 2 2 2
;
_chemical_formula_sum "Si O2"
_cell_formula_units_Z 72
_cell_length_a 10.361554
_cell_length_b 35.090282
_cell_length_c 10.361527
_cell_angle_alpha 90.000000
_cell_angle_beta 90.000000
_cell_angle_gamma 90.000000
_cell_volume 3767.346067
_symmetry_space_group_name_H-M "F 2 2 2"
_symmetry_group_IT_number 22
_symmetry_cell_setting 'orthorhombic'
loop_
_space_group_symop_operation_xyz
x,y,z
-x,-y,z
x,-y,-z
-x,y,-z
x,1/2+y,1/2+z
-x,1/2-y,1/2+z
x,1/2-y,1/2-z
-x,1/2+y,1/2-z
1/2+x,y,1/2+z
1/2-x,-y,1/2+z
1/2+x,-y,1/2-z
1/2-x,y,1/2-z
1/2+x,1/2+y,z
1/2-x,1/2-y,z
1/2+x,1/2-y,-z
1/2-x,1/2+y,-z
loop_
_atom_site_type_symbol
_atom_site_label
_atom_site_fract_x
_atom_site_fract_y
_atom_site_fract_z
Si Si1 0.607789 0.314899 0.107789
Si Si2 0.500000 0.500000 0.000000
Si Si3 0.649626 0.437032 0.149626
Si Si4 0.745290 0.875319 0.040037
Si Si5 0.750000 0.250000 0.250000
Si Si6 0.540037 0.375319 0.745290
O O1 0.658657 0.274921 0.158657
O O2 0.548441 0.338212 0.229152
O O3 0.500000 0.307265 0.000000
O O4 0.729152 0.338212 0.048441
O O5 0.587781 0.526218 0.912219
O O6 0.750000 0.453995 0.250000
O O7 0.544145 0.412674 0.228059
O O8 0.728059 0.412674 0.044145
O O9 0.599875 0.874971 0.099875
O O10 0.845109 0.875264 0.154891
#
# Coordination Sequence:
#
# PCOD8163071 Si02
#       6
#    16   4  16  16   4  16
#     4   9  21  38  54  84 120 154 200 250 298 358
#     4  12  24  44  56  84 136 168 184 256 316 348
#     4  11  23  38  60  88 118 156 200 244 300 364
#     4   9  18  38  65  88 114 153 202 252 300 354
#     4  12  24  36  56  84 128 168 200 240 316 364
#     4   9  18  38  65  88 114 153 202 252 300 354
#
# _framework density 19.111597
#
# number of rings (size 3 to 8) (size 9 to 14) (size 15 to 20)
#    0.000    2.222    2.222    1.333    6.222    4.444 
#    0.000    0.000    0.000    0.000    0.000    0.000 
#    0.000    0.000    0.000    0.000    0.000    0.000 
#
# Total GULP energy -223123.156716 kJ/mol
# GULP energy per Si atom -12395.730929 kJ/mol
# Density = 1.906810 g / cm^3
# Si number density = 19.111597 Si / 1000 Ang^3
#
#
#
# Elastic Constant Matrix: (Units=GPa)
#
#
# Indices 1 2 3 4 5 6 
#
# 1 100.4561 74.0479 80.0278 0.0000 0.0000 0.0000
# 2 74.0479 158.9886 74.0476 0.0000 0.0000 0.0000
# 3 80.0278 74.0476 100.4551 0.0000 0.0000 0.0000
# 4 0.0000 0.0000 0.0000 39.7541 0.0000 0.0000
# 5 0.0000 0.0000 0.0000 0.0000 38.3781 0.0000
# 6 0.0000 0.0000 0.0000 0.0000 0.0000 39.7542
#
#
#
# Elastic Compliance Matrix: (Units=1/GPa)
#
#
# Indices 1 2 3 4 5 6 
#
# 1 0.028960 -0.004177 -0.019992 0.000000 0.000000 0.000000
# 2 -0.004177 0.010180 -0.004177 0.000000 0.000000 0.000000
# 3 -0.019992 -0.004177 0.028961 0.000000 0.000000 0.000000
# 4 0.000000 0.000000 0.000000 0.025155 0.000000 0.000000
# 5 0.000000 0.000000 0.000000 0.000000 0.026057 0.000000
# 6 0.000000 0.000000 0.000000 0.000000 0.000000 0.025155
#
#
# Mechanical properties :
#
#
# Convention : Reuss Voigt Hill
#
# Bulk Modulus (GPa) = 87.64865 90.68290 89.16578
# Shear Modulus (GPa) = 24.39479 32.36237 28.37858
#
# Velocity S-wave (km/s) = 3.57660 4.11948 3.85760
# Velocity P-wave (km/s) = 7.93834 8.37729 8.16077
#
# Compressibility (1/GPa) = 0.01140919
#
# Stress axis : x y z
#
# Youngs Moduli (GPa) = 34.53014 98.22875 34.52974
#
# Poissons Ratio (x) = 0.41027 0.69034
# Poissons Ratio (y) = 0.14422 0.14422
# Poissons Ratio (z) = 0.69034 0.41028
#
# Static dielectric constant tensor:
#      x y z
#    x 3.856060 0.000000 0.000000 
#    y 0.000000 3.305570 0.000000 
#    z 0.000000 0.000000 3.856050 
# 
# 
# High freq. dielectric constant tensor:
#      x y z
#    x 1.753360 0.000000 0.000000 
#    y 0.000000 1.724090 0.000000 
#    z 0.000000 0.000000 1.753360 
# 
# From -- ./inp_files/18144.got.cif
#   From: 2010.03.12/outbox.cif.g09.slc.cpg/sg22_10_cif.got.tgz:18144.got - 2010.04.14 02:24:06.
