data_PCOD8163710
_publ_section_title
;
Structure prediction by ZEFSAII (Michael W. Deem and Ramdas Pophale) SiO2 
 PCOD8163710
Probable space group: I 2 2 2
;
_chemical_formula_sum "Si O2"
_cell_formula_units_Z 56
_cell_length_a 12.036087
_cell_length_b 14.532413
_cell_length_c 13.693069
_cell_angle_alpha 90.000000
_cell_angle_beta 90.000000
_cell_angle_gamma 90.000000
_cell_volume 2395.101080
_symmetry_space_group_name_H-M "I 2 2 2"
_symmetry_group_IT_number 23
_symmetry_cell_setting 'orthorhombic'
loop_
_space_group_symop_operation_xyz
x,y,z
-x,-y,z
x,-y,-z
-x,y,-z
1/2+x,1/2+y,1/2+z
1/2-x,1/2-y,1/2+z
1/2+x,1/2-y,1/2-z
1/2-x,1/2+y,1/2-z
loop_
_atom_site_type_symbol
_atom_site_label
_atom_site_fract_x
_atom_site_fract_y
_atom_site_fract_z
Si Si1 0.130689 0.002826 0.274726
Si Si2 0.795073 0.934499 0.082619
Si Si3 0.525649 0.096203 0.610661
Si Si4 0.527842 0.286335 0.386237
Si Si5 0.771547 0.825052 0.370030
Si Si6 0.840138 0.194981 0.266537
Si Si7 0.122287 0.293736 0.537850
O O1 0.176664 0.905462 0.317684
O O2 0.213217 0.007439 0.181082
O O3 0.145296 0.090755 0.345954
O O4 0.000000 0.000000 0.248152
O O5 0.865080 0.848276 0.123185
O O6 0.681335 0.893753 0.038942
O O7 0.850677 0.000000 0.000000
O O8 0.500000 0.075363 0.500000
O O9 0.447762 0.180597 0.648194
O O10 0.651314 0.129720 0.621239
O O11 0.500000 0.000000 0.668317
O O12 0.500000 0.284900 0.500000
O O13 0.428683 0.325697 0.320137
O O14 0.765760 0.746252 0.284638
O O15 0.810350 0.778407 0.470739
O O16 0.887369 0.259643 0.351213
O O17 0.000000 0.310613 0.500000
#
# Coordination Sequence:
#
# PCOD8163710 Si02
#       7
#     8   8   8   8   8   8   8
#     4  12  24  43  74 110 145 193 256 313 379 461
#     4  12  25  44  72 109 144 190 259 322 382 447
#     4   9  19  38  65 100 138 181 240 304 370 450
#     4  10  20  39  69 104 140 183 243 313 375 437
#     4  11  25  48  67 107 149 193 261 309 390 455
#     4  11  24  46  72 107 152 196 249 322 381 461
#     4  12  27  47  73 104 153 210 247 316 399 469
#
# _framework density 23.381059
#
# number of rings (size 3 to 8) (size 9 to 14) (size 15 to 20)
#    0.000    1.000    2.857    5.143    0.000    4.286 
#    0.000    4.286    0.000    0.000    0.000    0.000 
#    0.000    0.000    0.000    0.000    0.000    0.000 
#
# Total GULP energy -346870.145309 kJ/mol
# GULP energy per Si atom -12388.219475 kJ/mol
# Density = 2.332784 g / cm^3
# Si number density = 23.381059 Si / 1000 Ang^3
#
#
#
# Elastic Constant Matrix: (Units=GPa)
#
#
# Indices 1 2 3 4 5 6 
#
# 1 90.9623 46.0465 20.6247 0.0000 0.0000 0.0000
# 2 46.0465 149.4107 11.0873 0.0000 0.0000 0.0000
# 3 20.6247 11.0873 92.1539 0.0000 0.0000 0.0000
# 4 0.0000 0.0000 0.0000 31.4650 0.0000 0.0000
# 5 0.0000 0.0000 0.0000 0.0000 31.3392 0.0000
# 6 0.0000 0.0000 0.0000 0.0000 0.0000 35.6500
#
#
#
# Elastic Compliance Matrix: (Units=1/GPa)
#
#
# Indices 1 2 3 4 5 6 
#
# 1 0.013600 -0.004001 -0.002562 0.000000 0.000000 0.000000
# 2 -0.004001 0.007930 -0.000059 0.000000 0.000000 0.000000
# 3 -0.002562 -0.000059 0.011432 0.000000 0.000000 0.000000
# 4 0.000000 0.000000 0.000000 0.031781 0.000000 0.000000
# 5 0.000000 0.000000 0.000000 0.000000 0.031909 0.000000
# 6 0.000000 0.000000 0.000000 0.000000 0.000000 0.028051
#
#
# Mechanical properties :
#
#
# Convention : Reuss Voigt Hill
#
# Bulk Modulus (GPa) = 50.71520 54.22708 52.47114
# Shear Modulus (GPa) = 34.59723 36.67540 35.63632
#
# Velocity S-wave (km/s) = 3.85088 3.96485 3.90828
# Velocity P-wave (km/s) = 6.44284 6.64854 6.54650
#
# Compressibility (1/GPa) = 0.01971796
#
# Stress axis : x y z
#
# Youngs Moduli (GPa) = 73.52919 126.09646 87.47416
#
# Poissons Ratio (x) = 0.50454 0.22414
# Poissons Ratio (y) = 0.29421 0.00513
# Poissons Ratio (z) = 0.18841 0.00739
#
# Static dielectric constant tensor:
#      x y z
#    x 3.992160 0.000000 0.000000 
#    y 0.000000 5.277000 0.000000 
#    z 0.000000 0.000000 4.150780 
# 
# 
# High freq. dielectric constant tensor:
#      x y z
#    x 1.898210 0.000000 0.000000 
#    y 0.000000 1.957160 0.000000 
#    z 0.000000 0.000000 1.916870 
# 
# From -- ./inp_files/20898.got.cif
#   From: 2010.03.12/outbox.cif.g09.slc.cpg/sg23_11_cif.got.tgz:20898.got - 2010.04.14 02:50:06.
