data_PCOD8163412
_publ_section_title
;
Structure prediction by ZEFSAII (Michael W. Deem and Ramdas Pophale) SiO2 
 PCOD8163412
Probable space group: I 2 2 2
;
_chemical_formula_sum "Si O2"
_cell_formula_units_Z 48
_cell_length_a 9.377820
_cell_length_b 8.610553
_cell_length_c 28.268402
_cell_angle_alpha 90.000000
_cell_angle_beta 90.000000
_cell_angle_gamma 90.000000
_cell_volume 2282.623034
_symmetry_space_group_name_H-M "I 2 2 2"
_symmetry_group_IT_number 23
_symmetry_cell_setting 'orthorhombic'
loop_
_space_group_symop_operation_xyz
x,y,z
-x,-y,z
x,-y,-z
-x,y,-z
1/2+x,1/2+y,1/2+z
1/2-x,1/2-y,1/2+z
1/2+x,1/2-y,1/2-z
1/2-x,1/2+y,1/2-z
loop_
_atom_site_type_symbol
_atom_site_label
_atom_site_fract_x
_atom_site_fract_y
_atom_site_fract_z
Si Si1 0.079368 0.164415 0.543706
Si Si2 0.456231 0.323402 0.643440
Si Si3 0.484012 0.320045 0.858790
Si Si4 0.771481 0.192971 0.293324
Si Si5 0.710864 0.833958 0.308044
Si Si6 0.079873 0.337996 0.045890
O O1 0.045738 0.258306 0.592871
O O2 0.250166 0.142018 0.536520
O O3 0.000000 0.254757 0.500000
O O4 0.000000 0.000000 0.545683
O O5 0.500000 0.500000 0.647838
O O6 0.308664 0.306416 0.670663
O O7 0.558135 0.207047 0.671789
O O8 0.443644 0.278752 0.588838
O O9 0.500000 0.500000 0.868936
O O10 0.566392 0.281907 0.810134
O O11 0.320576 0.276530 0.848672
O O12 0.754440 0.241962 0.239584
O O13 0.719698 0.016705 0.298975
O O14 0.000000 0.500000 0.057623
O O15 0.000000 0.266245 0.000000
#
# Coordination Sequence:
#
# PCOD8163412 Si02
#       6
#     8   8   8   8   8   8
#     4  10  19  34  62  96 128 152 194 259 321 385
#     4  12  26  42  61  91 132 176 218 263 314 380
#     4   9  20  35  59  90 122 155 199 256 315 376
#     4  11  21  42  62  96 126 164 212 263 322 381
#     4  11  23  38  68  92 128 166 209 266 321 386
#     4  11  23  39  68 100 124 161 216 269 329 395
#
# _framework density 21.028438000000001
#
# number of rings (size 3 to 8) (size 9 to 14) (size 15 to 20)
#    0.000    1.333    1.667    5.500    7.000    1.667 
#    0.000    2.500    0.000    0.000    0.000    0.000 
#    0.000    0.000    0.000    0.000    0.000    0.000 
#
# Total GULP energy -297407.565631 kJ/mol
# GULP energy per Si atom -12391.981901 kJ/mol
# Density = 2.098058 g / cm^3
# Si number density = 21.028438 Si / 1000 Ang^3
#
#
#
# Elastic Constant Matrix: (Units=GPa)
#
#
# Indices 1 2 3 4 5 6 
#
# 1 79.8747 35.5793 44.5727 0.0000 0.0000 0.0000
# 2 35.5793 56.3080 20.1420 0.0000 -0.0001 0.0000
# 3 44.5727 20.1420 152.9655 0.0000 0.0000 0.0000
# 4 0.0000 0.0000 0.0000 10.8358 0.0000 0.0000
# 5 0.0000 -0.0001 0.0000 0.0000 -42.6871 0.0000
# 6 0.0000 0.0000 0.0000 0.0000 0.0000 13.4658
#
#
#
# Elastic Compliance Matrix: (Units=1/GPa)
#
#
# Indices 1 2 3 4 5 6 
#
# 1 0.019827 -0.010979 -0.004332 0.000000 0.000000 0.000000
# 2 -0.010979 0.024716 -0.000056 0.000000 0.000000 0.000000
# 3 -0.004332 -0.000056 0.007807 0.000000 0.000000 0.000000
# 4 0.000000 0.000000 0.000000 0.092286 0.000000 0.000000
# 5 0.000000 0.000000 0.000000 0.000000 -0.023426 0.000000
# 6 0.000000 0.000000 0.000000 0.000000 0.000000 0.074262
#
#
# Mechanical properties :
#
#
# Convention : Reuss Voigt Hill
#
# Bulk Modulus (GPa) = 46.25643 54.41514 50.33578
# Shear Modulus (GPa) = 21.42144 8.91320 15.16732
#
# Velocity S-wave (km/s) = 3.19515 2.06103 2.68857
# Velocity P-wave (km/s) = 5.97134 5.62111 5.79887
#
# Compressibility (1/GPa) = 0.02161862
#
# Stress axis : x y z
#
# Youngs Moduli (GPa) = 50.43577 40.45901 128.09053
#
# Poissons Ratio (x) = 0.44418 0.55486
# Poissons Ratio (y) = 0.55372 0.00711
# Poissons Ratio (z) = 0.21848 0.00225
#
# Static dielectric constant tensor:
#      x y z
#    x 4.138940 0.000000 0.000000 
#    y 0.000000 3.353080 0.000000 
#    z 0.000000 0.000000 4.697700 
# 
# 
# High freq. dielectric constant tensor:
#      x y z
#    x 1.841580 0.000000 0.000000 
#    y 0.000000 1.775030 0.000000 
#    z 0.000000 0.000000 1.851510 
# 
# From -- ./inp_files/30240.got.cif
#   From: 2010.03.12/outbox.cif.g09.slc.cpg/sg23_16_cif.got.tgz:30240.got - 2010.04.14 02:50:06.
