data_PCOD8163512
_publ_section_title
;
Structure prediction by ZEFSAII (Michael W. Deem and Ramdas Pophale) SiO2 
 PCOD8163512
Probable space group: I 2 2 2
;
_chemical_formula_sum "Si O2"
_cell_formula_units_Z 64
_cell_length_a 9.273122
_cell_length_b 14.610089
_cell_length_c 27.397004
_cell_angle_alpha 90.000000
_cell_angle_beta 90.000000
_cell_angle_gamma 90.000000
_cell_volume 3711.777272
_symmetry_space_group_name_H-M "I 2 2 2"
_symmetry_group_IT_number 23
_symmetry_cell_setting 'orthorhombic'
loop_
_space_group_symop_operation_xyz
x,y,z
-x,-y,z
x,-y,-z
-x,y,-z
1/2+x,1/2+y,1/2+z
1/2-x,1/2-y,1/2+z
1/2+x,1/2-y,1/2-z
1/2-x,1/2+y,1/2-z
loop_
_atom_site_type_symbol
_atom_site_label
_atom_site_fract_x
_atom_site_fract_y
_atom_site_fract_z
Si Si1 0.869568 0.333276 0.202243
Si Si2 0.812247 0.909743 0.382594
Si Si3 0.133387 0.139546 0.754981
Si Si4 0.899459 0.281220 0.870626
Si Si5 0.582249 0.414751 0.337623
Si Si6 0.623330 0.387647 0.856255
Si Si7 0.948856 0.403330 0.055409
Si Si8 0.343152 0.015281 0.217360
O O1 0.759058 0.343679 0.157544
O O2 0.826355 0.244827 0.234185
O O3 0.864958 0.422150 0.235329
O O4 0.029492 0.321136 0.179070
O O5 0.724204 0.898263 0.433953
O O6 0.978616 0.879675 0.389215
O O7 0.802358 0.014437 0.364589
O O8 0.079385 0.124979 0.700010
O O9 0.999925 0.105904 0.787201
O O10 0.276044 0.080988 0.765881
O O11 0.917930 0.171718 0.873455
O O12 0.731585 0.307405 0.871658
O O13 0.974876 0.319112 0.918579
O O14 0.500000 0.500000 0.363742
O O15 0.746434 0.438231 0.324280
O O16 0.000000 0.500000 0.078299
O O17 0.000000 0.398048 0.000000
O O18 0.500000 0.000000 0.193469
#
# Coordination Sequence:
#
# PCOD8163512 Si02
#       8
#     8   8   8   8   8   8   8   8
#     4  10  20  32  47  70 100 144 190 221 248 300
#     4  10  21  32  50  75 105 140 176 225 264 312
#     4  10  20  32  46  67 104 149 184 217 256 291
#     4  10  20  34  54  75 101 137 173 218 271 321
#     4   9  20  35  49  70 104 142 182 219 262 302
#     4  11  19  30  48  74 109 141 179 217 263 308
#     4  10  20  38  60  79 103 131 170 213 272 332
#     4  11  20  29  44  68  98 138 185 219 247 296
#
# _framework density 17.242414
#
# number of rings (size 3 to 8) (size 9 to 14) (size 15 to 20)
#    0.000    1.875    2.500    2.250    3.500    4.000 
#    0.000    0.625    0.000    0.375    0.000    0.000 
#    0.000    0.000    0.000    0.000    0.000    0.000 
#
# Total GULP energy -396765.560557 kJ/mol
# GULP energy per Si atom -12398.923767 kJ/mol
# Density = 1.720317 g / cm^3
# Si number density = 17.242414 Si / 1000 Ang^3
#
#
#
# Elastic Constant Matrix: (Units=GPa)
#
#
# Indices 1 2 3 4 5 6 
#
# 1 132.2818 54.6493 37.9020 0.0000 0.0000 0.0000
# 2 54.6493 108.8787 42.9253 0.0000 0.0000 0.0000
# 3 37.9020 42.9253 67.4347 0.0000 0.0000 0.0000
# 4 0.0000 0.0000 0.0000 17.3215 0.0000 0.0000
# 5 0.0000 0.0000 0.0000 0.0000 17.2445 0.0000
# 6 0.0000 0.0000 0.0000 0.0000 0.0000 22.6841
#
#
#
# Elastic Compliance Matrix: (Units=1/GPa)
#
#
# Indices 1 2 3 4 5 6 
#
# 1 0.010045 -0.003759 -0.003253 0.000000 0.000000 0.000000
# 2 -0.003759 0.013669 -0.006588 0.000000 0.000000 0.000000
# 3 -0.003253 -0.006588 0.020851 0.000000 0.000000 0.000000
# 4 0.000000 0.000000 0.000000 0.057732 0.000000 0.000000
# 5 0.000000 0.000000 0.000000 0.000000 0.057990 0.000000
# 6 0.000000 0.000000 0.000000 0.000000 0.000000 0.044084
#
#
# Mechanical properties :
#
#
# Convention : Reuss Voigt Hill
#
# Bulk Modulus (GPa) = 57.58867 64.39427 60.99147
# Shear Modulus (GPa) = 21.06531 22.99125 22.02828
#
# Velocity S-wave (km/s) = 3.49910 3.65555 3.57818
# Velocity P-wave (km/s) = 7.05669 7.43269 7.24713
#
# Compressibility (1/GPa) = 0.01736453
#
# Stress axis : x y z
#
# Youngs Moduli (GPa) = 99.55524 73.15996 47.95989
#
# Poissons Ratio (x) = 0.27503 0.15600
# Poissons Ratio (y) = 0.37426 0.31595
# Poissons Ratio (z) = 0.32382 0.48196
#
# Static dielectric constant tensor:
#      x y z
#    x 3.389670 0.000000 0.000000 
#    y 0.000000 3.416830 0.000000 
#    z 0.000000 0.000000 2.751240 
# 
# 
# High freq. dielectric constant tensor:
#      x y z
#    x 1.679440 0.000000 0.000000 
#    y 0.000000 1.669850 0.000000 
#    z 0.000000 0.000000 1.608980 
# 
# From -- ./inp_files/22816.got.cif
#   From: 2010.03.12/outbox.cif.g09.slc.cpg/sg23_12_cif.got.tgz:22816.got - 2010.04.14 02:50:06.
