data_PCOD8163775
_publ_section_title
;
Structure prediction by ZEFSAII (Michael W. Deem and Ramdas Pophale) SiO2 
 PCOD8163775
Probable space group: I 2 2 2
;
_chemical_formula_sum "Si O2"
_cell_formula_units_Z 52
_cell_length_a 12.732991
_cell_length_b 22.797946
_cell_length_c 9.014510
_cell_angle_alpha 90.000000
_cell_angle_beta 90.000000
_cell_angle_gamma 90.000000
_cell_volume 2616.786422
_symmetry_space_group_name_H-M "I 2 2 2"
_symmetry_group_IT_number 23
_symmetry_cell_setting 'orthorhombic'
loop_
_space_group_symop_operation_xyz
x,y,z
-x,-y,z
x,-y,-z
-x,y,-z
1/2+x,1/2+y,1/2+z
1/2-x,1/2-y,1/2+z
1/2+x,1/2-y,1/2-z
1/2-x,1/2+y,1/2-z
loop_
_atom_site_type_symbol
_atom_site_label
_atom_site_fract_x
_atom_site_fract_y
_atom_site_fract_z
Si Si1 0.192310 0.187488 0.528304
Si Si2 0.571593 0.406122 0.782290
Si Si3 0.401545 0.242227 0.597335
Si Si4 0.599443 0.200642 0.082778
Si Si5 0.154426 0.000000 0.500000
Si Si6 0.198909 0.136596 0.983561
Si Si7 0.175793 0.098797 0.289284
O O1 0.117437 0.149177 0.631104
O O2 0.310783 0.193566 0.584422
O O3 0.141204 0.251165 0.531959
O O4 0.201597 0.160936 0.363787
O O5 0.587414 0.464459 0.879048
O O6 0.628461 0.404925 0.622383
O O7 0.448346 0.403240 0.761299
O O8 0.500000 0.221982 0.500000
O O9 0.434472 0.235780 0.769107
O O10 0.366544 0.306870 0.542205
O O11 0.500000 0.170480 0.000000
O O12 0.694195 0.153835 0.103368
O O13 0.219261 0.953336 0.601726
O O14 0.230075 0.097382 0.127752
#
# Coordination Sequence:
#
# PCOD8163775 Si02
#       7
#     8   8   8   8   4   8   8
#     4  10  21  35  54  79 119 154 192 222 280 340
#     4  11  20  38  56  83 116 149 189 235 284 340
#     4  11  23  36  54  85 119 157 194 232 269 334
#     4  11  23  37  56  83 117 159 192 233 277 328
#     4  10  23  38  60  84 113 148 195 234 292 350
#     4  11  24  36  55  87 120 151 194 231 282 342
#     4  11  20  36  58  85 112 154 183 236 285 341
#
# _framework density 19.871701000000002
#
# number of rings (size 3 to 8) (size 9 to 14) (size 15 to 20)
#    0.000    1.231    3.077    5.077    4.308    0.615 
#    0.000    1.538    0.000    0.000    0.000   20.462 
#    0.000    0.000    0.000    0.000    0.000    0.000 
#
# Total GULP energy -322181.078098 kJ/mol
# GULP energy per Si atom -12391.579927 kJ/mol
# Density = 1.982647 g / cm^3
# Si number density = 19.871701 Si / 1000 Ang^3
#
#
#
# Elastic Constant Matrix: (Units=GPa)
#
#
# Indices 1 2 3 4 5 6 
#
# 1 63.0065 15.1878 23.1918 0.0000 0.0002 0.0002
# 2 15.1878 63.6267 24.1723 -0.0013 0.0001 -0.0001
# 3 23.1918 24.1723 125.7478 -0.0025 0.0001 -0.0004
# 4 0.0000 -0.0013 -0.0025 27.6424 0.0000 -0.0004
# 5 0.0002 0.0001 0.0001 0.0000 31.6662 0.0001
# 6 0.0002 -0.0001 -0.0004 -0.0004 0.0001 13.7057
#
#
#
# Elastic Compliance Matrix: (Units=1/GPa)
#
#
# Indices 1 2 3 4 5 6 
#
# 1 0.017613 -0.003204 -0.002632 0.000000 0.000000 0.000000
# 2 -0.003204 0.017538 -0.002780 0.000001 0.000000 0.000000
# 3 -0.002632 -0.002780 0.008972 0.000001 0.000000 0.000000
# 4 0.000000 0.000001 0.000001 0.036176 0.000000 0.000001
# 5 0.000000 0.000000 0.000000 0.000000 0.031579 0.000000
# 6 0.000000 0.000000 0.000000 0.000001 0.000000 0.072963
#
#
# Mechanical properties :
#
#
# Convention : Reuss Voigt Hill
#
# Bulk Modulus (GPa) = 37.18969 41.94275 39.56622
# Shear Modulus (GPa) = 23.69244 27.25813 25.47528
#
# Velocity S-wave (km/s) = 3.45667 3.70767 3.58437
# Velocity P-wave (km/s) = 5.88957 6.28345 6.08969
#
# Compressibility (1/GPa) = 0.02688917
#
# Stress axis : x y z
#
# Youngs Moduli (GPa) = 56.77732 57.01981 111.45312
#
# Poissons Ratio (x) = 0.18270 0.29339
# Poissons Ratio (y) = 0.18192 0.30988
# Poissons Ratio (z) = 0.14946 0.15853
#
# Static dielectric constant tensor:
#      x y z
#    x 3.464680 0.000000 0.000000 
#    y 0.000000 3.646560 -0.000010 
#    z 0.000000 -0.000010 3.979850 
# 
# 
# High freq. dielectric constant tensor:
#      x y z
#    x 1.746400 0.000000 0.000000 
#    y 0.000000 1.747000 0.000000 
#    z 0.000000 0.000000 1.797370 
# 
# From -- ./inp_files/8798.got.cif
#   From: 2010.03.12/outbox.cif.g09.slc.cpg/sg23_5_cif.got.tgz:8798.got - 2010.04.14 02:50:06.
