data_PCOD8163070
_publ_section_title
;
Structure prediction by ZEFSAII (Michael W. Deem and Ramdas Pophale) SiO2 
 PCOD8163070
Probable space group: F 2 2 2
;
_chemical_formula_sum "Si O2"
_cell_formula_units_Z 80
_cell_length_a 10.884495
_cell_length_b 10.884497
_cell_length_c 33.240327
_cell_angle_alpha 90.000000
_cell_angle_beta 90.000000
_cell_angle_gamma 90.000000
_cell_volume 3938.056436
_symmetry_space_group_name_H-M "F 2 2 2"
_symmetry_group_IT_number 22
_symmetry_cell_setting 'orthorhombic'
loop_
_space_group_symop_operation_xyz
x,y,z
-x,-y,z
x,-y,-z
-x,y,-z
x,1/2+y,1/2+z
-x,1/2-y,1/2+z
x,1/2-y,1/2-z
-x,1/2+y,1/2-z
1/2+x,y,1/2+z
1/2-x,-y,1/2+z
1/2+x,-y,1/2-z
1/2-x,y,1/2-z
1/2+x,1/2+y,z
1/2-x,1/2-y,z
1/2+x,1/2-y,-z
1/2-x,1/2+y,-z
loop_
_atom_site_type_symbol
_atom_site_label
_atom_site_fract_x
_atom_site_fract_y
_atom_site_fract_z
Si Si1 0.602041 0.102041 0.189952
Si Si2 0.548363 0.750000 0.250000
Si Si3 0.600449 0.600449 0.601531
Si Si4 0.994035 0.302126 0.543801
Si Si5 0.750000 0.048363 0.750000
Si Si6 0.197875 0.505965 0.543801
O O1 0.541792 0.217956 0.212986
O O2 0.646112 0.146112 0.145565
O O3 0.500000 0.000000 0.185486
O O4 0.717956 0.041792 0.212986
O O5 0.633562 0.866438 0.262161
O O6 0.500000 0.500000 0.608911
O O7 0.537187 0.711581 0.578335
O O8 0.711581 0.537187 0.578335
O O9 0.086032 0.413968 0.541134
O O10 0.000000 0.234960 0.500000
O O11 0.857522 0.357523 0.553116
O O12 0.265040 0.500000 0.500000
#
# Coordination Sequence:
#
# PCOD8163070 Si02
#       6
#    16   8  16  16   8  16
#     4   9  20  38  56  86 117 147 197 236 291 365
#     4   9  18  37  62  80 110 157 192 237 294 350
#     4  11  23  35  57  91 123 149 191 255 300 358
#     4   9  20  39  58  78 112 159 203 241 291 351
#     4   9  18  37  62  80 110 157 192 237 294 350
#     4   9  20  39  58  78 112 159 203 241 291 351
#
# _framework density 20.314589999999999
#
# number of rings (size 3 to 8) (size 9 to 14) (size 15 to 20)
#    0.000    2.600    0.000    1.800    2.800    2.800 
#    7.200    4.000    0.000    0.000    0.000    0.000 
#    0.000    0.000    0.000    0.000    0.000    0.000 
#
# Total GULP energy -247830.102852 kJ/mol
# GULP energy per Si atom -12391.505143 kJ/mol
# Density = 2.026835 g / cm^3
# Si number density = 20.314590 Si / 1000 Ang^3
#
#
#
# Elastic Constant Matrix: (Units=GPa)
#
#
# Indices 1 2 3 4 5 6 
#
# 1 84.1865 36.6500 71.3733 0.0000 0.0000 0.0000
# 2 36.6500 84.1865 71.3733 0.0000 0.0000 0.0000
# 3 71.3733 71.3733 211.5013 0.0000 0.0000 0.0000
# 4 0.0000 0.0000 0.0000 -52.7643 0.0000 0.0000
# 5 0.0000 0.0000 0.0000 0.0000 -52.7715 0.0000
# 6 0.0000 0.0000 0.0000 0.0000 0.0000 30.2124
#
#
#
# Elastic Compliance Matrix: (Units=1/GPa)
#
#
# Indices 1 2 3 4 5 6 
#
# 1 0.017399 -0.003637 -0.004644 0.000000 0.000000 0.000000
# 2 -0.003637 0.017399 -0.004644 0.000000 0.000000 0.000000
# 3 -0.004644 -0.004644 0.007862 0.000000 0.000000 0.000000
# 4 0.000000 0.000000 0.000000 -0.018952 0.000000 0.000000
# 5 0.000000 0.000000 0.000000 0.000000 -0.018950 0.000000
# 6 0.000000 0.000000 0.000000 0.000000 0.000000 0.033099
#
#
# Mechanical properties :
#
#
# Convention : Reuss Voigt Hill
#
# Bulk Modulus (GPa) = 59.48916 82.07417 70.78166
# Shear Modulus (GPa) = 72.13750 -1.69953 35.21899
#
# Velocity S-wave (km/s) = 5.96551 -0.91565 4.16826
# Velocity P-wave (km/s) = 8.76340 6.27466 7.62131
#
# Compressibility (1/GPa) = 0.01680979
#
# Stress axis : x y z
#
# Youngs Moduli (GPa) = 57.47419 57.47424 127.18648
#
# Poissons Ratio (x) = 0.20905 0.59066
# Poissons Ratio (y) = 0.20905 0.59066
# Poissons Ratio (z) = 0.26691 0.26691
#
# Static dielectric constant tensor:
#      x y z
#    x 4.005560 0.000000 0.000000 
#    y 0.000000 4.005600 0.000000 
#    z 0.000000 0.000000 4.889240 
# 
# 
# High freq. dielectric constant tensor:
#      x y z
#    x 1.792000 0.000000 0.000000 
#    y 0.000000 1.792000 0.000000 
#    z 0.000000 0.000000 1.790060 
# 
# From -- ./inp_files/18336.got.cif
#   From: 2010.03.12/outbox.cif.g09.slc.cpg/sg22_10_cif.got.tgz:18336.got - 2010.04.14 02:24:06.
