data_PCOD8163405
_publ_section_title
;
Structure prediction by ZEFSAII (Michael W. Deem and Ramdas Pophale) SiO2 
 PCOD8163405
Probable space group: I 2 2 2
;
_chemical_formula_sum "Si O2"
_cell_formula_units_Z 40
_cell_length_a 8.166423
_cell_length_b 27.451338
_cell_length_c 8.983103
_cell_angle_alpha 90.000000
_cell_angle_beta 90.000000
_cell_angle_gamma 90.000000
_cell_volume 2013.825186
_symmetry_space_group_name_H-M "I 2 2 2"
_symmetry_group_IT_number 23
_symmetry_cell_setting 'orthorhombic'
loop_
_space_group_symop_operation_xyz
x,y,z
-x,-y,z
x,-y,-z
-x,y,-z
1/2+x,1/2+y,1/2+z
1/2-x,1/2-y,1/2+z
1/2+x,1/2-y,1/2-z
1/2-x,1/2+y,1/2-z
loop_
_atom_site_type_symbol
_atom_site_label
_atom_site_fract_x
_atom_site_fract_y
_atom_site_fract_z
Si Si1 0.174146 0.885949 0.932800
Si Si2 0.553097 0.947950 0.168988
Si Si3 0.814243 0.202878 0.450974
Si Si4 0.631974 0.857901 0.776255
Si Si5 0.311108 0.199593 0.229534
O O1 0.253531 0.932661 0.844366
O O2 0.172715 0.840045 0.819626
O O3 0.281580 0.866130 0.067770
O O4 0.000000 0.901504 0.000000
O O5 0.459143 0.908117 0.269527
O O6 0.500000 0.000000 0.239290
O O7 0.500000 0.946838 0.000000
O O8 0.758554 0.156220 0.353499
O O9 0.700732 0.207763 0.594679
O O10 0.780576 0.250059 0.352506
O O11 0.000000 0.195665 0.500000
O O12 0.495991 0.816705 0.804917
#
# Coordination Sequence:
#
# PCOD8163405 Si02
#       5
#     8   8   8   8   8
#     4  10  19  34  57  85 113 141 183 232 270 317
#     4   8  16  34  58  82 110 143 180 223 276 332
#     4  12  23  35  54  80 111 146 188 230 270 324
#     4  10  21  37  55  79 111 146 182 224 277 332
#     4  11  22  36  54  77 112 151 184 220 276 332
#
# _framework density 19.862698999999999
#
# number of rings (size 3 to 8) (size 9 to 14) (size 15 to 20)
#    0.000    1.800    0.000    7.200    0.000    1.600 
#    0.000    8.000    0.000    9.600    0.000    5.600 
#    0.000    0.000    0.000    0.000    0.000    0.000 
#
# Total GULP energy -247857.000743 kJ/mol
# GULP energy per Si atom -12392.850037 kJ/mol
# Density = 1.981749 g / cm^3
# Si number density = 19.862699 Si / 1000 Ang^3
#
#
#
# Elastic Constant Matrix: (Units=GPa)
#
#
# Indices 1 2 3 4 5 6 
#
# 1 81.8944 52.3646 9.0510 0.0033 0.0002 -0.0006
# 2 52.3646 137.6731 44.0694 -0.0005 0.0000 -0.0004
# 3 9.0510 44.0694 77.3589 -0.0015 0.0002 -0.0012
# 4 0.0033 -0.0005 -0.0015 20.1658 -0.0001 -0.0004
# 5 0.0002 0.0000 0.0002 -0.0001 28.0078 -0.0011
# 6 -0.0006 -0.0004 -0.0012 -0.0004 -0.0011 19.2187
#
#
#
# Elastic Compliance Matrix: (Units=1/GPa)
#
#
# Indices 1 2 3 4 5 6 
#
# 1 0.016383 -0.006871 0.001997 -0.000003 0.000000 0.000001
# 2 -0.006871 0.011765 -0.005898 0.000001 0.000000 0.000000
# 3 0.001997 -0.005898 0.016053 0.000001 0.000000 0.000001
# 4 -0.000003 0.000001 0.000001 0.049589 0.000000 0.000001
# 5 0.000000 0.000000 0.000000 0.000000 0.035704 0.000002
# 6 0.000001 0.000000 0.000001 0.000001 0.000002 0.052033
#
#
# Mechanical properties :
#
#
# Convention : Reuss Voigt Hill
#
# Bulk Modulus (GPa) = 44.13480 56.43294 50.28387
# Shear Modulus (GPa) = 23.73899 26.24122 24.99011
#
# Velocity S-wave (km/s) = 3.46085 3.63868 3.55088
# Velocity P-wave (km/s) = 6.18370 6.79165 6.49479
#
# Compressibility (1/GPa) = 0.02265786
#
# Stress axis : x y z
#
# Youngs Moduli (GPa) = 61.03726 84.99778 62.29281
#
# Poissons Ratio (x) = 0.58401 -0.12442
# Poissons Ratio (y) = 0.41938 0.36742
# Poissons Ratio (z) = -0.12191 0.50135
#
# Static dielectric constant tensor:
#      x y z
#    x 3.811580 0.000000 0.000000 
#    y 0.000000 4.185010 0.000000 
#    z 0.000000 0.000000 3.567250 
# 
# 
# High freq. dielectric constant tensor:
#      x y z
#    x 1.773540 0.000000 0.000000 
#    y 0.000000 1.765200 0.000000 
#    z 0.000000 0.000000 1.760440 
# 
# From -- ./inp_files/7081.got.cif
#   From: 2010.03.12/outbox.cif.g09.slc.cpg/sg23_4_cif.got.tgz:7081.got - 2010.04.14 02:50:06.
