data_PCOD8163416
_publ_section_title
;
Structure prediction by ZEFSAII (Michael W. Deem and Ramdas Pophale) SiO2 
 PCOD8163416
Probable space group: I 2 2 2
;
_chemical_formula_sum "Si O2"
_cell_formula_units_Z 64
_cell_length_a 9.159519
_cell_length_b 27.248996
_cell_length_c 13.798536
_cell_angle_alpha 90.000000
_cell_angle_beta 90.000000
_cell_angle_gamma 90.000000
_cell_volume 3443.944817
_symmetry_space_group_name_H-M "I 2 2 2"
_symmetry_group_IT_number 23
_symmetry_cell_setting 'orthorhombic'
loop_
_space_group_symop_operation_xyz
x,y,z
-x,-y,z
x,-y,-z
-x,y,-z
1/2+x,1/2+y,1/2+z
1/2-x,1/2-y,1/2+z
1/2+x,1/2-y,1/2-z
1/2-x,1/2+y,1/2-z
loop_
_atom_site_type_symbol
_atom_site_label
_atom_site_fract_x
_atom_site_fract_y
_atom_site_fract_z
Si Si1 0.259942 0.283704 0.739835
Si Si2 0.756107 0.677417 0.329267
Si Si3 0.073538 0.549723 0.102263
Si Si4 0.868711 0.084083 0.571150
Si Si5 0.519434 0.345573 0.801114
Si Si6 0.260891 0.170506 0.545464
Si Si7 0.999150 0.646683 0.201839
Si Si8 0.171364 0.776743 0.982724
O O1 0.238525 0.227141 0.765955
O O2 0.410113 0.300919 0.786412
O O3 0.274491 0.290179 0.624168
O O4 0.130748 0.315978 0.783622
O O5 0.616918 0.644792 0.294787
O O6 0.902563 0.648642 0.299843
O O7 0.755018 0.686770 0.443632
O O8 0.250164 0.540909 0.089768
O O9 0.000000 0.500000 0.141833
O O10 0.050920 0.591189 0.183947
O O11 0.000000 0.564054 0.000000
O O12 0.939110 0.103315 0.671489
O O13 0.761274 0.127247 0.531676
O O14 0.000000 0.067138 0.500000
O O15 0.615073 0.328328 0.891738
O O16 0.405584 0.163628 0.609403
O O17 0.280691 0.221579 0.488620
O O18 0.000000 0.783915 0.000000
#
# Coordination Sequence:
#
# PCOD8163416 Si02
#       8
#     8   8   8   8   8   8   8   8
#     4  12  21  35  55  80 112 161 202 242 293 355
#     4  11  23  35  51  79 119 154 203 246 287 362
#     4  11  23  39  62  89 115 150 200 247 298 364
#     4  10  20  35  60  83 112 153 191 233 293 355
#     4  10  19  35  49  76 110 153 197 231 283 354
#     4  10  21  33  54  78 114 162 195 233 296 351
#     4  11  22  38  57  78 119 158 191 244 304 348
#     4  12  23  33  53  81 116 160 208 246 290 347
#
# _framework density 18.583338999999999
#
# number of rings (size 3 to 8) (size 9 to 14) (size 15 to 20)
#    0.000    1.125    6.250    2.250    1.750    0.500 
#    0.000    1.250    0.000    0.000    0.000    1.750 
#    0.000    1.000    0.000    0.000    0.000    0.000 
#
# Total GULP energy -396715.564946 kJ/mol
# GULP energy per Si atom -12397.361405 kJ/mol
# Density = 1.854104 g / cm^3
# Si number density = 18.583339 Si / 1000 Ang^3
#
#
#
# Elastic Constant Matrix: (Units=GPa)
#
#
# Indices 1 2 3 4 5 6 
#
# 1 101.9471 41.1030 24.4386 0.0001 0.0000 -0.0001
# 2 41.1030 63.6847 21.2571 0.0000 0.0000 0.0000
# 3 24.4386 21.2571 81.5480 0.0001 0.0004 -0.0002
# 4 0.0001 0.0000 0.0001 16.9506 0.0000 0.0000
# 5 0.0000 0.0000 0.0004 0.0000 21.2881 0.0000
# 6 -0.0001 0.0000 -0.0002 0.0000 0.0000 26.9185
#
#
#
# Elastic Compliance Matrix: (Units=1/GPa)
#
#
# Indices 1 2 3 4 5 6 
#
# 1 0.013536 -0.008086 -0.001949 0.000000 0.000000 0.000000
# 2 -0.008086 0.022029 -0.003319 0.000000 0.000000 0.000000
# 3 -0.001949 -0.003319 0.013712 0.000000 0.000000 0.000000
# 4 0.000000 0.000000 0.000000 0.058995 0.000000 0.000000
# 5 0.000000 0.000000 0.000000 0.000000 0.046975 0.000000
# 6 0.000000 0.000000 0.000000 0.000000 0.000000 0.037149
#
#
# Mechanical properties :
#
#
# Convention : Reuss Voigt Hill
#
# Bulk Modulus (GPa) = 44.30767 46.75302 45.53034
# Shear Modulus (GPa) = 22.06268 23.72351 22.89310
#
# Velocity S-wave (km/s) = 3.44936 3.57683 3.51367
# Velocity P-wave (km/s) = 6.30544 6.50165 6.40430
#
# Compressibility (1/GPa) = 0.02256946
#
# Stress axis : x y z
#
# Youngs Moduli (GPa) = 73.87538 45.39456 72.92919
#
# Poissons Ratio (x) = 0.36706 0.14213
# Poissons Ratio (y) = 0.59736 0.24206
# Poissons Ratio (z) = 0.14397 0.15067
#
# Static dielectric constant tensor:
#      x y z
#    x 3.825310 0.000000 0.000000 
#    y 0.000000 3.154260 0.000000 
#    z 0.000000 0.000000 3.450250 
# 
# 
# High freq. dielectric constant tensor:
#      x y z
#    x 1.751450 0.000000 0.000000 
#    y 0.000000 1.672730 0.000000 
#    z 0.000000 0.000000 1.702510 
# 
# From -- ./inp_files/20414.got.cif
#   From: 2010.03.12/outbox.cif.g09.slc.cpg/sg23_11_cif.got.tgz:20414.got - 2010.04.14 02:50:06.
