data_PCOD8163394
_publ_section_title
;
Structure prediction by ZEFSAII (Michael W. Deem and Ramdas Pophale) SiO2 
 PCOD8163394
Probable space group: I 2 2 2
;
_chemical_formula_sum "Si O2"
_cell_formula_units_Z 42
_cell_length_a 22.286559
_cell_length_b 4.941240
_cell_length_c 22.386260
_cell_angle_alpha 90.000000
_cell_angle_beta 90.000000
_cell_angle_gamma 90.000000
_cell_volume 2465.247411
_symmetry_space_group_name_H-M "I 2 2 2"
_symmetry_group_IT_number 23
_symmetry_cell_setting 'orthorhombic'
loop_
_space_group_symop_operation_xyz
x,y,z
-x,-y,z
x,-y,-z
-x,y,-z
1/2+x,1/2+y,1/2+z
1/2-x,1/2-y,1/2+z
1/2+x,1/2-y,1/2-z
1/2-x,1/2+y,1/2-z
loop_
_atom_site_type_symbol
_atom_site_label
_atom_site_fract_x
_atom_site_fract_y
_atom_site_fract_z
Si Si1 0.823259 0.790050 0.275582
Si Si2 0.000000 0.000000 0.500000
Si Si3 0.408308 0.383111 0.088445
Si Si4 0.718267 0.270225 0.960881
Si Si5 0.260907 0.204946 0.171024
Si Si6 0.566047 0.897113 0.834495
O O1 0.801682 0.760353 0.207195
O O2 0.785584 0.593350 0.318119
O O3 0.894253 0.714250 0.278656
O O4 0.810735 0.083603 0.304390
O O5 0.957754 0.801392 0.539201
O O6 0.344645 0.411579 0.056622
O O7 0.434137 0.661327 0.116302
O O8 0.399990 0.152594 0.137760
O O9 0.754447 0.224171 0.899259
O O10 0.752341 0.500000 0.000000
O O11 0.710721 0.000000 0.000000
O O12 0.500000 0.000000 0.814046
#
# Coordination Sequence:
#
# PCOD8163394 Si02
#       6
#     8   2   8   8   8   8
#     4  10  19  34  54  70  95 125 169 212 260 302
#     4  12  24  34  40  62  96 142 168 202 224 270
#     4  12  24  33  45  65  96 132 177 202 243 276
#     4  12  22  33  50  69  98 130 170 213 249 299
#     4  10  20  34  52  72  93 129 166 211 259 308
#     4  12  21  35  49  70  94 127 167 218 245 290
#
# _framework density 17.036829999999998
#
# number of rings (size 3 to 8) (size 9 to 14) (size 15 to 20)
#    0.000    0.762    6.667    2.286    0.000    0.762 
#    0.000    0.000    0.000    0.000    0.000    0.000 
#    0.000    0.762    0.000    3.429    0.000    0.000 
#
# Total GULP energy -260261.139392 kJ/mol
# GULP energy per Si atom -12393.387590 kJ/mol
# Density = 1.699805 g / cm^3
# Si number density = 17.036830 Si / 1000 Ang^3
#
#
#
# Elastic Constant Matrix: (Units=GPa)
#
#
# Indices 1 2 3 4 5 6 
#
# 1 62.6499 16.4714 46.3202 0.0000 0.0000 0.0000
# 2 16.4714 77.6231 22.7966 0.0000 0.0000 0.0000
# 3 46.3202 22.7966 114.4157 0.0000 0.0000 0.0000
# 4 0.0000 0.0000 0.0000 15.7199 0.0000 0.0000
# 5 0.0000 0.0000 0.0000 0.0000 18.5949 0.0000
# 6 0.0000 0.0000 0.0000 0.0000 0.0000 16.4840
#
#
#
# Elastic Compliance Matrix: (Units=1/GPa)
#
#
# Indices 1 2 3 4 5 6 
#
# 1 0.023159 -0.002295 -0.008918 0.000000 0.000000 0.000000
# 2 -0.002295 0.013911 -0.001843 0.000000 0.000000 0.000000
# 3 -0.008918 -0.001843 0.012718 0.000000 0.000000 0.000000
# 4 0.000000 0.000000 0.000000 0.063614 0.000000 0.000000
# 5 0.000000 0.000000 0.000000 0.000000 0.053778 0.000000
# 6 0.000000 0.000000 0.000000 0.000000 0.000000 0.060665
#
#
# Mechanical properties :
#
#
# Convention : Reuss Voigt Hill
#
# Bulk Modulus (GPa) = 42.23769 47.31835 44.77802
# Shear Modulus (GPa) = 19.09503 21.43312 20.26407
#
# Velocity S-wave (km/s) = 3.35148 3.55074 3.45255
# Velocity P-wave (km/s) = 6.31050 6.68168 6.49874
#
# Compressibility (1/GPa) = 0.02367554
#
# Stress axis : x y z
#
# Youngs Moduli (GPa) = 43.17977 71.88608 78.63038
#
# Poissons Ratio (x) = 0.16498 0.70126
# Poissons Ratio (y) = 0.09910 0.14488
# Poissons Ratio (z) = 0.38510 0.13245
#
# Static dielectric constant tensor:
#      x y z
#    x 3.198580 0.000000 0.000000 
#    y 0.000000 3.388680 0.000000 
#    z 0.000000 0.000000 3.319530 
# 
# 
# High freq. dielectric constant tensor:
#      x y z
#    x 1.616410 0.000000 0.000000 
#    y 0.000000 1.679960 0.000000 
#    z 0.000000 0.000000 1.640320 
# 
# From -- ./inp_files/23171.got.cif
#   From: 2010.03.12/outbox.cif.g09.slc.cpg/sg23_12_cif.got.tgz:23171.got - 2010.04.14 02:50:06.
