data_PCOD8163557
_publ_section_title
;
Structure prediction by ZEFSAII (Michael W. Deem and Ramdas Pophale) SiO2 
 PCOD8163557
Probable space group: I 2 2 2
;
_chemical_formula_sum "Si O2"
_cell_formula_units_Z 40
_cell_length_a 27.673561
_cell_length_b 5.208731
_cell_length_c 16.383992
_cell_angle_alpha 90.000000
_cell_angle_beta 90.000000
_cell_angle_gamma 90.000000
_cell_volume 2361.656356
_symmetry_space_group_name_H-M "I 2 2 2"
_symmetry_group_IT_number 23
_symmetry_cell_setting 'orthorhombic'
loop_
_space_group_symop_operation_xyz
x,y,z
-x,-y,z
x,-y,-z
-x,y,-z
1/2+x,1/2+y,1/2+z
1/2-x,1/2-y,1/2+z
1/2+x,1/2-y,1/2-z
1/2-x,1/2+y,1/2-z
loop_
_atom_site_type_symbol
_atom_site_label
_atom_site_fract_x
_atom_site_fract_y
_atom_site_fract_z
Si Si1 0.478860 0.251172 0.409114
Si Si2 0.132678 0.670907 0.080828
Si Si3 0.686549 0.014038 0.732744
Si Si4 0.268046 0.500000 0.000000
Si Si5 0.204421 0.000000 0.000000
Si Si6 0.295892 0.516085 0.175329
O O1 0.500000 0.500000 0.362485
O O2 0.500000 0.249009 0.500000
O O3 0.421463 0.269560 0.410817
O O4 0.500000 0.000000 0.363254
O O5 0.146814 0.513328 0.161230
O O6 0.138970 0.500000 0.000000
O O7 0.169092 0.916437 0.074862
O O8 0.679487 0.255939 0.792936
O O9 0.677511 0.755770 0.783229
O O10 0.739072 0.023990 0.692815
O O11 0.302116 0.548324 0.077869
O O12 0.236386 0.752335 0.976897
#
# Coordination Sequence:
#
# PCOD8163557 Si02
#       6
#     8   8   8   4   4   8
#     4  10  20  35  48  70  99 135 173 208 260 289
#     4  12  23  34  55  75 104 140 188 217 250 319
#     4  10  22  33  50  72 102 130 169 233 256 292
#     4  12  22  36  56  70  97 140 179 220 272 322
#     4  12  22  30  51  78  90 130 192 218 245 298
#     4  10  21  37  48  70 102 129 172 224 274 295
#
# _framework density 16.937265
#
# number of rings (size 3 to 8) (size 9 to 14) (size 15 to 20)
#    0.000    1.200    5.000    2.400    8.400    0.000 
#    0.000    0.000    0.000    0.000    0.000    0.000 
#    0.000    0.000    0.000   13.500    0.000    0.200 
#
# Total GULP energy -247942.708722 kJ/mol
# GULP energy per Si atom -12397.135436 kJ/mol
# Density = 1.689872 g / cm^3
# Si number density = 16.937265 Si / 1000 Ang^3
#
#
#
# Elastic Constant Matrix: (Units=GPa)
#
#
# Indices 1 2 3 4 5 6 
#
# 1 63.1436 26.2215 31.6073 0.0000 0.0000 0.0000
# 2 26.2215 135.7237 37.7443 0.0000 0.0000 0.0000
# 3 31.6073 37.7443 105.6997 0.0000 0.0000 0.0000
# 4 0.0000 0.0000 0.0000 20.3425 0.0000 0.0000
# 5 0.0000 0.0000 0.0000 0.0000 9.7193 0.0000
# 6 0.0000 0.0000 0.0000 0.0000 0.0000 16.0027
#
#
#
# Elastic Compliance Matrix: (Units=1/GPa)
#
#
# Indices 1 2 3 4 5 6 
#
# 1 0.019280 -0.002355 -0.004924 0.000000 0.000000 0.000000
# 2 -0.002355 0.008468 -0.002320 0.000000 0.000000 0.000000
# 3 -0.004924 -0.002320 0.011762 0.000000 0.000000 0.000000
# 4 0.000000 0.000000 0.000000 0.049158 0.000000 0.000000
# 5 0.000000 0.000000 0.000000 0.000000 0.102888 0.000000
# 6 0.000000 0.000000 0.000000 0.000000 0.000000 0.062489
#
#
# Mechanical properties :
#
#
# Convention : Reuss Voigt Hill
#
# Bulk Modulus (GPa) = 49.23384 55.07926 52.15655
# Shear Modulus (GPa) = 17.85628 23.14583 20.50106
#
# Velocity S-wave (km/s) = 3.25046 3.70071 3.48287
# Velocity P-wave (km/s) = 6.57410 7.13096 6.85818
#
# Compressibility (1/GPa) = 0.02031123
#
# Stress axis : x y z
#
# Youngs Moduli (GPa) = 51.86746 118.09131 85.02317
#
# Poissons Ratio (x) = 0.27816 0.41867
# Poissons Ratio (y) = 0.12217 0.19721
# Poissons Ratio (z) = 0.25540 0.27391
#
# Static dielectric constant tensor:
#      x y z
#    x 2.838700 0.000000 0.000000 
#    y 0.000000 0.907910 0.000000 
#    z 0.000000 0.000000 2.950960 
# 
# 
# High freq. dielectric constant tensor:
#      x y z
#    x 1.605430 0.000000 0.000000 
#    y 0.000000 1.685130 0.000000 
#    z 0.000000 0.000000 1.617310 
# 
# From -- ./inp_files/25189.got.cif
#   From: 2010.03.12/outbox.cif.g09.slc.cpg/sg23_13_cif.got.tgz:25189.got - 2010.04.14 02:50:06.
