data_PCOD8163536
_publ_section_title
;
Structure prediction by ZEFSAII (Michael W. Deem and Ramdas Pophale) SiO2 
 PCOD8163536
Probable space group: I 2 2 2
;
_chemical_formula_sum "Si O2"
_cell_formula_units_Z 64
_cell_length_a 18.179940
_cell_length_b 8.991666
_cell_length_c 22.338475
_cell_angle_alpha 90.000000
_cell_angle_beta 90.000000
_cell_angle_gamma 90.000000
_cell_volume 3651.624678
_symmetry_space_group_name_H-M "I 2 2 2"
_symmetry_group_IT_number 23
_symmetry_cell_setting 'orthorhombic'
loop_
_space_group_symop_operation_xyz
x,y,z
-x,-y,z
x,-y,-z
-x,y,-z
1/2+x,1/2+y,1/2+z
1/2-x,1/2-y,1/2+z
1/2+x,1/2-y,1/2-z
1/2-x,1/2+y,1/2-z
loop_
_atom_site_type_symbol
_atom_site_label
_atom_site_fract_x
_atom_site_fract_y
_atom_site_fract_z
Si Si1 0.421963 0.571022 0.237792
Si Si2 0.577532 0.074246 0.231874
Si Si3 0.856310 0.019242 0.134819
Si Si4 0.917745 0.785761 0.062522
Si Si5 0.357647 0.047193 0.639405
Si Si6 0.785004 0.434583 0.311119
Si Si7 0.787057 0.919525 0.696456
Si Si8 0.588675 0.781820 0.430249
O O1 0.500000 0.500000 0.223690
O O2 0.425267 0.747848 0.228980
O O3 0.397005 0.527688 0.304332
O O4 0.366340 0.497770 0.188856
O O5 0.603348 0.018431 0.297106
O O6 0.500000 0.000000 0.216809
O O7 0.634550 0.009552 0.182120
O O8 0.901167 0.957812 0.076623
O O9 0.770023 0.970359 0.133469
O O10 0.865629 0.194270 0.121261
O O11 0.871936 0.713438 0.117035
O O12 0.002492 0.748673 0.071194
O O13 0.884531 0.744198 0.998016
O O14 0.269126 0.029123 0.644270
O O15 0.394730 0.950890 0.587073
O O16 0.793294 0.258934 0.300003
O O17 0.745483 0.521603 0.257960
#
# Coordination Sequence:
#
# PCOD8163536 Si02
#       8
#     8   8   8   8   8   8   8   8
#     4  11  22  34  54  78 106 134 171 209 256 315
#     4  11  22  34  54  78 106 134 171 209 256 315
#     4  11  21  34  52  72 103 141 177 210 257 301
#     4  11  20  40  45  74 101 139 182 221 258 284
#     4  11  21  34  52  72 103 141 177 210 257 301
#     4  10  20  34  51  72 103 135 173 213 254 307
#     4  10  20  34  51  72 103 135 173 213 254 307
#     4  11  24  30  55  70 103 139 180 225 250 296
#
# _framework density 17.526444000000001
#
# number of rings (size 3 to 8) (size 9 to 14) (size 15 to 20)
#    0.000    1.250    2.500    6.000   10.500    2.000 
#    0.000    0.000    0.000    0.000    0.000    0.000 
#    0.000    6.000    0.000    0.000    0.000    0.000 
#
# Total GULP energy -396598.321625 kJ/mol
# GULP energy per Si atom -12393.697551 kJ/mol
# Density = 1.748655 g / cm^3
# Si number density = 17.526444 Si / 1000 Ang^3
#
#
#
# Elastic Constant Matrix: (Units=GPa)
#
#
# Indices 1 2 3 4 5 6 
#
# 1 140.5033 41.2884 32.4993 0.0000 0.0000 0.0000
# 2 41.2884 88.8743 13.7087 0.0000 0.0000 0.0000
# 3 32.4993 13.7087 42.4771 0.0000 0.0000 0.0000
# 4 0.0000 0.0000 0.0000 18.0206 0.0000 0.0000
# 5 0.0000 0.0000 0.0000 0.0000 21.4336 0.0000
# 6 0.0000 0.0000 0.0000 0.0000 0.0000 34.6100
#
#
#
# Elastic Compliance Matrix: (Units=1/GPa)
#
#
# Indices 1 2 3 4 5 6 
#
# 1 0.009578 -0.003493 -0.006201 0.000000 0.000000 0.000000
# 2 -0.003493 0.013115 -0.001560 0.000000 0.000000 0.000000
# 3 -0.006201 -0.001560 0.028790 0.000000 0.000000 0.000000
# 4 0.000000 0.000000 0.000000 0.055492 0.000000 0.000000
# 5 0.000000 0.000000 0.000000 0.000000 0.046656 0.000000
# 6 0.000000 0.000000 0.000000 0.000000 0.000000 0.028893
#
#
# Mechanical properties :
#
#
# Convention : Reuss Voigt Hill
#
# Bulk Modulus (GPa) = 34.51247 49.64973 42.08110
# Shear Modulus (GPa) = 23.28929 27.10340 25.19635
#
# Velocity S-wave (km/s) = 3.64924 3.93673 3.79571
# Velocity P-wave (km/s) = 6.12293 7.00384 6.57815
#
# Compressibility (1/GPa) = 0.02897503
#
# Stress axis : x y z
#
# Youngs Moduli (GPa) = 104.40495 76.24664 34.73447
#
# Poissons Ratio (x) = 0.26635 0.21538
# Poissons Ratio (y) = 0.36471 0.05419
# Poissons Ratio (z) = 0.64740 0.11895
#
# Static dielectric constant tensor:
#      x y z
#    x 4.353810 0.000000 0.000000 
#    y 0.000000 3.421340 0.000000 
#    z 0.000000 0.000000 3.074050 
# 
# 
# High freq. dielectric constant tensor:
#      x y z
#    x 1.677360 0.000000 0.000000 
#    y 0.000000 1.704350 0.000000 
#    z 0.000000 0.000000 1.627420 
# 
# From -- ./inp_files/29699.got.cif
#   From: 2010.03.12/outbox.cif.g09.slc.cpg/sg23_15_cif.got.tgz:29699.got - 2010.04.14 02:50:06.
