data_PCOD8163859
_publ_section_title
;
Structure prediction by ZEFSAII (Michael W. Deem and Ramdas Pophale) SiO2 
 PCOD8163859
Probable space group: I 2 2 2
;
_chemical_formula_sum "Si O2"
_cell_formula_units_Z 46
_cell_length_a 17.707214
_cell_length_b 11.594906
_cell_length_c 10.018911
_cell_angle_alpha 90.000000
_cell_angle_beta 90.000000
_cell_angle_gamma 90.000000
_cell_volume 2057.017502
_symmetry_space_group_name_H-M "I 2 2 2"
_symmetry_group_IT_number 23
_symmetry_cell_setting 'orthorhombic'
loop_
_space_group_symop_operation_xyz
x,y,z
-x,-y,z
x,-y,-z
-x,y,-z
1/2+x,1/2+y,1/2+z
1/2-x,1/2-y,1/2+z
1/2+x,1/2-y,1/2-z
1/2-x,1/2+y,1/2-z
loop_
_atom_site_type_symbol
_atom_site_label
_atom_site_fract_x
_atom_site_fract_y
_atom_site_fract_z
Si Si1 0.587084 0.313056 0.159555
Si Si2 0.214520 0.719059 0.497143
Si Si3 0.589907 0.494190 0.352107
Si Si4 0.128461 0.500000 0.500000
Si Si5 0.470324 0.885119 0.772058
Si Si6 0.660939 0.727864 0.292758
Si Si7 0.500000 0.500000 0.000000
O O1 0.654112 0.307334 0.055022
O O2 0.616042 0.367120 0.299641
O O3 0.539965 0.194369 0.176811
O O4 0.540367 0.418817 0.103889
O O5 0.186438 0.595812 0.553876
O O6 0.294551 0.742941 0.567772
O O7 0.213060 0.735115 0.335272
O O8 0.500000 0.500000 0.355026
O O9 0.623822 0.500000 0.500000
O O10 0.628403 0.599270 0.269498
O O11 0.074604 0.562885 0.396221
O O12 0.411862 0.810729 0.686053
O O13 0.500000 0.000000 0.692862
#
# Coordination Sequence:
#
# PCOD8163859 Si02
#       7
#     8   8   8   4   8   8   2
#     4  12  22  40  68 106 138 185 240 304 349 413
#     4  11  26  42  69 106 151 188 236 287 364 439
#     4  11  24  44  74 103 138 186 244 309 371 422
#     4  10  21  38  68 106 137 188 226 288 355 420
#     4  11  21  40  71 104 138 180 245 291 349 425
#     4  11  26  46  70 110 143 194 238 293 361 439
#     4  12  20  36  68 104 140 168 246 312 336 400
#
# _framework density 22.362473999999999
#
# number of rings (size 3 to 8) (size 9 to 14) (size 15 to 20)
#    0.000    0.870    4.348    3.391    6.087    1.391 
#    0.000    0.000    0.000    8.348    0.000    0.000 
#    0.000    0.000    0.000    0.000    0.000    0.000 
#
# Total GULP energy -284933.169661 kJ/mol
# GULP energy per Si atom -12388.398681 kJ/mol
# Density = 2.231158 g / cm^3
# Si number density = 22.362474 Si / 1000 Ang^3
#
#
#
# Elastic Constant Matrix: (Units=GPa)
#
#
# Indices 1 2 3 4 5 6 
#
# 1 81.0563 30.9697 16.4048 0.0000 0.0000 0.0000
# 2 30.9697 143.8908 24.5925 0.0000 0.0000 0.0000
# 3 16.4048 24.5925 86.8060 0.0000 0.0000 0.0000
# 4 0.0000 0.0000 0.0000 157.2474 0.0000 0.0000
# 5 0.0000 0.0000 0.0000 0.0000 27.0204 0.0000
# 6 0.0000 0.0000 0.0000 0.0000 0.0000 35.4279
#
#
#
# Elastic Compliance Matrix: (Units=1/GPa)
#
#
# Indices 1 2 3 4 5 6 
#
# 1 0.013718 -0.002637 -0.001845 0.000000 0.000000 0.000000
# 2 -0.002637 0.007810 -0.001714 0.000000 0.000000 0.000000
# 3 -0.001845 -0.001714 0.012354 0.000000 0.000000 0.000000
# 4 0.000000 0.000000 0.000000 0.006359 0.000000 0.000000
# 5 0.000000 0.000000 0.000000 0.000000 0.037009 0.000000
# 6 0.000000 0.000000 0.000000 0.000000 0.000000 0.028226
#
#
# Mechanical properties :
#
#
# Convention : Reuss Voigt Hill
#
# Bulk Modulus (GPa) = 46.53515 50.63189 48.58352
# Shear Modulus (GPa) = 39.98897 59.92486 49.95691
#
# Velocity S-wave (km/s) = 4.23332 5.18220 4.73161
# Velocity P-wave (km/s) = 6.68949 7.64837 7.18495
#
# Compressibility (1/GPa) = 0.02148913
#
# Stress axis : x y z
#
# Youngs Moduli (GPa) = 72.89587 128.03582 80.94306
#
# Poissons Ratio (x) = 0.33765 0.14937
# Poissons Ratio (y) = 0.19224 0.13876
# Poissons Ratio (z) = 0.13452 0.21949
#
# Static dielectric constant tensor:
#      x y z
#    x 3.984050 0.000000 0.000000 
#    y 0.000000 4.603060 0.000000 
#    z 0.000000 0.000000 3.961320 
# 
# 
# High freq. dielectric constant tensor:
#      x y z
#    x 1.878730 0.000000 0.000000 
#    y 0.000000 1.900250 0.000000 
#    z 0.000000 0.000000 1.861650 
# 
# From -- ./inp_files/17425.got.cif
#   From: 2010.03.12/outbox.cif.g09.slc.cpg/sg23_9_cif.got.tgz:17425.got - 2010.04.14 02:50:06.
