data_PCOD8163336
_publ_section_title
;
Structure prediction by ZEFSAII (Michael W. Deem and Ramdas Pophale) SiO2 
 PCOD8163336
Probable space group: I 2 2 2
;
_chemical_formula_sum "Si O2"
_cell_formula_units_Z 56
_cell_length_a 28.214191
_cell_length_b 5.202534
_cell_length_c 26.340325
_cell_angle_alpha 90.000000
_cell_angle_beta 90.000000
_cell_angle_gamma 90.000000
_cell_volume 3866.372190
_symmetry_space_group_name_H-M "I 2 2 2"
_symmetry_group_IT_number 23
_symmetry_cell_setting 'orthorhombic'
loop_
_space_group_symop_operation_xyz
x,y,z
-x,-y,z
x,-y,-z
-x,y,-z
1/2+x,1/2+y,1/2+z
1/2-x,1/2-y,1/2+z
1/2+x,1/2-y,1/2-z
1/2-x,1/2+y,1/2-z
loop_
_atom_site_type_symbol
_atom_site_label
_atom_site_fract_x
_atom_site_fract_y
_atom_site_fract_z
Si Si1 0.643149 0.599924 0.145066
Si Si2 0.053236 0.410598 0.261699
Si Si3 0.394415 0.406881 0.258258
Si Si4 0.705376 0.596710 0.297252
Si Si5 0.909485 0.390503 0.625382
Si Si6 0.243335 0.101154 0.683131
Si Si7 0.947121 0.254935 0.522176
O O1 0.626693 0.584027 0.202564
O O2 0.630722 0.326893 0.120486
O O3 0.700016 0.623629 0.143300
O O4 0.616404 0.835236 0.116589
O O5 0.083423 0.627623 0.233439
O O6 0.062604 0.392453 0.321779
O O7 0.000000 0.500000 0.252591
O O8 0.066984 0.137478 0.235735
O O9 0.351707 0.426340 0.298641
O O10 0.724509 0.349126 0.326758
O O11 0.723443 0.600021 0.239846
O O12 0.724577 0.849059 0.326277
O O13 0.947659 0.301964 0.582791
O O14 0.918857 0.500000 0.500000
O O15 0.000000 0.251338 0.500000
O O16 0.921389 0.000000 0.500000
#
# Coordination Sequence:
#
# PCOD8163336 Si02
#       7
#     8   8   8   8   8   8   8
#     4   9  17  28  41  56  75  88 110 134 173 233
#     4  10  19  28  40  53  68  94 123 151 183 229
#     4   9  17  28  36  53  73  92 116 144 173 207
#     4   9  15  23  37  52  74  93 110 134 162 197
#     4  10  19  31  43  55  71  92 108 150 199 221
#     4   9  15  23  37  57  70  92 111 128 158 210
#     4  10  21  34  45  58  69  86 115 157 188 242
#
# _framework density 14.483862999999999
#
# number of rings (size 3 to 8) (size 9 to 14) (size 15 to 20)
#    0.000    2.571    0.000    3.000    2.000    6.857 
#    5.143    0.000    0.000    0.000    0.000    0.000 
#    0.000    0.000    0.000    0.000    0.000    0.000 
#
# Total GULP energy -346894.227286 kJ/mol
# GULP energy per Si atom -12389.079546 kJ/mol
# Density = 1.445090 g / cm^3
# Si number density = 14.483863 Si / 1000 Ang^3
#
#
#
# Elastic Constant Matrix: (Units=GPa)
#
#
# Indices 1 2 3 4 5 6 
#
# 1 83.2680 31.7105 21.8571 0.0000 0.0000 0.0000
# 2 31.7105 122.5024 11.0798 0.0000 0.0000 0.0000
# 3 21.8571 11.0798 12.5317 0.0000 0.0000 0.0000
# 4 0.0000 0.0000 0.0000 13.0835 0.0000 0.0000
# 5 0.0000 0.0000 0.0000 0.0000 8.0432 0.0000
# 6 0.0000 0.0000 0.0000 0.0000 0.0000 21.7108
#
#
#
# Elastic Compliance Matrix: (Units=1/GPa)
#
#
# Indices 1 2 3 4 5 6 
#
# 1 0.022839 -0.002510 -0.037615 0.000000 0.000000 0.000000
# 2 -0.002510 0.009148 -0.003711 0.000000 0.000000 0.000000
# 3 -0.037615 -0.003711 0.148686 0.000000 0.000000 0.000000
# 4 0.000000 0.000000 0.000000 0.076432 0.000000 0.000000
# 5 0.000000 0.000000 0.000000 0.000000 0.124329 0.000000
# 6 0.000000 0.000000 0.000000 0.000000 0.000000 0.046060
#
#
# Mechanical properties :
#
#
# Convention : Reuss Voigt Hill
#
# Bulk Modulus (GPa) = 10.75264 38.62187 24.68725
# Shear Modulus (GPa) = 9.15471 18.81113 13.98292
#
# Velocity S-wave (km/s) = 2.51681 3.60775 3.11048
# Velocity P-wave (km/s) = 3.98570 6.63911 5.47556
#
# Compressibility (1/GPa) = 0.09300045
#
# Stress axis : x y z
#
# Youngs Moduli (GPa) = 43.78490 109.30828 6.72560
#
# Poissons Ratio (x) = 0.27435 0.25299
# Poissons Ratio (y) = 0.10989 0.02496
# Poissons Ratio (z) = 1.64699 0.40564
#
# Static dielectric constant tensor:
#      x y z
#    x 2.783590 0.000000 0.000000 
#    y 0.000000 4.328630 0.000000 
#    z 0.000000 0.000000 2.326370 
# 
# 
# High freq. dielectric constant tensor:
#      x y z
#    x 1.542310 0.000000 0.000000 
#    y 0.000000 1.586290 0.000000 
#    z 0.000000 0.000000 1.468220 
# 
# From -- ./inp_files/4607.got.cif
#   From: 2010.03.12/outbox.cif.g09.slc.cpg/sg23_3_cif.got.tgz:4607.got - 2010.04.14 02:50:06.
