data_PCOD8163027
_publ_section_title
;
Structure prediction by ZEFSAII (Michael W. Deem and Ramdas Pophale) SiO2 
 PCOD8163027
Probable space group: F 2 2 2
;
_chemical_formula_sum "Si O2"
_cell_formula_units_Z 112
_cell_length_a 15.968152
_cell_length_b 14.428242
_cell_length_c 21.009182
_cell_angle_alpha 90.000000
_cell_angle_beta 90.000000
_cell_angle_gamma 90.000000
_cell_volume 4840.355051
_symmetry_space_group_name_H-M "F 2 2 2"
_symmetry_group_IT_number 22
_symmetry_cell_setting 'orthorhombic'
loop_
_space_group_symop_operation_xyz
x,y,z
-x,-y,z
x,-y,-z
-x,y,-z
x,1/2+y,1/2+z
-x,1/2-y,1/2+z
x,1/2-y,1/2-z
-x,1/2+y,1/2-z
1/2+x,y,1/2+z
1/2-x,-y,1/2+z
1/2+x,-y,1/2-z
1/2-x,y,1/2-z
1/2+x,1/2+y,z
1/2-x,1/2-y,z
1/2+x,1/2-y,-z
1/2-x,1/2+y,-z
loop_
_atom_site_type_symbol
_atom_site_label
_atom_site_fract_x
_atom_site_fract_y
_atom_site_fract_z
Si Si1 0.087513 0.260196 0.515345
Si Si2 0.660963 0.916064 0.434260
Si Si3 0.129137 0.102327 0.887356
Si Si4 0.400309 0.002858 0.860832
Si Si5 0.651281 0.357924 0.251268
Si Si6 0.733236 0.140822 0.821963
Si Si7 0.792291 0.400372 0.041794
O O1 0.105527 0.331738 0.458044
O O2 0.076489 0.313565 0.582293
O O3 0.164259 0.191844 0.517124
O O4 0.000000 0.209118 0.500000
O O5 0.695021 0.906756 0.362962
O O6 0.741667 0.935306 0.479122
O O7 0.605070 0.009392 0.427337
O O8 0.112133 0.095993 0.812461
O O9 0.227847 0.123321 0.901237
O O10 0.383663 0.086506 0.811428
O O11 0.362009 0.029341 0.930086
O O12 0.500000 0.000000 0.868308
O O13 0.358584 0.903323 0.839962
O O14 0.624086 0.250000 0.250000
O O15 0.750000 0.367910 0.250000
O O16 0.750000 0.111935 0.750000
O O17 0.750000 0.250000 0.832792
#
# Coordination Sequence:
#
# PCOD8163027 Si02
#       7
#    16  16  16  16  16  16  16
#     4  11  25  41  60 103 143 173 228 295 360 423
#     4  11  22  42  72  95 133 181 243 285 343 440
#     4  11  21  40  72  94 128 181 240 282 347 429
#     4  12  26  45  69 106 152 178 239 308 374 426
#     4  11  22  42  76 100 132 186 243 297 351 434
#     4  11  24  46  72 100 135 194 246 286 353 454
#     4  11  22  41  66  96 134 182 230 278 341 433
#
# _framework density 23.138798999999999
#
# number of rings (size 3 to 8) (size 9 to 14) (size 15 to 20)
#    0.000    0.857    2.857    6.429    2.000    3.429 
#    7.714    0.714    0.000    0.000    0.000    0.000 
#    0.000    0.000    0.000    0.000    0.000    0.000 
#
# Total GULP energy -346932.995551 kJ/mol
# GULP energy per Si atom -12390.464127 kJ/mol
# Density = 2.308613 g / cm^3
# Si number density = 23.138799 Si / 1000 Ang^3
#
#
#
# Elastic Constant Matrix: (Units=GPa)
#
#
# Indices 1 2 3 4 5 6 
#
# 1 83.7197 16.9360 7.8611 0.0000 0.0000 0.0000
# 2 16.9360 113.0382 18.7591 0.0000 0.0000 0.0000
# 3 7.8611 18.7591 110.0076 0.0000 0.0000 0.0000
# 4 0.0000 0.0000 0.0000 29.5940 0.0000 0.0000
# 5 0.0000 0.0000 0.0000 0.0000 21.4741 0.0000
# 6 0.0000 0.0000 0.0000 0.0000 0.0000 16.3541
#
#
#
# Elastic Compliance Matrix: (Units=1/GPa)
#
#
# Indices 1 2 3 4 5 6 
#
# 1 0.012354 -0.001754 -0.000584 0.000000 0.000000 0.000000
# 2 -0.001754 0.009353 -0.001470 0.000000 0.000000 0.000000
# 3 -0.000584 -0.001470 0.009383 0.000000 0.000000 0.000000
# 4 0.000000 0.000000 0.000000 0.033791 0.000000 0.000000
# 5 0.000000 0.000000 0.000000 0.000000 0.046568 0.000000
# 6 0.000000 0.000000 0.000000 0.000000 0.000000 0.061147
#
#
# Mechanical properties :
#
#
# Convention : Reuss Voigt Hill
#
# Bulk Modulus (GPa) = 42.59807 43.76422 43.18114
# Shear Modulus (GPa) = 26.59076 31.03172 28.81124
#
# Velocity S-wave (km/s) = 3.39364 3.66609 3.53249
# Velocity P-wave (km/s) = 5.81425 6.07249 5.94477
#
# Compressibility (1/GPa) = 0.02347524
#
# Stress axis : x y z
#
# Youngs Moduli (GPa) = 80.94365 106.91450 106.58028
#
# Poissons Ratio (x) = 0.18754 0.06221
# Poissons Ratio (y) = 0.14198 0.15663
# Poissons Ratio (z) = 0.04725 0.15712
#
# Static dielectric constant tensor:
#      x y z
#    x 3.935430 0.000000 0.000000 
#    y 0.000000 4.556080 0.000000 
#    z 0.000000 0.000000 4.408600 
# 
# 
# High freq. dielectric constant tensor:
#      x y z
#    x 1.881110 0.000000 0.000000 
#    y 0.000000 1.931660 0.000000 
#    z 0.000000 0.000000 1.927720 
# 
# From -- ./inp_files/48971.got.cif
#   From: 2010.03.12/outbox.cif.g09.slc.cpg/sg22_25_cif.got.tgz:48971.got - 2010.04.14 02:24:06.
