data_PCOD8163297
_publ_section_title
;
Structure prediction by ZEFSAII (Michael W. Deem and Ramdas Pophale) SiO2 
 PCOD8163297
Probable space group: I 2 2 2
;
_chemical_formula_sum "Si O2"
_cell_formula_units_Z 26
_cell_length_a 6.931755
_cell_length_b 21.455640
_cell_length_c 9.109216
_cell_angle_alpha 90.000000
_cell_angle_beta 90.000000
_cell_angle_gamma 90.000000
_cell_volume 1354.770334
_symmetry_space_group_name_H-M "I 2 2 2"
_symmetry_group_IT_number 23
_symmetry_cell_setting 'orthorhombic'
loop_
_space_group_symop_operation_xyz
x,y,z
-x,-y,z
x,-y,-z
-x,y,-z
1/2+x,1/2+y,1/2+z
1/2-x,1/2-y,1/2+z
1/2+x,1/2-y,1/2-z
1/2-x,1/2+y,1/2-z
loop_
_atom_site_type_symbol
_atom_site_label
_atom_site_fract_x
_atom_site_fract_y
_atom_site_fract_z
Si Si1 0.688185 0.214040 0.094546
Si Si2 0.553207 0.168133 0.653358
Si Si3 0.500000 0.500000 0.500000
Si Si4 0.700640 0.097519 0.919994
O O1 0.633040 0.193298 0.259504
O O2 0.824003 0.272505 0.104001
O O3 0.500000 0.232038 0.000000
O O4 0.789309 0.155263 0.013162
O O5 0.500000 0.134071 0.500000
O O6 0.666594 0.118688 0.752700
O O7 0.357240 0.542761 0.403831
O O8 0.500000 0.076161 0.000000
#
# Coordination Sequence:
#
# PCOD8163297 Si02
#       4
#     8   8   2   8
#     4   9  19  32  53  89 121 154 190 236 307 354
#     4  10  18  33  56  87 125 149 183 255 303 349
#     4  12  22  40  68  80 116 164 222 232 264 394
#     4   9  22  38  58  89 115 159 201 245 293 343
#
# _framework density 19.191443
#
# number of rings (size 3 to 8) (size 9 to 14) (size 15 to 20)
#    0.000    3.077    0.000    4.154    6.462    0.000 
#    0.000    0.000    0.000   22.154    0.000    0.000 
#    0.000    0.000    0.000    0.000    0.000    0.000 
#
# Total GULP energy -161076.776043 kJ/mol
# GULP energy per Si atom -12390.521234 kJ/mol
# Density = 1.914776 g / cm^3
# Si number density = 19.191443 Si / 1000 Ang^3
#
#
#
# Elastic Constant Matrix: (Units=GPa)
#
#
# Indices 1 2 3 4 5 6 
#
# 1 69.0887 61.4545 40.9657 0.0000 0.0000 0.0000
# 2 61.4545 110.8414 52.1079 0.0001 0.0000 0.0000
# 3 40.9657 52.1079 175.6454 0.0002 0.0000 0.0000
# 4 0.0000 0.0001 0.0002 -137.6131 -0.0001 0.0000
# 5 0.0000 0.0000 0.0000 -0.0001 11.5484 0.0000
# 6 0.0000 0.0000 0.0000 0.0000 0.0000 52.6803
#
#
#
# Elastic Compliance Matrix: (Units=1/GPa)
#
#
# Indices 1 2 3 4 5 6 
#
# 1 0.029367 -0.015179 -0.002346 0.000000 0.000000 0.000000
# 2 -0.015179 0.018330 -0.001898 0.000000 0.000000 0.000000
# 3 -0.002346 -0.001898 0.006803 0.000000 0.000000 0.000000
# 4 0.000000 0.000000 0.000000 -0.007267 0.000000 0.000000
# 5 0.000000 0.000000 0.000000 0.000000 0.086592 0.000000
# 6 0.000000 0.000000 0.000000 0.000000 0.000000 0.018982
#
#
# Mechanical properties :
#
#
# Convention : Reuss Voigt Hill
#
# Bulk Modulus (GPa) = 63.87920 73.84798 68.86359
# Shear Modulus (GPa) = 25.39708 -1.27374 12.06167
#
# Velocity S-wave (km/s) = 3.64174 -0.81556 2.50969
# Velocity P-wave (km/s) = 7.14427 6.13810 6.66021
#
# Compressibility (1/GPa) = 0.01565455
#
# Stress axis : x y z
#
# Youngs Moduli (GPa) = 34.05137 54.55544 146.98467
#
# Poissons Ratio (x) = 0.82812 0.34485
# Poissons Ratio (y) = 0.51688 0.27892
# Poissons Ratio (z) = 0.07989 0.10352
#
# Static dielectric constant tensor:
#      x y z
#    x 3.444270 0.000000 0.000000 
#    y 0.000000 3.361880 0.000000 
#    z 0.000000 0.000000 3.734410 
# 
# 
# High freq. dielectric constant tensor:
#      x y z
#    x 1.740630 0.000000 0.000000 
#    y 0.000000 1.723260 0.000000 
#    z 0.000000 0.000000 1.746790 
# 
# From -- ./inp_files/6352.got.cif
#   From: 2010.03.12/outbox.cif.g09.slc.cpg/sg23_4_cif.got.tgz:6352.got - 2010.04.14 02:50:06.
