data_PCOD8163479
_publ_section_title
;
Structure prediction by ZEFSAII (Michael W. Deem and Ramdas Pophale) SiO2 
 PCOD8163479
Probable space group: I 2 2 2
;
_chemical_formula_sum "Si O2"
_cell_formula_units_Z 58
_cell_length_a 8.719338
_cell_length_b 18.533214
_cell_length_c 16.446422
_cell_angle_alpha 90.000000
_cell_angle_beta 90.000000
_cell_angle_gamma 90.000000
_cell_volume 2657.698329
_symmetry_space_group_name_H-M "I 2 2 2"
_symmetry_group_IT_number 23
_symmetry_cell_setting 'orthorhombic'
loop_
_space_group_symop_operation_xyz
x,y,z
-x,-y,z
x,-y,-z
-x,y,-z
1/2+x,1/2+y,1/2+z
1/2-x,1/2-y,1/2+z
1/2+x,1/2-y,1/2-z
1/2-x,1/2+y,1/2-z
loop_
_atom_site_type_symbol
_atom_site_label
_atom_site_fract_x
_atom_site_fract_y
_atom_site_fract_z
Si Si1 0.258086 0.450270 0.889819
Si Si2 0.928589 0.819524 0.238308
Si Si3 0.679562 0.607362 0.151452
Si Si4 0.334121 0.320571 0.988888
Si Si5 0.195888 0.428777 0.705594
Si Si6 0.709182 0.729246 0.353930
Si Si7 0.500000 0.000000 0.500000
Si Si8 0.150577 0.589652 0.691286
O O1 0.344447 0.527022 0.885001
O O2 0.368130 0.391623 0.933116
O O3 0.201441 0.423112 0.802941
O O4 0.104804 0.449838 0.944018
O O5 0.828522 0.872466 0.178640
O O6 0.820268 0.766088 0.288161
O O7 0.026079 0.868851 0.300912
O O8 0.036732 0.770755 0.180954
O O9 0.821381 0.607732 0.213784
O O10 0.729332 0.660558 0.078386
O O11 0.216506 0.268020 0.941598
O O12 0.500000 0.282639 0.000000
O O13 0.222601 0.510280 0.673667
O O14 0.029862 0.404671 0.673745
O O15 0.763274 0.646437 0.366369
#
# Coordination Sequence:
#
# PCOD8163479 Si02
#       8
#     8   8   8   8   8   8   2   8
#     4  11  21  32  53  83 119 162 205 239 292 356
#     4  11  22  39  60  82 123 167 207 259 303 365
#     4  10  20  37  55  85 119 171 210 249 291 363
#     4  12  22  37  55  84 126 170 202 251 300 374
#     4  10  19  38  59  87 115 159 204 254 303 370
#     4  11  23  37  56  85 122 168 203 254 307 357
#     4  12  20  32  46  76 120 160 192 252 270 344
#     4   9  21  36  62  87 121 158 205 254 309 362
#
# _framework density 21.823394
#
# number of rings (size 3 to 8) (size 9 to 14) (size 15 to 20)
#    0.000    1.379    4.138    2.483    0.000    8.276 
#    0.000    0.000    0.000    0.000    0.000    1.931 
#    0.000    0.000   69.241    0.000    0.000    0.000 
#
# Total GULP energy -359498.510445 kJ/mol
# GULP energy per Si atom -12396.500360 kJ/mol
# Density = 2.177372 g / cm^3
# Si number density = 21.823394 Si / 1000 Ang^3
#
#
#
# Elastic Constant Matrix: (Units=GPa)
#
#
# Indices 1 2 3 4 5 6 
#
# 1 101.2092 42.5252 12.9100 0.0000 0.0000 0.0000
# 2 42.5252 94.0407 20.5388 0.0000 0.0000 0.0000
# 3 12.9100 20.5388 44.3832 0.0000 0.0000 0.0000
# 4 0.0000 0.0000 0.0000 30.4755 0.0000 0.0000
# 5 0.0000 0.0000 0.0000 0.0000 25.4901 0.0000
# 6 0.0000 0.0000 0.0000 0.0000 0.0000 42.4526
#
#
#
# Elastic Compliance Matrix: (Units=1/GPa)
#
#
# Indices 1 2 3 4 5 6 
#
# 1 0.012247 -0.005295 -0.001112 0.000000 0.000000 0.000000
# 2 -0.005295 0.014119 -0.004993 0.000000 0.000000 0.000000
# 3 -0.001112 -0.004993 0.025165 0.000000 0.000000 0.000000
# 4 0.000000 0.000000 0.000000 0.032813 0.000000 0.000000
# 5 0.000000 0.000000 0.000000 0.000000 0.039231 0.000000
# 6 0.000000 0.000000 0.000000 0.000000 0.000000 0.023556
#
#
# Mechanical properties :
#
#
# Convention : Reuss Voigt Hill
#
# Bulk Modulus (GPa) = 34.80683 43.50901 39.15792
# Shear Modulus (GPa) = 27.85372 30.59425 29.22398
#
# Velocity S-wave (km/s) = 3.57644 3.74826 3.66336
# Velocity P-wave (km/s) = 5.74792 6.22196 5.98963
#
# Compressibility (1/GPa) = 0.02873000
#
# Stress axis : x y z
#
# Youngs Moduli (GPa) = 81.65051 70.82744 39.73741
#
# Poissons Ratio (x) = 0.37506 0.04419
# Poissons Ratio (y) = 0.43237 0.19842
# Poissons Ratio (z) = 0.09079 0.35367
#
# Static dielectric constant tensor:
#      x y z
#    x 4.002860 0.000000 0.000000 
#    y 0.000000 4.247090 0.000000 
#    z 0.000000 0.000000 3.609210 
# 
# 
# High freq. dielectric constant tensor:
#      x y z
#    x 1.861130 0.000000 0.000000 
#    y 0.000000 1.859000 0.000000 
#    z 0.000000 0.000000 1.808840 
# 
# From -- ./inp_files/23908.got.cif
#   From: 2010.03.12/outbox.cif.g09.slc.cpg/sg23_12_cif.got.tgz:23908.got - 2010.04.14 02:50:06.
