data_PCOD8163262
_publ_section_title
;
Structure prediction by ZEFSAII (Michael W. Deem and Ramdas Pophale) SiO2 
 PCOD8163262
Probable space group: I 2 2 2
;
_chemical_formula_sum "Si O2"
_cell_formula_units_Z 64
_cell_length_a 8.588862
_cell_length_b 26.453359
_cell_length_c 18.427262
_cell_angle_alpha 90.000000
_cell_angle_beta 90.000000
_cell_angle_gamma 90.000000
_cell_volume 4186.752240
_symmetry_space_group_name_H-M "I 2 2 2"
_symmetry_group_IT_number 23
_symmetry_cell_setting 'orthorhombic'
loop_
_space_group_symop_operation_xyz
x,y,z
-x,-y,z
x,-y,-z
-x,y,-z
1/2+x,1/2+y,1/2+z
1/2-x,1/2-y,1/2+z
1/2+x,1/2-y,1/2-z
1/2-x,1/2+y,1/2-z
loop_
_atom_site_type_symbol
_atom_site_label
_atom_site_fract_x
_atom_site_fract_y
_atom_site_fract_z
Si Si1 0.067541 0.947086 0.422024
Si Si2 0.565126 0.298065 0.292006
Si Si3 0.932459 0.552914 0.077976
Si Si4 0.066622 0.348814 0.164558
Si Si5 0.933378 0.848814 0.664558
Si Si6 0.065658 0.754124 0.579776
Si Si7 0.934874 0.701934 0.707994
Si Si8 0.434342 0.754124 0.579776
O O1 0.250000 0.952759 0.430981
O O2 0.022288 0.903998 0.364719
O O3 0.000000 0.932123 0.500000
O O4 0.000000 0.000000 0.393117
O O5 0.499503 0.346152 0.247152
O O6 0.750000 0.298911 0.292817
O O7 0.500000 0.250000 0.250000
O O8 0.499570 0.293686 0.373740
O O9 0.977712 0.596002 0.135281
O O10 0.000000 0.500000 0.106882
O O11 0.000000 0.567877 0.000000
O O12 0.250000 0.338825 0.164087
O O13 0.000497 0.346152 0.247152
O O14 0.988041 0.307312 0.113022
O O15 0.011959 0.807312 0.613022
O O16 0.250000 0.752334 0.578655
O O17 0.000000 0.748010 0.500000
O O18 0.000430 0.706314 0.626260
O O19 0.500000 0.748010 0.500000
#
# Coordination Sequence:
#
# PCOD8163262 Si02
#       8
#     8   8   8   8   8   8   8   8
#     4  10  20  31  45  62  85 113 145 182 218 253
#     4  10  18  29  44  62  84 112 142 176 213 253
#     4  10  20  31  45  62  85 113 145 182 218 253
#     4  10  19  31  45  63  85 114 147 179 215 256
#     4  10  19  31  45  63  85 114 147 179 215 256
#     4  11  20  30  44  63  87 115 145 179 213 254
#     4  10  18  29  44  62  84 112 142 176 213 253
#     4  11  20  30  44  63  87 115 145 179 213 254
#
# _framework density 15.286312000000001
#
# number of rings (size 3 to 8) (size 9 to 14) (size 15 to 20)
#    0.000    1.750    0.000   10.500    0.000    6.000 
#    0.000    0.000    0.000    0.000    0.000    0.000 
#    0.000    1.000    0.000   10.500    0.000    5.750 
#
# Total GULP energy -396716.525903 kJ/mol
# GULP energy per Si atom -12397.391434 kJ/mol
# Density = 1.525152 g / cm^3
# Si number density = 15.286312 Si / 1000 Ang^3
#
#
#
# Elastic Constant Matrix: (Units=GPa)
#
#
# Indices 1 2 3 4 5 6 
#
# 1 135.9363 51.9410 57.2982 -0.0001 0.0000 0.0000
# 2 51.9410 90.0488 62.9612 -0.0001 0.0000 0.0000
# 3 57.2982 62.9612 121.4256 -0.0014 0.0000 0.0000
# 4 -0.0001 -0.0001 -0.0014 120.4205 0.0000 0.0001
# 5 0.0000 0.0000 0.0000 0.0000 28.5052 0.0000
# 6 0.0000 0.0000 0.0000 0.0001 0.0000 20.8542
#
#
#
# Elastic Compliance Matrix: (Units=1/GPa)
#
#
# Indices 1 2 3 4 5 6 
#
# 1 0.009971 -0.003862 -0.002703 0.000000 0.000000 0.000000
# 2 -0.003862 0.018916 -0.007986 0.000000 0.000000 0.000000
# 3 -0.002703 -0.007986 0.013652 0.000000 0.000000 0.000000
# 4 0.000000 0.000000 0.000000 0.008304 0.000000 0.000000
# 5 0.000000 0.000000 0.000000 0.000000 0.035081 0.000000
# 6 0.000000 0.000000 0.000000 0.000000 0.000000 0.047952
#
#
# Mechanical properties :
#
#
# Convention : Reuss Voigt Hill
#
# Bulk Modulus (GPa) = 74.41581 76.86794 75.64188
# Shear Modulus (GPa) = 29.85823 45.63667 37.74745
#
# Velocity S-wave (km/s) = 4.42437 5.46986 4.97466
# Velocity P-wave (km/s) = 8.65373 9.50196 9.08775
#
# Compressibility (1/GPa) = 0.01343800
#
# Stress axis : x y z
#
# Youngs Moduli (GPa) = 100.28885 52.86412 73.24977
#
# Poissons Ratio (x) = 0.20414 0.19798
# Poissons Ratio (y) = 0.38728 0.58499
# Poissons Ratio (z) = 0.27107 0.42219
#
# Static dielectric constant tensor:
#      x y z
#    x 3.192460 0.000000 0.000000 
#    y 0.000000 2.996680 0.000000 
#    z 0.000000 0.000000 3.412420 
# 
# 
# High freq. dielectric constant tensor:
#      x y z
#    x 1.613580 0.000000 0.000000 
#    y 0.000000 1.550300 0.000000 
#    z 0.000000 0.000000 1.580680 
# 
# From -- ./inp_files/24046.got.cif
#   From: 2010.03.12/outbox.cif.g09.slc.cpg/sg23_13_cif.got.tgz:24046.got - 2010.04.14 02:50:06.
