data_PCOD8163569
_publ_section_title
;
Structure prediction by ZEFSAII (Michael W. Deem and Ramdas Pophale) SiO2 
 PCOD8163569
Probable space group: I 2 2 2
;
_chemical_formula_sum "Si O2"
_cell_formula_units_Z 64
_cell_length_a 8.733383
_cell_length_b 20.721248
_cell_length_c 17.899510
_cell_angle_alpha 90.000000
_cell_angle_beta 90.000000
_cell_angle_gamma 90.000000
_cell_volume 3239.213377
_symmetry_space_group_name_H-M "I 2 2 2"
_symmetry_group_IT_number 23
_symmetry_cell_setting 'orthorhombic'
loop_
_space_group_symop_operation_xyz
x,y,z
-x,-y,z
x,-y,-z
-x,y,-z
1/2+x,1/2+y,1/2+z
1/2-x,1/2-y,1/2+z
1/2+x,1/2-y,1/2-z
1/2-x,1/2+y,1/2-z
loop_
_atom_site_type_symbol
_atom_site_label
_atom_site_fract_x
_atom_site_fract_y
_atom_site_fract_z
Si Si1 0.820130 0.124592 0.162011
Si Si2 0.682832 0.498901 0.915258
Si Si3 0.675330 0.243561 0.911878
Si Si4 0.819080 0.498084 0.584365
Si Si5 0.820621 0.253771 0.587198
Si Si6 0.681300 0.374665 0.167808
Si Si7 0.180421 0.121220 0.162693
Si Si8 0.681953 0.372513 0.831731
O O1 0.784939 0.190317 0.119344
O O2 0.759063 0.128337 0.246805
O O3 0.999654 0.111363 0.159846
O O4 0.733175 0.067614 0.121484
O O5 0.500000 0.500000 0.914350
O O6 0.747690 0.561228 0.871551
O O7 0.748146 0.435055 0.874557
O O8 0.744068 0.500000 0.000000
O O9 0.497266 0.232131 0.892432
O O10 0.772475 0.183153 0.884549
O O11 0.739880 0.307550 0.871821
O O12 0.701389 0.252215 0.999261
O O13 0.755552 0.500000 0.500000
O O14 0.755924 0.558110 0.629413
O O15 0.000000 0.500000 0.584814
O O16 0.759394 0.187742 0.623552
O O17 0.739998 0.370896 0.252700
O O18 0.499551 0.375862 0.164939
#
# Coordination Sequence:
#
# PCOD8163569 Si02
#       8
#     8   8   8   8   8   8   8   8
#     4  11  22  36  56  81 110 142 177 222 272 322
#     4   9  15  26  48  76 104 135 174 220 266 313
#     4  10  20  35  55  79 109 145 184 224 265 314
#     4  11  24  41  59  79 106 141 180 222 268 321
#     4  10  20  35  55  79 109 145 184 224 265 314
#     4   9  18  32  51  78 110 142 177 218 267 319
#     4  11  22  36  56  81 110 142 177 222 272 322
#     4   9  18  32  51  78 110 142 177 218 267 319
#
# _framework density 19.757883
#
# number of rings (size 3 to 8) (size 9 to 14) (size 15 to 20)
#    0.000    2.000    0.000    4.125    0.000    9.500 
#    0.000    1.250    0.000    0.000    0.000    0.000 
#    0.000    9.000    0.000    0.000    0.000    0.000 
#
# Total GULP energy -396905.293563 kJ/mol
# GULP energy per Si atom -12403.290424 kJ/mol
# Density = 1.971291 g / cm^3
# Si number density = 19.757883 Si / 1000 Ang^3
#
#
#
# Elastic Constant Matrix: (Units=GPa)
#
#
# Indices 1 2 3 4 5 6 
#
# 1 29.5045 10.5217 21.6267 0.0000 0.0000 0.0000
# 2 10.5217 113.9148 35.6508 0.0000 0.0000 0.0000
# 3 21.6267 35.6508 129.4484 0.0000 0.0000 0.0000
# 4 0.0000 0.0000 0.0000 47.3197 0.0000 0.0000
# 5 0.0000 0.0000 0.0000 0.0000 23.8042 0.0000
# 6 0.0000 0.0000 0.0000 0.0000 0.0000 76.4173
#
#
#
# Elastic Compliance Matrix: (Units=1/GPa)
#
#
# Indices 1 2 3 4 5 6 
#
# 1 0.038924 -0.001707 -0.006033 0.000000 0.000000 0.000000
# 2 -0.001707 0.009681 -0.002381 0.000000 0.000000 0.000000
# 3 -0.006033 -0.002381 0.009389 0.000000 0.000000 0.000000
# 4 0.000000 0.000000 0.000000 0.021133 0.000000 0.000000
# 5 0.000000 0.000000 0.000000 0.000000 0.042009 0.000000
# 6 0.000000 0.000000 0.000000 0.000000 0.000000 0.013086
#
#
# Mechanical properties :
#
#
# Convention : Reuss Voigt Hill
#
# Bulk Modulus (GPa) = 26.48871 45.38513 35.93692
# Shear Modulus (GPa) = 29.93146 43.17948 36.55547
#
# Velocity S-wave (km/s) = 3.89641 4.67993 4.30603
# Velocity P-wave (km/s) = 5.80331 7.22654 6.55367
#
# Compressibility (1/GPa) = 0.03775193
#
# Stress axis : x y z
#
# Youngs Moduli (GPa) = 25.69113 103.29132 106.51064
#
# Poissons Ratio (x) = 0.17634 0.64256
# Poissons Ratio (y) = 0.04386 0.25361
# Poissons Ratio (z) = 0.15499 0.24594
#
# Static dielectric constant tensor:
#      x y z
#    x 3.201560 0.000000 0.000000 
#    y 0.000000 3.421240 0.000000 
#    z 0.000000 0.000000 3.896710 
# 
# 
# High freq. dielectric constant tensor:
#      x y z
#    x 1.728280 0.000000 0.000000 
#    y 0.000000 1.790810 0.000000 
#    z 0.000000 0.000000 1.791140 
# 
# From -- ./inp_files/23988.got.cif
#   From: 2010.03.12/outbox.cif.g09.slc.cpg/sg23_12_cif.got.tgz:23988.got - 2010.04.14 02:50:06.
