data_PCOD8163849
_publ_section_title
;
Structure prediction by ZEFSAII (Michael W. Deem and Ramdas Pophale) SiO2 
 PCOD8163849
Probable space group: I 2 2 2
;
_chemical_formula_sum "Si O2"
_cell_formula_units_Z 44
_cell_length_a 13.459387
_cell_length_b 11.858940
_cell_length_c 12.383784
_cell_angle_alpha 90.000000
_cell_angle_beta 90.000000
_cell_angle_gamma 90.000000
_cell_volume 1976.626078
_symmetry_space_group_name_H-M "I 2 2 2"
_symmetry_group_IT_number 23
_symmetry_cell_setting 'orthorhombic'
loop_
_space_group_symop_operation_xyz
x,y,z
-x,-y,z
x,-y,-z
-x,y,-z
1/2+x,1/2+y,1/2+z
1/2-x,1/2-y,1/2+z
1/2+x,1/2-y,1/2-z
1/2-x,1/2+y,1/2-z
loop_
_atom_site_type_symbol
_atom_site_label
_atom_site_fract_x
_atom_site_fract_y
_atom_site_fract_z
Si Si1 0.813702 0.864974 0.434594
Si Si2 0.500000 0.693211 0.500000
Si Si3 0.210159 0.931067 0.787863
Si Si4 0.152978 0.620453 0.648512
Si Si5 0.323213 0.802399 0.383878
Si Si6 0.500000 0.500000 0.000000
Si Si7 0.000000 0.500000 0.500000
Si Si8 0.000000 0.000000 0.157867
O O1 0.752296 0.923462 0.336203
O O2 0.812306 0.733160 0.408894
O O3 0.756791 0.880215 0.549823
O O4 0.925456 0.915980 0.436134
O O5 0.413063 0.776175 0.463850
O O6 0.460330 0.608422 0.591811
O O7 0.230272 0.813768 0.849238
O O8 0.092933 0.957138 0.773324
O O9 0.262244 0.025602 0.859910
O O10 0.133267 0.637175 0.776858
O O11 0.058673 0.579287 0.582281
#
# Coordination Sequence:
#
# PCOD8163849 Si02
#       8
#     8   4   8   8   8   2   2   4
#     4  11  23  40  64  94 130 169 213 268 324 378
#     4   9  18  34  60  89 124 160 206 263 312 373
#     4  10  21  38  63  93 129 169 216 266 316 380
#     4  11  24  42  64  92 126 170 218 265 321 384
#     4  10  22  39  62  94 127 168 215 265 326 381
#     4  12  24  40  62  88 124 166 204 256 318 380
#     4  12  26  44  64  86 124 172 218 268 320 386
#     4   9  17  34  61  93 124 165 211 255 309 370
#
# _framework density 22.260154
#
# number of rings (size 3 to 8) (size 9 to 14) (size 15 to 20)
#    0.000    1.636    0.000    4.364    0.000    4.364 
#    0.000    9.091    0.000    0.000    0.000    0.000 
#    0.000    0.000    0.000    0.000    0.000    0.000 
#
# Total GULP energy -272582.042954 kJ/mol
# GULP energy per Si atom -12390.092862 kJ/mol
# Density = 2.220949 g / cm^3
# Si number density = 22.260154 Si / 1000 Ang^3
#
#
#
# Elastic Constant Matrix: (Units=GPa)
#
#
# Indices 1 2 3 4 5 6 
#
# 1 88.2243 28.4702 56.3591 0.0000 0.0000 0.0000
# 2 28.4702 66.2888 42.3415 0.0000 0.0000 0.0000
# 3 56.3591 42.3415 146.9164 0.0000 0.0000 0.0000
# 4 0.0000 0.0000 0.0000 24.1722 0.0000 0.0000
# 5 0.0000 0.0000 0.0000 0.0000 30.2776 0.0000
# 6 0.0000 0.0000 0.0000 0.0000 0.0000 39.7208
#
#
#
# Elastic Compliance Matrix: (Units=1/GPa)
#
#
# Indices 1 2 3 4 5 6 
#
# 1 0.015664 -0.003541 -0.004988 0.000000 0.000000 0.000000
# 2 -0.003541 0.019290 -0.004201 0.000000 0.000000 0.000000
# 3 -0.004988 -0.004201 0.009931 0.000000 0.000000 0.000000
# 4 0.000000 0.000000 0.000000 0.041370 0.000000 0.000000
# 5 0.000000 0.000000 0.000000 0.000000 0.033028 0.000000
# 6 0.000000 0.000000 0.000000 0.000000 0.000000 0.025176
#
#
# Mechanical properties :
#
#
# Convention : Reuss Voigt Hill
#
# Bulk Modulus (GPa) = 51.48328 61.75234 56.61781
# Shear Modulus (GPa) = 28.34569 30.45137 29.39853
#
# Velocity S-wave (km/s) = 3.57232 3.70263 3.63806
# Velocity P-wave (km/s) = 6.33983 6.78828 6.56788
#
# Compressibility (1/GPa) = 0.01942378
#
# Stress axis : x y z
#
# Youngs Moduli (GPa) = 63.83989 51.84116 100.69582
#
# Poissons Ratio (x) = 0.18358 0.50231
# Poissons Ratio (y) = 0.22607 0.42301
# Poissons Ratio (z) = 0.31846 0.21778
#
# Static dielectric constant tensor:
#      x y z
#    x 3.640700 0.000000 0.000000 
#    y 0.000000 4.166520 0.000000 
#    z 0.000000 0.000000 4.158540 
# 
# 
# High freq. dielectric constant tensor:
#      x y z
#    x 1.845640 0.000000 0.000000 
#    y 0.000000 1.891400 0.000000 
#    z 0.000000 0.000000 1.892760 
# 
# From -- ./inp_files/21524.got.cif
#   From: 2010.03.12/outbox.cif.g09.slc.cpg/sg23_11_cif.got.tgz:21524.got - 2010.04.14 02:50:06.
