data_PCOD8163081
_publ_section_title
;
Structure prediction by ZEFSAII (Michael W. Deem and Ramdas Pophale) SiO2 
 PCOD8163081
Probable space group: F 2 2 2
;
_chemical_formula_sum "Si O2"
_cell_formula_units_Z 96
_cell_length_a 23.701177
_cell_length_b 14.115753
_cell_length_c 14.158527
_cell_angle_alpha 90.000000
_cell_angle_beta 90.000000
_cell_angle_gamma 90.000000
_cell_volume 4736.876232
_symmetry_space_group_name_H-M "F 2 2 2"
_symmetry_group_IT_number 22
_symmetry_cell_setting 'orthorhombic'
loop_
_space_group_symop_operation_xyz
x,y,z
-x,-y,z
x,-y,-z
-x,y,-z
x,1/2+y,1/2+z
-x,1/2-y,1/2+z
x,1/2-y,1/2-z
-x,1/2+y,1/2-z
1/2+x,y,1/2+z
1/2-x,-y,1/2+z
1/2+x,-y,1/2-z
1/2-x,y,1/2-z
1/2+x,1/2+y,z
1/2-x,1/2-y,z
1/2+x,1/2-y,-z
1/2-x,1/2+y,-z
loop_
_atom_site_type_symbol
_atom_site_label
_atom_site_fract_x
_atom_site_fract_y
_atom_site_fract_z
Si Si1 0.076636 0.247814 0.459455
Si Si2 0.933923 0.016838 0.225152
Si Si3 0.359107 0.577744 0.922144
Si Si4 0.375874 0.944862 0.903156
Si Si5 0.255598 0.856097 0.860164
Si Si6 0.531026 0.793055 0.647637
O O1 0.131329 0.314732 0.457474
O O2 0.084276 0.147740 0.407878
O O3 0.063756 0.228142 0.570808
O O4 0.029121 0.308900 0.403364
O O5 0.931091 0.113735 0.165224
O O6 0.901088 0.937772 0.165838
O O7 0.901110 0.016970 0.325194
O O8 0.000000 0.000000 0.243392
O O9 0.293508 0.573215 0.895184
O O10 0.373337 0.500000 0.000000
O O11 0.313251 0.908798 0.883934
O O12 0.376344 0.000000 0.000000
O O13 0.250000 0.844115 0.750000
O O14 0.250000 0.750000 0.905163
O O15 0.521039 0.750000 0.750000
#
# Coordination Sequence:
#
# PCOD8163081 Si02
#       6
#    16  16  16  16  16  16
#     4  11  24  40  66  97 134 183 224 276 349 410
#     4  12  24  39  67  97 131 175 223 275 336 401
#     4  12  23  41  68  97 132 170 229 285 337 398
#     4  12  26  45  67  97 139 186 229 278 347 422
#     4  11  23  42  71  97 128 176 230 287 346 403
#     4  11  23  41  62  96 138 177 223 274 332 410
#
# _framework density 20.266521000000001
#
# number of rings (size 3 to 8) (size 9 to 14) (size 15 to 20)
#    0.000    0.500    6.667    2.500    0.000    2.000 
#    0.000    0.000    0.000    0.000    0.000    2.333 
#    0.000    0.000    0.000    0.000    0.000    0.000 
#
# Total GULP energy -297409.199678 kJ/mol
# GULP energy per Si atom -12392.049987 kJ/mol
# Density = 2.022039 g / cm^3
# Si number density = 20.266521 Si / 1000 Ang^3
#
#
#
# Elastic Constant Matrix: (Units=GPa)
#
#
# Indices 1 2 3 4 5 6 
#
# 1 131.3418 32.3930 50.6695 0.0000 0.0000 0.0000
# 2 32.3930 82.8448 31.7040 0.0000 0.0000 0.0000
# 3 50.6695 31.7040 132.6433 0.0000 0.0000 0.0000
# 4 0.0000 0.0000 0.0000 39.4431 0.0000 0.0000
# 5 0.0000 0.0000 0.0000 0.0000 32.3340 0.0000
# 6 0.0000 0.0000 0.0000 0.0000 0.0000 39.8088
#
#
#
# Elastic Compliance Matrix: (Units=1/GPa)
#
#
# Indices 1 2 3 4 5 6 
#
# 1 0.009388 -0.002530 -0.002981 0.000000 0.000000 0.000000
# 2 -0.002530 0.013968 -0.002372 0.000000 0.000000 0.000000
# 3 -0.002981 -0.002372 0.009245 0.000000 0.000000 0.000000
# 4 0.000000 0.000000 0.000000 0.025353 0.000000 0.000000
# 5 0.000000 0.000000 0.000000 0.000000 0.030927 0.000000
# 6 0.000000 0.000000 0.000000 0.000000 0.000000 0.025120
#
#
# Mechanical properties :
#
#
# Convention : Reuss Voigt Hill
#
# Bulk Modulus (GPa) = 59.40463 64.04033 61.72248
# Shear Modulus (GPa) = 36.93341 37.78807 37.36074
#
# Velocity S-wave (km/s) = 4.27357 4.32274 4.29822
# Velocity P-wave (km/s) = 7.32984 7.52213 7.42661
#
# Compressibility (1/GPa) = 0.01683371
#
# Stress axis : x y z
#
# Youngs Moduli (GPa) = 106.52075 71.59367 108.16738
#
# Poissons Ratio (x) = 0.18111 0.32250
# Poissons Ratio (y) = 0.26947 0.25659
# Poissons Ratio (z) = 0.31759 0.16983
#
# Static dielectric constant tensor:
#      x y z
#    x 3.583170 0.000000 0.000000 
#    y 0.000000 3.876280 0.000000 
#    z 0.000000 0.000000 3.713110 
# 
# 
# High freq. dielectric constant tensor:
#      x y z
#    x 1.792220 0.000000 0.000000 
#    y 0.000000 1.784630 0.000000 
#    z 0.000000 0.000000 1.800770 
# 
# From -- ./inp_files/31513.got.cif
#   From: 2010.03.12/outbox.cif.g09.slc.cpg/sg22_16_cif.got.tgz:31513.got - 2010.04.14 02:24:06.
