data_PCOD8163531
_publ_section_title
;
Structure prediction by ZEFSAII (Michael W. Deem and Ramdas Pophale) SiO2 
 PCOD8163531
Probable space group: I 2 2 2
;
_chemical_formula_sum "Si O2"
_cell_formula_units_Z 36
_cell_length_a 18.278749
_cell_length_b 5.610452
_cell_length_c 13.692926
_cell_angle_alpha 90.000000
_cell_angle_beta 90.000000
_cell_angle_gamma 90.000000
_cell_volume 1404.237548
_symmetry_space_group_name_H-M "I 2 2 2"
_symmetry_group_IT_number 23
_symmetry_cell_setting 'orthorhombic'
loop_
_space_group_symop_operation_xyz
x,y,z
-x,-y,z
x,-y,-z
-x,y,-z
1/2+x,1/2+y,1/2+z
1/2-x,1/2-y,1/2+z
1/2+x,1/2-y,1/2-z
1/2-x,1/2+y,1/2-z
loop_
_atom_site_type_symbol
_atom_site_label
_atom_site_fract_x
_atom_site_fract_y
_atom_site_fract_z
Si Si1 0.675375 0.907359 0.191000
Si Si2 0.920555 0.736081 0.188157
Si Si3 0.473379 0.747934 0.856166
Si Si4 0.687139 0.617640 0.375645
Si Si5 0.876707 0.500000 0.000000
O O1 0.614601 0.736917 0.140886
O O2 0.710270 0.787128 0.286350
O O3 0.633754 0.145292 0.226651
O O4 0.740805 0.951219 0.113317
O O5 0.925813 0.556280 0.095316
O O6 0.999197 0.758391 0.241806
O O7 0.888722 0.984094 0.148567
O O8 0.500000 0.500000 0.908051
O O9 0.500000 0.000000 0.905742
O O10 0.674123 0.769173 0.475043
#
# Coordination Sequence:
#
# PCOD8163531 Si02
#       5
#     8   8   8   8   4
#     4  10  20  33  60  86 118 169 222 280 329 386
#     4  10  20  37  57  82 123 167 216 269 330 409
#     4  10  20  36  59  87 124 163 216 275 329 390
#     4  11  19  36  57  87 120 176 225 276 332 398
#     4  10  24  36  57  86 130 183 218 266 340 421
#
# _framework density 25.636690000000002
#
# number of rings (size 3 to 8) (size 9 to 14) (size 15 to 20)
#    0.000    1.778    4.444    0.667    0.000    0.000 
#    0.000   13.889    0.000    0.000    0.000    0.000 
#    0.000   48.000    0.000    0.000    0.000    0.111 
#
# Total GULP energy -223016.117064 kJ/mol
# GULP energy per Si atom -12389.784281 kJ/mol
# Density = 2.557834 g / cm^3
# Si number density = 25.636690 Si / 1000 Ang^3
#
#
#
# Elastic Constant Matrix: (Units=GPa)
#
#
# Indices 1 2 3 4 5 6 
#
# 1 119.4760 15.5056 12.6023 0.0000 0.0000 0.0000
# 2 15.5056 128.0580 -3.6584 0.0000 0.0000 0.0000
# 3 12.6023 -3.6584 65.4762 0.0000 0.0000 0.0000
# 4 0.0000 0.0000 0.0000 -9.0609 0.0000 0.0000
# 5 0.0000 0.0000 0.0000 0.0000 22.8987 0.0000
# 6 0.0000 0.0000 0.0000 0.0000 0.0000 35.9118
#
#
#
# Elastic Compliance Matrix: (Units=1/GPa)
#
#
# Indices 1 2 3 4 5 6 
#
# 1 0.008696 -0.001103 -0.001735 0.000000 0.000000 0.000000
# 2 -0.001103 0.007961 0.000657 0.000000 0.000000 0.000000
# 3 -0.001735 0.000657 0.015643 0.000000 0.000000 0.000000
# 4 0.000000 0.000000 0.000000 -0.110364 0.000000 0.000000
# 5 0.000000 0.000000 0.000000 0.000000 0.043671 0.000000
# 6 0.000000 0.000000 0.000000 0.000000 0.000000 0.027846
#
#
# Mechanical properties :
#
#
# Convention : Reuss Voigt Hill
#
# Bulk Modulus (GPa) = 35.79220 40.21211 38.00216
# Shear Modulus (GPa) = 701.48440 29.18731 365.33586
#
# Velocity S-wave (km/s) = 16.55957 3.37782 11.95050
# Velocity P-wave (km/s) = 19.48377 5.56169 14.32741
#
# Compressibility (1/GPa) = 0.02793905
#
# Stress axis : x y z
#
# Youngs Moduli (GPa) = 114.99532 125.60876 63.92457
#
# Poissons Ratio (x) = 0.13848 0.11093
# Poissons Ratio (y) = 0.12678 -0.04200
# Poissons Ratio (z) = 0.19956 -0.08253
#
# Static dielectric constant tensor:
#      x y z
#    x 4.565670 0.000000 0.000000 
#    y 0.000000 5.204830 0.000000 
#    z 0.000000 0.000000 4.042980 
# 
# 
# High freq. dielectric constant tensor:
#      x y z
#    x 2.013480 0.000000 0.000000 
#    y 0.000000 2.040710 0.000000 
#    z 0.000000 0.000000 1.981450 
# 
# From -- ./inp_files/19080.got.cif
#   From: 2010.03.12/outbox.cif.g09.slc.cpg/sg23_10_cif.got.tgz:19080.got - 2010.04.14 02:50:06.
