data_PCOD8163741
_publ_section_title
;
Structure prediction by ZEFSAII (Michael W. Deem and Ramdas Pophale) SiO2 
 PCOD8163741
Probable space group: I 2 2 2
;
_chemical_formula_sum "Si O2"
_cell_formula_units_Z 48
_cell_length_a 9.180429
_cell_length_b 26.973446
_cell_length_c 9.373693
_cell_angle_alpha 90.000000
_cell_angle_beta 90.000000
_cell_angle_gamma 90.000000
_cell_volume 2321.187031
_symmetry_space_group_name_H-M "I 2 2 2"
_symmetry_group_IT_number 23
_symmetry_cell_setting 'orthorhombic'
loop_
_space_group_symop_operation_xyz
x,y,z
-x,-y,z
x,-y,-z
-x,y,-z
1/2+x,1/2+y,1/2+z
1/2-x,1/2-y,1/2+z
1/2+x,1/2-y,1/2-z
1/2-x,1/2+y,1/2-z
loop_
_atom_site_type_symbol
_atom_site_label
_atom_site_fract_x
_atom_site_fract_y
_atom_site_fract_z
Si Si1 0.580012 0.287689 0.354089
Si Si2 0.786296 0.936611 0.645633
Si Si3 0.575754 0.212158 0.849261
Si Si4 0.227932 0.452496 0.830516
Si Si5 0.542172 0.597261 0.660475
Si Si6 0.485787 0.122888 0.656845
O O1 0.500000 0.272847 0.500000
O O2 0.507028 0.256368 0.229195
O O3 0.752450 0.276216 0.365218
O O4 0.550411 0.344322 0.314900
O O5 0.815135 0.938093 0.475702
O O6 0.681420 0.890845 0.690293
O O7 0.934541 0.928268 0.728332
O O8 0.716539 0.988906 0.692981
O O9 0.553276 0.160487 0.768942
O O10 0.500000 0.205910 0.000000
O O11 0.302827 0.427242 0.693570
O O12 0.067327 0.429927 0.842492
O O13 0.500000 0.583730 0.500000
O O14 0.500000 0.147584 0.500000
#
# Coordination Sequence:
#
# PCOD8163741 Si02
#       6
#     8   8   8   8   8   8
#     4  11  26  47  67  96 133 169 216 265 324 392
#     4  10  22  36  67  90 127 171 214 267 311 380
#     4  12  26  44  72  97 130 169 213 269 327 389
#     4  10  20  42  59  94 126 168 219 263 317 371
#     4  11  24  40  62  91 131 167 210 263 322 380
#     4  10  22  40  65  94 129 166 214 263 321 380
#
# _framework density 20.679072999999999
#
# number of rings (size 3 to 8) (size 9 to 14) (size 15 to 20)
#    0.000    1.333    1.667    3.000    7.000    6.000 
#    0.000    0.000    0.000    3.000    0.000    0.000 
#    0.000    0.000    0.000    0.000    0.000    0.000 
#
# Total GULP energy -297644.154809 kJ/mol
# GULP energy per Si atom -12401.839784 kJ/mol
# Density = 2.063201 g / cm^3
# Si number density = 20.679073 Si / 1000 Ang^3
#
#
#
# Elastic Constant Matrix: (Units=GPa)
#
#
# Indices 1 2 3 4 5 6 
#
# 1 106.0879 24.0489 49.1314 0.0004 0.0016 0.0021
# 2 24.0489 84.4648 49.2575 -0.0003 0.0029 0.0064
# 3 49.1314 49.2575 114.1931 0.0040 0.0035 0.0088
# 4 0.0004 -0.0003 0.0040 28.9884 0.0007 0.0030
# 5 0.0016 0.0029 0.0035 0.0007 34.5965 0.0043
# 6 0.0021 0.0064 0.0088 0.0030 0.0043 29.5449
#
#
#
# Elastic Compliance Matrix: (Units=1/GPa)
#
#
# Indices 1 2 3 4 5 6 
#
# 1 0.011790 -0.000533 -0.004843 0.000001 0.000000 0.000001
# 2 -0.000533 0.015842 -0.006605 0.000001 -0.000001 -0.000001
# 3 -0.004843 -0.006605 0.013690 -0.000002 -0.000001 -0.000002
# 4 0.000001 0.000001 -0.000002 0.034497 -0.000001 -0.000004
# 5 0.000000 -0.000001 -0.000001 -0.000001 0.028905 -0.000004
# 6 0.000001 -0.000001 -0.000002 -0.000004 -0.000004 0.033847
#
#
# Mechanical properties :
#
#
# Convention : Reuss Voigt Hill
#
# Bulk Modulus (GPa) = 57.59732 61.06904 59.33318
# Shear Modulus (GPa) = 29.70591 30.77985 30.24288
#
# Velocity S-wave (km/s) = 3.79426 3.86223 3.82840
# Velocity P-wave (km/s) = 6.86357 7.03456 6.94959
#
# Compressibility (1/GPa) = 0.01736192
#
# Stress axis : x y z
#
# Youngs Moduli (GPa) = 84.82021 63.12141 73.04839
#
# Poissons Ratio (x) = 0.03362 0.35375
# Poissons Ratio (y) = 0.04518 0.48245
# Poissons Ratio (z) = 0.41076 0.41689
#
# Static dielectric constant tensor:
#      x y z
#    x 3.760790 0.000000 0.000010 
#    y 0.000000 3.686720 -0.000010 
#    z 0.000010 -0.000010 3.868120 
# 
# 
# High freq. dielectric constant tensor:
#      x y z
#    x 1.817930 0.000000 0.000000 
#    y 0.000000 1.816590 0.000000 
#    z 0.000000 0.000000 1.807400 
# 
# From -- ./inp_files/7375.got.cif
#   From: 2010.03.12/outbox.cif.g09.slc.cpg/sg23_4_cif.got.tgz:7375.got - 2010.04.14 02:50:06.
