data_PCOD8163725
_publ_section_title
;
Structure prediction by ZEFSAII (Michael W. Deem and Ramdas Pophale) SiO2 
 PCOD8163725
Probable space group: I 2 2 2
;
_chemical_formula_sum "Si O2"
_cell_formula_units_Z 48
_cell_length_a 17.168533
_cell_length_b 14.708865
_cell_length_c 9.149849
_cell_angle_alpha 90.000000
_cell_angle_beta 90.000000
_cell_angle_gamma 90.000000
_cell_volume 2310.608020
_symmetry_space_group_name_H-M "I 2 2 2"
_symmetry_group_IT_number 23
_symmetry_cell_setting 'orthorhombic'
loop_
_space_group_symop_operation_xyz
x,y,z
-x,-y,z
x,-y,-z
-x,y,-z
1/2+x,1/2+y,1/2+z
1/2-x,1/2-y,1/2+z
1/2+x,1/2-y,1/2-z
1/2-x,1/2+y,1/2-z
loop_
_atom_site_type_symbol
_atom_site_label
_atom_site_fract_x
_atom_site_fract_y
_atom_site_fract_z
Si Si1 0.472918 0.906750 0.665096
Si Si2 0.805933 0.000000 0.500000
Si Si3 0.975609 0.219036 0.831027
Si Si4 0.148992 0.000000 0.000000
Si Si5 0.305349 0.312803 0.598126
Si Si6 0.931221 0.059252 0.286887
Si Si7 0.701690 0.847063 0.360851
O O1 0.500000 0.915506 0.500000
O O2 0.517462 0.820617 0.735043
O O3 0.381101 0.890574 0.675633
O O4 0.500000 0.000000 0.746748
O O5 0.857897 0.937174 0.605553
O O6 0.754680 0.931522 0.406206
O O7 0.887126 0.186010 0.813727
O O8 0.037074 0.160386 0.739034
O O9 0.000000 0.216346 0.000000
O O10 0.203008 0.910028 0.984196
O O11 0.092096 0.010516 0.863292
O O12 0.304019 0.229639 0.485021
O O13 0.236333 0.300965 0.714869
O O14 0.000000 0.000000 0.358619
#
# Coordination Sequence:
#
# PCOD8163725 Si02
#       7
#     8   4   8   4   8   8   8
#     4  10  20  40  65  94 122 176 234 273 306 395
#     4  12  27  40  61 102 146 176 216 296 365 402
#     4  11  19  38  67  97 123 175 233 273 325 409
#     4  12  21  42  60  96 123 176 226 268 335 412
#     4  12  26  42  66 101 135 175 223 285 352 403
#     4  12  21  38  66  95 132 170 224 284 342 412
#     4  12  26  43  66 103 139 178 226 288 348 407
#
# _framework density 20.773754
#
# number of rings (size 3 to 8) (size 9 to 14) (size 15 to 20)
#    0.000    0.500    8.333    1.500    4.667    0.000 
#    0.000    0.000    0.000    0.000    0.000    0.000 
#    0.000    0.000    0.000    0.000    0.000    0.000 
#
# Total GULP energy -297600.697780 kJ/mol
# GULP energy per Si atom -12400.029074 kJ/mol
# Density = 2.072647 g / cm^3
# Si number density = 20.773754 Si / 1000 Ang^3
#
#
#
# Elastic Constant Matrix: (Units=GPa)
#
#
# Indices 1 2 3 4 5 6 
#
# 1 129.5582 46.3031 42.6309 0.0000 0.0000 0.0000
# 2 46.3031 173.2585 28.1825 0.0000 0.0000 0.0000
# 3 42.6309 28.1825 52.2416 0.0000 0.0000 0.0000
# 4 0.0000 0.0000 0.0000 17.7757 0.0000 0.0000
# 5 0.0000 0.0000 0.0000 0.0000 33.8278 0.0000
# 6 0.0000 0.0000 0.0000 0.0000 0.0000 27.4601
#
#
#
# Elastic Compliance Matrix: (Units=1/GPa)
#
#
# Indices 1 2 3 4 5 6 
#
# 1 0.010949 -0.001614 -0.008064 0.000000 0.000000 0.000000
# 2 -0.001614 0.006565 -0.002224 0.000000 0.000000 0.000000
# 3 -0.008064 -0.002224 0.026922 0.000000 0.000000 0.000000
# 4 0.000000 0.000000 0.000000 0.056257 0.000000 0.000000
# 5 0.000000 0.000000 0.000000 0.000000 0.029561 0.000000
# 6 0.000000 0.000000 0.000000 0.000000 0.000000 0.036416
#
#
# Mechanical properties :
#
#
# Convention : Reuss Voigt Hill
#
# Bulk Modulus (GPa) = 48.47025 65.47679 56.97352
# Shear Modulus (GPa) = 25.33543 31.67550 28.50547
#
# Velocity S-wave (km/s) = 3.49605 3.90909 3.70832
# Velocity P-wave (km/s) = 6.29917 7.20847 6.76911
#
# Compressibility (1/GPa) = 0.02063121
#
# Stress axis : x y z
#
# Youngs Moduli (GPa) = 91.33355 152.32400 37.14440
#
# Poissons Ratio (x) = 0.24591 0.29952
# Poissons Ratio (y) = 0.14745 0.08261
# Poissons Ratio (z) = 0.73649 0.33879
#
# Static dielectric constant tensor:
#      x y z
#    x 4.009820 0.000000 0.000000 
#    y 0.000000 4.604300 0.000000 
#    z 0.000000 0.000000 3.435640 
# 
# 
# High freq. dielectric constant tensor:
#      x y z
#    x 1.816360 0.000000 0.000000 
#    y 0.000000 1.836070 0.000000 
#    z 0.000000 0.000000 1.774600 
# 
# From -- ./inp_files/11092.got.cif
#   From: 2010.03.12/outbox.cif.g09.slc.cpg/sg23_6_cif.got.tgz:11092.got - 2010.04.14 02:50:06.
