data_PCOD8163958
_publ_section_title
;
Structure prediction by ZEFSAII (Michael W. Deem and Ramdas Pophale) SiO2 
 PCOD8163958
Probable space group: I 2 2 2
;
_chemical_formula_sum "Si O2"
_cell_formula_units_Z 42
_cell_length_a 14.908402
_cell_length_b 15.039298
_cell_length_c 8.966076
_cell_angle_alpha 90.000000
_cell_angle_beta 90.000000
_cell_angle_gamma 90.000000
_cell_volume 2010.300939
_symmetry_space_group_name_H-M "I 2 2 2"
_symmetry_group_IT_number 23
_symmetry_cell_setting 'orthorhombic'
loop_
_space_group_symop_operation_xyz
x,y,z
-x,-y,z
x,-y,-z
-x,y,-z
1/2+x,1/2+y,1/2+z
1/2-x,1/2-y,1/2+z
1/2+x,1/2-y,1/2-z
1/2-x,1/2+y,1/2-z
loop_
_atom_site_type_symbol
_atom_site_label
_atom_site_fract_x
_atom_site_fract_y
_atom_site_fract_z
Si Si1 0.784645 0.403951 0.075737
Si Si2 0.000000 0.000000 0.500000
Si Si3 0.634097 0.368792 0.851684
Si Si4 0.260544 0.978381 0.159500
Si Si5 0.447576 0.777905 0.640922
Si Si6 0.957457 0.590359 0.341890
O O1 0.763910 0.429440 0.247026
O O2 0.868444 0.337981 0.071573
O O3 0.806461 0.500000 0.000000
O O4 0.699413 0.354576 0.996603
O O5 0.057825 0.938128 0.393469
O O6 0.692892 0.407869 0.722243
O O7 0.589504 0.282898 0.775782
O O8 0.352814 0.925508 0.139820
O O9 0.220560 0.000000 0.000000
O O10 0.500000 0.731120 0.500000
O O11 0.524484 0.835995 0.718545
O O12 0.000000 0.500000 0.280855
O O13 0.000000 0.618360 0.500000
#
# Coordination Sequence:
#
# PCOD8163958 Si02
#       6
#     8   2   8   8   8   8
#     4  10  21  44  69  98 138 189 221 277 374 422
#     4  12  24  56  74  76 128 196 250 276 356 416
#     4  11  27  46  68  96 132 191 237 287 350 414
#     4  11  20  41  72 101 135 179 233 278 351 428
#     4  12  26  41  68 109 141 175 236 299 340 424
#     4  11  21  39  68 108 144 182 217 276 361 428
#
# _framework density 20.892392999999998
#
# number of rings (size 3 to 8) (size 9 to 14) (size 15 to 20)
#    0.000    0.952    6.667    2.286    1.333    4.571 
#    3.429    0.000    0.000    0.000    0.000    0.000 
#    0.000    0.000    0.000    0.000    0.000    0.000 
#
# Total GULP energy -260241.811238 kJ/mol
# GULP energy per Si atom -12392.467202 kJ/mol
# Density = 2.084484 g / cm^3
# Si number density = 20.892393 Si / 1000 Ang^3
#
#
#
# Elastic Constant Matrix: (Units=GPa)
#
#
# Indices 1 2 3 4 5 6 
#
# 1 67.9194 25.7776 42.1670 0.0000 0.0000 0.0000
# 2 25.7776 72.2598 36.1371 0.0000 0.0000 0.0000
# 3 42.1670 36.1371 147.3023 0.0000 0.0000 0.0000
# 4 0.0000 0.0000 0.0000 17.9830 0.0000 0.0000
# 5 0.0000 0.0000 0.0000 0.0000 43.0358 0.0000
# 6 0.0000 0.0000 0.0000 0.0000 0.0000 31.9503
#
#
#
# Elastic Compliance Matrix: (Units=1/GPa)
#
#
# Indices 1 2 3 4 5 6 
#
# 1 0.019197 -0.004673 -0.004349 0.000000 0.000000 0.000000
# 2 -0.004673 0.016912 -0.002811 0.000000 0.000000 0.000000
# 3 -0.004349 -0.002811 0.008723 0.000000 0.000000 0.000000
# 4 0.000000 0.000000 0.000000 0.055608 0.000000 0.000000
# 5 0.000000 0.000000 0.000000 0.000000 0.023236 0.000000
# 6 0.000000 0.000000 0.000000 0.000000 0.000000 0.031299
#
#
# Mechanical properties :
#
#
# Convention : Reuss Voigt Hill
#
# Bulk Modulus (GPa) = 47.24669 55.07167 51.15918
# Shear Modulus (GPa) = 26.92557 30.82049 28.87303
#
# Velocity S-wave (km/s) = 3.59384 3.84500 3.72154
# Velocity P-wave (km/s) = 6.31541 6.79183 6.55795
#
# Compressibility (1/GPa) = 0.02116550
#
# Stress axis : x y z
#
# Youngs Moduli (GPa) = 52.09162 59.12979 114.63539
#
# Poissons Ratio (x) = 0.27634 0.49853
# Poissons Ratio (y) = 0.24344 0.32226
# Poissons Ratio (z) = 0.22654 0.16622
#
# Static dielectric constant tensor:
#      x y z
#    x 3.716270 0.000000 0.000000 
#    y 0.000000 3.638250 0.000000 
#    z 0.000000 0.000000 4.166360 
# 
# 
# High freq. dielectric constant tensor:
#      x y z
#    x 1.826350 0.000000 0.000000 
#    y 0.000000 1.790960 0.000000 
#    z 0.000000 0.000000 1.837550 
# 
# From -- ./inp_files/9617.got.cif
#   From: 2010.03.12/outbox.cif.g09.slc.cpg/sg23_5_cif.got.tgz:9617.got - 2010.04.14 02:50:06.
