data_PCOD8163756
_publ_section_title
;
Structure prediction by ZEFSAII (Michael W. Deem and Ramdas Pophale) SiO2 
 PCOD8163756
Probable space group: I 2 2 2
;
_chemical_formula_sum "Si O2"
_cell_formula_units_Z 38
_cell_length_a 18.017658
_cell_length_b 15.687707
_cell_length_c 6.528908
_cell_angle_alpha 90.000000
_cell_angle_beta 90.000000
_cell_angle_gamma 90.000000
_cell_volume 1845.433319
_symmetry_space_group_name_H-M "I 2 2 2"
_symmetry_group_IT_number 23
_symmetry_cell_setting 'orthorhombic'
loop_
_space_group_symop_operation_xyz
x,y,z
-x,-y,z
x,-y,-z
-x,y,-z
1/2+x,1/2+y,1/2+z
1/2-x,1/2-y,1/2+z
1/2+x,1/2-y,1/2-z
1/2-x,1/2+y,1/2-z
loop_
_atom_site_type_symbol
_atom_site_label
_atom_site_fract_x
_atom_site_fract_y
_atom_site_fract_z
Si Si1 0.000000 0.000000 0.500000
Si Si2 0.117555 0.887253 0.703582
Si Si3 0.198206 0.354832 0.257836
Si Si4 0.584690 0.782536 0.035780
Si Si5 0.759115 0.000000 0.500000
Si Si6 0.651855 0.280693 0.567306
O O1 0.047390 0.054608 0.341823
O O2 0.108993 0.801036 0.582089
O O3 0.192463 0.933458 0.630944
O O4 0.120297 0.863468 0.944972
O O5 0.140531 0.356637 0.451216
O O6 0.209127 0.449684 0.166239
O O7 0.275265 0.312166 0.319054
O O8 0.165387 0.297505 0.080183
O O9 0.500000 0.810726 0.000000
O O10 0.593075 0.758698 0.273730
#
# Coordination Sequence:
#
# PCOD8163756 Si02
#       6
#     2   8   8   8   4   8
#     4  10  20  44  54 100 148 172 200 266 346 416
#     4  10  22  38  65  94 139 167 216 266 332 408
#     4  11  22  39  67  95 130 167 228 273 325 399
#     4  11  23  43  64  95 133 173 224 273 327 406
#     4  11  22  41  60 107 129 166 218 288 329 380
#     4  11  21  42  68  95 122 181 222 266 325 403
#
# _framework density 20.591369
#
# number of rings (size 3 to 8) (size 9 to 14) (size 15 to 20)
#    0.000    1.263    5.263    1.263    0.000    4.211 
#    0.000    1.053    0.000    3.789    0.000    0.000 
#    0.000    0.000    0.000    0.000    0.000    0.000 
#
# Total GULP energy -235547.404793 kJ/mol
# GULP energy per Si atom -12397.231831 kJ/mol
# Density = 2.054450 g / cm^3
# Si number density = 20.591369 Si / 1000 Ang^3
#
#
#
# Elastic Constant Matrix: (Units=GPa)
#
#
# Indices 1 2 3 4 5 6 
#
# 1 122.9296 37.3388 54.9551 0.0000 0.0000 0.0000
# 2 37.3388 53.0243 10.9716 0.0000 0.0000 0.0000
# 3 54.9551 10.9716 115.9752 0.0000 0.0000 0.0000
# 4 0.0000 0.0000 0.0000 159.0852 0.0000 0.0000
# 5 0.0000 0.0000 0.0000 0.0000 28.5753 0.0000
# 6 0.0000 0.0000 0.0000 0.0000 0.0000 -349.8300
#
#
#
# Elastic Compliance Matrix: (Units=1/GPa)
#
#
# Indices 1 2 3 4 5 6 
#
# 1 0.012984 -0.008027 -0.005393 0.000000 0.000000 0.000000
# 2 -0.008027 0.024198 0.001514 0.000000 0.000000 0.000000
# 3 -0.005393 0.001514 0.011035 0.000000 0.000000 0.000000
# 4 0.000000 0.000000 0.000000 0.006286 0.000000 0.000000
# 5 0.000000 0.000000 0.000000 0.000000 0.034995 0.000000
# 6 0.000000 0.000000 0.000000 0.000000 0.000000 -0.002859
#
#
# Mechanical properties :
#
#
# Convention : Reuss Voigt Hill
#
# Bulk Modulus (GPa) = 40.97413 55.38445 48.17929
# Shear Modulus (GPa) = 42.16337 -19.85632 11.15352
#
# Velocity S-wave (km/s) = 4.52998 -3.10869 2.32988
# Velocity P-wave (km/s) = 6.87770 3.75100 5.53953
#
# Compressibility (1/GPa) = 0.02440564
#
# Stress axis : x y z
#
# Youngs Moduli (GPa) = 77.01885 41.32491 90.62270
#
# Poissons Ratio (x) = 0.33172 0.48873
# Poissons Ratio (y) = 0.61824 -0.13724
# Poissons Ratio (z) = 0.41536 -0.06258
#
# Static dielectric constant tensor:
#      x y z
#    x 2.104200 0.000000 0.000000 
#    y 0.000000 3.951930 0.000000 
#    z 0.000000 0.000000 39.666090 
# 
# 
# High freq. dielectric constant tensor:
#      x y z
#    x 1.798620 0.000000 0.000000 
#    y 0.000000 1.789430 0.000000 
#    z 0.000000 0.000000 1.818280 
# 
# From -- ./inp_files/3136.got.cif
#   From: 2010.03.12/outbox.cif.g09.slc.cpg/sg23_2_cif.got.tgz:3136.got - 2010.04.14 02:50:06.
