data_PCOD8163129
_publ_section_title
;
Structure prediction by ZEFSAII (Michael W. Deem and Ramdas Pophale) SiO2 
 PCOD8163129
Probable space group: F 2 2 2
;
_chemical_formula_sum "Si O2"
_cell_formula_units_Z 96
_cell_length_a 11.078061
_cell_length_b 21.856631
_cell_length_c 16.792987
_cell_angle_alpha 90.000000
_cell_angle_beta 90.000000
_cell_angle_gamma 90.000000
_cell_volume 4066.070685
_symmetry_space_group_name_H-M "F 2 2 2"
_symmetry_group_IT_number 22
_symmetry_cell_setting 'orthorhombic'
loop_
_space_group_symop_operation_xyz
x,y,z
-x,-y,z
x,-y,-z
-x,y,-z
x,1/2+y,1/2+z
-x,1/2-y,1/2+z
x,1/2-y,1/2-z
-x,1/2+y,1/2-z
1/2+x,y,1/2+z
1/2-x,-y,1/2+z
1/2+x,-y,1/2-z
1/2-x,y,1/2-z
1/2+x,1/2+y,z
1/2-x,1/2-y,z
1/2+x,1/2-y,-z
1/2-x,1/2+y,-z
loop_
_atom_site_type_symbol
_atom_site_label
_atom_site_fract_x
_atom_site_fract_y
_atom_site_fract_z
Si Si1 0.203350 0.848116 0.598620
Si Si2 0.200202 0.420986 0.663191
Si Si3 0.023032 0.235695 0.339138
Si Si4 0.368790 0.481999 0.408518
Si Si5 0.187534 0.811609 0.422833
Si Si6 0.021692 0.133387 0.092830
O O1 0.156174 0.796140 0.660975
O O2 0.127264 0.909753 0.602428
O O3 0.180552 0.811617 0.517351
O O4 0.338173 0.871240 0.616350
O O5 0.250000 0.402598 0.750000
O O6 0.258613 0.486363 0.640244
O O7 0.237606 0.371205 0.598450
O O8 0.053806 0.414359 0.650492
O O9 0.983938 0.250000 0.250000
O O10 0.994497 0.295282 0.392323
O O11 0.940969 0.183073 0.379228
O O12 0.500000 0.500000 0.374475
O O13 0.353141 0.500000 0.500000
O O14 0.250000 0.750000 0.391243
O O15 0.000000 0.117177 0.000000
#
# Coordination Sequence:
#
# PCOD8163129 Si02
#       6
#    16  16  16  16  16  16
#     4  12  25  44  75 103 145 204 251 310 386 464
#     4  12  26  47  73 110 151 192 258 324 386 459
#     4  12  26  42  67 112 157 191 243 318 396 465
#     4  11  24  48  73 102 141 198 261 308 366 468
#     4  12  22  42  74 108 144 191 249 310 380 462
#     4  12  23  46  72 107 149 194 253 312 384 477
#
# _framework density 23.610018
#
# number of rings (size 3 to 8) (size 9 to 14) (size 15 to 20)
#    0.000    0.167    5.000    5.000    2.333    2.000 
#    6.000    1.667    0.000    0.000    0.000    0.000 
#    0.000    0.000    0.000    0.000    0.000    0.000 
#
# Total GULP energy -297455.407060 kJ/mol
# GULP energy per Si atom -12393.975294 kJ/mol
# Density = 2.355628 g / cm^3
# Si number density = 23.610018 Si / 1000 Ang^3
#
#
#
# Elastic Constant Matrix: (Units=GPa)
#
#
# Indices 1 2 3 4 5 6 
#
# 1 143.6427 19.5611 38.2143 0.0000 0.0000 0.0000
# 2 19.5611 78.6964 18.6998 0.0000 0.0000 0.0000
# 3 38.2143 18.6998 87.6218 0.0000 0.0000 0.0000
# 4 0.0000 0.0000 0.0000 18.3480 0.0000 0.0000
# 5 0.0000 0.0000 0.0000 0.0000 31.9070 0.0000
# 6 0.0000 0.0000 0.0000 0.0000 0.0000 40.0718
#
#
#
# Elastic Compliance Matrix: (Units=1/GPa)
#
#
# Indices 1 2 3 4 5 6 
#
# 1 0.007985 -0.001219 -0.003222 0.000000 0.000000 0.000000
# 2 -0.001219 0.013572 -0.002365 0.000000 0.000000 0.000000
# 3 -0.003222 -0.002365 0.013323 0.000000 0.000000 0.000000
# 4 0.000000 0.000000 0.000000 0.054502 0.000000 0.000000
# 5 0.000000 0.000000 0.000000 0.000000 0.031341 0.000000
# 6 0.000000 0.000000 0.000000 0.000000 0.000000 0.024955
#
#
# Mechanical properties :
#
#
# Convention : Reuss Voigt Hill
#
# Bulk Modulus (GPa) = 47.02047 51.43458 49.22752
# Shear Modulus (GPa) = 30.05179 33.63106 31.84143
#
# Velocity S-wave (km/s) = 3.57156 3.77827 3.67637
# Velocity P-wave (km/s) = 6.08003 6.39266 6.23830
#
# Compressibility (1/GPa) = 0.02126733
#
# Stress axis : x y z
#
# Youngs Moduli (GPa) = 125.23503 73.68104 75.05984
#
# Poissons Ratio (x) = 0.08982 0.24187
# Poissons Ratio (y) = 0.15267 0.17750
# Poissons Ratio (z) = 0.40354 0.17424
#
# Static dielectric constant tensor:
#      x y z
#    x 4.824980 0.000000 0.000000 
#    y 0.000000 4.345450 0.000000 
#    z 0.000000 0.000000 3.959360 
# 
# 
# High freq. dielectric constant tensor:
#      x y z
#    x 1.952670 0.000000 0.000000 
#    y 0.000000 1.932290 0.000000 
#    z 0.000000 0.000000 1.914890 
# 
# From -- ./inp_files/36212.got.cif
#   From: 2010.03.12/outbox.cif.g09.slc.cpg/sg22_19_cif.got.tgz:36212.got - 2010.04.14 02:24:06.
