data_PCOD8163503
_publ_section_title
;
Structure prediction by ZEFSAII (Michael W. Deem and Ramdas Pophale) SiO2 
 PCOD8163503
Probable space group: I 2 2 2
;
_chemical_formula_sum "Si O2"
_cell_formula_units_Z 40
_cell_length_a 17.151806
_cell_length_b 5.122796
_cell_length_c 28.506448
_cell_angle_alpha 90.000000
_cell_angle_beta 90.000000
_cell_angle_gamma 90.000000
_cell_volume 2504.724845
_symmetry_space_group_name_H-M "I 2 2 2"
_symmetry_group_IT_number 23
_symmetry_cell_setting 'orthorhombic'
loop_
_space_group_symop_operation_xyz
x,y,z
-x,-y,z
x,-y,-z
-x,y,-z
1/2+x,1/2+y,1/2+z
1/2-x,1/2-y,1/2+z
1/2+x,1/2-y,1/2-z
1/2-x,1/2+y,1/2-z
loop_
_atom_site_type_symbol
_atom_site_label
_atom_site_fract_x
_atom_site_fract_y
_atom_site_fract_z
Si Si1 0.830738 0.734763 0.801856
Si Si2 0.318555 0.004641 0.791735
Si Si3 0.592380 0.493401 0.552289
Si Si4 0.090435 0.980829 0.279797
Si Si5 0.907710 0.498206 0.890823
O O1 0.760742 0.924445 0.820288
O O2 0.792918 0.538379 0.763079
O O3 0.897241 0.910778 0.775857
O O4 0.866591 0.551014 0.841501
O O5 0.377893 0.241933 0.795157
O O6 0.364577 0.746159 0.810085
O O7 0.500000 0.500000 0.548383
O O8 0.628762 0.500000 0.500000
O O9 0.620062 0.223385 0.574207
O O10 0.621070 0.727990 0.585964
O O11 0.000000 0.000000 0.291475
O O12 0.000000 0.500000 0.882570
#
# Coordination Sequence:
#
# PCOD8163503 Si02
#       5
#     8   8   8   8   8
#     4  10  21  31  46  62  93 115 157 192 247 281
#     4  10  20  33  44  60  89 126 143 195 248 287
#     4   9  18  33  45  61  89 117 146 190 249 292
#     4  10  20  30  46  61  82 117 157 195 232 271
#     4  10  21  28  47  70  85 115 159 204 232 273
#
# _framework density 15.969818999999999
#
# number of rings (size 3 to 8) (size 9 to 14) (size 15 to 20)
#    1.200    1.000    2.000    1.200    5.600    3.200 
#    0.000    0.000    0.000    0.000    0.000    0.000 
#    0.000    0.000    0.000    0.000    0.000   28.000 
#
# Total GULP energy -247769.455133 kJ/mol
# GULP energy per Si atom -12388.472757 kJ/mol
# Density = 1.593347 g / cm^3
# Si number density = 15.969819 Si / 1000 Ang^3
#
#
#
# Elastic Constant Matrix: (Units=GPa)
#
#
# Indices 1 2 3 4 5 6 
#
# 1 59.6625 25.3617 6.4300 0.0000 0.0000 0.0000
# 2 25.3617 94.7841 8.2181 0.0000 0.0000 0.0000
# 3 6.4300 8.2181 45.1637 0.0000 0.0000 0.0000
# 4 0.0000 0.0000 0.0000 19.0378 0.0000 0.0000
# 5 0.0000 0.0000 0.0000 0.0000 6.9017 0.0000
# 6 0.0000 0.0000 0.0000 0.0000 0.0000 23.6315
#
#
#
# Elastic Compliance Matrix: (Units=1/GPa)
#
#
# Indices 1 2 3 4 5 6 
#
# 1 0.019057 -0.004942 -0.001814 0.000000 0.000000 0.000000
# 2 -0.004942 0.012001 -0.001480 0.000000 0.000000 0.000000
# 3 -0.001814 -0.001480 0.022669 0.000000 0.000000 0.000000
# 4 0.000000 0.000000 0.000000 0.052527 0.000000 0.000000
# 5 0.000000 0.000000 0.000000 0.000000 0.144893 0.000000
# 6 0.000000 0.000000 0.000000 0.000000 0.000000 0.042316
#
#
# Mechanical properties :
#
#
# Convention : Reuss Voigt Hill
#
# Bulk Modulus (GPa) = 26.84176 31.06999 28.95587
# Shear Modulus (GPa) = 15.51089 20.55422 18.03255
#
# Velocity S-wave (km/s) = 3.11989 3.59146 3.36395
# Velocity P-wave (km/s) = 5.46100 6.05771 5.76708
#
# Compressibility (1/GPa) = 0.03725539
#
# Stress axis : x y z
#
# Youngs Moduli (GPa) = 52.47365 83.32668 44.11263
#
# Poissons Ratio (x) = 0.41179 0.08002
# Poissons Ratio (y) = 0.25932 0.06529
# Poissons Ratio (z) = 0.09518 0.12334
#
# Static dielectric constant tensor:
#      x y z
#    x 2.787150 0.000000 0.000000 
#    y 0.000000 3.268730 0.000000 
#    z 0.000000 0.000000 2.699070 
# 
# 
# High freq. dielectric constant tensor:
#      x y z
#    x 1.584680 0.000000 0.000000 
#    y 0.000000 1.640840 0.000000 
#    z 0.000000 0.000000 1.557180 
# 
# From -- ./inp_files/29639.got.cif
#   From: 2010.03.12/outbox.cif.g09.slc.cpg/sg23_15_cif.got.tgz:29639.got - 2010.04.14 02:50:06.
