data_PCOD8163142
_publ_section_title
;
Structure prediction by ZEFSAII (Michael W. Deem and Ramdas Pophale) SiO2 
 PCOD8163142
Probable space group: F 2 2 2
;
_chemical_formula_sum "Si O2"
_cell_formula_units_Z 64
_cell_length_a 18.361138
_cell_length_b 14.033784
_cell_length_c 9.613715
_cell_angle_alpha 90.000000
_cell_angle_beta 90.000000
_cell_angle_gamma 90.000000
_cell_volume 2477.225979
_symmetry_space_group_name_H-M "F 2 2 2"
_symmetry_group_IT_number 22
_symmetry_cell_setting 'orthorhombic'
loop_
_space_group_symop_operation_xyz
x,y,z
-x,-y,z
x,-y,-z
-x,y,-z
x,1/2+y,1/2+z
-x,1/2-y,1/2+z
x,1/2-y,1/2-z
-x,1/2+y,1/2-z
1/2+x,y,1/2+z
1/2-x,-y,1/2+z
1/2+x,-y,1/2-z
1/2-x,y,1/2-z
1/2+x,1/2+y,z
1/2-x,1/2-y,z
1/2+x,1/2-y,-z
1/2-x,1/2+y,-z
loop_
_atom_site_type_symbol
_atom_site_label
_atom_site_fract_x
_atom_site_fract_y
_atom_site_fract_z
Si Si1 0.657355 0.948861 0.828622
Si Si2 0.020391 0.667214 0.156925
Si Si3 0.634446 0.354609 0.785964
Si Si4 0.282053 0.854780 0.440608
O O1 0.573415 0.923640 0.864621
O O2 0.678617 0.880663 0.702060
O O3 0.710218 0.921971 0.957493
O O4 0.670546 0.060590 0.801409
O O5 0.059440 0.750000 0.250000
O O6 0.951202 0.640514 0.252985
O O7 0.000000 0.702743 0.000000
O O8 0.666978 0.250000 0.750000
O O9 0.655446 0.373758 0.945396
O O10 0.250000 0.750000 0.442955
#
# Coordination Sequence:
#
# PCOD8163142 Si02
#       4
#    16  16  16  16
#     4  11  25  50  79 110 159 210 256 319 396 473
#     4  11  27  51  81 117 156 207 259 323 393 471
#     4  11  28  48  76 116 155 204 264 326 382 464
#     4  11  26  49  75 115 155 205 260 322 394 466
#
# _framework density 25.835350999999999
#
# number of rings (size 3 to 8) (size 9 to 14) (size 15 to 20)
#    0.000    1.000    0.000    4.500   14.000    8.500 
#    4.500    2.500    0.000    0.000    0.000    0.000 
#    0.000    0.000    0.000    0.000    0.000    0.000 
#
# Total GULP energy -198212.694854 kJ/mol
# GULP energy per Si atom -12388.293428 kJ/mol
# Density = 2.577655 g / cm^3
# Si number density = 25.835351 Si / 1000 Ang^3
#
#
#
# Elastic Constant Matrix: (Units=GPa)
#
#
# Indices 1 2 3 4 5 6 
#
# 1 144.3981 47.3770 65.6329 0.0000 0.0000 0.0000
# 2 47.3770 191.0597 48.0462 0.0000 0.0000 0.0000
# 3 65.6329 48.0462 160.8921 0.0000 0.0000 0.0000
# 4 0.0000 0.0000 0.0000 29.4309 0.0000 0.0000
# 5 0.0000 0.0000 0.0000 0.0000 48.7595 0.0000
# 6 0.0000 0.0000 0.0000 0.0000 0.0000 -3.7284
#
#
#
# Elastic Compliance Matrix: (Units=1/GPa)
#
#
# Indices 1 2 3 4 5 6 
#
# 1 0.008829 -0.001388 -0.003187 0.000000 0.000000 0.000000
# 2 -0.001388 0.005877 -0.001189 0.000000 0.000000 0.000000
# 3 -0.003187 -0.001189 0.007871 0.000000 0.000000 0.000000
# 4 0.000000 0.000000 0.000000 0.033978 0.000000 0.000000
# 5 0.000000 0.000000 0.000000 0.000000 0.020509 0.000000
# 6 0.000000 0.000000 0.000000 0.000000 0.000000 -0.268214
#
#
# Mechanical properties :
#
#
# Convention : Reuss Voigt Hill
#
# Bulk Modulus (GPa) = 90.50696 90.94024 90.72360
# Shear Modulus (GPa) = -28.41889 37.24532 4.41321
#
# Velocity S-wave (km/s) = -3.32022 3.80101 1.30840
# Velocity P-wave (km/s) = 4.51772 7.38512 6.12167
#
# Compressibility (1/GPa) = 0.01104887
#
# Stress axis : x y z
#
# Youngs Moduli (GPa) = 113.25804 170.15225 127.05540
#
# Poissons Ratio (x) = 0.23615 0.40497
# Poissons Ratio (y) = 0.15719 0.15105
# Poissons Ratio (z) = 0.36099 0.20229
#
# Static dielectric constant tensor:
#      x y z
#    x 5.286300 0.000000 0.000000 
#    y 0.000000 5.030720 0.000000 
#    z 0.000000 0.000000 4.879510 
# 
# 
# High freq. dielectric constant tensor:
#      x y z
#    x 2.037500 0.000000 0.000000 
#    y 0.000000 2.047830 0.000000 
#    z 0.000000 0.000000 2.042880 
# 
# From -- ./inp_files/13423.got.cif
#   From: 2010.03.12/outbox.cif.g09.slc.cpg/sg22_7_cif.got.tgz:13423.got - 2010.04.14 02:24:06.
