data_PCOD8163016
_publ_section_title
;
Structure prediction by ZEFSAII (Michael W. Deem and Ramdas Pophale) SiO2 
 PCOD8163016
Probable space group: F 2 2 2
;
_chemical_formula_sum "Si O2"
_cell_formula_units_Z 112
_cell_length_a 14.268920
_cell_length_b 15.114655
_cell_length_c 27.152723
_cell_angle_alpha 90.000000
_cell_angle_beta 90.000000
_cell_angle_gamma 90.000000
_cell_volume 5856.022421
_symmetry_space_group_name_H-M "F 2 2 2"
_symmetry_group_IT_number 22
_symmetry_cell_setting 'orthorhombic'
loop_
_space_group_symop_operation_xyz
x,y,z
-x,-y,z
x,-y,-z
-x,y,-z
x,1/2+y,1/2+z
-x,1/2-y,1/2+z
x,1/2-y,1/2-z
-x,1/2+y,1/2-z
1/2+x,y,1/2+z
1/2-x,-y,1/2+z
1/2+x,-y,1/2-z
1/2-x,y,1/2-z
1/2+x,1/2+y,z
1/2-x,1/2-y,z
1/2+x,1/2-y,-z
1/2-x,1/2+y,-z
loop_
_atom_site_type_symbol
_atom_site_label
_atom_site_fract_x
_atom_site_fract_y
_atom_site_fract_z
Si Si1 0.760234 0.482505 0.150518
Si Si2 0.492004 0.353750 0.054926
Si Si3 0.051635 0.411706 0.815640
Si Si4 0.653135 0.491585 0.054466
Si Si5 0.574099 0.573290 0.799702
Si Si6 0.523914 0.723678 0.155640
Si Si7 0.282020 0.159249 0.306726
O O1 0.846508 0.415644 0.158680
O O2 0.736557 0.480120 0.092952
O O3 0.677229 0.459611 0.188045
O O4 0.777233 0.584877 0.164584
O O5 0.587880 0.406773 0.062770
O O6 0.405749 0.419824 0.062260
O O7 0.473830 0.278532 0.095942
O O8 0.500000 0.311628 0.000000
O O9 0.065257 0.412184 0.757839
O O10 0.000000 0.500000 0.833941
O O11 0.989892 0.325626 0.829288
O O12 0.697246 0.500000 0.000000
O O13 0.500000 0.500000 0.819094
O O14 0.565518 0.666772 0.827569
O O15 0.605771 0.667345 0.184355
O O16 0.250000 0.153411 0.250000
O O17 0.250000 0.250000 0.331634
#
# Coordination Sequence:
#
# PCOD8163016 Si02
#       7
#    16  16  16  16  16  16  16
#     4  12  21  40  62  88 128 163 202 260 316 375
#     4   9  17  34  63  96 119 148 202 264 319 371
#     4  11  27  40  57  85 130 172 213 250 302 374
#     4   9  17  33  63  96 120 149 196 264 327 375
#     4  11  21  37  63  92 123 161 203 253 314 378
#     4  12  22  39  63  90 128 165 204 261 320 370
#     4  11  24  35  60  89 122 164 222 256 296 363
#
# _framework density 19.125609000000001
#
# number of rings (size 3 to 8) (size 9 to 14) (size 15 to 20)
#    0.000    1.286    4.286    3.429    6.000    0.571 
#    0.000    1.429    6.286    0.000    0.000    0.000 
#    0.000    0.000    0.000    0.000    0.000    0.000 
#
# Total GULP energy -346961.397182 kJ/mol
# GULP energy per Si atom -12391.478471 kJ/mol
# Density = 1.908208 g / cm^3
# Si number density = 19.125609 Si / 1000 Ang^3
#
#
#
# Elastic Constant Matrix: (Units=GPa)
#
#
# Indices 1 2 3 4 5 6 
#
# 1 63.8158 11.8651 38.0647 0.0000 0.0000 0.0000
# 2 11.8651 84.7200 38.3705 0.0000 0.0000 0.0000
# 3 38.0647 38.3705 131.3090 0.0000 0.0000 0.0000
# 4 0.0000 0.0000 0.0000 18.3601 0.0000 0.0000
# 5 0.0000 0.0000 0.0000 0.0000 25.1331 0.0000
# 6 0.0000 0.0000 0.0000 0.0000 0.0000 26.0082
#
#
#
# Elastic Compliance Matrix: (Units=1/GPa)
#
#
# Indices 1 2 3 4 5 6 
#
# 1 0.018949 -0.000191 -0.005437 0.000000 0.000000 0.000000
# 2 -0.000191 0.013606 -0.003920 0.000000 0.000000 0.000000
# 3 -0.005437 -0.003920 0.010337 0.000000 0.000000 0.000000
# 4 0.000000 0.000000 0.000000 0.054466 0.000000 0.000000
# 5 0.000000 0.000000 0.000000 0.000000 0.039788 0.000000
# 6 0.000000 0.000000 0.000000 0.000000 0.000000 0.038449
#
#
# Mechanical properties :
#
#
# Convention : Reuss Voigt Hill
#
# Bulk Modulus (GPa) = 42.02649 50.71617 46.37133
# Shear Modulus (GPa) = 24.67616 26.66992 25.67304
#
# Velocity S-wave (km/s) = 3.59585 3.73830 3.66777
# Velocity P-wave (km/s) = 6.26593 6.72370 6.49885
#
# Compressibility (1/GPa) = 0.02379452
#
# Stress axis : x y z
#
# Youngs Moduli (GPa) = 52.77387 73.49710 96.73635
#
# Poissons Ratio (x) = 0.01406 0.52597
# Poissons Ratio (y) = 0.01009 0.37925
# Poissons Ratio (z) = 0.28694 0.28814
#
# Static dielectric constant tensor:
#      x y z
#    x 3.525610 0.000000 0.000000 
#    y 0.000000 3.577950 0.000000 
#    z 0.000000 0.000000 3.441550 
# 
# 
# High freq. dielectric constant tensor:
#      x y z
#    x 1.728100 0.000000 0.000000 
#    y 0.000000 1.732780 0.000000 
#    z 0.000000 0.000000 1.744860 
# 
# From -- ./inp_files/29763.got.cif
#   From: 2010.03.12/outbox.cif.g09.slc.cpg/sg22_15_cif.got.tgz:29763.got - 2010.04.14 02:24:06.
