data_PCOD8163984
_publ_section_title
;
Structure prediction by ZEFSAII (Michael W. Deem and Ramdas Pophale) SiO2 
 PCOD8163984
Probable space group: I 2 2 2
;
_chemical_formula_sum "Si O2"
_cell_formula_units_Z 44
_cell_length_a 14.757222
_cell_length_b 12.066272
_cell_length_c 13.228642
_cell_angle_alpha 90.000000
_cell_angle_beta 90.000000
_cell_angle_gamma 90.000000
_cell_volume 2355.553569
_symmetry_space_group_name_H-M "I 2 2 2"
_symmetry_group_IT_number 23
_symmetry_cell_setting 'orthorhombic'
loop_
_space_group_symop_operation_xyz
x,y,z
-x,-y,z
x,-y,-z
-x,y,-z
1/2+x,1/2+y,1/2+z
1/2-x,1/2-y,1/2+z
1/2+x,1/2-y,1/2-z
1/2-x,1/2+y,1/2-z
loop_
_atom_site_type_symbol
_atom_site_label
_atom_site_fract_x
_atom_site_fract_y
_atom_site_fract_z
Si Si1 0.176080 0.229754 0.258962
Si Si2 0.477982 0.874092 0.201761
Si Si3 0.896246 0.997674 0.808486
Si Si4 0.357022 0.197583 0.967414
Si Si5 0.729441 0.500000 0.500000
Si Si6 0.865974 0.214466 0.323935
O O1 0.104625 0.327887 0.228822
O O2 0.128487 0.113511 0.240850
O O3 0.198276 0.238130 0.379104
O O4 0.264420 0.244467 0.193137
O O5 0.446681 0.858411 0.084079
O O6 0.566922 0.802997 0.227032
O O7 0.500000 0.000000 0.228292
O O8 0.832292 0.973053 0.903473
O O9 0.882304 0.906171 0.721755
O O10 0.000000 0.000000 0.845346
O O11 0.293919 0.104788 0.019690
O O12 0.383649 0.285079 0.055015
#
# Coordination Sequence:
#
# PCOD8163984 Si02
#       6
#     8   8   8   8   4   8
#     4  10  24  39  59  95 123 165 206 255 319 369
#     4  10  22  40  63  94 123 161 212 257 312 368
#     4  12  23  42  62  93 128 166 210 259 318 375
#     4  10  22  38  59  97 116 162 210 252 312 366
#     4  12  21  38  67  90 128 160 218 259 299 380
#     4  12  22  39  64  88 134 162 202 268 310 376
#
# _framework density 18.679261
#
# number of rings (size 3 to 8) (size 9 to 14) (size 15 to 20)
#    1.091    0.000    5.455    1.909    2.545    1.455 
#    0.000    0.909    0.000    0.000    0.000    2.545 
#    0.000    0.000    0.000    0.000    0.000    0.000 
#
# Total GULP energy -272658.448837 kJ/mol
# GULP energy per Si atom -12393.565856 kJ/mol
# Density = 1.863675 g / cm^3
# Si number density = 18.679261 Si / 1000 Ang^3
#
#
#
# Elastic Constant Matrix: (Units=GPa)
#
#
# Indices 1 2 3 4 5 6 
#
# 1 117.0397 53.2557 7.5140 0.0000 0.0000 0.0000
# 2 53.2557 123.4817 35.2795 0.0000 0.0000 0.0000
# 3 7.5140 35.2795 47.2425 0.0000 0.0000 0.0000
# 4 0.0000 0.0000 0.0000 31.5611 0.0000 0.0000
# 5 0.0000 0.0000 0.0000 0.0000 25.6015 0.0000
# 6 0.0000 0.0000 0.0000 0.0000 0.0000 30.5945
#
#
#
# Elastic Compliance Matrix: (Units=1/GPa)
#
#
# Indices 1 2 3 4 5 6 
#
# 1 0.010814 -0.005304 0.002241 0.000000 0.000000 0.000000
# 2 -0.005304 0.012896 -0.008787 0.000000 0.000000 0.000000
# 3 0.002241 -0.008787 0.027373 0.000000 0.000000 0.000000
# 4 0.000000 0.000000 0.000000 0.031685 0.000000 0.000000
# 5 0.000000 0.000000 0.000000 0.000000 0.039060 0.000000
# 6 0.000000 0.000000 0.000000 0.000000 0.000000 0.032686
#
#
# Mechanical properties :
#
#
# Convention : Reuss Voigt Hill
#
# Bulk Modulus (GPa) = 36.51932 53.31802 44.91867
# Shear Modulus (GPa) = 26.68922 30.33239 28.51080
#
# Velocity S-wave (km/s) = 3.78407 4.03408 3.91107
# Velocity P-wave (km/s) = 6.21976 7.09255 6.67045
#
# Compressibility (1/GPa) = 0.02738277
#
# Stress axis : x y z
#
# Youngs Moduli (GPa) = 92.47535 77.54068 36.53237
#
# Poissons Ratio (x) = 0.41128 -0.08187
# Poissons Ratio (y) = 0.49049 0.32101
# Poissons Ratio (z) = -0.20724 0.68136
#
# Static dielectric constant tensor:
#      x y z
#    x 3.619280 0.000000 0.000000 
#    y 0.000000 3.336520 0.000000 
#    z 0.000000 0.000000 3.211410 
# 
# 
# High freq. dielectric constant tensor:
#      x y z
#    x 1.742400 0.000000 0.000000 
#    y 0.000000 1.721860 0.000000 
#    z 0.000000 0.000000 1.702950 
# 
# From -- ./inp_files/21497.got.cif
#   From: 2010.03.12/outbox.cif.g09.slc.cpg/sg23_11_cif.got.tgz:21497.got - 2010.04.14 02:50:06.
