data_PCOD8163853
_publ_section_title
;
Structure prediction by ZEFSAII (Michael W. Deem and Ramdas Pophale) SiO2 
 PCOD8163853
Probable space group: I 2 2 2
;
_chemical_formula_sum "Si O2"
_cell_formula_units_Z 40
_cell_length_a 15.913039
_cell_length_b 7.849280
_cell_length_c 15.945047
_cell_angle_alpha 90.000000
_cell_angle_beta 90.000000
_cell_angle_gamma 90.000000
_cell_volume 1991.630426
_symmetry_space_group_name_H-M "I 2 2 2"
_symmetry_group_IT_number 23
_symmetry_cell_setting 'orthorhombic'
loop_
_space_group_symop_operation_xyz
x,y,z
-x,-y,z
x,-y,-z
-x,y,-z
1/2+x,1/2+y,1/2+z
1/2-x,1/2-y,1/2+z
1/2+x,1/2-y,1/2-z
1/2-x,1/2+y,1/2-z
loop_
_atom_site_type_symbol
_atom_site_label
_atom_site_fract_x
_atom_site_fract_y
_atom_site_fract_z
Si Si1 0.816125 0.994194 0.184652
Si Si2 0.000000 0.500000 0.236078
Si Si3 0.557387 0.661376 0.803201
Si Si4 0.692204 0.344144 0.058095
Si Si5 0.173936 0.619917 0.196345
Si Si6 0.760781 0.000000 0.000000
O O1 0.885635 0.865071 0.220025
O O2 0.723855 0.956708 0.223470
O O3 0.816791 0.980982 0.083835
O O4 0.843603 0.181894 0.213925
O O5 0.002525 0.330991 0.292862
O O6 0.086041 0.518926 0.182508
O O7 0.500000 0.500000 0.821422
O O8 0.615582 0.695262 0.881906
O O9 0.774032 0.400766 0.110713
O O10 0.705696 0.171346 0.005663
O O11 0.666787 0.500000 0.000000
#
# Coordination Sequence:
#
# PCOD8163853 Si02
#       6
#     8   4   8   8   8   4
#     4  10  21  41  64  91 126 168 214 259 318 383
#     4  12  22  38  67  95 124 164 222 264 312 367
#     4  11  24  42  64  94 130 168 213 261 317 386
#     4  10  24  41  64  93 127 170 208 260 322 382
#     4  10  21  38  64  93 122 168 215 257 315 383
#     4  10  22  38  65  95 122 160 218 266 310 371
#
# _framework density 20.084047999999999
#
# number of rings (size 3 to 8) (size 9 to 14) (size 15 to 20)
#    0.000    1.600    2.000    3.600    8.400    2.000 
#    0.000    1.000    0.000    5.400    0.000    0.000 
#    0.000    0.000    0.000    0.000    0.000    0.000 
#
# Total GULP energy -247999.764886 kJ/mol
# GULP energy per Si atom -12399.988244 kJ/mol
# Density = 2.003834 g / cm^3
# Si number density = 20.084048 Si / 1000 Ang^3
#
#
#
# Elastic Constant Matrix: (Units=GPa)
#
#
# Indices 1 2 3 4 5 6 
#
# 1 83.7989 17.4374 5.2057 0.0000 0.0000 0.0000
# 2 17.4374 133.9194 24.7206 0.0000 0.0000 0.0000
# 3 5.2057 24.7206 76.5690 0.0000 0.0000 0.0000
# 4 0.0000 0.0000 0.0000 24.9585 0.0000 0.0000
# 5 0.0000 0.0000 0.0000 0.0000 -7.2999 0.0000
# 6 0.0000 0.0000 0.0000 0.0000 0.0000 31.1514
#
#
#
# Elastic Compliance Matrix: (Units=1/GPa)
#
#
# Indices 1 2 3 4 5 6 
#
# 1 0.012274 -0.001536 -0.000339 0.000000 0.000000 0.000000
# 2 -0.001536 0.008133 -0.002521 0.000000 0.000000 0.000000
# 3 -0.000339 -0.002521 0.013897 0.000000 0.000000 0.000000
# 4 0.000000 0.000000 0.000000 0.040067 0.000000 0.000000
# 5 0.000000 0.000000 0.000000 0.000000 -0.136988 0.000000
# 6 0.000000 0.000000 0.000000 0.000000 0.000000 0.032101
#
#
# Mechanical properties :
#
#
# Convention : Reuss Voigt Hill
#
# Bulk Modulus (GPa) = 39.19650 43.22386 41.21018
# Shear Modulus (GPa) = -378.18684 26.22357 -175.98164
#
# Velocity S-wave (km/s) = -13.73721 3.61736 -9.37085
# Velocity P-wave (km/s) = 15.23338 6.24622 9.82448
#
# Compressibility (1/GPa) = 0.02551248
#
# Stress axis : x y z
#
# Youngs Moduli (GPa) = 81.47364 122.96295 71.95737
#
# Poissons Ratio (x) = 0.18883 0.02437
# Poissons Ratio (y) = 0.12511 0.18142
# Poissons Ratio (z) = 0.02759 0.31002
#
# Static dielectric constant tensor:
#      x y z
#    x 3.631770 0.000000 0.000000 
#    y 0.000000 3.866600 0.000000 
#    z 0.000000 0.000000 3.463590 
# 
# 
# High freq. dielectric constant tensor:
#      x y z
#    x 1.777530 0.000000 0.000000 
#    y 0.000000 1.809320 0.000000 
#    z 0.000000 0.000000 1.765200 
# 
# From -- ./inp_files/9626.got.cif
#   From: 2010.03.12/outbox.cif.g09.slc.cpg/sg23_5_cif.got.tgz:9626.got - 2010.04.14 02:50:06.
