data_PCOD8163335
_publ_section_title
;
Structure prediction by ZEFSAII (Michael W. Deem and Ramdas Pophale) SiO2 
 PCOD8163335
Probable space group: I 2 2 2
;
_chemical_formula_sum "Si O2"
_cell_formula_units_Z 40
_cell_length_a 10.842305
_cell_length_b 15.615394
_cell_length_c 11.824734
_cell_angle_alpha 90.000000
_cell_angle_beta 90.000000
_cell_angle_gamma 90.000000
_cell_volume 2002.008636
_symmetry_space_group_name_H-M "I 2 2 2"
_symmetry_group_IT_number 23
_symmetry_cell_setting 'orthorhombic'
loop_
_space_group_symop_operation_xyz
x,y,z
-x,-y,z
x,-y,-z
-x,y,-z
1/2+x,1/2+y,1/2+z
1/2-x,1/2-y,1/2+z
1/2+x,1/2-y,1/2-z
1/2-x,1/2+y,1/2-z
loop_
_atom_site_type_symbol
_atom_site_label
_atom_site_fract_x
_atom_site_fract_y
_atom_site_fract_z
Si Si1 0.949672 0.679078 0.877321
Si Si2 0.000000 0.500000 0.500000
Si Si3 0.000000 0.000000 0.665368
Si Si4 0.107263 0.129502 0.834445
Si Si5 0.500000 0.500000 0.500000
Si Si6 0.766964 0.540808 0.886878
Si Si7 0.368993 0.912988 0.206245
O O1 0.954683 0.780369 0.860925
O O2 0.811275 0.639388 0.874074
O O3 0.029318 0.637125 0.777507
O O4 0.000000 0.655582 0.000000
O O5 0.918684 0.440511 0.583019
O O6 0.962258 0.914153 0.730623
O O7 0.119118 0.966646 0.597150
O O8 0.251212 0.148055 0.812162
O O9 0.093826 0.061023 0.934254
O O10 0.820092 0.495057 0.775296
O O11 0.826621 0.500000 0.000000
#
# Coordination Sequence:
#
# PCOD8163335 Si02
#       7
#     8   2   4   8   2   8   8
#     4  12  23  41  69  97 130 166 221 278 321 387
#     4  12  22  44  66  90 124 164 220 262 318 396
#     4   9  23  41  65  94 130 175 209 264 332 400
#     4  10  23  41  64  93 130 170 220 263 321 393
#     4  10  18  44  66  90 128 182 218 252 336 394
#     4  11  21  41  69  94 131 168 215 265 329 396
#     4  11  24  42  63  96 126 170 216 264 330 386
#
# _framework density 19.979935000000001
#
# number of rings (size 3 to 8) (size 9 to 14) (size 15 to 20)
#    0.000    1.200    5.000    0.900    2.800    0.000 
#    3.600    0.000    0.000    0.000    0.000    0.000 
#    0.000    0.000    0.000    0.000    0.000    0.000 
#
# Total GULP energy -247833.123166 kJ/mol
# GULP energy per Si atom -12391.656158 kJ/mol
# Density = 1.993446 g / cm^3
# Si number density = 19.979935 Si / 1000 Ang^3
#
#
#
# Elastic Constant Matrix: (Units=GPa)
#
#
# Indices 1 2 3 4 5 6 
#
# 1 123.8072 60.1421 44.9684 0.0002 0.0000 0.0000
# 2 60.1421 109.3054 30.7753 -0.0013 0.0000 0.0000
# 3 44.9684 30.7753 125.8114 -0.0024 0.0000 -0.0002
# 4 0.0002 -0.0013 -0.0024 44.5049 0.0001 -0.0001
# 5 0.0000 0.0000 0.0000 0.0001 20.6924 0.0001
# 6 0.0000 0.0000 -0.0002 -0.0001 0.0001 18.1341
#
#
#
# Elastic Compliance Matrix: (Units=1/GPa)
#
#
# Indices 1 2 3 4 5 6 
#
# 1 0.011904 -0.005748 -0.002849 0.000000 0.000000 0.000000
# 2 -0.005748 0.012601 -0.001028 0.000000 0.000000 0.000000
# 3 -0.002849 -0.001028 0.009218 0.000000 0.000000 0.000000
# 4 0.000000 0.000000 0.000000 0.022469 0.000000 0.000000
# 5 0.000000 0.000000 0.000000 0.000000 0.048327 0.000000
# 6 0.000000 0.000000 0.000000 0.000000 0.000000 0.055145
#
#
# Mechanical properties :
#
#
# Convention : Reuss Voigt Hill
#
# Bulk Modulus (GPa) = 69.09050 70.07727 69.58389
# Shear Modulus (GPa) = 27.21283 31.53549 29.37416
#
# Velocity S-wave (km/s) = 3.69454 3.97717 3.83846
# Velocity P-wave (km/s) = 7.27011 7.49936 7.38563
#
# Compressibility (1/GPa) = 0.01447377
#
# Stress axis : x y z
#
# Youngs Moduli (GPa) = 84.00645 79.36144 108.48235
#
# Poissons Ratio (x) = 0.45614 0.30904
# Poissons Ratio (y) = 0.48284 0.11151
# Poissons Ratio (z) = 0.23932 0.08158
#
# Static dielectric constant tensor:
#      x y z
#    x 3.740730 0.000000 0.000000 
#    y 0.000000 3.430800 0.000000 
#    z 0.000000 0.000000 3.731030 
# 
# 
# High freq. dielectric constant tensor:
#      x y z
#    x 1.788080 0.000000 0.000000 
#    y 0.000000 1.766770 0.000000 
#    z 0.000000 0.000000 1.788160 
# 
# From -- ./inp_files/15592.got.cif
#   From: 2010.03.12/outbox.cif.g09.slc.cpg/sg23_8_cif.got.tgz:15592.got - 2010.04.14 02:50:06.
