data_PCOD8163038
_publ_section_title
;
Structure prediction by ZEFSAII (Michael W. Deem and Ramdas Pophale) SiO2 
 PCOD8163038
Probable space group: F 2 2 2
;
_chemical_formula_sum "Si O2"
_cell_formula_units_Z 64
_cell_length_a 19.551491
_cell_length_b 9.616335
_cell_length_c 16.439844
_cell_angle_alpha 90.000000
_cell_angle_beta 90.000000
_cell_angle_gamma 90.000000
_cell_volume 3090.915688
_symmetry_space_group_name_H-M "F 2 2 2"
_symmetry_group_IT_number 22
_symmetry_cell_setting 'orthorhombic'
loop_
_space_group_symop_operation_xyz
x,y,z
-x,-y,z
x,-y,-z
-x,y,-z
x,1/2+y,1/2+z
-x,1/2-y,1/2+z
x,1/2-y,1/2-z
-x,1/2+y,1/2-z
1/2+x,y,1/2+z
1/2-x,-y,1/2+z
1/2+x,-y,1/2-z
1/2-x,y,1/2-z
1/2+x,1/2+y,z
1/2-x,1/2-y,z
1/2+x,1/2-y,-z
1/2-x,1/2+y,-z
loop_
_atom_site_type_symbol
_atom_site_label
_atom_site_fract_x
_atom_site_fract_y
_atom_site_fract_z
Si Si1 0.832691 0.817609 0.337992
Si Si2 0.702510 0.548114 0.090626
Si Si3 0.580004 0.027932 0.089694
Si Si4 0.171376 0.729336 0.345115
O O1 0.823524 0.750000 0.250000
O O2 0.771431 0.925836 0.357264
O O3 0.837396 0.695410 0.406169
O O4 0.899283 0.911124 0.344405
O O5 0.655298 0.431338 0.133619
O O6 0.720194 0.500000 0.000000
O O7 0.611578 0.177142 0.114631
O O8 0.500000 0.000000 0.088722
O O9 0.610255 0.000000 0.000000
O O10 0.167969 0.750000 0.250000
O O11 0.250000 0.750000 0.377897
#
# Coordination Sequence:
#
# PCOD8163038 Si02
#       4
#    16  16  16  16
#     4  11  23  39  60  89 127 167 212 265 323 382
#     4  11  22  35  60  92 124 160 206 264 318 372
#     4  11  24  44  67  93 130 175 217 263 328 399
#     4  11  23  38  64  94 127 165 216 269 318 381
#
# _framework density 20.705838
#
# number of rings (size 3 to 8) (size 9 to 14) (size 15 to 20)
#    0.000    1.000    2.500    5.250    7.000    1.000 
#    0.000    1.250    0.000    4.500    0.000    0.000 
#    0.000    0.000    0.000    0.000    0.000    0.000 
#
# Total GULP energy -198219.472693 kJ/mol
# GULP energy per Si atom -12388.717043 kJ/mol
# Density = 2.065871 g / cm^3
# Si number density = 20.705838 Si / 1000 Ang^3
#
#
#
# Elastic Constant Matrix: (Units=GPa)
#
#
# Indices 1 2 3 4 5 6 
#
# 1 76.6766 66.6143 30.3638 0.0000 0.0000 0.0000
# 2 66.6143 146.9868 58.8387 0.0000 0.0000 0.0000
# 3 30.3638 58.8387 133.8511 0.0000 0.0000 0.0000
# 4 0.0000 0.0000 0.0000 42.9159 0.0000 0.0000
# 5 0.0000 0.0000 0.0000 0.0000 8.4954 0.0000
# 6 0.0000 0.0000 0.0000 0.0000 0.0000 20.1231
#
#
#
# Elastic Compliance Matrix: (Units=1/GPa)
#
#
# Indices 1 2 3 4 5 6 
#
# 1 0.021569 -0.009486 -0.000723 0.000000 0.000000 0.000000
# 2 -0.009486 0.012428 -0.003311 0.000000 0.000000 0.000000
# 3 -0.000723 -0.003311 0.009091 0.000000 0.000000 0.000000
# 4 0.000000 0.000000 0.000000 0.023301 0.000000 0.000000
# 5 0.000000 0.000000 0.000000 0.000000 0.117710 0.000000
# 6 0.000000 0.000000 0.000000 0.000000 0.000000 0.049694
#
#
# Mechanical properties :
#
#
# Convention : Reuss Voigt Hill
#
# Bulk Modulus (GPa) = 62.31574 74.34979 68.33277
# Shear Modulus (GPa) = 18.78413 27.75338 23.26876
#
# Velocity S-wave (km/s) = 3.01523 3.66507 3.35592
# Velocity P-wave (km/s) = 6.50255 7.34138 6.93466
#
# Compressibility (1/GPa) = 0.01604731
#
# Stress axis : x y z
#
# Youngs Moduli (GPa) = 46.36304 80.46579 110.00383
#
# Poissons Ratio (x) = 0.76326 0.07955
# Poissons Ratio (y) = 0.43978 0.36425
# Poissons Ratio (z) = 0.03353 0.26644
#
# Static dielectric constant tensor:
#      x y z
#    x 3.468300 0.000000 0.000000 
#    y 0.000000 4.391120 0.000000 
#    z 0.000000 0.000000 4.227220 
# 
# 
# High freq. dielectric constant tensor:
#      x y z
#    x 1.766880 0.000000 0.000000 
#    y 0.000000 1.835520 0.000000 
#    z 0.000000 0.000000 1.821090 
# 
# From -- ./inp_files/38517.got.cif
#   From: 2010.03.12/outbox.cif.g09.slc.cpg/sg22_20_cif.got.tgz:38517.got - 2010.04.14 02:24:06.
