data_PCOD8163938
_publ_section_title
;
Structure prediction by ZEFSAII (Michael W. Deem and Ramdas Pophale) SiO2 
 PCOD8163938
Probable space group: I 2 2 2
;
_chemical_formula_sum "Si O2"
_cell_formula_units_Z 58
_cell_length_a 11.903986
_cell_length_b 8.109415
_cell_length_c 27.385623
_cell_angle_alpha 90.000000
_cell_angle_beta 90.000000
_cell_angle_gamma 90.000000
_cell_volume 2643.653661
_symmetry_space_group_name_H-M "I 2 2 2"
_symmetry_group_IT_number 23
_symmetry_cell_setting 'orthorhombic'
loop_
_space_group_symop_operation_xyz
x,y,z
-x,-y,z
x,-y,-z
-x,y,-z
1/2+x,1/2+y,1/2+z
1/2-x,1/2-y,1/2+z
1/2+x,1/2-y,1/2-z
1/2-x,1/2+y,1/2-z
loop_
_atom_site_type_symbol
_atom_site_label
_atom_site_fract_x
_atom_site_fract_y
_atom_site_fract_z
Si Si1 0.298657 0.843087 0.441984
Si Si2 0.626556 0.187223 0.013555
Si Si3 0.500000 0.000000 0.500000
Si Si4 0.384276 0.582619 0.097346
Si Si5 0.211683 0.910056 0.216280
Si Si6 0.101059 0.878280 0.863334
Si Si7 0.621326 0.350379 0.209497
Si Si8 0.983162 0.312220 0.216105
O O1 0.215087 0.800663 0.485753
O O2 0.418160 0.898660 0.464129
O O3 0.328869 0.683691 0.409708
O O4 0.229590 0.975672 0.409772
O O5 0.636576 0.240608 0.070477
O O6 0.500000 0.229544 0.000000
O O7 0.656309 0.000000 0.000000
O O8 0.500000 0.500000 0.076908
O O9 0.405904 0.611232 0.154089
O O10 0.336235 0.838874 0.215251
O O11 0.145681 0.736193 0.207996
O O12 0.189782 0.029694 0.171002
O O13 0.196873 0.004564 0.267438
O O14 0.052824 0.721781 0.833541
O O15 0.000000 0.000000 0.879530
O O16 0.510011 0.328606 0.242519
O O17 0.000000 0.500000 0.231999
#
# Coordination Sequence:
#
# PCOD8163938 Si02
#       8
#     8   8   2   8   8   8   8   8
#     4  12  26  45  74 100 141 177 235 284 353 422
#     4  11  25  49  74 100 137 179 231 297 367 415
#     4  12  28  44  68 112 128 184 230 282 340 444
#     4  12  25  46  75 101 137 188 237 290 357 425
#     4  10  22  41  64  93 141 173 224 276 345 405
#     4   9  23  42  67  97 134 181 226 281 345 415
#     4  11  24  40  65 101 132 181 229 283 339 413
#     4  10  21  42  62  93 135 178 219 276 339 413
#
# _framework density 21.939333000000001
#
# number of rings (size 3 to 8) (size 9 to 14) (size 15 to 20)
#    0.000    1.241    2.759    2.897    8.690    2.207 
#    4.966    0.000    0.000    0.000    0.000    0.000 
#    0.000    0.000    0.000    0.000    0.000    0.000 
#
# Total GULP energy -359358.825406 kJ/mol
# GULP energy per Si atom -12391.683635 kJ/mol
# Density = 2.188940 g / cm^3
# Si number density = 21.939333 Si / 1000 Ang^3
#
#
#
# Elastic Constant Matrix: (Units=GPa)
#
#
# Indices 1 2 3 4 5 6 
#
# 1 89.9756 31.3766 19.1352 0.0000 0.0000 0.0000
# 2 31.3766 111.9062 36.1145 0.0000 0.0000 0.0000
# 3 19.1352 36.1145 107.2147 0.0000 0.0000 0.0000
# 4 0.0000 0.0000 0.0000 32.7210 0.0000 0.0000
# 5 0.0000 0.0000 0.0000 0.0000 19.8958 0.0000
# 6 0.0000 0.0000 0.0000 0.0000 0.0000 33.0669
#
#
#
# Elastic Compliance Matrix: (Units=1/GPa)
#
#
# Indices 1 2 3 4 5 6 
#
# 1 0.012449 -0.003112 -0.001174 0.000000 0.000000 0.000000
# 2 -0.003112 0.010804 -0.003084 0.000000 0.000000 0.000000
# 3 -0.001174 -0.003084 0.010575 0.000000 0.000000 0.000000
# 4 0.000000 0.000000 0.000000 0.030561 0.000000 0.000000
# 5 0.000000 0.000000 0.000000 0.000000 0.050262 0.000000
# 6 0.000000 0.000000 0.000000 0.000000 0.000000 0.030242
#
#
# Mechanical properties :
#
#
# Convention : Reuss Voigt Hill
#
# Bulk Modulus (GPa) = 52.38458 53.59433 52.98946
# Shear Modulus (GPa) = 30.12154 31.96811 31.04483
#
# Velocity S-wave (km/s) = 3.70935 3.82136 3.76577
# Velocity P-wave (km/s) = 6.50189 6.62962 6.56606
#
# Compressibility (1/GPa) = 0.01908959
#
# Stress axis : x y z
#
# Youngs Moduli (GPa) = 80.32879 92.56070 94.55994
#
# Poissons Ratio (x) = 0.28802 0.11098
# Poissons Ratio (y) = 0.24996 0.29160
# Poissons Ratio (z) = 0.09428 0.28544
#
# Static dielectric constant tensor:
#      x y z
#    x 4.132670 0.000000 0.000000 
#    y 0.000000 3.846680 0.000000 
#    z 0.000000 0.000000 3.797460 
# 
# 
# High freq. dielectric constant tensor:
#      x y z
#    x 1.873460 0.000000 0.000000 
#    y 0.000000 1.866340 0.000000 
#    z 0.000000 0.000000 1.855750 
# 
# From -- ./inp_files/29489.got.cif
#   From: 2010.03.12/outbox.cif.g09.slc.cpg/sg23_15_cif.got.tgz:29489.got - 2010.04.14 02:50:06.
