data_PCOD8163778
_publ_section_title
;
Structure prediction by ZEFSAII (Michael W. Deem and Ramdas Pophale) SiO2 
 PCOD8163778
Probable space group: I 2 2 2
;
_chemical_formula_sum "Si O2"
_cell_formula_units_Z 56
_cell_length_a 11.765772
_cell_length_b 15.116197
_cell_length_c 13.672954
_cell_angle_alpha 90.000000
_cell_angle_beta 90.000000
_cell_angle_gamma 90.000000
_cell_volume 2431.785834
_symmetry_space_group_name_H-M "I 2 2 2"
_symmetry_group_IT_number 23
_symmetry_cell_setting 'orthorhombic'
loop_
_space_group_symop_operation_xyz
x,y,z
-x,-y,z
x,-y,-z
-x,y,-z
1/2+x,1/2+y,1/2+z
1/2-x,1/2-y,1/2+z
1/2+x,1/2-y,1/2-z
1/2-x,1/2+y,1/2-z
loop_
_atom_site_type_symbol
_atom_site_label
_atom_site_fract_x
_atom_site_fract_y
_atom_site_fract_z
Si Si1 0.310688 0.002597 0.888412
Si Si2 0.809346 0.291850 0.871484
Si Si3 0.931407 0.805899 0.279191
Si Si4 0.728102 0.790980 0.402579
Si Si5 0.979725 0.593493 0.887775
Si Si6 0.657845 0.377096 0.723551
Si Si7 0.489688 0.858471 0.888405
O O1 0.203437 0.028228 0.818152
O O2 0.404420 0.077698 0.871073
O O3 0.369963 0.907993 0.865910
O O4 0.267314 0.000000 0.000000
O O5 0.834721 0.204807 0.806017
O O6 0.712705 0.355728 0.828757
O O7 0.930695 0.336040 0.852371
O O8 0.778509 0.269789 0.982095
O O9 0.854794 0.825541 0.375580
O O10 0.021224 0.880349 0.242916
O O11 0.007428 0.720304 0.309798
O O12 0.646080 0.870212 0.370080
O O13 0.693780 0.698579 0.353314
O O14 0.000000 0.500000 0.831217
O O15 0.000000 0.575314 0.000000
O O16 0.500000 0.823911 0.000000
#
# Coordination Sequence:
#
# PCOD8163778 Si02
#       7
#     8   8   8   8   8   8   8
#     4   9  18  35  58  91 138 178 225 277 342 412
#     4  10  21  35  57  92 128 171 218 280 336 411
#     4  11  22  36  60  98 134 176 231 284 348 419
#     4  10  21  38  58  92 133 168 221 284 358 407
#     4   9  18  36  62  90 118 160 217 272 339 408
#     4  11  22  36  58  98 136 175 228 279 345 424
#     4   9  18  33  58  93 135 180 221 282 347 402
#
# _framework density 23.028345999999999
#
# number of rings (size 3 to 8) (size 9 to 14) (size 15 to 20)
#    0.000    2.143    4.286    0.857    2.000    1.143 
#    0.000    0.000    0.000    0.857    7.429    4.000 
#    4.286    0.000    0.000    0.000    0.000    0.000 
#
# Total GULP energy -346915.283309 kJ/mol
# GULP energy per Si atom -12389.831547 kJ/mol
# Density = 2.297593 g / cm^3
# Si number density = 23.028346 Si / 1000 Ang^3
#
#
#
# Elastic Constant Matrix: (Units=GPa)
#
#
# Indices 1 2 3 4 5 6 
#
# 1 150.2853 31.9884 48.3109 0.0000 0.0000 0.0000
# 2 31.9884 50.3657 21.5647 0.0000 0.0000 0.0000
# 3 48.3109 21.5647 121.1136 0.0000 0.0000 0.0000
# 4 0.0000 0.0000 0.0000 17.6917 0.0000 0.0000
# 5 0.0000 0.0000 0.0000 0.0000 88.7900 0.0000
# 6 0.0000 0.0000 0.0000 0.0000 0.0000 41.2438
#
#
#
# Elastic Compliance Matrix: (Units=1/GPa)
#
#
# Indices 1 2 3 4 5 6 
#
# 1 0.008385 -0.004215 -0.002594 0.000000 0.000000 0.000000
# 2 -0.004215 0.023612 -0.002523 0.000000 0.000000 0.000000
# 3 -0.002594 -0.002523 0.009741 0.000000 0.000000 0.000000
# 4 0.000000 0.000000 0.000000 0.056524 0.000000 0.000000
# 5 0.000000 0.000000 0.000000 0.000000 0.011263 0.000000
# 6 0.000000 0.000000 0.000000 0.000000 0.000000 0.024246
#
#
# Mechanical properties :
#
#
# Convention : Reuss Voigt Hill
#
# Bulk Modulus (GPa) = 43.33929 58.38808 50.86368
# Shear Modulus (GPa) = 31.22555 44.20514 37.71535
#
# Velocity S-wave (km/s) = 3.68633 4.38607 4.05134
# Velocity P-wave (km/s) = 6.08108 7.14564 6.63474
#
# Compressibility (1/GPa) = 0.02307375
#
# Stress axis : x y z
#
# Youngs Moduli (GPa) = 119.25925 42.35146 102.66147
#
# Poissons Ratio (x) = 0.17850 0.26633
# Poissons Ratio (y) = 0.50265 0.25901
# Poissons Ratio (z) = 0.30939 0.10685
#
# Static dielectric constant tensor:
#      x y z
#    x 4.191200 0.000000 0.000000 
#    y 0.000000 3.337800 0.000000 
#    z 0.000000 0.000000 4.226530 
# 
# 
# High freq. dielectric constant tensor:
#      x y z
#    x 1.905710 0.000000 0.000000 
#    y 0.000000 1.868770 0.000000 
#    z 0.000000 0.000000 1.923480 
# 
# From -- ./inp_files/20907.got.cif
#   From: 2010.03.12/outbox.cif.g09.slc.cpg/sg23_11_cif.got.tgz:20907.got - 2010.04.14 02:50:06.
