data_PCOD8163225
_publ_section_title
;
Structure prediction by ZEFSAII (Michael W. Deem and Ramdas Pophale) SiO2 
 PCOD8163225
Probable space group: I 2 2 2
;
_chemical_formula_sum "Si O2"
_cell_formula_units_Z 40
_cell_length_a 8.420765
_cell_length_b 16.391252
_cell_length_c 13.432336
_cell_angle_alpha 90.000000
_cell_angle_beta 90.000000
_cell_angle_gamma 90.000000
_cell_volume 1854.023445
_symmetry_space_group_name_H-M "I 2 2 2"
_symmetry_group_IT_number 23
_symmetry_cell_setting 'orthorhombic'
loop_
_space_group_symop_operation_xyz
x,y,z
-x,-y,z
x,-y,-z
-x,y,-z
1/2+x,1/2+y,1/2+z
1/2-x,1/2-y,1/2+z
1/2+x,1/2-y,1/2-z
1/2-x,1/2+y,1/2-z
loop_
_atom_site_type_symbol
_atom_site_label
_atom_site_fract_x
_atom_site_fract_y
_atom_site_fract_z
Si Si1 0.000000 0.500000 0.000000
Si Si2 0.245872 0.621245 0.065380
Si Si3 0.500000 0.500000 0.000000
Si Si4 0.298465 0.755642 0.380930
Si Si5 0.437974 0.832302 0.746196
Si Si6 0.500000 0.000000 0.161496
Si Si7 0.743729 0.500000 0.500000
Si Si8 0.500000 0.632830 0.500000
O O1 0.898871 0.441324 0.068936
O O2 0.210730 0.670019 0.167328
O O3 0.399489 0.562153 0.069208
O O4 0.246201 0.681418 0.969963
O O5 0.397578 0.795652 0.292771
O O6 0.131859 0.717891 0.341071
O O7 0.421900 0.687066 0.415141
O O8 0.507330 0.920655 0.771327
O O9 0.652196 0.978855 0.094918
O O10 0.639871 0.575409 0.459172
#
# Coordination Sequence:
#
# PCOD8163225 Si02
#       8
#     2   8   2   8   8   4   4   4
#     4  10  16  42  76  86 128 182 218 250 352 406
#     4  11  23  47  68  97 136 181 220 286 343 399
#     4  10  28  42  68  98 132 182 224 274 332 406
#     4  12  26  45  71 101 137 180 227 286 343 401
#     4  12  26  44  70 103 133 181 230 278 340 411
#     4  11  25  44  68 104 130 182 230 280 330 418
#     4  10  24  46  72  92 138 182 230 278 336 406
#     4  11  21  50  67  95 136 186 214 279 349 392
#
# _framework density 21.5747
#
# number of rings (size 3 to 8) (size 9 to 14) (size 15 to 20)
#    0.000    0.800    6.000    0.600    8.400    0.000 
#    3.600    0.000    0.000    0.000    0.000    0.000 
#    0.000    0.000    0.000    0.000    0.000    0.000 
#
# Total GULP energy -247775.644211 kJ/mol
# GULP energy per Si atom -12388.782211 kJ/mol
# Density = 2.152560 g / cm^3
# Si number density = 21.574700 Si / 1000 Ang^3
#
#
#
# Elastic Constant Matrix: (Units=GPa)
#
#
# Indices 1 2 3 4 5 6 
#
# 1 86.2675 41.3657 18.7131 0.0000 0.0000 0.0000
# 2 41.3657 136.5570 43.2120 0.0000 0.0000 0.0000
# 3 18.7131 43.2120 80.0899 0.0000 0.0000 0.0000
# 4 0.0000 0.0000 0.0000 33.6072 0.0000 0.0000
# 5 0.0000 0.0000 0.0000 0.0000 18.5493 0.0000
# 6 0.0000 0.0000 0.0000 0.0000 0.0000 47.6178
#
#
#
# Elastic Compliance Matrix: (Units=1/GPa)
#
#
# Indices 1 2 3 4 5 6 
#
# 1 0.013650 -0.003769 -0.001156 0.000000 0.000000 0.000000
# 2 -0.003769 0.009871 -0.004445 0.000000 0.000000 0.000000
# 3 -0.001156 -0.004445 0.015154 0.000000 0.000000 0.000000
# 4 0.000000 0.000000 0.000000 0.029756 0.000000 0.000000
# 5 0.000000 0.000000 0.000000 0.000000 0.053911 0.000000
# 6 0.000000 0.000000 0.000000 0.000000 0.000000 0.021001
#
#
# Mechanical properties :
#
#
# Convention : Reuss Voigt Hill
#
# Bulk Modulus (GPa) = 50.16218 56.61064 53.38641
# Shear Modulus (GPa) = 29.63354 33.26310 31.44832
#
# Velocity S-wave (km/s) = 3.71014 3.93079 3.82206
# Velocity P-wave (km/s) = 6.45403 6.84820 6.65403
#
# Compressibility (1/GPa) = 0.01993534
#
# Stress axis : x y z
#
# Youngs Moduli (GPa) = 73.26094 101.30303 65.98705
#
# Poissons Ratio (x) = 0.38182 0.07626
# Poissons Ratio (y) = 0.27613 0.29334
# Poissons Ratio (z) = 0.08467 0.45033
#
# Static dielectric constant tensor:
#      x y z
#    x 4.027580 0.000000 0.000000 
#    y 0.000000 4.658120 0.000000 
#    z 0.000000 0.000000 3.633410 
# 
# 
# High freq. dielectric constant tensor:
#      x y z
#    x 1.850370 0.000000 0.000000 
#    y 0.000000 1.869710 0.000000 
#    z 0.000000 0.000000 1.832360 
# 
# From -- ./inp_files/9665.got.cif
#   From: 2010.03.12/outbox.cif.g09.slc.cpg/sg23_5_cif.got.tgz:9665.got - 2010.04.14 02:50:06.
