data_PCOD8163232
_publ_section_title
;
Structure prediction by ZEFSAII (Michael W. Deem and Ramdas Pophale) SiO2 
 PCOD8163232
Probable space group: I 2 2 2
;
_chemical_formula_sum "Si O2"
_cell_formula_units_Z 46
_cell_length_a 22.662431
_cell_length_b 5.463661
_cell_length_c 22.563187
_cell_angle_alpha 90.000000
_cell_angle_beta 90.000000
_cell_angle_gamma 90.000000
_cell_volume 2793.770214
_symmetry_space_group_name_H-M "I 2 2 2"
_symmetry_group_IT_number 23
_symmetry_cell_setting 'orthorhombic'
loop_
_space_group_symop_operation_xyz
x,y,z
-x,-y,z
x,-y,-z
-x,y,-z
1/2+x,1/2+y,1/2+z
1/2-x,1/2-y,1/2+z
1/2+x,1/2-y,1/2-z
1/2-x,1/2+y,1/2-z
loop_
_atom_site_type_symbol
_atom_site_label
_atom_site_fract_x
_atom_site_fract_y
_atom_site_fract_z
Si Si1 0.118542 0.885154 0.746243
Si Si2 0.000000 0.000000 0.201763
Si Si3 0.049814 0.308469 0.901349
Si Si4 0.668601 0.887726 0.227560
Si Si5 0.821404 0.602085 0.868295
Si Si6 0.213423 0.104818 0.153120
Si Si7 0.500000 0.500000 0.500000
O O1 0.134007 0.637421 0.709395
O O2 0.153059 0.885472 0.808743
O O3 0.134202 0.135994 0.710041
O O4 0.048436 0.867073 0.757515
O O5 0.036155 0.810689 0.161892
O O6 0.114286 0.425503 0.897233
O O7 0.047059 0.132917 0.957728
O O8 0.000000 0.500000 0.916423
O O9 0.678964 0.887176 0.297342
O O10 0.731305 0.896606 0.196232
O O11 0.785913 0.354155 0.886874
O O12 0.789584 0.858221 0.887781
#
# Coordination Sequence:
#
# PCOD8163232 Si02
#       7
#     8   4   8   8   8   8   2
#     4  10  18  26  38  61  79 116 128 173 212 259
#     4  11  20  29  44  62  88 104 156 182 224 287
#     4  11  21  35  48  61  81 110 150 194 245 293
#     4  10  17  28  42  60  87 106 135 164 228 276
#     4  10  18  28  45  63  79 103 133 173 224 276
#     4  10  17  29  42  65  82 105 132 169 227 280
#     4  10  26  36  48  62  80 120 146 208 250 306
#
# _framework density 16.465204
#
# number of rings (size 3 to 8) (size 9 to 14) (size 15 to 20)
#    0.000    1.739    3.478    7.565    2.435    0.000 
#    0.000    0.000    0.000    0.000    0.000    0.000 
#    0.000    0.000    0.000    0.000    0.000    0.000 
#
# Total GULP energy -284954.363381 kJ/mol
# GULP energy per Si atom -12389.320147 kJ/mol
# Density = 1.642773 g / cm^3
# Si number density = 16.465204 Si / 1000 Ang^3
#
#
#
# Elastic Constant Matrix: (Units=GPa)
#
#
# Indices 1 2 3 4 5 6 
#
# 1 79.9335 33.3553 28.8400 0.0000 0.0000 0.0000
# 2 33.3553 167.3914 17.6073 0.0000 0.0000 0.0000
# 3 28.8400 17.6073 19.6121 0.0000 0.0000 0.0000
# 4 0.0000 0.0000 0.0000 -353.0353 0.0000 0.0000
# 5 0.0000 0.0000 0.0000 0.0000 6.8388 0.0000
# 6 0.0000 0.0000 0.0000 0.0000 0.0000 20.1821
#
#
#
# Elastic Compliance Matrix: (Units=1/GPa)
#
#
# Indices 1 2 3 4 5 6 
#
# 1 0.026913 -0.001325 -0.038387 0.000000 0.000000 0.000000
# 2 -0.001325 0.006662 -0.004033 0.000000 0.000000 0.000000
# 3 -0.038387 -0.004033 0.111058 0.000000 0.000000 0.000000
# 4 0.000000 0.000000 0.000000 -0.002833 0.000000 0.000000
# 5 0.000000 0.000000 0.000000 0.000000 0.146225 0.000000
# 6 0.000000 0.000000 0.000000 0.000000 0.000000 0.049549
#
#
# Mechanical properties :
#
#
# Convention : Reuss Voigt Hill
#
# Bulk Modulus (GPa) = 17.49960 47.39358 32.44659
# Shear Modulus (GPa) = 11.25844 -52.72723 -20.73440
#
# Velocity S-wave (km/s) = 2.61774 -5.66506 -3.55249
# Velocity P-wave (km/s) = 4.44838 3.73417 1.70939
#
# Compressibility (1/GPa) = 0.05714417
#
# Stress axis : x y z
#
# Youngs Moduli (GPa) = 37.15638 150.09949 9.00433
#
# Poissons Ratio (x) = 0.19890 0.34565
# Poissons Ratio (y) = 0.04924 0.03631
# Poissons Ratio (z) = 1.42631 0.60529
#
# Static dielectric constant tensor:
#      x y z
#    x 3.090510 0.000000 0.000000 
#    y 0.000000 4.450570 0.000000 
#    z 0.000000 0.000000 2.455420 
# 
# 
# High freq. dielectric constant tensor:
#      x y z
#    x 1.623100 0.000000 0.000000 
#    y 0.000000 1.674550 0.000000 
#    z 0.000000 0.000000 1.536240 
# 
# From -- ./inp_files/3388.got.cif
#   From: 2010.03.12/outbox.cif.g09.slc.cpg/sg23_2_cif.got.tgz:3388.got - 2010.04.14 02:50:06.
