data_PCOD8163881
_publ_section_title
;
Structure prediction by ZEFSAII (Michael W. Deem and Ramdas Pophale) SiO2 
 PCOD8163881
Probable space group: I 2 2 2
;
_chemical_formula_sum "Si O2"
_cell_formula_units_Z 58
_cell_length_a 5.337982
_cell_length_b 17.425037
_cell_length_c 27.750478
_cell_angle_alpha 90.000000
_cell_angle_beta 90.000000
_cell_angle_gamma 90.000000
_cell_volume 2581.197775
_symmetry_space_group_name_H-M "I 2 2 2"
_symmetry_group_IT_number 23
_symmetry_cell_setting 'orthorhombic'
loop_
_space_group_symop_operation_xyz
x,y,z
-x,-y,z
x,-y,-z
-x,y,-z
1/2+x,1/2+y,1/2+z
1/2-x,1/2-y,1/2+z
1/2+x,1/2-y,1/2-z
1/2-x,1/2+y,1/2-z
loop_
_atom_site_type_symbol
_atom_site_label
_atom_site_fract_x
_atom_site_fract_y
_atom_site_fract_z
Si Si1 0.348538 0.078074 0.179927
Si Si2 0.708830 0.374808 0.933270
Si Si3 0.000000 0.000000 0.500000
Si Si4 0.013708 0.084996 0.084682
Si Si5 0.314570 0.212185 0.041743
Si Si6 0.744292 0.547885 0.783793
Si Si7 0.140195 0.688961 0.628333
Si Si8 0.697338 0.148999 0.625705
O O1 0.166895 0.082209 0.134373
O O2 0.198671 0.082311 0.230205
O O3 0.531070 0.153272 0.177907
O O4 0.500000 0.000000 0.176976
O O5 0.686924 0.447892 0.968068
O O6 0.777149 0.299943 0.966900
O O7 0.440697 0.369809 0.906235
O O8 0.943768 0.386154 0.897166
O O9 0.108844 0.145013 0.044081
O O10 0.742123 0.115774 0.098675
O O11 0.000000 0.000000 0.061688
O O12 0.420786 0.221962 0.095389
O O13 0.500000 0.186073 0.000000
O O14 0.500000 0.500000 0.798641
O O15 0.767557 0.616273 0.821238
O O16 0.000000 0.500000 0.784661
O O17 0.336396 0.758733 0.634758
#
# Coordination Sequence:
#
# PCOD8163881 Si02
#       8
#     8   8   2   8   8   8   8   8
#     4  10  21  39  66  96 130 175 231 284 336 428
#     4  11  25  45  72 101 143 183 240 293 357 428
#     4  12  28  46  76 114 132 200 252 302 360 450
#     4  11  20  38  69  92 128 176 233 283 354 423
#     4  10  22  43  62  94 137 180 220 291 361 422
#     4  11  25  44  68 101 139 188 231 289 361 413
#     4  10  22  41  65  95 130 180 223 281 352 413
#     4  11  25  47  68 101 146 185 227 298 360 423
#
# _framework density 22.470188
#
# number of rings (size 3 to 8) (size 9 to 14) (size 15 to 20)
#    0.000    1.379    3.448    1.241    4.828    1.655 
#    2.483    2.069    0.000    0.000    0.000    0.000 
#    0.000    0.000    0.000    0.000    0.000    0.000 
#
# Total GULP energy -359372.540513 kJ/mol
# GULP energy per Si atom -12392.156569 kJ/mol
# Density = 2.241904 g / cm^3
# Si number density = 22.470188 Si / 1000 Ang^3
#
#
#
# Elastic Constant Matrix: (Units=GPa)
#
#
# Indices 1 2 3 4 5 6 
#
# 1 102.6349 33.3113 18.7059 0.0000 0.0000 0.0000
# 2 33.3113 164.5667 48.9636 0.0000 0.0000 0.0000
# 3 18.7059 48.9636 81.2168 0.0000 0.0000 0.0000
# 4 0.0000 0.0000 0.0000 27.2019 0.0000 0.0000
# 5 0.0000 0.0000 0.0000 0.0000 10.3552 0.0000
# 6 0.0000 0.0000 0.0000 0.0000 0.0000 32.0628
#
#
#
# Elastic Compliance Matrix: (Units=1/GPa)
#
#
# Indices 1 2 3 4 5 6 
#
# 1 0.010556 -0.001722 -0.001393 0.000000 0.000000 0.000000
# 2 -0.001722 0.007686 -0.004237 0.000000 0.000000 0.000000
# 3 -0.001393 -0.004237 0.015188 0.000000 0.000000 0.000000
# 4 0.000000 0.000000 0.000000 0.036762 0.000000 0.000000
# 5 0.000000 0.000000 0.000000 0.000000 0.096570 0.000000
# 6 0.000000 0.000000 0.000000 0.000000 0.000000 0.031189
#
#
# Mechanical properties :
#
#
# Convention : Reuss Voigt Hill
#
# Bulk Modulus (GPa) = 53.40317 61.15335 57.27826
# Shear Modulus (GPa) = 22.84179 30.41981 26.63080
#
# Velocity S-wave (km/s) = 3.19178 3.68337 3.44635
# Velocity P-wave (km/s) = 6.11564 6.73529 6.43293
#
# Compressibility (1/GPa) = 0.01872548
#
# Stress axis : x y z
#
# Youngs Moduli (GPa) = 94.73158 130.11005 65.84196
#
# Poissons Ratio (x) = 0.22409 0.09172
# Poissons Ratio (y) = 0.16316 0.27897
# Poissons Ratio (z) = 0.13196 0.55126
#
# Static dielectric constant tensor:
#      x y z
#    x 5.330510 0.000000 0.000000 
#    y 0.000000 4.633040 0.000000 
#    z 0.000000 0.000000 4.129270 
# 
# 
# High freq. dielectric constant tensor:
#      x y z
#    x 1.884170 0.000000 0.000000 
#    y 0.000000 1.897970 0.000000 
#    z 0.000000 0.000000 1.874690 
# 
# From -- ./inp_files/29031.got.cif
#   From: 2010.03.12/outbox.cif.g09.slc.cpg/sg23_15_cif.got.tgz:29031.got - 2010.04.14 02:50:06.
