data_PCOD8163724
_publ_section_title
;
Structure prediction by ZEFSAII (Michael W. Deem and Ramdas Pophale) SiO2 
 PCOD8163724
Probable space group: I 2 2 2
;
_chemical_formula_sum "Si O2"
_cell_formula_units_Z 58
_cell_length_a 11.901950
_cell_length_b 27.749224
_cell_length_c 8.623948
_cell_angle_alpha 90.000000
_cell_angle_beta 90.000000
_cell_angle_gamma 90.000000
_cell_volume 2848.230242
_symmetry_space_group_name_H-M "I 2 2 2"
_symmetry_group_IT_number 23
_symmetry_cell_setting 'orthorhombic'
loop_
_space_group_symop_operation_xyz
x,y,z
-x,-y,z
x,-y,-z
-x,y,-z
1/2+x,1/2+y,1/2+z
1/2-x,1/2-y,1/2+z
1/2+x,1/2-y,1/2-z
1/2-x,1/2+y,1/2-z
loop_
_atom_site_type_symbol
_atom_site_label
_atom_site_fract_x
_atom_site_fract_y
_atom_site_fract_z
Si Si1 0.000000 0.000000 0.500000
Si Si2 0.563208 0.665211 0.864037
Si Si3 0.848550 0.302858 0.860828
Si Si4 0.164958 0.079468 0.564724
Si Si5 0.286771 0.300352 0.613790
Si Si6 0.552101 0.836010 0.158983
Si Si7 0.884248 0.605382 0.933230
Si Si8 0.345525 0.347801 0.314328
O O1 0.913711 0.966847 0.598039
O O2 0.671661 0.690142 0.790616
O O3 0.476837 0.657846 0.722784
O O4 0.500000 0.696452 0.000000
O O5 0.599370 0.616232 0.951861
O O6 0.840011 0.250396 0.941392
O O7 0.735331 0.307113 0.759340
O O8 0.959697 0.306539 0.755929
O O9 0.853854 0.342868 0.992780
O O10 0.283263 0.068201 0.475342
O O11 0.192681 0.101482 0.735364
O O12 0.152217 0.299118 0.618708
O O13 0.328309 0.343610 0.499315
O O14 0.599788 0.883169 0.250666
O O15 0.500000 0.856338 0.000000
O O16 0.000000 0.583603 0.000000
#
# Coordination Sequence:
#
# PCOD8163724 Si02
#       8
#     2   8   8   8   8   8   8   8
#     4  12  20  40  78  98 128 144 206 258 324 428
#     4  10  21  38  58  84 119 157 207 251 319 373
#     4  10  24  36  54  82 123 172 221 266 307 358
#     4  10  20  40  64  97 117 159 193 257 322 392
#     4  12  24  35  60  83 124 174 215 272 306 373
#     4  11  22  38  54  86 116 166 223 264 310 363
#     4   9  20  39  60  81 127 164 208 256 307 370
#     4  10  21  38  56  85 123 157 213 252 325 368
#
# _framework density 20.363524000000002
#
# number of rings (size 3 to 8) (size 9 to 14) (size 15 to 20)
#    0.000    1.655    4.828    0.414    3.862    2.759 
#    0.000    0.345    0.000    1.655    0.000    0.000 
#    0.000    0.000    0.000    0.000    0.000    0.000 
#
# Total GULP energy -359279.819977 kJ/mol
# GULP energy per Si atom -12388.959310 kJ/mol
# Density = 2.031718 g / cm^3
# Si number density = 20.363524 Si / 1000 Ang^3
#
#
#
# Elastic Constant Matrix: (Units=GPa)
#
#
# Indices 1 2 3 4 5 6 
#
# 1 136.8577 29.5851 38.4886 0.0011 -0.0001 -0.0002
# 2 29.5851 61.1615 23.7707 0.0029 -0.0006 0.0001
# 3 38.4886 23.7707 97.7358 0.0103 -0.0068 0.0018
# 4 0.0011 0.0029 0.0103 9.0344 -0.0016 0.0001
# 5 -0.0001 -0.0006 -0.0068 -0.0016 39.2996 -0.0002
# 6 -0.0002 0.0001 0.0018 0.0001 -0.0002 27.7253
#
#
#
# Elastic Compliance Matrix: (Units=1/GPa)
#
#
# Indices 1 2 3 4 5 6 
#
# 1 0.008748 -0.003195 -0.002668 0.000003 0.000000 0.000000
# 2 -0.003195 0.019224 -0.003417 -0.000002 0.000000 0.000000
# 3 -0.002668 -0.003417 0.012113 -0.000012 0.000002 -0.000001
# 4 0.000003 -0.000002 -0.000012 0.110689 0.000005 -0.000001
# 5 0.000000 0.000000 0.000002 0.000005 0.025446 0.000000
# 6 0.000000 0.000000 -0.000001 -0.000001 0.000000 0.036068
#
#
# Mechanical properties :
#
#
# Convention : Reuss Voigt Hill
#
# Bulk Modulus (GPa) = 46.45754 53.27152 49.86453
# Shear Modulus (GPa) = 21.00647 28.80589 24.90618
#
# Velocity S-wave (km/s) = 3.21530 3.76517 3.50105
# Velocity P-wave (km/s) = 6.05374 6.71708 6.39402
#
# Compressibility (1/GPa) = 0.02152503
#
# Stress axis : x y z
#
# Youngs Moduli (GPa) = 114.31524 52.01929 82.55282
#
# Poissons Ratio (x) = 0.16618 0.22024
# Poissons Ratio (y) = 0.36519 0.28212
# Poissons Ratio (z) = 0.30498 0.17777
#
# Static dielectric constant tensor:
#      x y z
#    x 4.382750 0.000000 0.000000 
#    y 0.000000 3.119760 -0.000010 
#    z 0.000000 -0.000010 3.791570 
# 
# 
# High freq. dielectric constant tensor:
#      x y z
#    x 1.835250 0.000000 0.000000 
#    y 0.000000 1.717420 0.000000 
#    z 0.000000 0.000000 1.789270 
# 
# From -- ./inp_files/8918.got.cif
#   From: 2010.03.12/outbox.cif.g09.slc.cpg/sg23_5_cif.got.tgz:8918.got - 2010.04.14 02:50:06.
