data_PCOD8163567
_publ_section_title
;
Structure prediction by ZEFSAII (Michael W. Deem and Ramdas Pophale) SiO2 
 PCOD8163567
Probable space group: I 2 2 2
;
_chemical_formula_sum "Si O2"
_cell_formula_units_Z 58
_cell_length_a 14.631092
_cell_length_b 9.442919
_cell_length_c 23.402892
_cell_angle_alpha 90.000000
_cell_angle_beta 90.000000
_cell_angle_gamma 90.000000
_cell_volume 3233.348629
_symmetry_space_group_name_H-M "I 2 2 2"
_symmetry_group_IT_number 23
_symmetry_cell_setting 'orthorhombic'
loop_
_space_group_symop_operation_xyz
x,y,z
-x,-y,z
x,-y,-z
-x,y,-z
1/2+x,1/2+y,1/2+z
1/2-x,1/2-y,1/2+z
1/2+x,1/2-y,1/2-z
1/2-x,1/2+y,1/2-z
loop_
_atom_site_type_symbol
_atom_site_label
_atom_site_fract_x
_atom_site_fract_y
_atom_site_fract_z
Si Si1 0.901788 0.345060 0.678484
Si Si2 0.601961 0.668789 0.712757
Si Si3 0.719298 0.672364 0.604562
Si Si4 0.500000 0.000000 0.500000
Si Si5 0.269175 0.654653 0.608633
Si Si6 0.108760 0.841835 0.214571
Si Si7 0.606817 0.829761 0.175346
Si Si8 0.824104 0.651081 0.992362
O O1 0.866056 0.258745 0.732936
O O2 0.836239 0.323000 0.624742
O O3 0.894359 0.508627 0.696231
O O4 0.002292 0.291683 0.658699
O O5 0.657562 0.719914 0.657793
O O6 0.624037 0.506699 0.726897
O O7 0.495626 0.694416 0.699946
O O8 0.705844 0.505986 0.590995
O O9 0.825986 0.698365 0.621510
O O10 0.683511 0.764422 0.551870
O O11 0.571578 0.888754 0.470559
O O12 0.332088 0.707357 0.660603
O O13 0.278942 0.753803 0.554788
O O14 0.142007 0.760786 0.271027
O O15 0.771397 0.500000 0.000000
#
# Coordination Sequence:
#
# PCOD8163567 Si02
#       8
#     8   8   8   2   8   8   8   8
#     4   9  18  33  52  78 108 140 175 217 260 305
#     4   9  18  30  48  76 107 137 174 216 263 313
#     4  10  20  35  55  77 105 140 181 216 257 311
#     4   8  24  44  54  76 110 128 174 216 268 310
#     4  10  20  35  55  77 105 140 181 216 257 311
#     4   9  18  30  48  76 107 137 174 216 263 313
#     4   9  18  33  52  78 108 140 175 217 260 305
#     4  10  23  39  56  76 104 133 172 216 263 312
#
# _framework density 17.938058999999999
#
# number of rings (size 3 to 8) (size 9 to 14) (size 15 to 20)
#    0.414    2.207    0.000    1.241    1.931    2.207 
#    0.000    1.379    0.000    4.138    0.000    0.000 
#    0.000    0.000    0.000    0.000    0.000    0.000 
#
# Total GULP energy -359334.307927 kJ/mol
# GULP energy per Si atom -12390.838204 kJ/mol
# Density = 1.789723 g / cm^3
# Si number density = 17.938059 Si / 1000 Ang^3
#
#
#
# Elastic Constant Matrix: (Units=GPa)
#
#
# Indices 1 2 3 4 5 6 
#
# 1 79.5959 36.2724 47.9335 0.0000 0.0000 0.0000
# 2 36.2724 78.1189 61.6839 0.0000 0.0000 0.0000
# 3 47.9335 61.6839 100.7442 0.0000 0.0000 0.0000
# 4 0.0000 0.0000 0.0000 33.6045 0.0000 0.0000
# 5 0.0000 0.0000 0.0000 0.0000 18.2282 0.0000
# 6 0.0000 0.0000 0.0000 0.0000 0.0000 24.3866
#
#
#
# Elastic Compliance Matrix: (Units=1/GPa)
#
#
# Indices 1 2 3 4 5 6 
#
# 1 0.017985 -0.003086 -0.006668 0.000000 0.000000 0.000000
# 2 -0.003086 0.025312 -0.014030 0.000000 0.000000 0.000000
# 3 -0.006668 -0.014030 0.021689 0.000000 0.000000 0.000000
# 4 0.000000 0.000000 0.000000 0.029758 0.000000 0.000000
# 5 0.000000 0.000000 0.000000 0.000000 0.054860 0.000000
# 6 0.000000 0.000000 0.000000 0.000000 0.000000 0.041006
#
#
# Mechanical properties :
#
#
# Convention : Reuss Voigt Hill
#
# Bulk Modulus (GPa) = 57.40881 61.13762 59.27321
# Shear Modulus (GPa) = 20.49318 22.74847 21.62082
#
# Velocity S-wave (km/s) = 3.38367 3.56500 3.47552
# Velocity P-wave (km/s) = 6.88033 7.14858 7.01574
#
# Compressibility (1/GPa) = 0.01741893
#
# Stress axis : x y z
#
# Youngs Moduli (GPa) = 55.60145 39.50688 46.10666
#
# Poissons Ratio (x) = 0.12192 0.30743
# Poissons Ratio (y) = 0.17158 0.64687
# Poissons Ratio (z) = 0.37074 0.55428
#
# Static dielectric constant tensor:
#      x y z
#    x 3.539320 0.000000 0.000000 
#    y 0.000000 3.388850 0.000000 
#    z 0.000000 0.000000 3.087000 
# 
# 
# High freq. dielectric constant tensor:
#      x y z
#    x 1.702050 0.000000 0.000000 
#    y 0.000000 1.697010 0.000000 
#    z 0.000000 0.000000 1.669490 
# 
# From -- ./inp_files/28533.got.cif
#   From: 2010.03.12/outbox.cif.g09.slc.cpg/sg23_15_cif.got.tgz:28533.got - 2010.04.14 02:50:06.
