data_PCOD8163466
_publ_section_title
;
Structure prediction by ZEFSAII (Michael W. Deem and Ramdas Pophale) SiO2 
 PCOD8163466
Probable space group: I 2 2 2
;
_chemical_formula_sum "Si O2"
_cell_formula_units_Z 52
_cell_length_a 10.126950
_cell_length_b 29.288361
_cell_length_c 8.762189
_cell_angle_alpha 90.000000
_cell_angle_beta 90.000000
_cell_angle_gamma 90.000000
_cell_volume 2598.880744
_symmetry_space_group_name_H-M "I 2 2 2"
_symmetry_group_IT_number 23
_symmetry_cell_setting 'orthorhombic'
loop_
_space_group_symop_operation_xyz
x,y,z
-x,-y,z
x,-y,-z
-x,y,-z
1/2+x,1/2+y,1/2+z
1/2-x,1/2-y,1/2+z
1/2+x,1/2-y,1/2-z
1/2-x,1/2+y,1/2-z
loop_
_atom_site_type_symbol
_atom_site_label
_atom_site_fract_x
_atom_site_fract_y
_atom_site_fract_z
Si Si1 0.744681 0.793067 0.652091
Si Si2 0.015806 0.147946 0.676678
Si Si3 0.502729 0.853284 0.682492
Si Si4 0.500000 0.500000 0.500000
Si Si5 0.500000 0.500000 0.000000
Si Si6 0.355965 0.444381 0.247018
Si Si7 0.451390 0.047675 0.675162
Si Si8 0.745517 0.303862 0.206226
O O1 0.890500 0.808284 0.703028
O O2 0.638273 0.827636 0.727764
O O3 0.715326 0.742086 0.703962
O O4 0.739450 0.793036 0.470726
O O5 0.082791 0.105963 0.764273
O O6 0.000000 0.134996 0.500000
O O7 0.872309 0.160582 0.743250
O O8 0.500000 0.854362 0.500000
O O9 0.489147 0.905405 0.745089
O O10 0.381942 0.826538 0.760909
O O11 0.399163 0.470422 0.399450
O O12 0.409751 0.532180 0.902018
O O13 0.201856 0.445563 0.211087
O O14 0.500000 0.045138 0.500000
O O15 0.500000 0.000000 0.754185
#
# Coordination Sequence:
#
# PCOD8163466 Si02
#       8
#     8   8   8   2   2   8   8   8
#     4  10  19  37  54  83 115 156 197 256 318 376
#     4  10  20  35  63  88 118 159 213 275 322 374
#     4   9  18  32  54  82 118 147 185 251 313 369
#     4  10  28  42  62  90 140 182 200 264 340 426
#     4  10  20  30  70  86 112 158 208 280 312 362
#     4  11  21  42  60  94 128 163 217 266 331 399
#     4  10  20  34  63  95 118 152 209 271 323 378
#     4  10  21  34  57  84 118 154 205 252 320 388
#
# _framework density 20.008613
#
# number of rings (size 3 to 8) (size 9 to 14) (size 15 to 20)
#    0.000    2.000    2.308    1.846    2.154    2.462 
#    2.769    0.385    0.000    1.846    0.000    0.000 
#    0.000    0.000    0.000    0.000    0.000    0.000 
#
# Total GULP energy -322190.760126 kJ/mol
# GULP energy per Si atom -12391.952313 kJ/mol
# Density = 1.996307 g / cm^3
# Si number density = 20.008613 Si / 1000 Ang^3
#
#
#
# Elastic Constant Matrix: (Units=GPa)
#
#
# Indices 1 2 3 4 5 6 
#
# 1 141.8568 62.0898 29.9654 -0.0056 -0.0019 -0.0019
# 2 62.0898 164.5097 27.8752 0.0039 0.0044 0.0035
# 3 29.9654 27.8752 44.4955 -0.0391 -0.0218 -0.0154
# 4 -0.0056 0.0039 -0.0391 32.1615 -0.0050 -0.0036
# 5 -0.0019 0.0044 -0.0218 -0.0050 22.2939 -0.0060
# 6 -0.0019 0.0035 -0.0154 -0.0036 -0.0060 41.2459
#
#
#
# Elastic Compliance Matrix: (Units=1/GPa)
#
#
# Indices 1 2 3 4 5 6 
#
# 1 0.009181 -0.002705 -0.004489 -0.000004 -0.000003 -0.000001
# 2 -0.002705 0.007597 -0.002938 -0.000005 -0.000005 -0.000002
# 3 -0.004489 -0.002938 0.027338 0.000033 0.000027 0.000010
# 4 -0.000004 -0.000005 0.000033 0.031093 0.000007 0.000003
# 5 -0.000003 -0.000005 0.000027 0.000007 0.044855 0.000007
# 6 -0.000001 -0.000002 0.000010 0.000003 0.000007 0.024245
#
#
# Mechanical properties :
#
#
# Convention : Reuss Voigt Hill
#
# Bulk Modulus (GPa) = 41.92264 65.63585 53.77925
# Shear Modulus (GPa) = 28.98149 34.53570 31.75859
#
# Velocity S-wave (km/s) = 3.80998 4.15907 3.98835
# Velocity P-wave (km/s) = 6.35235 7.47923 6.93870
#
# Compressibility (1/GPa) = 0.02385346
#
# Stress axis : x y z
#
# Youngs Moduli (GPa) = 108.91615 131.62549 36.57943
#
# Poissons Ratio (x) = 0.35600 0.16420
# Poissons Ratio (y) = 0.29458 0.10747
# Poissons Ratio (z) = 0.48890 0.38672
#
# Static dielectric constant tensor:
#      x y z
#    x 3.737920 0.000000 -0.000020 
#    y 0.000000 3.948290 0.000030 
#    z -0.000020 0.000030 3.120060 
# 
# 
# High freq. dielectric constant tensor:
#      x y z
#    x 1.796120 0.000000 0.000000 
#    y 0.000000 1.801480 0.000000 
#    z 0.000000 0.000000 1.728830 
# 
# From -- ./inp_files/8846.got.cif
#   From: 2010.03.12/outbox.cif.g09.slc.cpg/sg23_5_cif.got.tgz:8846.got - 2010.04.14 02:50:06.
