data_PCOD8163555
_publ_section_title
;
Structure prediction by ZEFSAII (Michael W. Deem and Ramdas Pophale) SiO2 
 PCOD8163555
Probable space group: I 2 2 2
;
_chemical_formula_sum "Si O2"
_cell_formula_units_Z 34
_cell_length_a 20.353754
_cell_length_b 7.948589
_cell_length_c 8.064042
_cell_angle_alpha 90.000000
_cell_angle_beta 90.000000
_cell_angle_gamma 90.000000
_cell_volume 1304.629948
_symmetry_space_group_name_H-M "I 2 2 2"
_symmetry_group_IT_number 23
_symmetry_cell_setting 'orthorhombic'
loop_
_space_group_symop_operation_xyz
x,y,z
-x,-y,z
x,-y,-z
-x,y,-z
1/2+x,1/2+y,1/2+z
1/2-x,1/2-y,1/2+z
1/2+x,1/2-y,1/2-z
1/2-x,1/2+y,1/2-z
loop_
_atom_site_type_symbol
_atom_site_label
_atom_site_fract_x
_atom_site_fract_y
_atom_site_fract_z
Si Si1 0.000000 0.500000 0.500000
Si Si2 0.568781 0.271178 0.564232
Si Si3 0.595876 0.067750 0.264026
Si Si4 0.342039 0.559924 0.828084
Si Si5 0.271350 0.909735 0.838935
O O1 0.049472 0.619858 0.607794
O O2 0.500000 0.346167 0.500000
O O3 0.606417 0.219214 0.394908
O O4 0.606015 0.409398 0.677712
O O5 0.558651 0.098955 0.666609
O O6 0.669383 0.028251 0.216100
O O7 0.298176 0.723777 0.861483
O O8 0.289913 0.412024 0.787748
O O9 0.377359 0.500000 0.000000
O O10 0.241408 0.000000 0.000000
#
# Coordination Sequence:
#
# PCOD8163555 Si02
#       5
#     2   8   8   8   8
#     4  12  16  34  60 116 158 190 270 312 356 460
#     4  10  20  41  69 109 156 208 258 315 388 467
#     4  10  20  34  67 112 162 205 258 315 375 456
#     4  11  26  45  72 114 154 200 268 328 396 475
#     4  11  24  41  68 113 154 204 252 328 387 464
#
# _framework density 26.061031
#
# number of rings (size 3 to 8) (size 9 to 14) (size 15 to 20)
#    0.000    1.412    3.529    2.118    9.882    0.000 
#    0.000    0.000    0.000    0.706   36.706    1.647 
#    0.000    0.000    0.000    0.000    0.000    0.000 
#
# Total GULP energy -210654.178152 kJ/mol
# GULP energy per Si atom -12391.422244 kJ/mol
# Density = 2.600171 g / cm^3
# Si number density = 26.061031 Si / 1000 Ang^3
#
#
#
# Elastic Constant Matrix: (Units=GPa)
#
#
# Indices 1 2 3 4 5 6 
#
# 1 131.7806 23.9572 72.5762 0.0000 0.0000 0.0000
# 2 23.9572 92.8395 27.9042 0.0000 0.0000 0.0000
# 3 72.5762 27.9042 174.9614 0.0000 0.0000 0.0000
# 4 0.0000 0.0000 0.0000 45.0382 0.0000 0.0000
# 5 0.0000 0.0000 0.0000 0.0000 47.8974 0.0000
# 6 0.0000 0.0000 0.0000 0.0000 0.0000 37.8215
#
#
#
# Elastic Compliance Matrix: (Units=1/GPa)
#
#
# Indices 1 2 3 4 5 6 
#
# 1 0.010006 -0.001402 -0.003927 0.000000 0.000000 0.000000
# 2 -0.001402 0.011510 -0.001254 0.000000 0.000000 0.000000
# 3 -0.003927 -0.001254 0.007545 0.000000 0.000000 0.000000
# 4 0.000000 0.000000 0.000000 0.022203 0.000000 0.000000
# 5 0.000000 0.000000 0.000000 0.000000 0.020878 0.000000
# 6 0.000000 0.000000 0.000000 0.000000 0.000000 0.026440
#
#
# Mechanical properties :
#
#
# Convention : Reuss Voigt Hill
#
# Bulk Modulus (GPa) = 62.91487 72.05075 67.48281
# Shear Modulus (GPa) = 42.71826 44.49436 43.60631
#
# Velocity S-wave (km/s) = 4.05305 4.13645 4.09496
# Velocity P-wave (km/s) = 6.78946 7.10778 6.95044
#
# Compressibility (1/GPa) = 0.01589449
#
# Stress axis : x y z
#
# Youngs Moduli (GPa) = 99.94053 86.88120 132.54561
#
# Poissons Ratio (x) = 0.12178 0.52051
# Poissons Ratio (y) = 0.14009 0.16625
# Poissons Ratio (z) = 0.39247 0.10897
#
# Static dielectric constant tensor:
#      x y z
#    x 4.479450 0.000000 0.000000 
#    y 0.000000 4.367480 0.000000 
#    z 0.000000 0.000000 3.426740 
# 
# 
# High freq. dielectric constant tensor:
#      x y z
#    x 2.043340 0.000000 0.000000 
#    y 0.000000 2.020690 0.000000 
#    z 0.000000 0.000000 2.059000 
# 
# From -- ./inp_files/11679.got.cif
#   From: 2010.03.12/outbox.cif.g09.slc.cpg/sg23_6_cif.got.tgz:11679.got - 2010.04.14 02:50:06.
