data_PCOD8163043
_publ_section_title
;
Structure prediction by ZEFSAII (Michael W. Deem and Ramdas Pophale) SiO2 
 PCOD8163043
Probable space group: F 2 2 2
;
_chemical_formula_sum "Si O2"
_cell_formula_units_Z 116
_cell_length_a 16.610556
_cell_length_b 14.010444
_cell_length_c 25.357064
_cell_angle_alpha 90.000000
_cell_angle_beta 90.000000
_cell_angle_gamma 90.000000
_cell_volume 5901.128002
_symmetry_space_group_name_H-M "F 2 2 2"
_symmetry_group_IT_number 22
_symmetry_cell_setting 'orthorhombic'
loop_
_space_group_symop_operation_xyz
x,y,z
-x,-y,z
x,-y,-z
-x,y,-z
x,1/2+y,1/2+z
-x,1/2-y,1/2+z
x,1/2-y,1/2-z
-x,1/2+y,1/2-z
1/2+x,y,1/2+z
1/2-x,-y,1/2+z
1/2+x,-y,1/2-z
1/2-x,y,1/2-z
1/2+x,1/2+y,z
1/2-x,1/2-y,z
1/2+x,1/2-y,-z
1/2-x,1/2+y,-z
loop_
_atom_site_type_symbol
_atom_site_label
_atom_site_fract_x
_atom_site_fract_y
_atom_site_fract_z
Si Si1 0.572172 0.785004 0.303656
Si Si2 0.397368 0.817489 0.316447
Si Si3 0.328219 0.193193 0.898135
Si Si4 0.131795 0.012843 0.216260
Si Si5 0.750000 0.750000 0.750000
Si Si6 0.307366 0.494899 0.671957
Si Si7 0.329546 0.683473 0.607120
Si Si8 0.404856 0.389690 0.498774
O O1 0.616504 0.750000 0.250000
O O2 0.476938 0.762170 0.296704
O O3 0.587908 0.896349 0.307522
O O4 0.606108 0.733507 0.355064
O O5 0.384435 0.775885 0.374299
O O6 0.312011 0.811279 0.284723
O O7 0.417142 0.928964 0.313120
O O8 0.250000 0.250000 0.916509
O O9 0.313419 0.109865 0.854626
O O10 0.371651 0.153075 0.948127
O O11 0.222999 0.012426 0.198576
O O12 0.126518 0.003817 0.280642
O O13 0.315997 0.576748 0.628252
O O14 0.250000 0.750000 0.604437
O O15 0.367210 0.669950 0.549381
O O16 0.378979 0.500000 0.500000
O O17 0.500000 0.378125 0.500000
#
# Coordination Sequence:
#
# PCOD8163043 Si02
#       8
#    16  16  16  16   4  16  16  16
#     4  12  25  39  61  95 134 179 217 262 320 397
#     4  12  23  40  61  96 132 172 222 264 328 381
#     4  12  23  42  70  94 122 170 220 274 326 389
#     4  11  22  40  61  93 140 177 211 265 311 394
#     4  12  20  40  64  84 136 172 208 264 318 376
#     4  11  22  38  67  97 127 171 225 255 318 387
#     4  12  24  45  69  94 131 174 219 270 326 400
#     4  11  25  46  68  96 128 163 214 285 342 391
#
# _framework density 19.657260000000001
#
# number of rings (size 3 to 8) (size 9 to 14) (size 15 to 20)
#    0.000    0.414    6.897    3.310    0.000    0.276 
#    0.000    0.000    0.000    0.000    0.000    3.862 
#    0.000    0.000    0.000    0.000    0.000    0.000 
#
# Total GULP energy -359351.113139 kJ/mol
# GULP energy per Si atom -12391.417694 kJ/mol
# Density = 1.961252 g / cm^3
# Si number density = 19.657260 Si / 1000 Ang^3
#
#
#
# Elastic Constant Matrix: (Units=GPa)
#
#
# Indices 1 2 3 4 5 6 
#
# 1 82.5943 24.3272 40.7600 0.0000 0.0000 0.0000
# 2 24.3272 101.7753 44.2628 0.0000 0.0000 0.0000
# 3 40.7600 44.2628 131.1207 0.0000 0.0000 0.0000
# 4 0.0000 0.0000 0.0000 51.7815 0.0000 0.0000
# 5 0.0000 0.0000 0.0000 0.0000 -160.0240 0.0000
# 6 0.0000 0.0000 0.0000 0.0000 0.0000 60.7730
#
#
#
# Elastic Compliance Matrix: (Units=1/GPa)
#
#
# Indices 1 2 3 4 5 6 
#
# 1 0.014569 -0.001773 -0.003930 0.000000 0.000000 0.000000
# 2 -0.001773 0.011732 -0.003409 0.000000 0.000000 0.000000
# 3 -0.003930 -0.003409 0.009999 0.000000 0.000000 0.000000
# 4 0.000000 0.000000 0.000000 0.019312 0.000000 0.000000
# 5 0.000000 0.000000 0.000000 0.000000 -0.006249 0.000000
# 6 0.000000 0.000000 0.000000 0.000000 0.000000 0.016455
#
#
# Mechanical properties :
#
#
# Convention : Reuss Voigt Hill
#
# Bulk Modulus (GPa) = 55.32492 59.35448 57.33970
# Shear Modulus (GPa) = 55.51316 4.24880 29.88098
#
# Velocity S-wave (km/s) = 5.31995 1.47178 3.90307
# Velocity P-wave (km/s) = 8.12045 5.75747 7.03882
#
# Compressibility (1/GPa) = 0.01807504
#
# Stress axis : x y z
#
# Youngs Moduli (GPa) = 68.63756 85.23629 100.00760
#
# Poissons Ratio (x) = 0.15113 0.39307
# Poissons Ratio (y) = 0.12170 0.34095
# Poissons Ratio (z) = 0.26978 0.29059
#
# Static dielectric constant tensor:
#      x y z
#    x 3.559390 0.000000 0.000000 
#    y 0.000000 3.910640 0.000000 
#    z 0.000000 0.000000 3.712480 
# 
# 
# High freq. dielectric constant tensor:
#      x y z
#    x 1.770180 0.000000 0.000000 
#    y 0.000000 1.781600 0.000000 
#    z 0.000000 0.000000 1.759720 
# 
# From -- ./inp_files/49496.got.cif
#   From: 2010.03.12/outbox.cif.g09.slc.cpg/sg22_25_cif.got.tgz:49496.got - 2010.04.14 02:24:06.
