data_PCOD8163786
_publ_section_title
;
Structure prediction by ZEFSAII (Michael W. Deem and Ramdas Pophale) SiO2 
 PCOD8163786
Probable space group: I 2 2 2
;
_chemical_formula_sum "Si O2"
_cell_formula_units_Z 64
_cell_length_a 13.009685
_cell_length_b 9.412469
_cell_length_c 25.932502
_cell_angle_alpha 90.000000
_cell_angle_beta 90.000000
_cell_angle_gamma 90.000000
_cell_volume 3175.519326
_symmetry_space_group_name_H-M "I 2 2 2"
_symmetry_group_IT_number 23
_symmetry_cell_setting 'orthorhombic'
loop_
_space_group_symop_operation_xyz
x,y,z
-x,-y,z
x,-y,-z
-x,y,-z
1/2+x,1/2+y,1/2+z
1/2-x,1/2-y,1/2+z
1/2+x,1/2-y,1/2-z
1/2-x,1/2+y,1/2-z
loop_
_atom_site_type_symbol
_atom_site_label
_atom_site_fract_x
_atom_site_fract_y
_atom_site_fract_z
Si Si1 0.450083 0.144688 0.143886
Si Si2 0.241448 0.281464 0.145530
Si Si3 0.565147 0.126758 0.737635
Si Si4 0.562711 0.626874 0.700742
Si Si5 0.209215 0.945944 0.705722
Si Si6 0.120554 0.655432 0.509950
Si Si7 0.705262 0.415807 0.951773
Si Si8 0.883726 0.834429 0.395448
O O1 0.329151 0.164036 0.133095
O O2 0.471191 0.134932 0.203875
O O3 0.502511 0.289007 0.122447
O O4 0.500000 0.000000 0.118166
O O5 0.140920 0.196090 0.160780
O O6 0.280781 0.386858 0.191214
O O7 0.215829 0.377742 0.094721
O O8 0.531233 0.268931 0.710636
O O9 0.686580 0.106159 0.732336
O O10 0.500000 0.000000 0.711143
O O11 0.500000 0.500000 0.673815
O O12 0.618133 0.574692 0.753265
O O13 0.188301 0.850022 0.654978
O O14 0.169680 0.500000 0.500000
O O15 0.159031 0.766155 0.467721
O O16 0.155109 0.707596 0.566933
O O17 0.000000 0.648747 0.500000
O O18 0.615796 0.518903 0.928276
O O19 0.758310 0.500000 0.000000
#
# Coordination Sequence:
#
# PCOD8163786 Si02
#       8
#     8   8   8   8   8   8   8   8
#     4  11  23  34  56  90 129 172 219 255 314 380
#     4  11  23  40  62  89 129 175 213 266 323 381
#     4  11  22  41  60  84 130 175 217 265 308 367
#     4  12  25  39  61  94 130 172 212 268 315 378
#     4  11  23  40  63  89 125 174 226 253 310 379
#     4  10  21  36  56  86 128 160 202 263 330 385
#     4   9  21  40  61  88 124 167 217 268 319 389
#     4  10  22  37  61  90 122 172 213 257 313 394
#
# _framework density 20.154183
#
# number of rings (size 3 to 8) (size 9 to 14) (size 15 to 20)
#    0.000    1.375    3.750    1.500    3.500    7.750 
#    0.000    0.000    0.000    0.000    0.000   14.875 
#    0.000    0.000    0.000    0.000    0.000    0.000 
#
# Total GULP energy -396544.548949 kJ/mol
# GULP energy per Si atom -12392.017155 kJ/mol
# Density = 2.010831 g / cm^3
# Si number density = 20.154183 Si / 1000 Ang^3
#
#
#
# Elastic Constant Matrix: (Units=GPa)
#
#
# Indices 1 2 3 4 5 6 
#
# 1 73.8188 44.3926 22.9911 0.0000 0.0000 0.0000
# 2 44.3926 143.5541 51.0465 0.0000 0.0000 0.0000
# 3 22.9911 51.0465 94.5635 0.0000 0.0000 0.0000
# 4 0.0000 0.0000 0.0000 22.7566 0.0000 0.0000
# 5 0.0000 0.0000 0.0000 0.0000 17.1187 0.0000
# 6 0.0000 0.0000 0.0000 0.0000 0.0000 33.2146
#
#
#
# Elastic Compliance Matrix: (Units=1/GPa)
#
#
# Indices 1 2 3 4 5 6 
#
# 1 0.016832 -0.004641 -0.001587 0.000000 0.000000 0.000000
# 2 -0.004641 0.009900 -0.004216 0.000000 0.000000 0.000000
# 3 -0.001587 -0.004216 0.013237 0.000000 0.000000 0.000000
# 4 0.000000 0.000000 0.000000 0.043943 0.000000 0.000000
# 5 0.000000 0.000000 0.000000 0.000000 0.058416 0.000000
# 6 0.000000 0.000000 0.000000 0.000000 0.000000 0.030107
#
#
# Mechanical properties :
#
#
# Convention : Reuss Voigt Hill
#
# Bulk Modulus (GPa) = 52.40825 60.97741 56.69283
# Shear Modulus (GPa) = 25.03970 27.51839 26.27905
#
# Velocity S-wave (km/s) = 3.52860 3.69913 3.61487
# Velocity P-wave (km/s) = 6.53158 6.96892 6.75379
#
# Compressibility (1/GPa) = 0.01908097
#
# Stress axis : x y z
#
# Youngs Moduli (GPa) = 59.41139 101.00749 75.54784
#
# Poissons Ratio (x) = 0.46874 0.11991
# Poissons Ratio (y) = 0.27571 0.31851
# Poissons Ratio (z) = 0.09430 0.42585
#
# Static dielectric constant tensor:
#      x y z
#    x 3.220160 0.000000 0.000000 
#    y 0.000000 4.096270 0.000000 
#    z 0.000000 0.000000 3.857230 
# 
# 
# High freq. dielectric constant tensor:
#      x y z
#    x 1.736770 0.000000 0.000000 
#    y 0.000000 1.809530 0.000000 
#    z 0.000000 0.000000 1.788270 
# 
# From -- ./inp_files/30492.got.cif
#   From: 2010.03.12/outbox.cif.g09.slc.cpg/sg23_16_cif.got.tgz:30492.got - 2010.04.14 02:50:06.
