data_PCOD8163709
_publ_section_title
;
Structure prediction by ZEFSAII (Michael W. Deem and Ramdas Pophale) SiO2 
 PCOD8163709
Probable space group: I 2 2 2
;
_chemical_formula_sum "Si O2"
_cell_formula_units_Z 58
_cell_length_a 15.998452
_cell_length_b 9.015631
_cell_length_c 18.749446
_cell_angle_alpha 90.000000
_cell_angle_beta 90.000000
_cell_angle_gamma 90.000000
_cell_volume 2704.347714
_symmetry_space_group_name_H-M "I 2 2 2"
_symmetry_group_IT_number 23
_symmetry_cell_setting 'orthorhombic'
loop_
_space_group_symop_operation_xyz
x,y,z
-x,-y,z
x,-y,-z
-x,y,-z
1/2+x,1/2+y,1/2+z
1/2-x,1/2-y,1/2+z
1/2+x,1/2-y,1/2-z
1/2-x,1/2+y,1/2-z
loop_
_atom_site_type_symbol
_atom_site_label
_atom_site_fract_x
_atom_site_fract_y
_atom_site_fract_z
Si Si1 0.111709 0.431621 0.615744
Si Si2 0.000000 0.500000 0.500000
Si Si3 0.717969 0.197045 0.086610
Si Si4 0.422647 0.092587 0.271102
Si Si5 0.632685 0.463007 0.425458
Si Si6 0.084242 0.062843 0.777129
Si Si7 0.254787 0.281545 0.067692
Si Si8 0.757975 0.970570 0.321357
O O1 0.134731 0.604156 0.602456
O O2 0.059889 0.409912 0.687255
O O3 0.189855 0.322616 0.618572
O O4 0.053300 0.388208 0.549414
O O5 0.791062 0.078448 0.077749
O O6 0.730208 0.300499 0.155604
O O7 0.710646 0.290994 0.013207
O O8 0.421745 0.263121 0.295670
O O9 0.500000 0.000000 0.307222
O O10 0.332795 0.013654 0.284393
O O11 0.583405 0.500000 0.500000
O O12 0.580779 0.479197 0.353305
O O13 0.662979 0.292068 0.430498
O O14 0.167743 0.023706 0.731605
O O15 0.000000 0.000000 0.737701
O O16 0.255162 0.441134 0.104216
#
# Coordination Sequence:
#
# PCOD8163709 Si02
#       8
#     8   2   8   8   8   8   8   8
#     4  11  21  38  65  94 130 180 229 269 328 411
#     4  12  20  36  64  94 132 176 228 282 320 404
#     4  10  20  39  66  97 131 171 227 274 329 400
#     4  12  28  44  68 101 137 179 226 282 347 405
#     4   9  20  41  69  93 122 169 227 272 328 399
#     4  12  28  44  67 101 137 176 228 277 339 409
#     4  10  20  39  66  97 127 176 224 274 329 401
#     4  12  25  42  69  97 139 178 220 280 350 399
#
# _framework density 21.446946000000001
#
# number of rings (size 3 to 8) (size 9 to 14) (size 15 to 20)
#    0.000    1.103    4.828    2.897    3.862    0.276 
#    0.000    0.000    0.000    3.310    0.000    0.000 
#    0.000    0.000    0.000    0.000    0.000    0.000 
#
# Total GULP energy -359373.984776 kJ/mol
# GULP energy per Si atom -12392.206372 kJ/mol
# Density = 2.139813 g / cm^3
# Si number density = 21.446946 Si / 1000 Ang^3
#
#
#
# Elastic Constant Matrix: (Units=GPa)
#
#
# Indices 1 2 3 4 5 6 
#
# 1 111.1293 26.9780 11.9047 0.0000 0.0000 0.0000
# 2 26.9780 77.5365 15.6635 0.0000 0.0000 0.0000
# 3 11.9047 15.6635 88.7094 0.0000 0.0000 0.0000
# 4 0.0000 0.0000 0.0000 33.4765 0.0000 0.0000
# 5 0.0000 0.0000 0.0000 0.0000 22.5843 0.0000
# 6 0.0000 0.0000 0.0000 0.0000 0.0000 15.1771
#
#
#
# Elastic Compliance Matrix: (Units=1/GPa)
#
#
# Indices 1 2 3 4 5 6 
#
# 1 0.009876 -0.003286 -0.000745 0.000000 0.000000 0.000000
# 2 -0.003286 0.014467 -0.002114 0.000000 0.000000 0.000000
# 3 -0.000745 -0.002114 0.011746 0.000000 0.000000 0.000000
# 4 0.000000 0.000000 0.000000 0.029872 0.000000 0.000000
# 5 0.000000 0.000000 0.000000 0.000000 0.044279 0.000000
# 6 0.000000 0.000000 0.000000 0.000000 0.000000 0.065889
#
#
# Mechanical properties :
#
#
# Convention : Reuss Voigt Hill
#
# Bulk Modulus (GPa) = 42.01614 42.94083 42.47848
# Shear Modulus (GPa) = 25.46463 29.10284 27.28374
#
# Velocity S-wave (km/s) = 3.44951 3.68770 3.57059
# Velocity P-wave (km/s) = 5.95808 6.18042 6.07027
#
# Compressibility (1/GPa) = 0.02380038
#
# Stress axis : x y z
#
# Youngs Moduli (GPa) = 101.25556 69.12117 85.13569
#
# Poissons Ratio (x) = 0.22711 0.06344
# Poissons Ratio (y) = 0.33270 0.17994
# Poissons Ratio (z) = 0.07545 0.14609
#
# Static dielectric constant tensor:
#      x y z
#    x 3.874150 0.000000 0.000000 
#    y 0.000000 3.756570 0.000000 
#    z 0.000000 0.000000 3.997090 
# 
# 
# High freq. dielectric constant tensor:
#      x y z
#    x 1.834160 0.000000 0.000000 
#    y 0.000000 1.826970 0.000000 
#    z 0.000000 0.000000 1.847420 
# 
# From -- ./inp_files/25079.got.cif
#   From: 2010.03.12/outbox.cif.g09.slc.cpg/sg23_13_cif.got.tgz:25079.got - 2010.04.14 02:50:06.
