data_PCOD8163191
_publ_section_title
;
Structure prediction by ZEFSAII (Michael W. Deem and Ramdas Pophale) SiO2 
 PCOD8163191
Probable space group: I 2 2 2
;
_chemical_formula_sum "Si O2"
_cell_formula_units_Z 52
_cell_length_a 18.358760
_cell_length_b 15.276796
_cell_length_c 10.394670
_cell_angle_alpha 90.000000
_cell_angle_beta 90.000000
_cell_angle_gamma 90.000000
_cell_volume 2915.320658
_symmetry_space_group_name_H-M "I 2 2 2"
_symmetry_group_IT_number 23
_symmetry_cell_setting 'orthorhombic'
loop_
_space_group_symop_operation_xyz
x,y,z
-x,-y,z
x,-y,-z
-x,y,-z
1/2+x,1/2+y,1/2+z
1/2-x,1/2-y,1/2+z
1/2+x,1/2-y,1/2-z
1/2-x,1/2+y,1/2-z
loop_
_atom_site_type_symbol
_atom_site_label
_atom_site_fract_x
_atom_site_fract_y
_atom_site_fract_z
Si Si1 0.326881 0.679833 0.588493
Si Si2 0.924346 0.530072 0.145262
Si Si3 0.715939 0.500000 0.500000
Si Si4 0.138874 0.713366 0.857529
Si Si5 0.728296 0.034460 0.730211
Si Si6 0.299981 0.636465 0.858627
Si Si7 0.696752 0.700750 0.876567
O O1 0.334531 0.581579 0.536360
O O2 0.377930 0.737507 0.493771
O O3 0.348503 0.676461 0.740828
O O4 0.242557 0.712446 0.584873
O O5 0.918399 0.635175 0.157093
O O6 0.856142 0.482593 0.207509
O O7 0.000000 0.500000 0.212976
O O8 0.926073 0.500000 0.000000
O O9 0.766503 0.471732 0.382689
O O10 0.221098 0.680461 0.864517
O O11 0.134923 0.776248 0.730491
O O12 0.746244 0.131215 0.681728
O O13 0.784056 0.966980 0.660061
O O14 0.339905 0.658929 0.994185
#
# Coordination Sequence:
#
# PCOD8163191 Si02
#       7
#     8   8   4   8   8   8   8
#     4   9  16  26  38  64  95 128 160 195 255 306
#     4  10  20  34  50  68  95 136 180 207 239 294
#     4  10  18  28  43  68 102 137 156 204 268 312
#     4   9  16  28  44  66  92 126 166 205 246 292
#     4  10  17  29  46  68  99 138 168 204 252 304
#     4   8  16  24  40  65  96 126 162 192 252 309
#     4  10  16  26  44  67  96 126 165 205 251 300
#
# _framework density 17.836801999999999
#
# number of rings (size 3 to 8) (size 9 to 14) (size 15 to 20)
#    0.000    2.615    1.538    4.154    0.000    0.000 
#    0.000    0.385    0.000    0.000    0.000    0.000 
#    0.000    9.846    0.000    2.769   16.615    0.000 
#
# Total GULP energy -322100.999837 kJ/mol
# GULP energy per Si atom -12388.499994 kJ/mol
# Density = 1.779620 g / cm^3
# Si number density = 17.836802 Si / 1000 Ang^3
#
#
#
# Elastic Constant Matrix: (Units=GPa)
#
#
# Indices 1 2 3 4 5 6 
#
# 1 35.6297 25.5878 34.3804 0.0000 0.0000 0.0000
# 2 25.5878 102.5574 50.9911 0.0000 0.0000 0.0000
# 3 34.3804 50.9911 136.3903 0.0000 0.0000 0.0000
# 4 0.0000 0.0000 0.0000 29.4182 0.0000 0.0000
# 5 0.0000 0.0000 0.0000 0.0000 4.6165 0.0000
# 6 0.0000 0.0000 0.0000 0.0000 0.0000 24.9534
#
#
#
# Elastic Compliance Matrix: (Units=1/GPa)
#
#
# Indices 1 2 3 4 5 6 
#
# 1 0.039966 -0.006096 -0.007796 0.000000 0.000000 0.000000
# 2 -0.006096 0.012907 -0.003289 0.000000 0.000000 0.000000
# 3 -0.007796 -0.003289 0.010526 0.000000 0.000000 0.000000
# 4 0.000000 0.000000 0.000000 0.033993 0.000000 0.000000
# 5 0.000000 0.000000 0.000000 0.000000 0.216614 0.000000
# 6 0.000000 0.000000 0.000000 0.000000 0.000000 0.040075
#
#
# Mechanical properties :
#
#
# Convention : Reuss Voigt Hill
#
# Bulk Modulus (GPa) = 34.43567 55.16621 44.80094
# Shear Modulus (GPa) = 12.55903 22.70549 17.63226
#
# Velocity S-wave (km/s) = 2.65638 3.57172 3.14750
# Velocity P-wave (km/s) = 5.36250 6.92857 6.19522
#
# Compressibility (1/GPa) = 0.02903965
#
# Stress axis : x y z
#
# Youngs Moduli (GPa) = 25.02108 77.47957 94.99837
#
# Poissons Ratio (x) = 0.47228 0.74056
# Poissons Ratio (y) = 0.15252 0.31243
# Poissons Ratio (z) = 0.19505 0.25481
#
# Static dielectric constant tensor:
#      x y z
#    x 3.435510 0.000000 0.000000 
#    y 0.000000 3.600240 0.000000 
#    z 0.000000 0.000000 3.654630 
# 
# 
# High freq. dielectric constant tensor:
#      x y z
#    x 1.590830 0.000000 0.000000 
#    y 0.000000 1.707840 0.000000 
#    z 0.000000 0.000000 1.711130 
# 
# From -- ./inp_files/17507.got.cif
#   From: 2010.03.12/outbox.cif.g09.slc.cpg/sg23_9_cif.got.tgz:17507.got - 2010.04.14 02:50:06.
