data_PCOD8163916
_publ_section_title
;
Structure prediction by ZEFSAII (Michael W. Deem and Ramdas Pophale) SiO2 
 PCOD8163916
Probable space group: I 2 2 2
;
_chemical_formula_sum "Si O2"
_cell_formula_units_Z 40
_cell_length_a 24.364622
_cell_length_b 9.162251
_cell_length_c 7.830080
_cell_angle_alpha 90.000000
_cell_angle_beta 90.000000
_cell_angle_gamma 90.000000
_cell_volume 1747.946204
_symmetry_space_group_name_H-M "I 2 2 2"
_symmetry_group_IT_number 23
_symmetry_cell_setting 'orthorhombic'
loop_
_space_group_symop_operation_xyz
x,y,z
-x,-y,z
x,-y,-z
-x,y,-z
1/2+x,1/2+y,1/2+z
1/2-x,1/2-y,1/2+z
1/2+x,1/2-y,1/2-z
1/2-x,1/2+y,1/2-z
loop_
_atom_site_type_symbol
_atom_site_label
_atom_site_fract_x
_atom_site_fract_y
_atom_site_fract_z
Si Si1 0.600817 0.173837 0.288938
Si Si2 0.611663 0.163090 0.687688
Si Si3 0.693199 0.633597 0.884874
Si Si4 0.219248 0.632852 0.383996
Si Si5 0.493667 0.662805 0.702268
O O1 0.615563 0.195803 0.486888
O O2 0.644587 0.259834 0.173909
O O3 0.542326 0.235625 0.229413
O O4 0.597813 0.001737 0.258058
O O5 0.670224 0.198338 0.768765
O O6 0.564453 0.269586 0.761979
O O7 0.728656 0.576611 0.724535
O O8 0.670804 0.500000 0.000000
O O9 0.735748 0.730477 0.996850
O O10 0.198338 0.500000 0.500000
O O11 0.500000 0.500000 0.778291
O O12 0.500000 0.658725 0.500000
#
# Coordination Sequence:
#
# PCOD8163916 Si02
#       5
#     8   8   8   8   8
#     4  10  21  41  67 100 132 180 231 278 341 410
#     4  10  21  40  71  95 134 179 231 281 334 416
#     4  12  27  43  68 100 140 180 232 291 347 412
#     4  12  25  46  67  98 136 183 232 283 350 416
#     4   9  19  37  64 102 134 171 224 281 342 410
#
# _framework density 22.883998999999999
#
# number of rings (size 3 to 8) (size 9 to 14) (size 15 to 20)
#    0.000    1.400    2.000    3.000    5.600    2.400 
#    3.600    1.000    0.000    0.000    0.000    0.000 
#    0.000    0.000    0.000    0.000    0.000    0.000 
#
# Total GULP energy -247926.124541 kJ/mol
# GULP energy per Si atom -12396.306227 kJ/mol
# Density = 2.283191 g / cm^3
# Si number density = 22.883999 Si / 1000 Ang^3
#
#
#
# Elastic Constant Matrix: (Units=GPa)
#
#
# Indices 1 2 3 4 5 6 
#
# 1 89.5568 45.9267 7.9538 0.0000 0.0000 0.0000
# 2 45.9267 151.4459 45.6980 0.0000 0.0000 0.0000
# 3 7.9538 45.6980 43.9378 0.0000 0.0000 0.0000
# 4 0.0000 0.0000 0.0000 36.0480 0.0000 0.0000
# 5 0.0000 0.0000 0.0000 0.0000 20.2944 0.0000
# 6 0.0000 0.0000 0.0000 0.0000 0.0000 37.9377
#
#
#
# Elastic Compliance Matrix: (Units=1/GPa)
#
#
# Indices 1 2 3 4 5 6 
#
# 1 0.013428 -0.004866 0.002630 0.000000 0.000000 0.000000
# 2 -0.004866 0.011386 -0.010961 0.000000 0.000000 0.000000
# 3 0.002630 -0.010961 0.033684 0.000000 0.000000 0.000000
# 4 0.000000 0.000000 0.000000 0.027741 0.000000 0.000000
# 5 0.000000 0.000000 0.000000 0.000000 0.049275 0.000000
# 6 0.000000 0.000000 0.000000 0.000000 0.000000 0.026359
#
#
# Mechanical properties :
#
#
# Convention : Reuss Voigt Hill
#
# Bulk Modulus (GPa) = 31.14953 53.78862 42.46907
# Shear Modulus (GPa) = 25.12968 31.21348 28.17158
#
# Velocity S-wave (km/s) = 3.31740 3.69723 3.51245
# Velocity P-wave (km/s) = 5.32119 6.46389 5.92017
#
# Compressibility (1/GPa) = 0.03210322
#
# Stress axis : x y z
#
# Youngs Moduli (GPa) = 74.47304 87.82668 29.68770
#
# Poissons Ratio (x) = 0.42732 -0.07807
# Poissons Ratio (y) = 0.36235 0.32542
# Poissons Ratio (z) = -0.19584 0.96271
#
# Static dielectric constant tensor:
#      x y z
#    x 3.968570 0.000000 0.000000 
#    y 0.000000 4.222150 0.000000 
#    z 0.000000 0.000000 4.137580 
# 
# 
# High freq. dielectric constant tensor:
#      x y z
#    x 1.897690 0.000000 0.000000 
#    y 0.000000 1.912440 0.000000 
#    z 0.000000 0.000000 1.897270 
# 
# From -- ./inp_files/6898.got.cif
#   From: 2010.03.12/outbox.cif.g09.slc.cpg/sg23_4_cif.got.tgz:6898.got - 2010.04.14 02:50:06.
