data_PCOD8163329
_publ_section_title
;
Structure prediction by ZEFSAII (Michael W. Deem and Ramdas Pophale) SiO2 
 PCOD8163329
Probable space group: I 2 2 2
;
_chemical_formula_sum "Si O2"
_cell_formula_units_Z 56
_cell_length_a 8.994943
_cell_length_b 15.420744
_cell_length_c 20.615135
_cell_angle_alpha 90.000000
_cell_angle_beta 90.000000
_cell_angle_gamma 90.000000
_cell_volume 2859.498850
_symmetry_space_group_name_H-M "I 2 2 2"
_symmetry_group_IT_number 23
_symmetry_cell_setting 'orthorhombic'
loop_
_space_group_symop_operation_xyz
x,y,z
-x,-y,z
x,-y,-z
-x,y,-z
1/2+x,1/2+y,1/2+z
1/2-x,1/2-y,1/2+z
1/2+x,1/2-y,1/2-z
1/2-x,1/2+y,1/2-z
loop_
_atom_site_type_symbol
_atom_site_label
_atom_site_fract_x
_atom_site_fract_y
_atom_site_fract_z
Si Si1 0.643063 0.739288 0.164806
Si Si2 0.500000 0.000000 0.854834
Si Si3 0.121748 0.347499 0.084038
Si Si4 0.577262 0.411734 0.157915
Si Si5 0.282931 0.187170 0.443379
Si Si6 0.170504 0.600678 0.250842
Si Si7 0.065517 0.339139 0.430691
Si Si8 0.500000 0.000000 0.648378
O O1 0.805057 0.710770 0.140002
O O2 0.549871 0.654061 0.180154
O O3 0.660901 0.797633 0.229793
O O4 0.561348 0.790181 0.108283
O O5 0.370009 0.956850 0.812645
O O6 0.594082 0.931439 0.896897
O O7 0.120597 0.450541 0.103085
O O8 0.954130 0.312669 0.077547
O O9 0.221249 0.341000 0.018850
O O10 0.500000 0.500000 0.134345
O O11 0.683575 0.377987 0.099800
O O12 0.667671 0.425225 0.224682
O O13 0.217724 0.284068 0.434549
O O14 0.059717 0.579309 0.191756
O O15 0.000000 0.359109 0.500000
#
# Coordination Sequence:
#
# PCOD8163329 Si02
#       8
#     8   4   8   8   8   8   8   4
#     4  10  23  38  66  86 124 164 202 255 316 361
#     4   9  21  38  68  92 121 165 206 262 308 367
#     4  11  22  42  62  92 124 168 201 262 307 378
#     4  11  23  43  59  93 122 161 208 260 308 370
#     4  10  23  39  64  93 124 162 208 247 321 377
#     4  10  22  42  57  91 122 163 212 247 308 372
#     4  10  18  40  64  95 122 158 207 256 311 370
#     4  11  22  39  60  88 127 161 208 250 298 379
#
# _framework density 19.583850999999999
#
# number of rings (size 3 to 8) (size 9 to 14) (size 15 to 20)
#    0.000    1.714    2.857    1.071    2.000    1.143 
#    7.714    2.143    0.000    0.000    0.000    0.000 
#    0.000    0.000    0.000    0.000    0.000    0.000 
#
# Total GULP energy -347066.987531 kJ/mol
# GULP energy per Si atom -12395.249555 kJ/mol
# Density = 1.953928 g / cm^3
# Si number density = 19.583851 Si / 1000 Ang^3
#
#
#
# Elastic Constant Matrix: (Units=GPa)
#
#
# Indices 1 2 3 4 5 6 
#
# 1 104.6885 56.3855 48.4344 0.0000 0.0000 0.0000
# 2 56.3855 145.0577 69.1772 0.0000 0.0000 0.0000
# 3 48.4344 69.1772 104.6399 0.0000 0.0000 0.0000
# 4 0.0000 0.0000 0.0000 352.0395 0.0000 0.0000
# 5 0.0000 0.0000 0.0000 0.0000 29.9298 0.0000
# 6 0.0000 0.0000 0.0000 0.0000 0.0000 26.4658
#
#
#
# Elastic Compliance Matrix: (Units=1/GPa)
#
#
# Indices 1 2 3 4 5 6 
#
# 1 0.013107 -0.003215 -0.003941 0.000000 0.000000 0.000000
# 2 -0.003215 0.010857 -0.005689 0.000000 0.000000 0.000000
# 3 -0.003941 -0.005689 0.015142 0.000000 0.000000 0.000000
# 4 0.000000 0.000000 0.000000 0.002841 0.000000 0.000000
# 5 0.000000 0.000000 0.000000 0.000000 0.033412 0.000000
# 6 0.000000 0.000000 0.000000 0.000000 0.000000 0.037785
#
#
# Mechanical properties :
#
#
# Convention : Reuss Voigt Hill
#
# Bulk Modulus (GPa) = 74.54601 78.04225 76.29413
# Shear Modulus (GPa) = 34.89038 93.71294 64.30166
#
# Velocity S-wave (km/s) = 4.22547 6.92503 5.73631
# Velocity P-wave (km/s) = 7.87107 10.19207 9.10582
#
# Compressibility (1/GPa) = 0.01341453
#
# Stress axis : x y z
#
# Youngs Moduli (GPa) = 76.29261 92.10853 66.04186
#
# Poissons Ratio (x) = 0.29617 0.26029
# Poissons Ratio (y) = 0.24531 0.37572
# Poissons Ratio (z) = 0.30069 0.52401
#
# Static dielectric constant tensor:
#      x y z
#    x 3.089540 0.000000 0.000000 
#    y 0.000000 3.765710 0.000000 
#    z 0.000000 0.000000 3.764980 
# 
# 
# High freq. dielectric constant tensor:
#      x y z
#    x 1.755590 0.000000 0.000000 
#    y 0.000000 1.764490 0.000000 
#    z 0.000000 0.000000 1.769990 
# 
# From -- ./inp_files/26289.got.cif
#   From: 2010.03.12/outbox.cif.g09.slc.cpg/sg23_14_cif.got.tgz:26289.got - 2010.04.14 02:50:06.
