data_PCOD8163034
_publ_section_title
;
Structure prediction by ZEFSAII (Michael W. Deem and Ramdas Pophale) SiO2 
 PCOD8163034
Probable space group: F 2 2 2
;
_chemical_formula_sum "Si O2"
_cell_formula_units_Z 72
_cell_length_a 12.356919
_cell_length_b 16.452166
_cell_length_c 16.223416
_cell_angle_alpha 90.000000
_cell_angle_beta 90.000000
_cell_angle_gamma 90.000000
_cell_volume 3298.189367
_symmetry_space_group_name_H-M "F 2 2 2"
_symmetry_group_IT_number 22
_symmetry_cell_setting 'orthorhombic'
loop_
_space_group_symop_operation_xyz
x,y,z
-x,-y,z
x,-y,-z
-x,y,-z
x,1/2+y,1/2+z
-x,1/2-y,1/2+z
x,1/2-y,1/2-z
-x,1/2+y,1/2-z
1/2+x,y,1/2+z
1/2-x,-y,1/2+z
1/2+x,-y,1/2-z
1/2-x,y,1/2-z
1/2+x,1/2+y,z
1/2-x,1/2-y,z
1/2+x,1/2-y,-z
1/2-x,1/2+y,-z
loop_
_atom_site_type_symbol
_atom_site_label
_atom_site_fract_x
_atom_site_fract_y
_atom_site_fract_z
Si Si1 0.500000 0.500000 0.703785
Si Si2 0.992194 0.671331 0.403839
Si Si3 0.729583 0.595095 0.154352
Si Si4 0.171308 0.929259 0.185845
Si Si5 0.450237 0.855197 0.910962
O O1 0.603688 0.504090 0.761672
O O2 0.502135 0.581918 0.651813
O O3 0.887516 0.628343 0.368996
O O4 0.988599 0.766247 0.382758
O O5 0.000000 0.654914 0.500000
O O6 0.101514 0.634719 0.364428
O O7 0.750000 0.617585 0.250000
O O8 0.736797 0.497280 0.132374
O O9 0.819508 0.637774 0.094996
O O10 0.250000 0.881339 0.250000
O O11 0.500000 0.875202 0.000000
#
# Coordination Sequence:
#
# PCOD8163034 Si02
#       5
#     8  16  16  16  16
#     4  12  21  44  67  98 136 176 234 282 335 406
#     4  11  25  44  68 105 144 174 227 293 354 412
#     4  11  21  44  73  99 133 185 241 276 334 427
#     4  11  22  42  71 104 136 181 234 286 346 413
#     4  11  25  43  68 102 139 183 229 288 349 418
#
# _framework density 21.830159999999999
#
# number of rings (size 3 to 8) (size 9 to 14) (size 15 to 20)
#    0.000    0.889    6.667    1.000    0.000    8.000 
#    4.000    4.444    0.000    0.000    0.000    0.000 
#    0.000    0.000    0.000    0.000    0.000    0.000 
#
# Total GULP energy -223092.074111 kJ/mol
# GULP energy per Si atom -12394.004117 kJ/mol
# Density = 2.178047 g / cm^3
# Si number density = 21.830160 Si / 1000 Ang^3
#
#
#
# Elastic Constant Matrix: (Units=GPa)
#
#
# Indices 1 2 3 4 5 6 
#
# 1 110.8977 44.6937 60.4835 0.0000 0.0000 0.0000
# 2 44.6937 137.2244 69.3848 0.0000 0.0000 0.0000
# 3 60.4835 69.3848 90.7643 0.0000 0.0000 0.0000
# 4 0.0000 0.0000 0.0000 26.8065 0.0000 0.0000
# 5 0.0000 0.0000 0.0000 0.0000 47.4027 0.0000
# 6 0.0000 0.0000 0.0000 0.0000 0.0000 -50.6105
#
#
#
# Elastic Compliance Matrix: (Units=1/GPa)
#
#
# Indices 1 2 3 4 5 6 
#
# 1 0.014171 0.000260 -0.009642 0.000000 0.000000 0.000000
# 2 0.000260 0.011884 -0.009257 0.000000 0.000000 0.000000
# 3 -0.009642 -0.009257 0.024520 0.000000 0.000000 0.000000
# 4 0.000000 0.000000 0.000000 0.037304 0.000000 0.000000
# 5 0.000000 0.000000 0.000000 0.000000 0.021096 0.000000
# 6 0.000000 0.000000 0.000000 0.000000 0.000000 -0.019759
#
#
# Mechanical properties :
#
#
# Convention : Reuss Voigt Hill
#
# Bulk Modulus (GPa) = 75.21606 76.44560 75.83083
# Shear Modulus (GPa) = 38.18904 15.67472 26.93188
#
# Velocity S-wave (km/s) = 4.18709 2.68252 3.51622
# Velocity P-wave (km/s) = 7.60957 6.68497 7.16221
#
# Compressibility (1/GPa) = 0.01329503
#
# Stress axis : x y z
#
# Youngs Moduli (GPa) = 70.56454 84.14954 40.78350
#
# Poissons Ratio (x) = -0.02186 0.39324
# Poissons Ratio (y) = -0.01833 0.37755
# Poissons Ratio (z) = 0.68039 0.77901
#
# Static dielectric constant tensor:
#      x y z
#    x 4.334410 0.000000 0.000000 
#    y 0.000000 3.908170 0.000000 
#    z 0.000000 0.000000 4.168660 
# 
# 
# High freq. dielectric constant tensor:
#      x y z
#    x 1.879670 0.000000 0.000000 
#    y 0.000000 1.860320 0.000000 
#    z 0.000000 0.000000 1.848540 
# 
# From -- ./inp_files/35869.got.cif
#   From: 2010.03.12/outbox.cif.g09.slc.cpg/sg22_18_cif.got.tgz:35869.got - 2010.04.14 02:24:06.
