data_PCOD8163864
_publ_section_title
;
Structure prediction by ZEFSAII (Michael W. Deem and Ramdas Pophale) SiO2 
 PCOD8163864
Probable space group: I 2 2 2
;
_chemical_formula_sum "Si O2"
_cell_formula_units_Z 64
_cell_length_a 23.658250
_cell_length_b 15.460010
_cell_length_c 9.153775
_cell_angle_alpha 90.000000
_cell_angle_beta 90.000000
_cell_angle_gamma 90.000000
_cell_volume 3348.055283
_symmetry_space_group_name_H-M "I 2 2 2"
_symmetry_group_IT_number 23
_symmetry_cell_setting 'orthorhombic'
loop_
_space_group_symop_operation_xyz
x,y,z
-x,-y,z
x,-y,-z
-x,y,-z
1/2+x,1/2+y,1/2+z
1/2-x,1/2-y,1/2+z
1/2+x,1/2-y,1/2-z
1/2-x,1/2+y,1/2-z
loop_
_atom_site_type_symbol
_atom_site_label
_atom_site_fract_x
_atom_site_fract_y
_atom_site_fract_z
Si Si1 0.408272 0.998890 0.166894
Si Si2 0.999705 0.820687 0.172848
Si Si3 0.792334 0.497192 0.173040
Si Si4 0.999963 0.642047 0.332891
Si Si5 0.272814 0.669910 0.163151
Si Si6 0.725836 0.663544 0.179395
Si Si7 0.604134 0.401210 0.830889
Si Si8 0.105425 0.897904 0.665185
O O1 0.443441 0.912112 0.198553
O O2 0.356335 0.000270 0.275280
O O3 0.445883 0.082918 0.198312
O O4 0.387094 0.000000 0.000000
O O5 0.943321 0.866679 0.228060
O O6 0.002496 0.722530 0.225870
O O7 0.053254 0.874466 0.227324
O O8 0.000000 0.821576 0.000000
O O9 0.762653 0.409870 0.229271
O O10 0.758325 0.578694 0.236965
O O11 0.790617 0.500000 0.000000
O O12 0.000000 0.674665 0.500000
O O13 0.250527 0.756414 0.234502
O O14 0.338603 0.656811 0.200983
O O15 0.263459 0.677333 0.991039
O O16 0.659280 0.653950 0.212034
O O17 0.618786 0.501624 0.808522
O O18 0.586372 0.382615 0.998061
#
# Coordination Sequence:
#
# PCOD8163864 Si02
#       8
#     8   8   8   8   8   8   8   8
#     4   9  20  38  62  86 113 153 199 242 284 339
#     4  12  26  38  57  90 122 149 188 247 304 349
#     4  10  21  39  61  89 125 156 190 242 301 356
#     4   9  20  41  61  83 116 154 199 242 281 346
#     4  10  22  40  62  89 121 158 199 243 291 350
#     4  10  22  40  62  89 121 158 199 243 291 350
#     4  10  21  42  66  84 111 157 203 240 287 352
#     4  10  21  42  66  84 111 157 203 240 287 352
#
# _framework density 19.115573999999999
#
# number of rings (size 3 to 8) (size 9 to 14) (size 15 to 20)
#    0.000    2.000    1.250    2.250    3.500    5.000 
#    0.000    1.250    0.000    0.000    0.000    0.000 
#    0.000    0.000    0.000    0.000    0.000    0.000 
#
# Total GULP energy -396907.452064 kJ/mol
# GULP energy per Si atom -12403.357877 kJ/mol
# Density = 1.907207 g / cm^3
# Si number density = 19.115574 Si / 1000 Ang^3
#
#
#
# Elastic Constant Matrix: (Units=GPa)
#
#
# Indices 1 2 3 4 5 6 
#
# 1 86.6386 9.1454 30.2107 0.0000 0.0000 0.0000
# 2 9.1454 62.9140 21.6199 0.0000 0.0000 0.0000
# 3 30.2107 21.6199 64.2597 0.0000 0.0000 0.0000
# 4 0.0000 0.0000 0.0000 34.0822 0.0000 0.0000
# 5 0.0000 0.0000 0.0000 0.0000 23.8235 0.0000
# 6 0.0000 0.0000 0.0000 0.0000 0.0000 21.7567
#
#
#
# Elastic Compliance Matrix: (Units=1/GPa)
#
#
# Indices 1 2 3 4 5 6 
#
# 1 0.013809 0.000253 -0.006577 0.000000 0.000000 0.000000
# 2 0.000253 0.017977 -0.006167 0.000000 0.000000 0.000000
# 3 -0.006577 -0.006167 0.020729 0.000000 0.000000 0.000000
# 4 0.000000 0.000000 0.000000 0.029341 0.000000 0.000000
# 5 0.000000 0.000000 0.000000 0.000000 0.041975 0.000000
# 6 0.000000 0.000000 0.000000 0.000000 0.000000 0.045963
#
#
# Mechanical properties :
#
#
# Convention : Reuss Voigt Hill
#
# Bulk Modulus (GPa) = 36.32125 37.30716 36.81420
# Shear Modulus (GPa) = 24.51523 26.12154 25.31839
#
# Velocity S-wave (km/s) = 3.58505 3.70064 3.64330
# Velocity P-wave (km/s) = 6.01489 6.14969 6.08266
#
# Compressibility (1/GPa) = 0.02753210
#
# Stress axis : x y z
#
# Youngs Moduli (GPa) = 72.41681 55.62574 48.24172
#
# Poissons Ratio (x) = -0.01407 0.31729
# Poissons Ratio (y) = -0.01831 0.29752
# Poissons Ratio (z) = 0.47630 0.34306
#
# Static dielectric constant tensor:
#      x y z
#    x 3.555570 0.000000 0.000000 
#    y 0.000000 3.617880 0.000000 
#    z 0.000000 0.000000 3.327910 
# 
# 
# High freq. dielectric constant tensor:
#      x y z
#    x 1.755870 0.000000 0.000000 
#    y 0.000000 1.756690 0.000000 
#    z 0.000000 0.000000 1.727960 
# 
# From -- ./inp_files/12719.got.cif
#   From: 2010.03.12/outbox.cif.g09.slc.cpg/sg23_7_cif.got.tgz:12719.got - 2010.04.14 02:50:06.
