data_PCOD8163695
_publ_section_title
;
Structure prediction by ZEFSAII (Michael W. Deem and Ramdas Pophale) SiO2 
 PCOD8163695
Probable space group: I 2 2 2
;
_chemical_formula_sum "Si O2"
_cell_formula_units_Z 52
_cell_length_a 26.444664
_cell_length_b 11.231704
_cell_length_c 8.703400
_cell_angle_alpha 90.000000
_cell_angle_beta 90.000000
_cell_angle_gamma 90.000000
_cell_volume 2585.072018
_symmetry_space_group_name_H-M "I 2 2 2"
_symmetry_group_IT_number 23
_symmetry_cell_setting 'orthorhombic'
loop_
_space_group_symop_operation_xyz
x,y,z
-x,-y,z
x,-y,-z
-x,y,-z
1/2+x,1/2+y,1/2+z
1/2-x,1/2-y,1/2+z
1/2+x,1/2-y,1/2-z
1/2-x,1/2+y,1/2-z
loop_
_atom_site_type_symbol
_atom_site_label
_atom_site_fract_x
_atom_site_fract_y
_atom_site_fract_z
Si Si1 0.086633 0.360586 0.843328
Si Si2 0.500000 0.000000 0.500000
Si Si3 0.855487 0.888243 0.338240
Si Si4 0.000000 0.000000 0.500000
Si Si5 0.169265 0.494114 0.679062
Si Si6 0.410374 0.631055 0.864747
Si Si7 0.738874 0.884881 0.403883
Si Si8 0.839016 0.295272 0.896955
O O1 0.113562 0.446751 0.721786
O O2 0.084777 0.230203 0.765654
O O3 0.117631 0.356496 0.001886
O O4 0.032237 0.414177 0.887365
O O5 0.890253 0.823547 0.468120
O O6 0.798215 0.871432 0.394426
O O7 0.860591 0.828130 0.171124
O O8 0.871128 0.026114 0.316228
O O9 0.966441 0.919829 0.613186
O O10 0.176092 0.500000 0.500000
O O11 0.212483 0.401936 0.738212
O O12 0.175728 0.625436 0.749247
O O13 0.711274 0.776086 0.496297
O O14 0.722222 0.000000 0.500000
#
# Coordination Sequence:
#
# PCOD8163695 Si02
#       8
#     8   2   8   2   8   8   8   8
#     4  11  23  44  63  91 119 165 203 266 331 378
#     4  12  24  44  70  88 128 156 218 280 338 402
#     4  10  20  39  62  95 125 174 210 254 305 376
#     4   8  20  44  60  94 116 160 204 270 322 374
#     4  10  20  39  60  88 127 162 207 259 308 369
#     4  10  22  40  68  85 130 159 211 263 318 384
#     4   9  18  37  57  88 127 169 207 248 299 357
#     4  10  21  36  62  85 131 164 204 256 309 371
#
# _framework density 20.115494999999999
#
# number of rings (size 3 to 8) (size 9 to 14) (size 15 to 20)
#    0.000    2.154    3.077    1.846    0.000    6.769 
#    5.538    0.000    0.000    0.000    0.000    0.000 
#    0.000    0.000    0.000    0.000    0.000    0.000 
#
# Total GULP energy -322256.540686 kJ/mol
# GULP energy per Si atom -12394.482334 kJ/mol
# Density = 2.006971 g / cm^3
# Si number density = 20.115495 Si / 1000 Ang^3
#
#
#
# Elastic Constant Matrix: (Units=GPa)
#
#
# Indices 1 2 3 4 5 6 
#
# 1 140.1006 34.6018 47.7588 0.0000 0.0000 0.0000
# 2 34.6018 75.9527 49.2157 0.0000 0.0000 0.0000
# 3 47.7588 49.2157 139.5594 0.0000 0.0000 0.0000
# 4 0.0000 0.0000 0.0000 45.7895 0.0000 0.0000
# 5 0.0000 0.0000 0.0000 0.0000 15.8246 0.0000
# 6 0.0000 0.0000 0.0000 0.0000 0.0000 19.2170
#
#
#
# Elastic Compliance Matrix: (Units=1/GPa)
#
#
# Indices 1 2 3 4 5 6 
#
# 1 0.008448 -0.002560 -0.001988 0.000000 0.000000 0.000000
# 2 -0.002560 0.017842 -0.005416 0.000000 0.000000 0.000000
# 3 -0.001988 -0.005416 0.009756 0.000000 0.000000 0.000000
# 4 0.000000 0.000000 0.000000 0.021839 0.000000 0.000000
# 5 0.000000 0.000000 0.000000 0.000000 0.063193 0.000000
# 6 0.000000 0.000000 0.000000 0.000000 0.000000 0.052037
#
#
# Mechanical properties :
#
#
# Convention : Reuss Voigt Hill
#
# Bulk Modulus (GPa) = 62.04654 68.75171 65.39913
# Shear Modulus (GPa) = 25.19972 31.10197 28.15084
#
# Velocity S-wave (km/s) = 3.54326 3.93640 3.74500
# Velocity P-wave (km/s) = 6.90302 7.41033 7.16117
#
# Compressibility (1/GPa) = 0.01611693
#
# Stress axis : x y z
#
# Youngs Moduli (GPa) = 118.37439 56.04823 102.50544
#
# Poissons Ratio (x) = 0.14350 0.20378
# Poissons Ratio (y) = 0.30308 0.55514
# Poissons Ratio (z) = 0.23533 0.30354
#
# Static dielectric constant tensor:
#      x y z
#    x 3.606470 0.000000 0.000000 
#    y 0.000000 3.643490 0.000000 
#    z 0.000000 0.000000 3.646170 
# 
# 
# High freq. dielectric constant tensor:
#      x y z
#    x 1.784500 0.000000 0.000000 
#    y 0.000000 1.771250 0.000000 
#    z 0.000000 0.000000 1.784600 
# 
# From -- ./inp_files/13045.got.cif
#   From: 2010.03.12/outbox.cif.g09.slc.cpg/sg23_7_cif.got.tgz:13045.got - 2010.04.14 02:50:06.
