data_PCOD8163184
_publ_section_title
;
Structure prediction by ZEFSAII (Michael W. Deem and Ramdas Pophale) SiO2 
 PCOD8163184
Probable space group: F 2 2 2
;
_chemical_formula_sum "Si O2"
_cell_formula_units_Z 68
_cell_length_a 8.937695
_cell_length_b 19.263505
_cell_length_c 21.029212
_cell_angle_alpha 90.000000
_cell_angle_beta 90.000000
_cell_angle_gamma 90.000000
_cell_volume 3620.627448
_symmetry_space_group_name_H-M "F 2 2 2"
_symmetry_group_IT_number 22
_symmetry_cell_setting 'orthorhombic'
loop_
_space_group_symop_operation_xyz
x,y,z
-x,-y,z
x,-y,-z
-x,y,-z
x,1/2+y,1/2+z
-x,1/2-y,1/2+z
x,1/2-y,1/2-z
-x,1/2+y,1/2-z
1/2+x,y,1/2+z
1/2-x,-y,1/2+z
1/2+x,-y,1/2-z
1/2-x,y,1/2-z
1/2+x,1/2+y,z
1/2-x,1/2-y,z
1/2+x,1/2-y,-z
1/2-x,1/2+y,-z
loop_
_atom_site_type_symbol
_atom_site_label
_atom_site_fract_x
_atom_site_fract_y
_atom_site_fract_z
Si Si1 0.677102 0.920767 0.686770
Si Si2 0.500000 0.000000 0.500000
Si Si3 0.355953 0.371303 0.940924
Si Si4 0.182867 0.176503 0.071910
Si Si5 0.822358 0.920954 0.185868
O O1 0.750000 0.888110 0.750000
O O2 0.733746 0.875117 0.625804
O O3 0.499640 0.915194 0.691868
O O4 0.731777 0.999829 0.678346
O O5 0.403789 0.951244 0.453749
O O6 0.502434 0.322752 0.932143
O O7 0.257618 0.343963 0.000581
O O8 0.250000 0.250000 0.092009
O O9 0.237018 0.121152 0.124499
O O10 0.750000 0.889188 0.250000
#
# Coordination Sequence:
#
# PCOD8163184 Si02
#       5
#    16   4  16  16  16
#     4   9  16  29  49  73  97 120 150 195 245 282
#     4   8  12  24  48  72  88 110 152 204 240 270
#     4   9  16  28  48  70  91 117 157 199 236 275
#     4   9  17  29  45  65  90 123 160 193 224 267
#     4   9  17  29  48  73  98 122 153 193 236 282
#
# _framework density 18.781275000000001
#
# number of rings (size 3 to 8) (size 9 to 14) (size 15 to 20)
#    0.000    3.294    0.000    4.235    0.000    0.471 
#    0.000    4.706    0.000    3.529    0.000    6.588 
#    0.000    0.000    0.000    0.000    0.000    0.000 
#
# Total GULP energy -210627.526797 kJ/mol
# GULP energy per Si atom -12389.854517 kJ/mol
# Density = 1.873853 g / cm^3
# Si number density = 18.781275 Si / 1000 Ang^3
#
#
#
# Elastic Constant Matrix: (Units=GPa)
#
#
# Indices 1 2 3 4 5 6 
#
# 1 18.7665 24.3878 29.3202 0.0000 0.0000 0.0000
# 2 24.3878 78.8968 45.8366 0.0000 0.0000 0.0000
# 3 29.3202 45.8366 209.0427 0.0000 0.0000 0.0000
# 4 0.0000 0.0000 0.0000 15.5547 0.0000 0.0000
# 5 0.0000 0.0000 0.0000 0.0000 29.7597 0.0000
# 6 0.0000 0.0000 0.0000 0.0000 0.0000 13.4665
#
#
#
# Elastic Compliance Matrix: (Units=1/GPa)
#
#
# Indices 1 2 3 4 5 6 
#
# 1 0.100306 -0.026165 -0.008332 0.000000 0.000000 0.000000
# 2 -0.026165 0.021350 -0.001012 0.000000 0.000000 0.000000
# 3 -0.008332 -0.001012 0.006174 0.000000 0.000000 0.000000
# 4 0.000000 0.000000 0.000000 0.064289 0.000000 0.000000
# 5 0.000000 0.000000 0.000000 0.000000 0.033603 0.000000
# 6 0.000000 0.000000 0.000000 0.000000 0.000000 0.074258
#
#
# Mechanical properties :
#
#
# Convention : Reuss Voigt Hill
#
# Bulk Modulus (GPa) = 17.60139 56.19945 36.90042
# Shear Modulus (GPa) = 12.82267 25.56696 19.19482
#
# Velocity S-wave (km/s) = 2.61576 3.69358 3.20037
# Velocity P-wave (km/s) = 4.30291 6.94105 5.77465
#
# Compressibility (1/GPa) = 0.05681369
#
# Stress axis : x y z
#
# Youngs Moduli (GPa) = 9.96952 46.83768 161.96685
#
# Poissons Ratio (x) = 1.22551 1.34945
# Poissons Ratio (y) = 0.26085 0.16384
# Poissons Ratio (z) = 0.08306 0.04738
#
# Static dielectric constant tensor:
#      x y z
#    x 2.916900 0.000000 0.000000 
#    y 0.000000 3.188640 0.000000 
#    z 0.000000 0.000000 4.117230 
# 
# 
# High freq. dielectric constant tensor:
#      x y z
#    x 1.666730 0.000000 0.000000 
#    y 0.000000 1.702570 0.000000 
#    z 0.000000 0.000000 1.762910 
# 
# From -- ./inp_files/22360.got.cif
#   From: 2010.03.12/outbox.cif.g09.slc.cpg/sg22_12_cif.got.tgz:22360.got - 2010.04.14 02:24:06.
