data_PCOD8163133
_publ_section_title
;
Structure prediction by ZEFSAII (Michael W. Deem and Ramdas Pophale) SiO2 
 PCOD8163133
Probable space group: F 2 2 2
;
_chemical_formula_sum "Si O2"
_cell_formula_units_Z 104
_cell_length_a 28.122974
_cell_length_b 22.345849
_cell_length_c 8.294532
_cell_angle_alpha 90.000000
_cell_angle_beta 90.000000
_cell_angle_gamma 90.000000
_cell_volume 5212.547098
_symmetry_space_group_name_H-M "F 2 2 2"
_symmetry_group_IT_number 22
_symmetry_cell_setting 'orthorhombic'
loop_
_space_group_symop_operation_xyz
x,y,z
-x,-y,z
x,-y,-z
-x,y,-z
x,1/2+y,1/2+z
-x,1/2-y,1/2+z
x,1/2-y,1/2-z
-x,1/2+y,1/2-z
1/2+x,y,1/2+z
1/2-x,-y,1/2+z
1/2+x,-y,1/2-z
1/2-x,y,1/2-z
1/2+x,1/2+y,z
1/2-x,1/2-y,z
1/2+x,1/2-y,-z
1/2-x,1/2+y,-z
loop_
_atom_site_type_symbol
_atom_site_label
_atom_site_fract_x
_atom_site_fract_y
_atom_site_fract_z
Si Si1 0.871500 0.500000 0.000000
Si Si2 0.152085 0.142257 0.931933
Si Si3 0.683701 0.884971 0.926004
Si Si4 0.272170 0.934646 0.570286
Si Si5 0.306000 0.758223 0.935825
Si Si6 0.551343 0.899418 0.492933
Si Si7 0.949274 0.004671 0.753774
O O1 0.839740 0.559241 0.022274
O O2 0.904324 0.513666 0.849288
O O3 0.166577 0.116758 0.757545
O O4 0.095156 0.142519 0.956628
O O5 0.177408 0.100312 0.067686
O O6 0.167878 0.210479 0.951213
O O7 0.739825 0.897525 0.944144
O O8 0.673245 0.822252 0.012424
O O9 0.250000 0.935137 0.750000
O O10 0.280698 0.000000 0.500000
O O11 0.319521 0.750000 0.750000
O O12 0.250000 0.750000 0.963927
O O13 0.500000 0.864542 0.500000
O O14 0.547293 0.956548 0.606122
O O15 0.559448 0.927378 0.315455
O O16 0.000000 0.000000 0.659489
#
# Coordination Sequence:
#
# PCOD8163133 Si02
#       7
#     8  16  16  16  16  16  16
#     4  12  23  36  62  98 140 156 207 262 328 378
#     4  12  24  41  69  88 128 173 211 266 325 372
#     4  12  25  41  61  99 129 167 207 262 319 391
#     4  12  26  39  58  92 133 170 211 259 320 388
#     4  11  25  45  66  89 124 172 226 262 308 384
#     4   9  20  38  62  94 125 166 216 252 313 384
#     4   9  19  37  60  90 128 168 210 261 312 376
#
# _framework density 19.951858000000001
#
# number of rings (size 3 to 8) (size 9 to 14) (size 15 to 20)
#    0.000    1.077    3.846    3.923    6.462    0.615 
#    0.000    0.000    0.000    3.692    0.000    0.000 
#    0.000    0.000    0.000    0.000    0.000    0.000 
#
# Total GULP energy -322280.876793 kJ/mol
# GULP energy per Si atom -12395.418338 kJ/mol
# Density = 1.990645 g / cm^3
# Si number density = 19.951858 Si / 1000 Ang^3
#
#
#
# Elastic Constant Matrix: (Units=GPa)
#
#
# Indices 1 2 3 4 5 6 
#
# 1 129.8799 45.1528 34.0842 -0.0001 0.0000 0.0000
# 2 45.1528 134.9136 24.1672 0.0002 0.0002 0.0002
# 3 34.0842 24.1672 65.2310 0.0003 0.0006 0.0007
# 4 -0.0001 0.0002 0.0003 25.2740 0.0002 0.0004
# 5 0.0000 0.0002 0.0006 0.0002 27.4159 -0.0002
# 6 0.0000 0.0002 0.0007 0.0004 -0.0002 20.0818
#
#
#
# Elastic Compliance Matrix: (Units=1/GPa)
#
#
# Indices 1 2 3 4 5 6 
#
# 1 0.009646 -0.002491 -0.004117 0.000000 0.000000 0.000000
# 2 -0.002491 0.008582 -0.001878 0.000000 0.000000 0.000000
# 3 -0.004117 -0.001878 0.018177 0.000000 0.000000 -0.000001
# 4 0.000000 0.000000 0.000000 0.039566 0.000000 -0.000001
# 5 0.000000 0.000000 0.000000 0.000000 0.036475 0.000000
# 6 0.000000 0.000000 -0.000001 -0.000001 0.000000 0.049796
#
#
# Mechanical properties :
#
#
# Convention : Reuss Voigt Hill
#
# Bulk Modulus (GPa) = 51.45891 59.64810 55.55350
# Shear Modulus (GPa) = 26.92614 29.66236 28.29425
#
# Velocity S-wave (km/s) = 3.67761 3.85995 3.76989
# Velocity P-wave (km/s) = 6.62425 7.05879 6.84497
#
# Compressibility (1/GPa) = 0.01943298
#
# Stress axis : x y z
#
# Youngs Moduli (GPa) = 103.67185 116.52054 55.01357
#
# Poissons Ratio (x) = 0.29022 0.22651
# Poissons Ratio (y) = 0.25822 0.10332
# Poissons Ratio (z) = 0.42685 0.21884
#
# Static dielectric constant tensor:
#      x y z
#    x 3.919270 0.000000 0.000000 
#    y 0.000000 3.472860 0.000000 
#    z 0.000000 0.000000 3.641640 
# 
# 
# High freq. dielectric constant tensor:
#      x y z
#    x 1.780900 0.000000 0.000000 
#    y 0.000000 1.760860 0.000000 
#    z 0.000000 0.000000 1.777630 
# 
# From -- ./inp_files/14928.got.cif
#   From: 2010.03.12/outbox.cif.g09.slc.cpg/sg22_8_cif.got.tgz:14928.got - 2010.04.14 02:24:06.
