data_PCOD8163620
_publ_section_title
;
Structure prediction by ZEFSAII (Michael W. Deem and Ramdas Pophale) SiO2 
 PCOD8163620
Probable space group: I 2 2 2
;
_chemical_formula_sum "Si O2"
_cell_formula_units_Z 58
_cell_length_a 11.004490
_cell_length_b 28.079914
_cell_length_c 8.830076
_cell_angle_alpha 90.000000
_cell_angle_beta 90.000000
_cell_angle_gamma 90.000000
_cell_volume 2728.538807
_symmetry_space_group_name_H-M "I 2 2 2"
_symmetry_group_IT_number 23
_symmetry_cell_setting 'orthorhombic'
loop_
_space_group_symop_operation_xyz
x,y,z
-x,-y,z
x,-y,-z
-x,y,-z
1/2+x,1/2+y,1/2+z
1/2-x,1/2-y,1/2+z
1/2+x,1/2-y,1/2-z
1/2-x,1/2+y,1/2-z
loop_
_atom_site_type_symbol
_atom_site_label
_atom_site_fract_x
_atom_site_fract_y
_atom_site_fract_z
Si Si1 0.070526 0.676542 0.281187
Si Si2 0.728459 0.483910 0.344175
Si Si3 0.279299 0.101914 0.361916
Si Si4 0.978771 0.144670 0.665660
Si Si5 0.915544 0.773896 0.863215
Si Si6 0.000000 0.000000 0.000000
Si Si7 0.707713 0.583865 0.197727
Si Si8 0.683994 0.163992 0.099396
O O1 0.107410 0.637852 0.154543
O O2 0.118400 0.729089 0.241499
O O3 0.133345 0.656037 0.432057
O O4 0.925395 0.681263 0.293067
O O5 0.799627 0.500000 0.500000
O O6 0.797537 0.443724 0.248353
O O7 0.591082 0.467305 0.396895
O O8 0.712846 0.528847 0.235724
O O9 0.157845 0.128270 0.307511
O O10 0.276535 0.088831 0.538074
O O11 0.000000 0.167098 0.500000
O O12 0.004860 0.186235 0.782198
O O13 0.067905 0.099499 0.682442
O O14 0.786712 0.795778 0.910166
O O15 0.000000 0.755538 0.000000
O O16 0.767872 0.614472 0.332307
#
# Coordination Sequence:
#
# PCOD8163620 Si02
#       8
#     8   8   8   8   8   2   8   8
#     4  11  26  42  64  91 128 175 218 276 337 398
#     4  10  20  36  61  95 132 174 220 273 333 404
#     4  11  22  38  64  95 135 173 223 277 335 403
#     4   9  21  38  59  93 132 171 215 274 338 395
#     4  11  25  40  68  95 125 173 221 277 330 405
#     4   8  20  32  62  96 126 180 214 276 326 412
#     4  10  21  40  64  94 132 175 222 280 334 394
#     4  10  25  45  63  92 131 170 220 275 332 405
#
# _framework density 21.256798
#
# number of rings (size 3 to 8) (size 9 to 14) (size 15 to 20)
#    0.414    1.379    0.000    2.897    7.724    2.207 
#    1.241    3.448    0.000    4.138    0.000    0.000 
#    0.000    0.000    0.000    0.000    0.000    0.000 
#
# Total GULP energy -359493.965215 kJ/mol
# GULP energy per Si atom -12396.343628 kJ/mol
# Density = 2.120842 g / cm^3
# Si number density = 21.256798 Si / 1000 Ang^3
#
#
#
# Elastic Constant Matrix: (Units=GPa)
#
#
# Indices 1 2 3 4 5 6 
#
# 1 91.5930 25.2652 28.5540 0.0012 0.0008 0.0003
# 2 25.2652 101.7744 33.7571 0.0030 0.0019 -0.0002
# 3 28.5540 33.7571 99.3130 0.0081 0.0200 0.0010
# 4 0.0012 0.0030 0.0081 33.9497 -0.0021 -0.0013
# 5 0.0008 0.0019 0.0200 -0.0021 27.9337 -0.0002
# 6 0.0003 -0.0002 0.0010 -0.0013 -0.0002 9.0889
#
#
#
# Elastic Compliance Matrix: (Units=1/GPa)
#
#
# Indices 1 2 3 4 5 6 
#
# 1 0.012391 -0.002135 -0.002837 0.000000 0.000002 0.000000
# 2 -0.002135 0.011442 -0.003275 0.000000 0.000002 0.000001
# 3 -0.002837 -0.003275 0.011998 -0.000002 -0.000008 -0.000001
# 4 0.000000 0.000000 -0.000002 0.029455 0.000002 0.000004
# 5 0.000002 0.000002 -0.000008 0.000002 0.035799 0.000001
# 6 0.000000 0.000001 -0.000001 0.000004 0.000001 0.110024
#
#
# Mechanical properties :
#
#
# Convention : Reuss Voigt Hill
#
# Bulk Modulus (GPa) = 51.71524 51.98144 51.84834
# Shear Modulus (GPa) = 21.36293 27.86808 24.61550
#
# Velocity S-wave (km/s) = 3.17360 3.62473 3.40664
# Velocity P-wave (km/s) = 6.14903 6.48269 6.31807
#
# Compressibility (1/GPa) = 0.01933666
#
# Stress axis : x y z
#
# Youngs Moduli (GPa) = 80.70221 87.39674 83.34620
#
# Poissons Ratio (x) = 0.18660 0.23645
# Poissons Ratio (y) = 0.17231 0.27299
# Poissons Ratio (z) = 0.22895 0.28625
#
# Static dielectric constant tensor:
#      x y z
#    x 3.768990 0.000000 0.000000 
#    y 0.000000 3.566530 0.000000 
#    z 0.000000 0.000000 3.978160 
# 
# 
# High freq. dielectric constant tensor:
#      x y z
#    x 1.820160 0.000000 0.000000 
#    y 0.000000 1.825450 0.000000 
#    z 0.000000 0.000000 1.847450 
# 
# From -- ./inp_files/8934.got.cif
#   From: 2010.03.12/outbox.cif.g09.slc.cpg/sg23_5_cif.got.tgz:8934.got - 2010.04.14 02:50:06.
