data_PCOD8163736
_publ_section_title
;
Structure prediction by ZEFSAII (Michael W. Deem and Ramdas Pophale) SiO2 
 PCOD8163736
Probable space group: I 2 2 2
;
_chemical_formula_sum "Si O2"
_cell_formula_units_Z 56
_cell_length_a 22.315582
_cell_length_b 14.020282
_cell_length_c 8.709774
_cell_angle_alpha 90.000000
_cell_angle_beta 90.000000
_cell_angle_gamma 90.000000
_cell_volume 2725.033547
_symmetry_space_group_name_H-M "I 2 2 2"
_symmetry_group_IT_number 23
_symmetry_cell_setting 'orthorhombic'
loop_
_space_group_symop_operation_xyz
x,y,z
-x,-y,z
x,-y,-z
-x,y,-z
1/2+x,1/2+y,1/2+z
1/2-x,1/2-y,1/2+z
1/2+x,1/2-y,1/2-z
1/2-x,1/2+y,1/2-z
loop_
_atom_site_type_symbol
_atom_site_label
_atom_site_fract_x
_atom_site_fract_y
_atom_site_fract_z
Si Si1 0.000000 0.712011 0.000000
Si Si2 0.415677 0.246342 0.760938
Si Si3 0.416276 0.858769 0.747014
Si Si4 0.294681 0.334007 0.825215
Si Si5 0.224558 0.029393 0.827781
Si Si6 0.687989 0.714423 0.181837
Si Si7 0.362245 0.041885 0.832766
Si Si8 0.500000 0.797422 0.000000
O O1 0.950147 0.650410 0.913399
O O2 0.039958 0.772098 0.879908
O O3 0.356889 0.309114 0.741299
O O4 0.399829 0.133851 0.781821
O O5 0.452940 0.272412 0.914166
O O6 0.373575 0.770217 0.791293
O O7 0.377957 0.954439 0.721014
O O8 0.466373 0.866421 0.879500
O O9 0.283067 0.445289 0.795949
O O10 0.242067 0.277277 0.743927
O O11 0.299339 0.307170 0.003509
O O12 0.182421 0.116021 0.775211
O O13 0.292453 0.068529 0.824351
O O14 0.206195 0.000000 0.000000
O O15 0.378673 0.000000 0.000000
#
# Coordination Sequence:
#
# PCOD8163736 Si02
#       8
#     4   8   8   8   8   8   8   4
#     4  10  28  41  60  97 132 176 218 275 318 383
#     4  11  23  41  66  92 132 170 223 264 328 386
#     4  11  23  41  66  92 132 170 223 264 328 386
#     4  12  24  42  69  99 133 174 218 276 336 390
#     4  11  25  41  66 101 137 173 216 270 341 395
#     4  12  24  42  69  99 133 174 218 276 336 390
#     4  11  20  37  63  95 130 173 214 255 315 406
#     4  10  20  41  62  91 120 180 216 261 306 403
#
# _framework density 20.550207
#
# number of rings (size 3 to 8) (size 9 to 14) (size 15 to 20)
#    0.000    0.857    5.714    1.286    4.000    4.000 
#    2.571    0.000    0.000    5.143    0.000    0.000 
#    0.000    0.000    0.000    0.000    0.000    0.000 
#
# Total GULP energy -347102.250274 kJ/mol
# GULP energy per Si atom -12396.508938 kJ/mol
# Density = 2.050343 g / cm^3
# Si number density = 20.550207 Si / 1000 Ang^3
#
#
#
# Elastic Constant Matrix: (Units=GPa)
#
#
# Indices 1 2 3 4 5 6 
#
# 1 99.1090 38.7941 42.2036 0.0000 0.0000 0.0000
# 2 38.7941 93.3586 19.0782 0.0000 0.0000 0.0000
# 3 42.2036 19.0782 98.1885 0.0000 0.0000 0.0000
# 4 0.0000 0.0000 0.0000 20.7962 0.0000 0.0000
# 5 0.0000 0.0000 0.0000 0.0000 37.7471 0.0000
# 6 0.0000 0.0000 0.0000 0.0000 0.0000 1.0608
#
#
#
# Elastic Compliance Matrix: (Units=1/GPa)
#
#
# Indices 1 2 3 4 5 6 
#
# 1 0.014179 -0.004838 -0.005154 0.000000 0.000000 0.000000
# 2 -0.004838 0.012805 -0.000408 0.000000 0.000000 0.000000
# 3 -0.005154 -0.000408 0.012479 0.000000 0.000000 0.000000
# 4 0.000000 0.000000 0.000000 0.048086 0.000000 0.000000
# 5 0.000000 0.000000 0.000000 0.000000 0.026492 0.000000
# 6 0.000000 0.000000 0.000000 0.000000 0.000000 0.942676
#
#
# Mechanical properties :
#
#
# Convention : Reuss Voigt Hill
#
# Bulk Modulus (GPa) = 53.58735 54.53421 54.06078
# Shear Modulus (GPa) = 4.61365 24.62615 14.61990
#
# Velocity S-wave (km/s) = 1.49998 3.46546 2.67015
# Velocity P-wave (km/s) = 5.39748 6.52742 5.98916
#
# Compressibility (1/GPa) = 0.01866112
#
# Stress axis : x y z
#
# Youngs Moduli (GPa) = 70.52866 78.09188 80.13312
#
# Poissons Ratio (x) = 0.37785 0.41302
# Poissons Ratio (y) = 0.34125 0.03273
# Poissons Ratio (z) = 0.36352 0.03189
#
# Static dielectric constant tensor:
#      x y z
#    x 3.937910 0.000000 0.000000 
#    y 0.000000 3.567730 0.000000 
#    z 0.000000 0.000000 3.968510 
# 
# 
# High freq. dielectric constant tensor:
#      x y z
#    x 1.818170 0.000000 0.000000 
#    y 0.000000 1.772360 0.000000 
#    z 0.000000 0.000000 1.815380 
# 
# From -- ./inp_files/12091.got.cif
#   From: 2010.03.12/outbox.cif.g09.slc.cpg/sg23_7_cif.got.tgz:12091.got - 2010.04.14 02:50:06.
