data_PCOD8163265
_publ_section_title
;
Structure prediction by ZEFSAII (Michael W. Deem and Ramdas Pophale) SiO2 
 PCOD8163265
Probable space group: I 2 2 2
;
_chemical_formula_sum "Si O2"
_cell_formula_units_Z 60
_cell_length_a 11.641326
_cell_length_b 14.692834
_cell_length_c 19.994713
_cell_angle_alpha 90.000000
_cell_angle_beta 90.000000
_cell_angle_gamma 90.000000
_cell_volume 3419.977099
_symmetry_space_group_name_H-M "I 2 2 2"
_symmetry_group_IT_number 23
_symmetry_cell_setting 'orthorhombic'
loop_
_space_group_symop_operation_xyz
x,y,z
-x,-y,z
x,-y,-z
-x,y,-z
1/2+x,1/2+y,1/2+z
1/2-x,1/2-y,1/2+z
1/2+x,1/2-y,1/2-z
1/2-x,1/2+y,1/2-z
loop_
_atom_site_type_symbol
_atom_site_label
_atom_site_fract_x
_atom_site_fract_y
_atom_site_fract_z
Si Si1 0.628781 0.681684 0.809625
Si Si2 0.635031 0.500000 0.663281
Si Si3 0.179176 0.193404 0.155410
Si Si4 0.500000 0.192265 0.578109
Si Si5 0.000000 0.500000 0.140941
Si Si6 0.871219 0.818316 0.690375
Si Si7 0.820824 0.806596 0.844590
Si Si8 0.750325 0.000000 0.695974
O O1 0.624460 0.687839 0.729320
O O2 0.500000 0.679497 0.837834
O O3 0.690017 0.771621 0.839354
O O4 0.694929 0.591364 0.835820
O O5 0.500000 0.500000 0.683363
O O6 0.667570 0.592152 0.622645
O O7 0.667570 0.407848 0.622645
O O8 0.719146 0.500000 0.726452
O O9 0.112749 0.264142 0.109806
O O10 0.309983 0.228379 0.160647
O O11 0.500000 0.211041 0.500000
O O12 0.612749 0.235858 0.609806
O O13 0.500000 0.085509 0.592001
O O14 0.112690 0.500000 0.187942
O O15 0.875540 0.812161 0.770680
O O16 0.805071 0.908636 0.664180
#
# Coordination Sequence:
#
# PCOD8163265 Si02
#       8
#     8   8   8   8   4   8   8   8
#     4  10  18  31  54  78 113 142 176 227 287 330
#     4  10  18  32  53  79 118 139 167 230 287 335
#     4  10  19  33  51  80 106 144 183 225 273 332
#     4  12  23  39  56  75 115 158 187 227 265 316
#     4  12  23  36  50  86 116 142 189 226 260 342
#     4  10  18  31  54  78 113 142 176 227 287 330
#     4  10  19  33  51  80 106 144 183 225 273 332
#     4  10  18  29  52  79 113 144 169 220 294 334
#
# _framework density 17.543977999999999
#
# number of rings (size 3 to 8) (size 9 to 14) (size 15 to 20)
#    0.000    1.600    5.333    3.000    0.000    0.000 
#    0.000    1.333    0.000    0.800    0.000    1.867 
#    0.000    2.133    0.000    0.000    0.000    0.000 
#
# Total GULP energy -371833.947902 kJ/mol
# GULP energy per Si atom -12394.464930 kJ/mol
# Density = 1.750405 g / cm^3
# Si number density = 17.543978 Si / 1000 Ang^3
#
#
#
# Elastic Constant Matrix: (Units=GPa)
#
#
# Indices 1 2 3 4 5 6 
#
# 1 155.7649 63.0750 23.8269 0.0000 0.0000 0.0000
# 2 63.0750 163.6087 28.0033 0.0000 0.0000 0.0000
# 3 23.8269 28.0033 44.1854 0.0000 0.0000 0.0000
# 4 0.0000 0.0000 0.0000 12.6604 0.0000 0.0000
# 5 0.0000 0.0000 0.0000 0.0000 7.7656 0.0000
# 6 0.0000 0.0000 0.0000 0.0000 0.0000 28.8808
#
#
#
# Elastic Compliance Matrix: (Units=1/GPa)
#
#
# Indices 1 2 3 4 5 6 
#
# 1 0.007866 -0.002587 -0.002602 0.000000 0.000000 0.000000
# 2 -0.002587 0.007707 -0.003489 0.000000 0.000000 0.000000
# 3 -0.002602 -0.003489 0.026246 0.000000 0.000000 0.000000
# 4 0.000000 0.000000 0.000000 0.078986 0.000000 0.000000
# 5 0.000000 0.000000 0.000000 0.000000 0.128773 0.000000
# 6 0.000000 0.000000 0.000000 0.000000 0.000000 0.034625
#
#
# Mechanical properties :
#
#
# Convention : Reuss Voigt Hill
#
# Bulk Modulus (GPa) = 40.87922 65.92995 53.40458
# Shear Modulus (GPa) = 16.14398 26.43830 21.29114
#
# Velocity S-wave (km/s) = 3.03677 3.88619 3.48744
# Velocity P-wave (km/s) = 5.97056 7.60250 6.83541
#
# Compressibility (1/GPa) = 0.02446231
#
# Stress axis : x y z
#
# Youngs Moduli (GPa) = 127.13739 129.75704 38.10051
#
# Poissons Ratio (x) = 0.33568 0.09913
# Poissons Ratio (y) = 0.32890 0.13294
# Poissons Ratio (z) = 0.33080 0.45275
#
# Static dielectric constant tensor:
#      x y z
#    x 3.253140 0.000000 0.000000 
#    y 0.000000 3.939000 0.000000 
#    z 0.000000 0.000000 2.615280 
# 
# 
# High freq. dielectric constant tensor:
#      x y z
#    x 1.682400 0.000000 0.000000 
#    y 0.000000 1.708930 0.000000 
#    z 0.000000 0.000000 1.599040 
# 
# From -- ./inp_files/22484.got.cif
#   From: 2010.03.12/outbox.cif.g09.slc.cpg/sg23_12_cif.got.tgz:22484.got - 2010.04.14 02:50:06.
