data_PCOD8163482
_publ_section_title
;
Structure prediction by ZEFSAII (Michael W. Deem and Ramdas Pophale) SiO2 
 PCOD8163482
Probable space group: I 2 2 2
;
_chemical_formula_sum "Si O2"
_cell_formula_units_Z 56
_cell_length_a 6.654491
_cell_length_b 13.825625
_cell_length_c 30.443061
_cell_angle_alpha 90.000000
_cell_angle_beta 90.000000
_cell_angle_gamma 90.000000
_cell_volume 2800.837632
_symmetry_space_group_name_H-M "I 2 2 2"
_symmetry_group_IT_number 23
_symmetry_cell_setting 'orthorhombic'
loop_
_space_group_symop_operation_xyz
x,y,z
-x,-y,z
x,-y,-z
-x,y,-z
1/2+x,1/2+y,1/2+z
1/2-x,1/2-y,1/2+z
1/2+x,1/2-y,1/2-z
1/2-x,1/2+y,1/2-z
loop_
_atom_site_type_symbol
_atom_site_label
_atom_site_fract_x
_atom_site_fract_y
_atom_site_fract_z
Si Si1 0.358590 0.911951 0.172165
Si Si2 0.753403 0.249996 0.898399
Si Si3 0.427673 0.100888 0.925463
Si Si4 0.873399 0.252246 0.044657
Si Si5 0.974365 0.886682 0.450183
Si Si6 0.024222 0.105630 0.760305
Si Si7 0.319154 0.768401 0.800630
O O1 0.311879 0.918056 0.120276
O O2 0.465501 0.813012 0.187129
O O3 0.144164 0.915901 0.195047
O O4 0.500000 0.000000 0.187228
O O5 0.629385 0.156764 0.912840
O O6 0.643893 0.343616 0.918513
O O7 0.784306 0.261521 0.846350
O O8 0.976032 0.235003 0.915897
O O9 0.283088 0.161413 0.958483
O O10 0.500000 0.000000 0.947670
O O11 0.750408 0.348232 0.059833
O O12 0.000000 0.265920 0.000000
O O13 0.000000 0.851040 0.500000
O O14 0.000000 0.000000 0.445025
O O15 0.814563 0.156204 0.772928
O O16 0.151658 0.171690 0.727408
O O17 0.000000 0.000000 0.737422
#
# Coordination Sequence:
#
# PCOD8163482 Si02
#       7
#     8   8   8   8   8   8   8
#     4  10  19  38  61  89 118 160 213 254 296 364
#     4  10  22  40  61  90 124 161 202 250 306 358
#     4   9  21  38  60  88 125 162 202 248 299 354
#     4  11  21  39  65  90 123 158 203 250 296 362
#     4  10  21  40  66  91 120 158 201 251 304 358
#     4  12  23  37  64  92 121 166 212 250 307 368
#     4  11  23  39  61  89 129 162 199 259 309 360
#
# _framework density 19.994019000000002
#
# number of rings (size 3 to 8) (size 9 to 14) (size 15 to 20)
#    0.000    1.571    4.286    0.857    0.000    1.714 
#    0.000    2.143    6.286    0.000    0.000    0.000 
#    0.000    0.000    0.000    0.000    0.000    0.000 
#
# Total GULP energy -347152.451207 kJ/mol
# GULP energy per Si atom -12398.301829 kJ/mol
# Density = 1.994851 g / cm^3
# Si number density = 19.994019 Si / 1000 Ang^3
#
#
#
# Elastic Constant Matrix: (Units=GPa)
#
#
# Indices 1 2 3 4 5 6 
#
# 1 85.8609 42.5281 17.0047 0.0000 0.0000 0.0000
# 2 42.5281 140.7842 37.8827 0.0000 0.0000 0.0000
# 3 17.0047 37.8827 60.5946 0.0000 0.0000 0.0000
# 4 0.0000 0.0000 0.0000 26.6095 0.0000 0.0000
# 5 0.0000 0.0000 0.0000 0.0000 37.1182 0.0000
# 6 0.0000 0.0000 0.0000 0.0000 0.0000 24.4605
#
#
#
# Elastic Compliance Matrix: (Units=1/GPa)
#
#
# Indices 1 2 3 4 5 6 
#
# 1 0.013812 -0.003762 -0.001524 0.000000 0.000000 0.000000
# 2 -0.003762 0.009564 -0.004924 0.000000 0.000000 0.000000
# 3 -0.001524 -0.004924 0.020009 0.000000 0.000000 0.000000
# 4 0.000000 0.000000 0.000000 0.037581 0.000000 0.000000
# 5 0.000000 0.000000 0.000000 0.000000 0.026941 0.000000
# 6 0.000000 0.000000 0.000000 0.000000 0.000000 0.040882
#
#
# Mechanical properties :
#
#
# Convention : Reuss Voigt Hill
#
# Bulk Modulus (GPa) = 43.54340 53.56341 48.55341
# Shear Modulus (GPa) = 28.27022 30.29258 29.28140
#
# Velocity S-wave (km/s) = 3.76431 3.89663 3.83104
# Velocity P-wave (km/s) = 6.38113 6.86242 6.62615
#
# Compressibility (1/GPa) = 0.02296559
#
# Stress axis : x y z
#
# Youngs Moduli (GPa) = 72.40041 104.55360 49.97745
#
# Poissons Ratio (x) = 0.39336 0.07617
# Poissons Ratio (y) = 0.27239 0.24608
# Poissons Ratio (z) = 0.11034 0.51479
#
# Static dielectric constant tensor:
#      x y z
#    x 3.581840 0.000000 0.000000 
#    y 0.000000 3.691390 0.000000 
#    z 0.000000 0.000000 3.611420 
# 
# 
# High freq. dielectric constant tensor:
#      x y z
#    x 1.782870 0.000000 0.000000 
#    y 0.000000 1.781750 0.000000 
#    z 0.000000 0.000000 1.771070 
# 
# From -- ./inp_files/29963.got.cif
#   From: 2010.03.12/outbox.cif.g09.slc.cpg/sg23_15_cif.got.tgz:29963.got - 2010.04.14 02:50:06.
