data_PCOD8163880
_publ_section_title
;
Structure prediction by ZEFSAII (Michael W. Deem and Ramdas Pophale) SiO2 
 PCOD8163880
Probable space group: I 2 2 2
;
_chemical_formula_sum "Si O2"
_cell_formula_units_Z 46
_cell_length_a 8.028042
_cell_length_b 11.820271
_cell_length_c 22.910740
_cell_angle_alpha 90.000000
_cell_angle_beta 90.000000
_cell_angle_gamma 90.000000
_cell_volume 2174.083331
_symmetry_space_group_name_H-M "I 2 2 2"
_symmetry_group_IT_number 23
_symmetry_cell_setting 'orthorhombic'
loop_
_space_group_symop_operation_xyz
x,y,z
-x,-y,z
x,-y,-z
-x,y,-z
1/2+x,1/2+y,1/2+z
1/2-x,1/2-y,1/2+z
1/2+x,1/2-y,1/2-z
1/2-x,1/2+y,1/2-z
loop_
_atom_site_type_symbol
_atom_site_label
_atom_site_fract_x
_atom_site_fract_y
_atom_site_fract_z
Si Si1 0.500000 0.500000 0.362033
Si Si2 0.325935 0.945654 0.669741
Si Si3 0.328275 0.346417 0.726943
Si Si4 0.641500 0.314376 0.079768
Si Si5 0.611609 0.338680 0.822844
Si Si6 0.836912 0.886937 0.966327
Si Si7 0.000000 0.000000 0.500000
O O1 0.367262 0.564639 0.322941
O O2 0.390557 0.415495 0.400705
O O3 0.327103 0.893546 0.734911
O O4 0.292119 0.845550 0.623561
O O5 0.500000 0.000000 0.653747
O O6 0.170989 0.033201 0.665789
O O7 0.485508 0.328912 0.768905
O O8 0.275939 0.231527 0.694275
O O9 0.474550 0.290379 0.118075
O O10 0.691308 0.206579 0.039512
O O11 0.619319 0.421042 0.037944
O O12 0.000000 0.838634 0.000000
O O13 0.771404 0.000000 0.000000
#
# Coordination Sequence:
#
# PCOD8163880 Si02
#       7
#     4   8   8   8   8   8   2
#     4  10  21  39  66  88 131 175 216 268 336 390
#     4  11  23  40  61 101 137 173 224 274 333 416
#     4  11  22  38  63  94 139 177 215 268 335 404
#     4  11  24  44  69  94 136 170 226 282 345 397
#     4  11  23  40  61 103 137 176 218 276 331 411
#     4   9  23  45  66  98 129 170 231 285 331 404
#     4  12  24  46  68  92 130 180 210 294 346 384
#
# _framework density 21.158342999999999
#
# number of rings (size 3 to 8) (size 9 to 14) (size 15 to 20)
#    0.000    1.565    3.478    2.087    7.304    5.565 
#    0.000    2.174    0.000    0.000    0.000    0.000 
#    0.000    0.000    0.000    0.000    0.000    0.000 
#
# Total GULP energy -285195.024824 kJ/mol
# GULP energy per Si atom -12399.783688 kJ/mol
# Density = 2.111019 g / cm^3
# Si number density = 21.158343 Si / 1000 Ang^3
#
#
#
# Elastic Constant Matrix: (Units=GPa)
#
#
# Indices 1 2 3 4 5 6 
#
# 1 67.0914 31.1201 28.1376 0.0000 0.0000 0.0000
# 2 31.1201 107.5419 45.7689 0.0000 0.0000 0.0000
# 3 28.1376 45.7689 124.7841 0.0000 0.0000 0.0000
# 4 0.0000 0.0000 0.0000 36.0943 0.0000 0.0000
# 5 0.0000 0.0000 0.0000 0.0000 20.6497 0.0000
# 6 0.0000 0.0000 0.0000 0.0000 0.0000 45.5781
#
#
#
# Elastic Compliance Matrix: (Units=1/GPa)
#
#
# Indices 1 2 3 4 5 6 
#
# 1 0.017864 -0.004094 -0.002526 0.000000 0.000000 0.000000
# 2 -0.004094 0.011957 -0.003462 0.000000 0.000000 0.000000
# 3 -0.002526 -0.003462 0.009854 0.000000 0.000000 0.000000
# 4 0.000000 0.000000 0.000000 0.027705 0.000000 0.000000
# 5 0.000000 0.000000 0.000000 0.000000 0.048427 0.000000
# 6 0.000000 0.000000 0.000000 0.000000 0.000000 0.021940
#
#
# Mechanical properties :
#
#
# Convention : Reuss Voigt Hill
#
# Bulk Modulus (GPa) = 51.26054 56.60786 53.93420
# Shear Modulus (GPa) = 30.41076 33.42378 31.91727
#
# Velocity S-wave (km/s) = 3.79528 3.97885 3.88815
# Velocity P-wave (km/s) = 6.59433 6.92249 6.76040
#
# Compressibility (1/GPa) = 0.01950818
#
# Stress axis : x y z
#
# Youngs Moduli (GPa) = 55.97960 83.63275 101.48665
#
# Poissons Ratio (x) = 0.34240 0.25640
# Poissons Ratio (y) = 0.22919 0.35140
# Poissons Ratio (z) = 0.14143 0.28958
#
# Static dielectric constant tensor:
#      x y z
#    x 3.557120 0.000000 0.000000 
#    y 0.000000 3.885720 0.000000 
#    z 0.000000 0.000000 4.023050 
# 
# 
# High freq. dielectric constant tensor:
#      x y z
#    x 1.814100 0.000000 0.000000 
#    y 0.000000 1.829060 0.000000 
#    z 0.000000 0.000000 1.841110 
# 
# From -- ./inp_files/28018.got.cif
#   From: 2010.03.12/outbox.cif.g09.slc.cpg/sg23_15_cif.got.tgz:28018.got - 2010.04.14 02:50:06.
