data_PCOD8163267
_publ_section_title
;
Structure prediction by ZEFSAII (Michael W. Deem and Ramdas Pophale) SiO2 
 PCOD8163267
Probable space group: I 2 2 2
;
_chemical_formula_sum "Si O2"
_cell_formula_units_Z 48
_cell_length_a 13.969887
_cell_length_b 13.003321
_cell_length_c 16.014467
_cell_angle_alpha 90.000000
_cell_angle_beta 90.000000
_cell_angle_gamma 90.000000
_cell_volume 2909.106802
_symmetry_space_group_name_H-M "I 2 2 2"
_symmetry_group_IT_number 23
_symmetry_cell_setting 'orthorhombic'
loop_
_space_group_symop_operation_xyz
x,y,z
-x,-y,z
x,-y,-z
-x,y,-z
1/2+x,1/2+y,1/2+z
1/2-x,1/2-y,1/2+z
1/2+x,1/2-y,1/2-z
1/2-x,1/2+y,1/2-z
loop_
_atom_site_type_symbol
_atom_site_label
_atom_site_fract_x
_atom_site_fract_y
_atom_site_fract_z
Si Si1 0.292648 0.552572 0.416080
Si Si2 0.889416 0.274534 0.174183
Si Si3 0.707721 0.963443 0.252127
Si Si4 0.435254 0.092007 0.640380
Si Si5 0.109991 0.247599 0.012464
Si Si6 0.900176 0.045682 0.220095
O O1 0.255782 0.500000 0.500000
O O2 0.204743 0.546499 0.349485
O O3 0.328001 0.667572 0.434443
O O4 0.382795 0.490037 0.376382
O O5 0.812119 0.349732 0.214971
O O6 0.895686 0.168714 0.224988
O O7 0.995918 0.321709 0.180225
O O8 0.848932 0.260914 0.080369
O O9 0.634248 0.048511 0.287495
O O10 0.815278 0.998754 0.278072
O O11 0.380917 0.143934 0.562204
O O12 0.500000 0.000000 0.603788
O O13 0.000000 0.211751 0.000000
O O14 0.000000 0.000000 0.253160
#
# Coordination Sequence:
#
# PCOD8163267 Si02
#       6
#     8   8   8   8   8   8
#     4  10  20  31  49  74 108 132 172 212 262 313
#     4  10  19  33  52  78 105 135 174 212 272 317
#     4   9  22  32  50  73 111 139 169 212 262 321
#     4   9  19  34  49  77 107 137 168 210 258 323
#     4  10  18  29  54  79 104 136 164 215 275 318
#     4  10  20  32  49  76 104 134 169 214 263 319
#
# _framework density 16.49991
#
# number of rings (size 3 to 8) (size 9 to 14) (size 15 to 20)
#    1.000    1.333    1.667    2.000    2.333    7.667 
#    0.000    0.000    0.000    4.500    0.000    2.333 
#    0.000    0.000    0.000    0.000    0.000    0.000 
#
# Total GULP energy -297357.001241 kJ/mol
# GULP energy per Si atom -12389.875052 kJ/mol
# Density = 1.646236 g / cm^3
# Si number density = 16.499910 Si / 1000 Ang^3
#
#
#
# Elastic Constant Matrix: (Units=GPa)
#
#
# Indices 1 2 3 4 5 6 
#
# 1 72.1924 52.8158 34.2751 0.0000 0.0000 0.0000
# 2 52.8158 133.6181 34.2667 0.0000 0.0000 0.0000
# 3 34.2751 34.2667 63.5594 0.0000 0.0000 0.0000
# 4 0.0000 0.0000 0.0000 31.4308 0.0000 0.0000
# 5 0.0000 0.0000 0.0000 0.0000 29.0183 0.0000
# 6 0.0000 0.0000 0.0000 0.0000 0.0000 28.3726
#
#
#
# Elastic Compliance Matrix: (Units=1/GPa)
#
#
# Indices 1 2 3 4 5 6 
#
# 1 0.023005 -0.006860 -0.008707 0.000000 0.000000 0.000000
# 2 -0.006860 0.010731 -0.002086 0.000000 0.000000 0.000000
# 3 -0.008707 -0.002086 0.021553 0.000000 0.000000 0.000000
# 4 0.000000 0.000000 0.000000 0.031816 0.000000 0.000000
# 5 0.000000 0.000000 0.000000 0.000000 0.034461 0.000000
# 6 0.000000 0.000000 0.000000 0.000000 0.000000 0.035245
#
#
# Mechanical properties :
#
#
# Convention : Reuss Voigt Hill
#
# Bulk Modulus (GPa) = 50.04368 56.89833 53.47101
# Shear Modulus (GPa) = 25.15380 27.63183 26.39281
#
# Velocity S-wave (km/s) = 3.90870 4.09671 4.00381
# Velocity P-wave (km/s) = 7.12503 7.54561 7.33833
#
# Compressibility (1/GPa) = 0.01998254
#
# Stress axis : x y z
#
# Youngs Moduli (GPa) = 43.46952 93.19169 46.39702
#
# Poissons Ratio (x) = 0.63932 0.40398
# Poissons Ratio (y) = 0.29821 0.09677
# Poissons Ratio (z) = 0.37849 0.19437
#
# Static dielectric constant tensor:
#      x y z
#    x 2.862440 0.000000 0.000000 
#    y 0.000000 3.247850 0.000000 
#    z 0.000000 0.000000 2.966140 
# 
# 
# High freq. dielectric constant tensor:
#      x y z
#    x 1.603330 0.000000 0.000000 
#    y 0.000000 1.654490 0.000000 
#    z 0.000000 0.000000 1.612380 
# 
# From -- ./inp_files/17463.got.cif
#   From: 2010.03.12/outbox.cif.g09.slc.cpg/sg23_9_cif.got.tgz:17463.got - 2010.04.14 02:50:06.
