data_PCOD8163110
_publ_section_title
;
Structure prediction by ZEFSAII (Michael W. Deem and Ramdas Pophale) SiO2 
 PCOD8163110
Probable space group: F 2 2 2
;
_chemical_formula_sum "Si O2"
_cell_formula_units_Z 40
_cell_length_a 14.151339
_cell_length_b 11.160413
_cell_length_c 11.160375
_cell_angle_alpha 90.000000
_cell_angle_beta 90.000000
_cell_angle_gamma 90.000000
_cell_volume 1762.611457
_symmetry_space_group_name_H-M "F 2 2 2"
_symmetry_group_IT_number 22
_symmetry_cell_setting 'orthorhombic'
loop_
_space_group_symop_operation_xyz
x,y,z
-x,-y,z
x,-y,-z
-x,y,-z
x,1/2+y,1/2+z
-x,1/2-y,1/2+z
x,1/2-y,1/2-z
-x,1/2+y,1/2-z
1/2+x,y,1/2+z
1/2-x,-y,1/2+z
1/2+x,-y,1/2-z
1/2-x,y,1/2-z
1/2+x,1/2+y,z
1/2-x,1/2-y,z
1/2+x,1/2-y,-z
1/2-x,1/2+y,-z
loop_
_atom_site_type_symbol
_atom_site_label
_atom_site_fract_x
_atom_site_fract_y
_atom_site_fract_z
Si Si1 0.907359 0.427671 0.161644
Si Si2 0.750000 0.500000 0.500000
Si Si3 0.592640 0.338356 0.072329
O O1 0.904762 0.409309 0.302889
O O2 0.904762 0.302889 0.090690
O O3 0.000000 0.500000 0.123330
O O4 0.815919 0.502477 0.118725
O O5 0.815919 0.618725 0.497523
O O6 0.500000 0.376670 0.000000
#
# Coordination Sequence:
#
# PCOD8163110 Si02
#       3
#    16   8  16
#     4  11  24  43  67  97 137 184 230 280 340 405
#     4  12  22  38  64  96 132 174 226 278 328 396
#     4  11  24  43  67  97 137 184 230 280 340 405
#
# _framework density 22.693601000000001
#
# number of rings (size 3 to 8) (size 9 to 14) (size 15 to 20)
#    0.000    0.800    0.000    8.400    0.000    3.200 
#    0.000    0.000    0.000    4.800    0.000    0.000 
#    0.000    0.000    0.000    0.000    0.000    0.000 
#
# Total GULP energy -124028.359974 kJ/mol
# GULP energy per Si atom -12402.835997 kJ/mol
# Density = 2.264195 g / cm^3
# Si number density = 22.693601 Si / 1000 Ang^3
#
#
#
# Elastic Constant Matrix: (Units=GPa)
#
#
# Indices 1 2 3 4 5 6 
#
# 1 228.6205 87.0323 87.0324 0.0000 0.0000 0.0000
# 2 87.0323 143.7143 69.8183 0.0000 0.0000 0.0000
# 3 87.0324 69.8183 143.7134 0.0000 0.0000 0.0000
# 4 0.0000 0.0000 0.0000 43.2882 0.0000 0.0000
# 5 0.0000 0.0000 0.0000 0.0000 41.4438 0.0000
# 6 0.0000 0.0000 0.0000 0.0000 0.0000 41.4449
#
#
#
# Elastic Compliance Matrix: (Units=1/GPa)
#
#
# Indices 1 2 3 4 5 6 
#
# 1 0.006342 -0.002585 -0.002585 0.000000 0.000000 0.000000
# 2 -0.002585 0.010161 -0.003371 0.000000 0.000000 0.000000
# 3 -0.002585 -0.003371 0.010162 0.000000 0.000000 0.000000
# 4 0.000000 0.000000 0.000000 0.023101 0.000000 0.000000
# 5 0.000000 0.000000 0.000000 0.000000 0.024129 0.000000
# 6 0.000000 0.000000 0.000000 0.000000 0.000000 0.024128
#
#
# Mechanical properties :
#
#
# Convention : Reuss Voigt Hill
#
# Bulk Modulus (GPa) = 104.35215 111.53492 107.94353
# Shear Modulus (GPa) = 42.26539 43.37972 42.82256
#
# Velocity S-wave (km/s) = 4.32028 4.37686 4.34866
# Velocity P-wave (km/s) = 8.42433 8.64855 8.53717
#
# Compressibility (1/GPa) = 0.00958294
#
# Stress axis : x y z
#
# Youngs Moduli (GPa) = 157.67445 98.41138 98.41053
#
# Poissons Ratio (x) = 0.25439 0.25439
# Poissons Ratio (y) = 0.40758 0.33176
# Poissons Ratio (z) = 0.40759 0.33176
#
# Static dielectric constant tensor:
#      x y z
#    x 4.337520 0.000000 0.000000 
#    y 0.000000 4.086660 0.000000 
#    z 0.000000 0.000000 4.086630 
# 
# 
# High freq. dielectric constant tensor:
#      x y z
#    x 1.915520 0.000000 0.000000 
#    y 0.000000 1.895040 0.000000 
#    z 0.000000 0.000000 1.895040 
# 
# From -- ./inp_files/17302.got.cif
#   From: 2010.03.12/outbox.cif.g09.slc.cpg/sg22_9_cif.got.tgz:17302.got - 2010.04.14 02:24:06.
