data_PCOD8163463
_publ_section_title
;
Structure prediction by ZEFSAII (Michael W. Deem and Ramdas Pophale) SiO2 
 PCOD8163463
Probable space group: I 2 2 2
;
_chemical_formula_sum "Si O2"
_cell_formula_units_Z 36
_cell_length_a 18.398911
_cell_length_b 9.316603
_cell_length_c 10.810679
_cell_angle_alpha 90.000000
_cell_angle_beta 90.000000
_cell_angle_gamma 90.000000
_cell_volume 1853.116318
_symmetry_space_group_name_H-M "I 2 2 2"
_symmetry_group_IT_number 23
_symmetry_cell_setting 'orthorhombic'
loop_
_space_group_symop_operation_xyz
x,y,z
-x,-y,z
x,-y,-z
-x,y,-z
1/2+x,1/2+y,1/2+z
1/2-x,1/2-y,1/2+z
1/2+x,1/2-y,1/2-z
1/2-x,1/2+y,1/2-z
loop_
_atom_site_type_symbol
_atom_site_label
_atom_site_fract_x
_atom_site_fract_y
_atom_site_fract_z
Si Si1 0.794430 0.526583 0.359913
Si Si2 0.643647 0.000000 0.500000
Si Si3 0.064850 0.598682 0.752979
Si Si4 0.480971 0.335768 0.361561
Si Si5 0.681879 0.770774 0.326529
O O1 0.773235 0.500000 0.500000
O O2 0.872348 0.604321 0.349633
O O3 0.734152 0.635452 0.308859
O O4 0.798687 0.376779 0.286497
O O5 0.594046 0.965673 0.617881
O O6 0.692077 0.862250 0.455494
O O7 0.000000 0.500000 0.703541
O O8 0.036349 0.758873 0.769018
O O9 0.500000 0.500000 0.344942
O O10 0.500000 0.284021 0.500000
O O11 0.399353 0.293979 0.323935
#
# Coordination Sequence:
#
# PCOD8163463 Si02
#       5
#     8   4   8   8   8
#     4  11  28  42  63  96 135 179 218 261 336 405
#     4  10  19  36  68  94 122 163 226 270 329 366
#     4  11  19  41  64  90 123 169 221 267 321 383
#     4  11  22  36  67 103 126 161 223 288 325 366
#     4  11  25  42  66  95 135 173 217 280 332 387
#
# _framework density 19.426735999999998
#
# number of rings (size 3 to 8) (size 9 to 14) (size 15 to 20)
#    0.000    1.111    6.667    0.333   12.444    0.444 
#    0.000    0.000    0.000    1.333    0.000    0.000 
#    0.000    0.000    0.000    0.000    0.000    0.000 
#
# Total GULP energy -223089.080488 kJ/mol
# GULP energy per Si atom -12393.837805 kJ/mol
# Density = 1.938252 g / cm^3
# Si number density = 19.426736 Si / 1000 Ang^3
#
#
#
# Elastic Constant Matrix: (Units=GPa)
#
#
# Indices 1 2 3 4 5 6 
#
# 1 118.8611 65.5837 33.7856 0.0000 0.0000 0.0000
# 2 65.5837 127.4864 37.5644 0.0000 0.0000 0.0000
# 3 33.7856 37.5644 58.6868 0.0000 0.0000 0.0000
# 4 0.0000 0.0000 0.0000 18.1797 0.0000 0.0000
# 5 0.0000 0.0000 0.0000 0.0000 23.0153 0.0000
# 6 0.0000 0.0000 0.0000 0.0000 0.0000 46.7909
#
#
#
# Elastic Compliance Matrix: (Units=1/GPa)
#
#
# Indices 1 2 3 4 5 6 
#
# 1 0.012387 -0.005264 -0.003762 0.000000 0.000000 0.000000
# 2 -0.005264 0.011904 -0.004589 0.000000 0.000000 0.000000
# 3 -0.003762 -0.004589 0.022143 0.000000 0.000000 0.000000
# 4 0.000000 0.000000 0.000000 0.055006 0.000000 0.000000
# 5 0.000000 0.000000 0.000000 0.000000 0.043449 0.000000
# 6 0.000000 0.000000 0.000000 0.000000 0.000000 0.021372
#
#
# Mechanical properties :
#
#
# Convention : Reuss Voigt Hill
#
# Bulk Modulus (GPa) = 52.07242 64.32242 58.19742
# Shear Modulus (GPa) = 25.01346 28.80387 26.90867
#
# Velocity S-wave (km/s) = 3.59218 3.85475 3.72578
# Velocity P-wave (km/s) = 6.63835 7.27972 6.96642
#
# Compressibility (1/GPa) = 0.01920402
#
# Stress axis : x y z
#
# Youngs Moduli (GPa) = 80.73073 84.00435 45.16150
#
# Poissons Ratio (x) = 0.44219 0.16989
# Poissons Ratio (y) = 0.42495 0.20726
# Poissons Ratio (z) = 0.30369 0.38552
#
# Static dielectric constant tensor:
#      x y z
#    x 3.690880 0.000000 0.000000 
#    y 0.000000 3.862790 0.000000 
#    z 0.000000 0.000000 3.386700 
# 
# 
# High freq. dielectric constant tensor:
#      x y z
#    x 1.760660 0.000000 0.000000 
#    y 0.000000 1.772740 0.000000 
#    z 0.000000 0.000000 1.726940 
# 
# From -- ./inp_files/17236.got.cif
#   From: 2010.03.12/outbox.cif.g09.slc.cpg/sg23_9_cif.got.tgz:17236.got - 2010.04.14 02:50:06.
