data_PCOD8163458
_publ_section_title
;
Structure prediction by ZEFSAII (Michael W. Deem and Ramdas Pophale) SiO2 
 PCOD8163458
Probable space group: I 2 2 2
;
_chemical_formula_sum "Si O2"
_cell_formula_units_Z 40
_cell_length_a 5.057043
_cell_length_b 33.207750
_cell_length_c 11.594523
_cell_angle_alpha 90.000000
_cell_angle_beta 90.000000
_cell_angle_gamma 90.000000
_cell_volume 1947.103259
_symmetry_space_group_name_H-M "I 2 2 2"
_symmetry_group_IT_number 23
_symmetry_cell_setting 'orthorhombic'
loop_
_space_group_symop_operation_xyz
x,y,z
-x,-y,z
x,-y,-z
-x,y,-z
1/2+x,1/2+y,1/2+z
1/2-x,1/2-y,1/2+z
1/2+x,1/2-y,1/2-z
1/2-x,1/2+y,1/2-z
loop_
_atom_site_type_symbol
_atom_site_label
_atom_site_fract_x
_atom_site_fract_y
_atom_site_fract_z
Si Si1 0.000000 0.336030 0.500000
Si Si2 0.418063 0.609629 0.871287
Si Si3 0.150701 0.733271 0.209273
Si Si4 0.246365 0.018520 0.628169
Si Si5 0.000000 0.220043 0.000000
Si Si6 0.413423 0.141924 0.252165
O O1 0.746870 0.308669 0.516005
O O2 0.036618 0.363608 0.614919
O O3 0.276186 0.566309 0.874573
O O4 0.190154 0.638050 0.820110
O O5 0.684157 0.610798 0.793132
O O6 0.500000 0.623227 0.000000
O O7 0.438779 0.754108 0.191186
O O8 0.199457 0.685826 0.216138
O O9 0.964619 0.749722 0.106225
O O10 0.500000 0.000000 0.693673
O O11 0.248248 0.000000 0.500000
O O12 0.000000 0.000000 0.697508
#
# Coordination Sequence:
#
# PCOD8163458 Si02
#       6
#     4   8   8   8   4   8
#     4  12  24  46  64  84 121 186 242 266 315 392
#     4  12  25  41  62 102 143 162 201 277 348 400
#     4  12  23  42  61  90 116 170 233 278 345 375
#     4  10  19  36  64  92 130 168 204 234 312 424
#     4  12  22  40  66  84 120 160 234 304 318 404
#     4  12  26  42  62  95 133 179 220 285 334 391
#
# _framework density 20.543340000000001
#
# number of rings (size 3 to 8) (size 9 to 14) (size 15 to 20)
#    0.000    0.400    6.000    4.200    5.600    0.000 
#    0.000    0.000    0.000    0.000    0.000   10.500 
#    0.000    0.000    0.000    0.000    0.000    0.000 
#
# Total GULP energy -247784.227028 kJ/mol
# GULP energy per Si atom -12389.211351 kJ/mol
# Density = 2.049658 g / cm^3
# Si number density = 20.543340 Si / 1000 Ang^3
#
#
#
# Elastic Constant Matrix: (Units=GPa)
#
#
# Indices 1 2 3 4 5 6 
#
# 1 165.5298 30.8573 36.1249 0.0000 0.0000 0.0000
# 2 30.8573 78.2056 34.6068 0.0000 0.0000 0.0000
# 3 36.1249 34.6068 106.0141 0.0000 -0.0001 0.0000
# 4 0.0000 0.0000 0.0000 15.1214 0.0000 0.0000
# 5 0.0000 0.0000 -0.0001 0.0000 22.9587 0.0000
# 6 0.0000 0.0000 0.0000 0.0000 0.0000 51.2682
#
#
#
# Elastic Compliance Matrix: (Units=1/GPa)
#
#
# Indices 1 2 3 4 5 6 
#
# 1 0.006766 -0.001928 -0.001676 0.000000 0.000000 0.000000
# 2 -0.001928 0.015495 -0.004401 0.000000 0.000000 0.000000
# 3 -0.001676 -0.004401 0.011441 0.000000 0.000000 0.000000
# 4 0.000000 0.000000 0.000000 0.066132 0.000000 0.000000
# 5 0.000000 0.000000 0.000000 0.000000 0.043557 0.000000
# 6 0.000000 0.000000 0.000000 0.000000 0.000000 0.019505
#
#
# Mechanical properties :
#
#
# Convention : Reuss Voigt Hill
#
# Bulk Modulus (GPa) = 56.52549 61.43639 58.98094
# Shear Modulus (GPa) = 27.05575 34.41369 30.73472
#
# Velocity S-wave (km/s) = 3.63300 4.09733 3.87213
# Velocity P-wave (km/s) = 6.72110 7.23566 6.98312
#
# Compressibility (1/GPa) = 0.01769113
#
# Stress axis : x y z
#
# Youngs Moduli (GPa) = 147.78778 64.53653 87.40775
#
# Poissons Ratio (x) = 0.12443 0.14652
# Poissons Ratio (y) = 0.28494 0.38470
# Poissons Ratio (z) = 0.24774 0.28404
#
# Static dielectric constant tensor:
#      x y z
#    x 4.537040 0.000000 0.000000 
#    y 0.000000 3.562430 0.000000 
#    z 0.000000 0.000000 3.803720 
# 
# 
# High freq. dielectric constant tensor:
#      x y z
#    x 1.844680 0.000000 0.000000 
#    y 0.000000 1.784060 0.000000 
#    z 0.000000 0.000000 1.773410 
# 
# From -- ./inp_files/13908.got.cif
#   From: 2010.03.12/outbox.cif.g09.slc.cpg/sg23_7_cif.got.tgz:13908.got - 2010.04.14 02:50:06.
