data_PCOD8163309
_publ_section_title
;
Structure prediction by ZEFSAII (Michael W. Deem and Ramdas Pophale) SiO2 
 PCOD8163309
Probable space group: I 2 2 2
;
_chemical_formula_sum "Si O2"
_cell_formula_units_Z 48
_cell_length_a 9.082521
_cell_length_b 9.358294
_cell_length_c 28.376217
_cell_angle_alpha 90.000000
_cell_angle_beta 90.000000
_cell_angle_gamma 90.000000
_cell_volume 2411.890529
_symmetry_space_group_name_H-M "I 2 2 2"
_symmetry_group_IT_number 23
_symmetry_cell_setting 'orthorhombic'
loop_
_space_group_symop_operation_xyz
x,y,z
-x,-y,z
x,-y,-z
-x,y,-z
1/2+x,1/2+y,1/2+z
1/2-x,1/2-y,1/2+z
1/2+x,1/2-y,1/2-z
1/2-x,1/2+y,1/2-z
loop_
_atom_site_type_symbol
_atom_site_label
_atom_site_fract_x
_atom_site_fract_y
_atom_site_fract_z
Si Si1 0.147596 0.082021 0.657438
Si Si2 0.345263 0.185860 0.083318
Si Si3 0.336910 0.331171 0.494140
Si Si4 0.770823 0.303167 0.189790
Si Si5 0.003463 0.162365 0.749664
Si Si6 0.815687 0.362756 0.598053
O O1 0.209100 0.191095 0.618888
O O2 0.108784 0.171257 0.704044
O O3 0.272190 0.963940 0.669279
O O4 0.000000 0.000000 0.639558
O O5 0.520751 0.177862 0.081782
O O6 0.285819 0.032394 0.100273
O O7 0.277769 0.229826 0.032709
O O8 0.339083 0.500000 0.500000
O O9 0.500000 0.265597 0.500000
O O10 0.286582 0.289916 0.441527
O O11 0.932948 0.264193 0.209262
O O12 0.658024 0.286267 0.233733
O O13 0.722135 0.194325 0.149333
O O14 0.000000 0.000000 0.768821
#
# Coordination Sequence:
#
# PCOD8163309 Si02
#       6
#     8   8   8   8   8   8
#     4   9  18  37  58  82 120 153 191 245 295 349
#     4  10  18  34  62  86 117 151 201 242 286 356
#     4   9  19  36  56  87 123 149 187 247 301 342
#     4  10  20  40  61  84 120 156 200 245 302 354
#     4   9  20  39  58  84 120 154 199 254 294 357
#     4  10  19  34  60  89 113 154 202 246 279 352
#
# _framework density 19.901399999999999
#
# number of rings (size 3 to 8) (size 9 to 14) (size 15 to 20)
#    0.000    2.833    3.333    0.500    0.000    4.667 
#    9.000    0.833    0.000    1.000    0.000    0.000 
#    0.000    0.000    0.000    0.000    0.000    0.000 
#
# Total GULP energy -297490.390767 kJ/mol
# GULP energy per Si atom -12395.432949 kJ/mol
# Density = 1.985610 g / cm^3
# Si number density = 19.901400 Si / 1000 Ang^3
#
#
#
# Elastic Constant Matrix: (Units=GPa)
#
#
# Indices 1 2 3 4 5 6 
#
# 1 74.5536 30.7473 51.9578 0.0000 0.0000 0.0000
# 2 30.7473 75.1839 51.4761 0.0000 0.0000 0.0000
# 3 51.9578 51.4761 77.8478 0.0000 0.0000 0.0000
# 4 0.0000 0.0000 0.0000 30.6485 0.0000 0.0000
# 5 0.0000 0.0000 0.0000 0.0000 33.2149 0.0000
# 6 0.0000 0.0000 0.0000 0.0000 0.0000 22.8508
#
#
#
# Elastic Compliance Matrix: (Units=1/GPa)
#
#
# Indices 1 2 3 4 5 6 
#
# 1 0.025279 0.002217 -0.018338 0.000000 0.000000 0.000000
# 2 0.002217 0.024498 -0.017679 0.000000 0.000000 0.000000
# 3 -0.018338 -0.017679 0.036775 0.000000 0.000000 0.000000
# 4 0.000000 0.000000 0.000000 0.032628 0.000000 0.000000
# 5 0.000000 0.000000 0.000000 0.000000 0.030107 0.000000
# 6 0.000000 0.000000 0.000000 0.000000 0.000000 0.043762
#
#
# Mechanical properties :
#
#
# Convention : Reuss Voigt Hill
#
# Bulk Modulus (GPa) = 52.76337 55.10529 53.93433
# Shear Modulus (GPa) = 18.72891 23.56976 21.14933
#
# Velocity S-wave (km/s) = 3.07104 3.44514 3.26345
# Velocity P-wave (km/s) = 6.25660 6.60110 6.43116
#
# Compressibility (1/GPa) = 0.01895254
#
# Stress axis : x y z
#
# Youngs Moduli (GPa) = 39.55885 40.81906 27.19224
#
# Poissons Ratio (x) = -0.09051 0.49865
# Poissons Ratio (y) = -0.08772 0.48074
# Poissons Ratio (z) = 0.72543 0.72165
#
# Static dielectric constant tensor:
#      x y z
#    x 3.525300 0.000000 0.000000 
#    y 0.000000 3.462710 0.000000 
#    z 0.000000 0.000000 3.572550 
# 
# 
# High freq. dielectric constant tensor:
#      x y z
#    x 1.759640 0.000000 0.000000 
#    y 0.000000 1.754040 0.000000 
#    z 0.000000 0.000000 1.773320 
# 
# From -- ./inp_files/30251.got.cif
#   From: 2010.03.12/outbox.cif.g09.slc.cpg/sg23_16_cif.got.tgz:30251.got - 2010.04.14 02:50:06.
