data_PCOD8163804
_publ_section_title
;
Structure prediction by ZEFSAII (Michael W. Deem and Ramdas Pophale) SiO2 
 PCOD8163804
Probable space group: I 2 2 2
;
_chemical_formula_sum "Si O2"
_cell_formula_units_Z 44
_cell_length_a 13.924285
_cell_length_b 11.242795
_cell_length_c 13.895658
_cell_angle_alpha 90.000000
_cell_angle_beta 90.000000
_cell_angle_gamma 90.000000
_cell_volume 2175.335826
_symmetry_space_group_name_H-M "I 2 2 2"
_symmetry_group_IT_number 23
_symmetry_cell_setting 'orthorhombic'
loop_
_space_group_symop_operation_xyz
x,y,z
-x,-y,z
x,-y,-z
-x,y,-z
1/2+x,1/2+y,1/2+z
1/2-x,1/2-y,1/2+z
1/2+x,1/2-y,1/2-z
1/2-x,1/2+y,1/2-z
loop_
_atom_site_type_symbol
_atom_site_label
_atom_site_fract_x
_atom_site_fract_y
_atom_site_fract_z
Si Si1 0.857556 0.105224 0.675528
Si Si2 0.433811 0.651760 0.791675
Si Si3 0.234976 0.000000 0.000000
Si Si4 0.203893 0.635184 0.015489
Si Si5 0.730390 0.809907 0.145380
Si Si6 0.420944 0.332066 0.423042
O O1 0.797967 0.142871 0.582118
O O2 0.804880 0.152114 0.771575
O O3 0.962833 0.162459 0.657132
O O4 0.871452 0.962845 0.677721
O O5 0.370522 0.768561 0.810036
O O6 0.464498 0.642483 0.680597
O O7 0.172704 0.911842 0.064415
O O8 0.295936 0.078937 0.075438
O O9 0.112061 0.695183 0.066810
O O10 0.173590 0.500000 0.000000
O O11 0.222041 0.702361 0.914641
O O12 0.500000 0.369660 0.500000
#
# Coordination Sequence:
#
# PCOD8163804 Si02
#       6
#     8   8   4   8   8   8
#     4  11  23  41  63  98 129 167 223 267 324 390
#     4  11  22  39  68  92 128 172 216 270 320 390
#     4  10  21  36  64  93 132 164 208 269 317 384
#     4  11  23  40  62  91 136 173 210 270 323 384
#     4  11  22  41  66  95 132 170 215 272 329 378
#     4  11  22  37  64  98 126 167 217 264 322 379
#
# _framework density 20.226762000000001
#
# number of rings (size 3 to 8) (size 9 to 14) (size 15 to 20)
#    0.000    1.091    5.455    2.455    2.545    1.091 
#    0.000    0.000    0.000   16.364    0.000    0.000 
#    0.000    0.000    0.000    0.000    0.000    0.000 
#
# Total GULP energy -272779.507199 kJ/mol
# GULP energy per Si atom -12399.068509 kJ/mol
# Density = 2.018072 g / cm^3
# Si number density = 20.226762 Si / 1000 Ang^3
#
#
#
# Elastic Constant Matrix: (Units=GPa)
#
#
# Indices 1 2 3 4 5 6 
#
# 1 84.1187 29.7340 17.6901 0.0000 0.0000 0.0000
# 2 29.7340 100.7073 19.7078 0.0000 0.0000 0.0000
# 3 17.6901 19.7078 58.1941 0.0000 0.0000 0.0000
# 4 0.0000 0.0000 0.0000 34.0118 0.0000 0.0000
# 5 0.0000 0.0000 0.0000 0.0000 28.9584 0.0000
# 6 0.0000 0.0000 0.0000 0.0000 0.0000 24.5783
#
#
#
# Elastic Compliance Matrix: (Units=1/GPa)
#
#
# Indices 1 2 3 4 5 6 
#
# 1 0.013746 -0.003471 -0.003003 0.000000 0.000000 0.000000
# 2 -0.003471 0.011511 -0.002843 0.000000 0.000000 0.000000
# 3 -0.003003 -0.002843 0.019060 0.000000 0.000000 0.000000
# 4 0.000000 0.000000 0.000000 0.029402 0.000000 0.000000
# 5 0.000000 0.000000 0.000000 0.000000 0.034532 0.000000
# 6 0.000000 0.000000 0.000000 0.000000 0.000000 0.040686
#
#
# Mechanical properties :
#
#
# Convention : Reuss Voigt Hill
#
# Bulk Modulus (GPa) = 38.93719 41.92044 40.42882
# Shear Modulus (GPa) = 28.38770 29.23558 28.81164
#
# Velocity S-wave (km/s) = 3.75036 3.80595 3.77826
# Velocity P-wave (km/s) = 6.16812 6.33119 6.25019
#
# Compressibility (1/GPa) = 0.02568239
#
# Stress axis : x y z
#
# Youngs Moduli (GPa) = 72.74612 86.87374 52.46683
#
# Poissons Ratio (x) = 0.30153 0.15757
# Poissons Ratio (y) = 0.25250 0.14917
# Poissons Ratio (z) = 0.21847 0.24699
#
# Static dielectric constant tensor:
#      x y z
#    x 3.521410 0.000000 0.000000 
#    y 0.000000 3.891390 0.000000 
#    z 0.000000 0.000000 3.846220 
# 
# 
# High freq. dielectric constant tensor:
#      x y z
#    x 1.774540 0.000000 0.000000 
#    y 0.000000 1.792950 0.000000 
#    z 0.000000 0.000000 1.798710 
# 
# From -- ./inp_files/16625.got.cif
#   From: 2010.03.12/outbox.cif.g09.slc.cpg/sg23_9_cif.got.tgz:16625.got - 2010.04.14 02:50:06.
