data_PCOD8163028
_publ_section_title
;
Structure prediction by ZEFSAII (Michael W. Deem and Ramdas Pophale) SiO2 
 PCOD8163028
Probable space group: F 2 2 2
;
_chemical_formula_sum "Si O2"
_cell_formula_units_Z 68
_cell_length_a 17.004832
_cell_length_b 20.649959
_cell_length_c 9.031572
_cell_angle_alpha 90.000000
_cell_angle_beta 90.000000
_cell_angle_gamma 90.000000
_cell_volume 3171.428231
_symmetry_space_group_name_H-M "F 2 2 2"
_symmetry_group_IT_number 22
_symmetry_cell_setting 'orthorhombic'
loop_
_space_group_symop_operation_xyz
x,y,z
-x,-y,z
x,-y,-z
-x,y,-z
x,1/2+y,1/2+z
-x,1/2-y,1/2+z
x,1/2-y,1/2-z
-x,1/2+y,1/2-z
1/2+x,y,1/2+z
1/2-x,-y,1/2+z
1/2+x,-y,1/2-z
1/2-x,y,1/2-z
1/2+x,1/2+y,z
1/2-x,1/2-y,z
1/2+x,1/2-y,-z
1/2-x,1/2+y,-z
loop_
_atom_site_type_symbol
_atom_site_label
_atom_site_fract_x
_atom_site_fract_y
_atom_site_fract_z
Si Si1 0.250000 0.623509 0.750000
Si Si2 0.366650 0.116557 0.705255
Si Si3 0.604072 0.467832 0.756749
Si Si4 0.000000 0.590790 0.500000
Si Si5 0.500000 0.000000 0.000000
Si Si6 0.776056 0.678119 0.944516
O O1 0.322914 0.578179 0.785115
O O2 0.281094 0.670344 0.620190
O O3 0.443930 0.135232 0.606482
O O4 0.289851 0.127269 0.606332
O O5 0.357050 0.159917 0.856138
O O6 0.369001 0.041844 0.750767
O O7 0.549799 0.456793 0.897361
O O8 0.554743 0.454251 0.605067
O O9 0.750000 0.750000 0.901118
#
# Coordination Sequence:
#
# PCOD8163028 Si02
#       6
#     8  16  16   8   4  16
#     4  12  25  40  68  96 137 170 232 282 324 400
#     4  11  21  41  69  95 131 170 217 271 338 411
#     4  12  24  40  65 105 134 172 210 278 353 411
#     4  12  23  42  68 103 143 170 202 275 370 405
#     4  12  24  38  60 102 150 164 208 268 352 424
#     4  11  25  44  69  92 130 184 237 272 323 385
#
# _framework density 21.441443
#
# number of rings (size 3 to 8) (size 9 to 14) (size 15 to 20)
#    0.000    0.471    4.706    6.000    0.000    1.882 
#    0.000    0.000   10.353    1.412    0.000    0.000 
#    0.000    0.000    0.000    0.000    0.000    0.000 
#
# Total GULP energy -210654.802013 kJ/mol
# GULP energy per Si atom -12391.458942 kJ/mol
# Density = 2.139264 g / cm^3
# Si number density = 21.441443 Si / 1000 Ang^3
#
#
#
# Elastic Constant Matrix: (Units=GPa)
#
#
# Indices 1 2 3 4 5 6 
#
# 1 103.8598 51.6808 59.8945 0.0000 0.0000 0.0000
# 2 51.6808 103.4195 52.9109 0.0000 0.0000 0.0000
# 3 59.8945 52.9109 180.2139 0.0000 0.0000 0.0000
# 4 0.0000 0.0000 0.0000 33.5469 0.0000 0.0000
# 5 0.0000 0.0000 0.0000 0.0000 50.8352 0.0000
# 6 0.0000 0.0000 0.0000 0.0000 0.0000 12.7639
#
#
#
# Elastic Compliance Matrix: (Units=1/GPa)
#
#
# Indices 1 2 3 4 5 6 
#
# 1 0.014139 -0.005485 -0.003089 0.000000 0.000000 0.000000
# 2 -0.005485 0.013507 -0.002142 0.000000 0.000000 0.000000
# 3 -0.003089 -0.002142 0.007205 0.000000 0.000000 0.000000
# 4 0.000000 0.000000 0.000000 0.029809 0.000000 0.000000
# 5 0.000000 0.000000 0.000000 0.000000 0.019671 0.000000
# 6 0.000000 0.000000 0.000000 0.000000 0.000000 0.078346
#
#
# Mechanical properties :
#
#
# Convention : Reuss Voigt Hill
#
# Bulk Modulus (GPa) = 74.53109 79.60729 77.06919
# Shear Modulus (GPa) = 26.51364 34.29634 30.40499
#
# Velocity S-wave (km/s) = 3.52029 4.00376 3.76978
# Velocity P-wave (km/s) = 7.16652 7.65387 7.41420
#
# Compressibility (1/GPa) = 0.01341722
#
# Stress axis : x y z
#
# Youngs Moduli (GPa) = 70.72601 74.03768 138.80191
#
# Poissons Ratio (x) = 0.40612 0.42871
# Poissons Ratio (y) = 0.38796 0.29738
# Poissons Ratio (z) = 0.21845 0.15862
#
# Static dielectric constant tensor:
#      x y z
#    x 3.778670 0.000000 0.000000 
#    y 0.000000 3.557880 0.000000 
#    z 0.000000 0.000000 4.458180 
# 
# 
# High freq. dielectric constant tensor:
#      x y z
#    x 1.840940 0.000000 0.000000 
#    y 0.000000 1.803650 0.000000 
#    z 0.000000 0.000000 1.871300 
# 
# From -- ./inp_files/11304.got.cif
#   From: 2010.03.12/outbox.cif.g09.slc.cpg/sg22_6_cif.got.tgz:11304.got - 2010.04.14 02:24:06.
