data_PCOD8163763
_publ_section_title
;
Structure prediction by ZEFSAII (Michael W. Deem and Ramdas Pophale) SiO2 
 PCOD8163763
Probable space group: I 2 2 2
;
_chemical_formula_sum "Si O2"
_cell_formula_units_Z 40
_cell_length_a 9.300270
_cell_length_b 24.445581
_cell_length_c 8.137946
_cell_angle_alpha 90.000000
_cell_angle_beta 90.000000
_cell_angle_gamma 90.000000
_cell_volume 1850.166121
_symmetry_space_group_name_H-M "I 2 2 2"
_symmetry_group_IT_number 23
_symmetry_cell_setting 'orthorhombic'
loop_
_space_group_symop_operation_xyz
x,y,z
-x,-y,z
x,-y,-z
-x,y,-z
1/2+x,1/2+y,1/2+z
1/2-x,1/2-y,1/2+z
1/2+x,1/2-y,1/2-z
1/2-x,1/2+y,1/2-z
loop_
_atom_site_type_symbol
_atom_site_label
_atom_site_fract_x
_atom_site_fract_y
_atom_site_fract_z
Si Si1 0.909857 0.856395 0.838110
Si Si2 0.500000 0.688151 0.000000
Si Si3 0.500000 0.000000 0.000000
Si Si4 0.230084 0.250899 0.342013
Si Si5 0.500000 0.000000 0.500000
Si Si6 0.638671 0.923426 0.759726
Si Si7 0.008434 0.316919 0.812602
O O1 0.824345 0.802591 0.898367
O O2 0.802815 0.903685 0.773947
O O3 0.004173 0.845384 0.672335
O O4 0.000000 0.875464 0.000000
O O5 0.354903 0.725551 0.999156
O O6 0.612820 0.963466 0.906955
O O7 0.333060 0.204158 0.264263
O O8 0.106841 0.268146 0.213031
O O9 0.393692 0.040578 0.598164
O O10 0.531191 0.871702 0.785066
O O11 0.000000 0.334028 0.000000
#
# Coordination Sequence:
#
# PCOD8163763 Si02
#       7
#     8   4   2   8   2   8   8
#     4  11  26  45  68 105 150 194 235 295 358 438
#     4  12  26  39  66  99 148 199 243 266 358 434
#     4  10  24  48  70 102 128 174 246 316 372 420
#     4  11  23  39  60 102 147 192 230 278 343 434
#     4  10  20  46  80 100 132 178 256 324 344 452
#     4  10  23  45  74 104 133 184 240 308 370 417
#     4  11  22  39  65 100 140 185 230 282 349 430
#
# _framework density 21.619681
#
# number of rings (size 3 to 8) (size 9 to 14) (size 15 to 20)
#    0.000    1.200    3.000    3.000    2.800    4.800 
#    3.600    0.500    0.000    0.000    0.000    0.000 
#    0.000    0.000    0.000    0.000    0.000    0.000 
#
# Total GULP energy -247842.983816 kJ/mol
# GULP energy per Si atom -12392.149191 kJ/mol
# Density = 2.157047 g / cm^3
# Si number density = 21.619681 Si / 1000 Ang^3
#
#
#
# Elastic Constant Matrix: (Units=GPa)
#
#
# Indices 1 2 3 4 5 6 
#
# 1 140.1978 65.4693 46.3899 0.0006 -0.0003 0.0000
# 2 65.4693 119.5888 50.5609 -0.0018 -0.0007 -0.0005
# 3 46.3899 50.5609 127.4010 0.0028 0.0119 0.0016
# 4 0.0006 -0.0018 0.0028 50.3392 0.0087 0.0018
# 5 -0.0003 -0.0007 0.0119 0.0087 31.9347 0.0005
# 6 0.0000 -0.0005 0.0016 0.0018 0.0005 32.9500
#
#
#
# Elastic Compliance Matrix: (Units=1/GPa)
#
#
# Indices 1 2 3 4 5 6 
#
# 1 0.009896 -0.004679 -0.001746 0.000000 0.000001 0.000000
# 2 -0.004679 0.012260 -0.003162 0.000001 0.000001 0.000000
# 3 -0.001746 -0.003162 0.009740 -0.000001 -0.000004 -0.000001
# 4 0.000000 0.000001 -0.000001 0.019865 -0.000005 -0.000001
# 5 0.000001 0.000001 -0.000004 -0.000005 0.031314 0.000000
# 6 0.000000 0.000000 -0.000001 -0.000001 0.000000 0.030349
#
#
# Mechanical properties :
#
#
# Convention : Reuss Voigt Hill
#
# Bulk Modulus (GPa) = 78.60789 79.11419 78.86104
# Shear Modulus (GPa) = 36.53922 38.02928 37.28425
#
# Velocity S-wave (km/s) = 4.11553 4.19861 4.15728
# Velocity P-wave (km/s) = 7.68257 7.75741 7.72008
#
# Compressibility (1/GPa) = 0.01272137
#
# Stress axis : x y z
#
# Youngs Moduli (GPa) = 101.05456 81.56334 102.66979
#
# Poissons Ratio (x) = 0.38164 0.17929
# Poissons Ratio (y) = 0.47284 0.32464
# Poissons Ratio (z) = 0.17647 0.25790
#
# Static dielectric constant tensor:
#      x y z
#    x 3.816060 0.000010 0.000090 
#    y 0.000010 3.926140 0.000000 
#    z 0.000090 0.000000 4.012530 
# 
# 
# High freq. dielectric constant tensor:
#      x y z
#    x 1.849510 0.000000 0.000000 
#    y 0.000000 1.831090 0.000000 
#    z 0.000000 0.000000 1.855760 
# 
# From -- ./inp_files/7152.got.cif
#   From: 2010.03.12/outbox.cif.g09.slc.cpg/sg23_4_cif.got.tgz:7152.got - 2010.04.14 02:50:06.
