data_PCOD8163259
_publ_section_title
;
Structure prediction by ZEFSAII (Michael W. Deem and Ramdas Pophale) SiO2 
 PCOD8163259
Probable space group: I 2 2 2
;
_chemical_formula_sum "Si O2"
_cell_formula_units_Z 64
_cell_length_a 5.310281
_cell_length_b 30.667597
_cell_length_c 22.756840
_cell_angle_alpha 90.000000
_cell_angle_beta 90.000000
_cell_angle_gamma 90.000000
_cell_volume 3706.032355
_symmetry_space_group_name_H-M "I 2 2 2"
_symmetry_group_IT_number 23
_symmetry_cell_setting 'orthorhombic'
loop_
_space_group_symop_operation_xyz
x,y,z
-x,-y,z
x,-y,-z
-x,y,-z
1/2+x,1/2+y,1/2+z
1/2-x,1/2-y,1/2+z
1/2+x,1/2-y,1/2-z
1/2-x,1/2+y,1/2-z
loop_
_atom_site_type_symbol
_atom_site_label
_atom_site_fract_x
_atom_site_fract_y
_atom_site_fract_z
Si Si1 0.999995 0.224063 0.818654
Si Si2 0.499996 0.807238 0.238655
Si Si3 1.000000 0.449832 0.895235
Si Si4 0.499999 0.449224 0.234544
Si Si5 0.500000 0.580413 0.898688
Si Si6 0.999999 0.593310 0.769544
Si Si7 0.499993 0.675134 0.932726
Si Si8 0.999993 0.729431 0.932483
O O1 0.750217 0.198017 0.800486
O O2 0.999996 0.272456 0.791184
O O3 0.249771 0.198017 0.800485
O O4 0.999996 0.228959 0.889425
O O5 0.499998 0.854768 0.266630
O O6 0.750524 0.436832 0.932411
O O7 0.000003 0.419448 0.837791
O O8 0.000000 0.500000 0.876695
O O9 0.249476 0.436833 0.932411
O O10 0.500000 0.500000 0.250672
O O11 0.499997 0.442901 0.164529
O O12 0.249614 0.426604 0.261540
O O13 0.750383 0.426604 0.261540
O O14 0.500004 0.632502 0.891979
O O15 0.749409 0.702166 0.918291
O O16 0.250557 0.702160 0.918291
O O17 0.500000 0.659355 0.000000
O O18 0.000000 0.745644 0.000000
#
# Coordination Sequence:
#
# PCOD8163259 Si02
#       8
#     8   8   8   8   8   8   8   8
#     4  10  21  35  49  68 105 124 157 206 233 304
#     4  10  21  33  47  74  97 135 156 188 255 290
#     4  10  19  31  46  68  88 116 158 197 228 281
#     4  10  19  29  44  68  91 121 162 202 230 277
#     4  10  18  28  46  63  84 116 139 197 243 282
#     4  10  18  29  46  64  92 122 163 190 225 294
#     4  10  21  33  48  72  91 110 158 209 254 290
#     4  10  21  36  54  71  92 126 164 207 249 286
#
# _framework density 17.269141000000001
#
# number of rings (size 3 to 8) (size 9 to 14) (size 15 to 20)
#    0.000    2.000    0.000    6.000    7.000    0.000 
#    0.000    0.000    0.000    4.125    0.000    0.000 
#    0.000    0.000    0.000    0.000    0.000   72.500 
#
# Total GULP energy -396642.889828 kJ/mol
# GULP energy per Si atom -12395.090307 kJ/mol
# Density = 1.722984 g / cm^3
# Si number density = 17.269141 Si / 1000 Ang^3
#
#
#
# Elastic Constant Matrix: (Units=GPa)
#
#
# Indices 1 2 3 4 5 6 
#
# 1 189.2346 35.6123 15.7714 0.0000 0.0000 0.0000
# 2 35.6123 88.3327 18.3770 0.0000 0.0000 0.0000
# 3 15.7714 18.3770 40.8245 0.0000 0.0000 0.0000
# 4 0.0000 0.0000 0.0000 12.7180 0.0000 0.0000
# 5 0.0000 0.0000 0.0000 0.0000 -18.7509 0.0000
# 6 0.0000 0.0000 0.0000 0.0000 0.0000 28.2728
#
#
#
# Elastic Compliance Matrix: (Units=1/GPa)
#
#
# Indices 1 2 3 4 5 6 
#
# 1 0.005781 -0.002059 -0.001306 0.000000 0.000000 0.000000
# 2 -0.002059 0.013224 -0.005157 0.000000 0.000000 0.000000
# 3 -0.001306 -0.005157 0.027321 0.000000 0.000000 0.000000
# 4 0.000000 0.000000 0.000000 0.078629 0.000000 0.000000
# 5 0.000000 0.000000 0.000000 0.000000 -0.053331 0.000000
# 6 0.000000 0.000000 0.000000 0.000000 0.000000 0.035370
#
#
# Mechanical properties :
#
#
# Convention : Reuss Voigt Hill
#
# Bulk Modulus (GPa) = 34.15204 50.87922 42.51563
# Shear Modulus (GPa) = 37.36947 21.02338 29.19642
#
# Velocity S-wave (km/s) = 4.65687 3.49291 4.11624
# Velocity P-wave (km/s) = 6.98101 6.76710 6.87489
#
# Compressibility (1/GPa) = 0.02928083
#
# Stress axis : x y z
#
# Youngs Moduli (GPa) = 172.98715 75.62122 36.60140
#
# Poissons Ratio (x) = 0.15569 0.04782
# Poissons Ratio (y) = 0.35614 0.18876
# Poissons Ratio (z) = 0.22600 0.39000
#
# Static dielectric constant tensor:
#      x y z
#    x 5.450420 0.000000 0.000000 
#    y 0.000000 3.024480 0.000000 
#    z 0.000000 0.000000 2.709520 
# 
# 
# High freq. dielectric constant tensor:
#      x y z
#    x 1.713610 0.000000 0.000000 
#    y 0.000000 1.652950 0.000000 
#    z 0.000000 0.000000 1.593950 
# 
# From -- ./inp_files/25849.got.cif
#   From: 2010.03.12/outbox.cif.g09.slc.cpg/sg23_13_cif.got.tgz:25849.got - 2010.04.14 02:50:06.
