data_PCOD8163385
_publ_section_title
;
Structure prediction by ZEFSAII (Michael W. Deem and Ramdas Pophale) SiO2 
 PCOD8163385
Probable space group: I 2 2 2
;
_chemical_formula_sum "Si O2"
_cell_formula_units_Z 52
_cell_length_a 17.692139
_cell_length_b 16.267632
_cell_length_c 9.402543
_cell_angle_alpha 90.000000
_cell_angle_beta 90.000000
_cell_angle_gamma 90.000000
_cell_volume 2706.138440
_symmetry_space_group_name_H-M "I 2 2 2"
_symmetry_group_IT_number 23
_symmetry_cell_setting 'orthorhombic'
loop_
_space_group_symop_operation_xyz
x,y,z
-x,-y,z
x,-y,-z
-x,y,-z
1/2+x,1/2+y,1/2+z
1/2-x,1/2-y,1/2+z
1/2+x,1/2-y,1/2-z
1/2-x,1/2+y,1/2-z
loop_
_atom_site_type_symbol
_atom_site_label
_atom_site_fract_x
_atom_site_fract_y
_atom_site_fract_z
Si Si1 0.251722 0.366985 0.657637
Si Si2 0.331498 1.000000 0.340416
Si Si3 0.751722 0.133015 0.157637
Si Si4 0.500000 0.000000 0.729587
Si Si5 0.857849 0.220485 0.657200
Si Si6 0.142151 0.220485 0.657200
Si Si7 0.500000 0.182240 0.164949
O O1 0.196446 0.421603 0.753244
O O2 0.265324 0.406099 0.500000
O O3 0.332385 0.353813 0.738009
O O4 0.213308 0.279514 0.636324
O O5 0.422552 1.000000 0.359758
O O6 0.297423 0.000000 0.500000
O O7 0.303554 0.921603 0.253244
O O8 0.713308 0.220486 0.136324
O O9 0.832385 0.146187 0.238009
O O10 0.500000 0.916052 0.819626
O O11 0.879338 0.185261 0.500000
O O12 0.926361 0.272227 0.729210
O O13 0.073639 0.272227 0.729210
O O14 0.500000 0.199586 0.000000
#
# Coordination Sequence:
#
# PCOD8163385 Si02
#       7
#     8   8   8   4   8   8   8
#     4  10  20  35  55  78 106 146 188 226 269 324
#     4  12  24  37  54  80 115 149 181 228 277 326
#     4  10  20  35  55  78 106 146 188 226 269 324
#     4  12  22  36  50  84 119 154 179 220 271 330
#     4   9  18  34  54  79 108 144 186 226 267 320
#     4   9  18  34  54  79 108 144 186 226 267 320
#     4  10  19  33  57  83 114 150 184 223 270 327
#
# _framework density 19.215572000000002
#
# number of rings (size 3 to 8) (size 9 to 14) (size 15 to 20)
#    0.000    1.846    3.077    1.846    0.000    2.462 
#    0.000    0.769    0.000    0.923    0.000    6.462 
#    0.000    0.000    0.000    0.000    0.000    0.000 
#
# Total GULP energy -322090.111306 kJ/mol
# GULP energy per Si atom -12388.081204 kJ/mol
# Density = 1.917184 g / cm^3
# Si number density = 19.215572 Si / 1000 Ang^3
#
#
#
# Elastic Constant Matrix: (Units=GPa)
#
#
# Indices 1 2 3 4 5 6 
#
# 1 107.2861 43.1900 42.1459 0.0000 0.0000 0.0000
# 2 43.1900 53.7392 40.6290 0.0000 0.0000 0.0000
# 3 42.1459 40.6290 139.7291 0.0000 0.0000 0.0000
# 4 0.0000 0.0000 0.0000 19.8864 0.0000 0.0000
# 5 0.0000 0.0000 0.0000 0.0000 23.1244 0.0000
# 6 0.0000 0.0000 0.0000 0.0000 0.0000 38.1829
#
#
#
# Elastic Compliance Matrix: (Units=1/GPa)
#
#
# Indices 1 2 3 4 5 6 
#
# 1 0.013938 -0.010284 -0.001214 0.000000 0.000000 0.000000
# 2 -0.010284 0.031440 -0.006040 0.000000 0.000000 0.000000
# 3 -0.001214 -0.006040 0.009279 0.000000 0.000000 0.000000
# 4 0.000000 0.000000 0.000000 0.050286 0.000000 0.000000
# 5 0.000000 0.000000 0.000000 0.000000 0.043244 0.000000
# 6 0.000000 0.000000 0.000000 0.000000 0.000000 0.026190
#
#
# Mechanical properties :
#
#
# Convention : Reuss Voigt Hill
#
# Bulk Modulus (GPa) = 51.06862 61.40934 56.23898
# Shear Modulus (GPa) = 23.15040 27.89138 25.52089
#
# Velocity S-wave (km/s) = 3.47475 3.81399 3.64831
# Velocity P-wave (km/s) = 6.53704 7.17097 6.86133
#
# Compressibility (1/GPa) = 0.01958150
#
# Stress axis : x y z
#
# Youngs Moduli (GPa) = 71.74781 31.80650 107.77046
#
# Poissons Ratio (x) = 0.32710 0.13080
# Poissons Ratio (y) = 0.73786 0.65092
# Poissons Ratio (z) = 0.08708 0.19211
#
# Static dielectric constant tensor:
#      x y z
#    x 3.701370 0.000000 0.000000 
#    y 0.000000 3.208180 0.000000 
#    z 0.000000 0.000000 3.851720 
# 
# 
# High freq. dielectric constant tensor:
#      x y z
#    x 1.733510 0.000000 0.000000 
#    y 0.000000 1.716650 0.000000 
#    z 0.000000 0.000000 1.746070 
# 
# From -- ./inp_files/11223.got.cif
#   From: 2010.03.12/outbox.cif.g09.slc.cpg/sg23_6_cif.got.tgz:11223.got - 2010.04.14 02:50:06.
