data_PCOD8163627
_publ_section_title
;
Structure prediction by ZEFSAII (Michael W. Deem and Ramdas Pophale) SiO2 
 PCOD8163627
Probable space group: I 2 2 2
;
_chemical_formula_sum "Si O2"
_cell_formula_units_Z 52
_cell_length_a 8.310080
_cell_length_b 10.683528
_cell_length_c 27.187903
_cell_angle_alpha 90.000000
_cell_angle_beta 90.000000
_cell_angle_gamma 90.000000
_cell_volume 2413.768465
_symmetry_space_group_name_H-M "I 2 2 2"
_symmetry_group_IT_number 23
_symmetry_cell_setting 'orthorhombic'
loop_
_space_group_symop_operation_xyz
x,y,z
-x,-y,z
x,-y,-z
-x,y,-z
1/2+x,1/2+y,1/2+z
1/2-x,1/2-y,1/2+z
1/2+x,1/2-y,1/2-z
1/2-x,1/2+y,1/2-z
loop_
_atom_site_type_symbol
_atom_site_label
_atom_site_fract_x
_atom_site_fract_y
_atom_site_fract_z
Si Si1 0.500000 0.300529 0.000000
Si Si2 0.151721 0.714208 0.807614
Si Si3 0.303011 0.097044 0.459221
Si Si4 0.000000 0.500000 0.126343
Si Si5 0.114290 0.893481 0.227895
Si Si6 0.000000 0.187324 0.000000
Si Si7 0.323378 0.959227 0.845706
Si Si8 0.699761 0.911061 0.042991
O O1 0.611125 0.386663 0.034921
O O2 0.391603 0.221207 0.038179
O O3 0.248409 0.641058 0.766065
O O4 0.270770 0.816366 0.832735
O O5 0.080747 0.612125 0.844247
O O6 0.993678 0.774152 0.783853
O O7 0.384444 0.231710 0.465517
O O8 0.367561 0.000000 0.500000
O O9 0.349464 0.047936 0.405750
O O10 0.194588 0.946103 0.177839
O O11 0.000000 0.000000 0.251555
O O12 0.891478 0.104169 0.963736
O O13 0.326822 0.975537 0.904529
O O14 0.500000 0.000000 0.825692
O O15 0.631100 0.000000 0.000000
#
# Coordination Sequence:
#
# PCOD8163627 Si02
#       8
#     4   8   8   4   8   4   8   8
#     4  10  24  38  66  88 146 180 218 276 334 394
#     4  11  26  45  74 103 137 179 235 296 360 428
#     4  11  21  43  61  93 135 182 222 268 332 406
#     4  12  25  40  74 106 140 176 243 282 354 418
#     4  10  25  47  72  99 134 179 230 288 364 421
#     4  10  20  36  68  82 138 176 218 270 324 390
#     4  11  24  44  73  99 137 181 232 290 352 423
#     4  11  23  40  62 102 132 176 223 273 335 405
#
# _framework density 21.543075999999999
#
# number of rings (size 3 to 8) (size 9 to 14) (size 15 to 20)
#    0.000    1.231    1.538    3.462    7.538    7.385 
#    2.769    0.000    0.000    0.000    0.000    0.000 
#    0.000    0.000    0.000    0.000    0.000    0.000 
#
# Total GULP energy -322374.452484 kJ/mol
# GULP energy per Si atom -12399.017403 kJ/mol
# Density = 2.149404 g / cm^3
# Si number density = 21.543076 Si / 1000 Ang^3
#
#
#
# Elastic Constant Matrix: (Units=GPa)
#
#
# Indices 1 2 3 4 5 6 
#
# 1 167.8017 68.6778 59.7444 0.0000 0.0000 0.0000
# 2 68.6778 106.5101 63.3218 0.0000 0.0000 0.0000
# 3 59.7444 63.3218 139.2842 0.0000 0.0000 0.0000
# 4 0.0000 0.0000 0.0000 18.2658 0.0000 0.0000
# 5 0.0000 0.0000 0.0000 0.0000 67.2389 0.0000
# 6 0.0000 0.0000 0.0000 0.0000 0.0000 50.3883
#
#
#
# Elastic Compliance Matrix: (Units=1/GPa)
#
#
# Indices 1 2 3 4 5 6 
#
# 1 0.008333 -0.004451 -0.001551 0.000000 0.000000 0.000000
# 2 -0.004451 0.015244 -0.005021 0.000000 0.000000 0.000000
# 3 -0.001551 -0.005021 0.010127 0.000000 0.000000 0.000000
# 4 0.000000 0.000000 0.000000 0.054747 0.000000 0.000000
# 5 0.000000 0.000000 0.000000 0.000000 0.014872 0.000000
# 6 0.000000 0.000000 0.000000 0.000000 0.000000 0.019846
#
#
# Mechanical properties :
#
#
# Convention : Reuss Voigt Hill
#
# Bulk Modulus (GPa) = 85.77367 88.56491 87.16929
# Shear Modulus (GPa) = 33.53387 41.96870 37.75129
#
# Velocity S-wave (km/s) = 3.94965 4.41855 4.19066
# Velocity P-wave (km/s) = 7.79109 8.19947 7.99789
#
# Compressibility (1/GPa) = 0.01165859
#
# Stress axis : x y z
#
# Youngs Moduli (GPa) = 119.99822 65.59920 98.74208
#
# Poissons Ratio (x) = 0.29201 0.15313
# Poissons Ratio (y) = 0.53416 0.49578
# Poissons Ratio (z) = 0.18610 0.32937
#
# Static dielectric constant tensor:
#      x y z
#    x 4.336180 0.000000 0.000000 
#    y 0.000000 4.027220 0.000000 
#    z 0.000000 0.000000 3.608270 
# 
# 
# High freq. dielectric constant tensor:
#      x y z
#    x 1.873420 0.000000 0.000000 
#    y 0.000000 1.856790 0.000000 
#    z 0.000000 0.000000 1.821000 
# 
# From -- ./inp_files/29258.got.cif
#   From: 2010.03.12/outbox.cif.g09.slc.cpg/sg23_15_cif.got.tgz:29258.got - 2010.04.14 02:50:06.
