data_PCOD8163398
_publ_section_title
;
Structure prediction by ZEFSAII (Michael W. Deem and Ramdas Pophale) SiO2 
 PCOD8163398
Probable space group: I 2 2 2
;
_chemical_formula_sum "Si O2"
_cell_formula_units_Z 48
_cell_length_a 31.516923
_cell_length_b 9.403689
_cell_length_c 8.427757
_cell_angle_alpha 90.000000
_cell_angle_beta 90.000000
_cell_angle_gamma 90.000000
_cell_volume 2497.779364
_symmetry_space_group_name_H-M "I 2 2 2"
_symmetry_group_IT_number 23
_symmetry_cell_setting 'orthorhombic'
loop_
_space_group_symop_operation_xyz
x,y,z
-x,-y,z
x,-y,-z
-x,y,-z
1/2+x,1/2+y,1/2+z
1/2-x,1/2-y,1/2+z
1/2+x,1/2-y,1/2-z
1/2-x,1/2+y,1/2-z
loop_
_atom_site_type_symbol
_atom_site_label
_atom_site_fract_x
_atom_site_fract_y
_atom_site_fract_z
Si Si1 0.314473 0.004960 0.250949
Si Si2 0.909872 0.163457 0.500724
Si Si3 0.614430 0.000000 0.500000
Si Si4 0.471643 0.849543 0.841124
Si Si5 0.182115 0.737217 0.504190
Si Si6 0.556591 0.144807 0.276103
Si Si7 0.743404 0.500000 0.000000
O O1 0.355124 0.050022 0.356768
O O2 0.325548 0.860191 0.158444
O O3 0.272521 0.969961 0.348965
O O4 0.302983 0.136657 0.138705
O O5 0.938292 0.223650 0.357295
O O6 0.861149 0.185284 0.457322
O O7 0.920523 0.237677 0.668038
O O8 0.921493 0.000000 0.500000
O O9 0.583380 0.871489 0.560087
O O10 0.506260 0.817165 0.700412
O O11 0.443606 0.989979 0.809550
O O12 0.500000 0.865384 0.000000
O O13 0.216298 0.859421 0.535156
#
# Coordination Sequence:
#
# PCOD8163398 Si02
#       7
#     8   8   4   8   8   8   4
#     4  10  23  37  62  86 119 161 193 249 303 362
#     4  11  20  33  57  87 117 155 203 253 301 357
#     4  11  20  35  58  89 120 154 203 246 301 361
#     4   9  19  33  55  86 116 150 205 260 294 350
#     4  11  21  39  60  88 117 156 200 245 296 367
#     4  10  19  34  55  83 117 153 197 251 302 353
#     4  11  22  40  60  93 119 147 199 248 310 363
#
# _framework density 19.217068999999999
#
# number of rings (size 3 to 8) (size 9 to 14) (size 15 to 20)
#    0.000    1.667    2.500    5.500    2.333    4.333 
#    0.000    0.000    0.000   10.000    0.000   14.000 
#    0.000    0.000    0.000    0.000    0.000    0.000 
#
# Total GULP energy -297406.993098 kJ/mol
# GULP energy per Si atom -12391.958046 kJ/mol
# Density = 1.917333 g / cm^3
# Si number density = 19.217069 Si / 1000 Ang^3
#
#
#
# Elastic Constant Matrix: (Units=GPa)
#
#
# Indices 1 2 3 4 5 6 
#
# 1 124.7512 49.4779 40.3346 0.0000 0.0000 0.0000
# 2 49.4779 118.3895 33.8352 0.0000 0.0000 0.0000
# 3 40.3346 33.8352 77.3924 0.0000 0.0000 0.0000
# 4 0.0000 0.0000 0.0000 13.9403 0.0000 0.0000
# 5 0.0000 0.0000 0.0000 0.0000 33.7166 0.0000
# 6 0.0000 0.0000 0.0000 0.0000 0.0000 29.1523
#
#
#
# Elastic Compliance Matrix: (Units=1/GPa)
#
#
# Indices 1 2 3 4 5 6 
#
# 1 0.010645 -0.003272 -0.004117 0.000000 0.000000 0.000000
# 2 -0.003272 0.010659 -0.002955 0.000000 0.000000 0.000000
# 3 -0.004117 -0.002955 0.016359 0.000000 0.000000 0.000000
# 4 0.000000 0.000000 0.000000 0.071735 0.000000 0.000000
# 5 0.000000 0.000000 0.000000 0.000000 0.029659 0.000000
# 6 0.000000 0.000000 0.000000 0.000000 0.000000 0.034303
#
#
# Mechanical properties :
#
#
# Convention : Reuss Voigt Hill
#
# Bulk Modulus (GPa) = 58.91232 63.09206 61.00219
# Shear Modulus (GPa) = 25.03704 28.48753 26.76229
#
# Velocity S-wave (km/s) = 3.61342 3.85438 3.73585
# Velocity P-wave (km/s) = 6.93772 7.26023 7.10080
#
# Compressibility (1/GPa) = 0.01697438
#
# Stress axis : x y z
#
# Youngs Moduli (GPa) = 93.94170 93.82133 61.12966
#
# Poissons Ratio (x) = 0.30699 0.25169
# Poissons Ratio (y) = 0.30738 0.18061
# Poissons Ratio (z) = 0.38679 0.27720
#
# Static dielectric constant tensor:
#      x y z
#    x 3.924430 0.000000 0.000000 
#    y 0.000000 3.308330 0.000000 
#    z 0.000000 0.000000 3.543530 
# 
# 
# High freq. dielectric constant tensor:
#      x y z
#    x 1.770890 0.000000 0.000000 
#    y 0.000000 1.726150 0.000000 
#    z 0.000000 0.000000 1.729170 
# 
# From -- ./inp_files/13395.got.cif
#   From: 2010.03.12/outbox.cif.g09.slc.cpg/sg23_7_cif.got.tgz:13395.got - 2010.04.14 02:50:06.
