data_PCOD8163634
_publ_section_title
;
Structure prediction by ZEFSAII (Michael W. Deem and Ramdas Pophale) SiO2 
 PCOD8163634
Probable space group: I 2 2 2
;
_chemical_formula_sum "Si O2"
_cell_formula_units_Z 34
_cell_length_a 5.169293
_cell_length_b 27.122021
_cell_length_c 12.917437
_cell_angle_alpha 90.000000
_cell_angle_beta 90.000000
_cell_angle_gamma 90.000000
_cell_volume 1811.046282
_symmetry_space_group_name_H-M "I 2 2 2"
_symmetry_group_IT_number 23
_symmetry_cell_setting 'orthorhombic'
loop_
_space_group_symop_operation_xyz
x,y,z
-x,-y,z
x,-y,-z
-x,y,-z
1/2+x,1/2+y,1/2+z
1/2-x,1/2-y,1/2+z
1/2+x,1/2-y,1/2-z
1/2-x,1/2+y,1/2-z
loop_
_atom_site_type_symbol
_atom_site_label
_atom_site_fract_x
_atom_site_fract_y
_atom_site_fract_z
Si Si1 0.294999 0.141281 0.268251
Si Si2 0.412410 0.288913 0.614180
Si Si3 0.239158 0.470556 0.801798
Si Si4 0.500000 0.000000 0.500000
Si Si5 0.305568 0.307343 0.189253
O O1 0.271008 0.166684 0.154853
O O2 0.246141 0.083541 0.253903
O O3 0.575885 0.152503 0.314946
O O4 0.070403 0.164445 0.343013
O O5 0.500000 0.302762 0.500000
O O6 0.656969 0.284301 0.694064
O O7 0.256400 0.237332 0.611761
O O8 0.500000 0.500000 0.777987
O O9 0.000000 0.500000 0.748803
O O10 0.183313 0.466416 0.926041
#
# Coordination Sequence:
#
# PCOD8163634 Si02
#       5
#     8   8   8   2   8
#     4  10  20  38  58  80 116 154 192 239 295 349
#     4  10  21  38  61  85 122 158 197 245 300 350
#     4  10  20  37  58  81 113 155 193 246 297 355
#     4   8  22  32  58  80 118 146 198 232 314 340
#     4  10  20  39  55  87 119 149 196 238 287 355
#
# _framework density 18.773678
#
# number of rings (size 3 to 8) (size 9 to 14) (size 15 to 20)
#    2.118    0.000    2.353    1.765    0.000    0.941 
#    2.118    0.000    0.000    0.706    0.000    0.000 
#    0.000    0.000    0.000    0.000    0.000    0.000 
#
# Total GULP energy -210604.396693 kJ/mol
# GULP energy per Si atom -12388.493923 kJ/mol
# Density = 1.873095 g / cm^3
# Si number density = 18.773678 Si / 1000 Ang^3
#
#
#
# Elastic Constant Matrix: (Units=GPa)
#
#
# Indices 1 2 3 4 5 6 
#
# 1 126.7029 40.4726 -2.3155 0.0000 0.0000 0.0000
# 2 40.4726 140.8868 6.3611 0.0000 0.0000 0.0000
# 3 -2.3155 6.3611 32.8957 -0.0001 0.0000 0.0000
# 4 0.0000 0.0000 -0.0001 15.0708 0.0000 0.0000
# 5 0.0000 0.0000 0.0000 0.0000 12.6416 0.0000
# 6 0.0000 0.0000 0.0000 0.0000 0.0000 36.5470
#
#
#
# Elastic Compliance Matrix: (Units=1/GPa)
#
#
# Indices 1 2 3 4 5 6 
#
# 1 0.008730 -0.002558 0.001109 0.000000 0.000000 0.000000
# 2 -0.002558 0.007910 -0.001710 0.000000 0.000000 0.000000
# 3 0.001109 -0.001710 0.030808 0.000000 0.000000 0.000000
# 4 0.000000 0.000000 0.000000 0.066353 0.000000 0.000000
# 5 0.000000 0.000000 0.000000 0.000000 0.079104 0.000000
# 6 0.000000 0.000000 0.000000 0.000000 0.000000 0.027362
#
#
# Mechanical properties :
#
#
# Convention : Reuss Voigt Hill
#
# Bulk Modulus (GPa) = 24.31272 43.28018 33.79645
# Shear Modulus (GPa) = 20.80786 29.91637 25.36212
#
# Velocity S-wave (km/s) = 3.33281 3.99623 3.67950
# Velocity P-wave (km/s) = 5.27150 6.66310 6.00772
#
# Compressibility (1/GPa) = 0.04113074
#
# Stress axis : x y z
#
# Youngs Moduli (GPa) = 114.54999 126.42402 32.45933
#
# Poissons Ratio (x) = 0.32338 -0.03600
# Poissons Ratio (y) = 0.29301 0.05549
# Poissons Ratio (z) = -0.12705 0.21613
#
# Static dielectric constant tensor:
#      x y z
#    x 3.549090 0.000000 0.000000 
#    y 0.000000 3.195460 0.000000 
#    z 0.000000 0.000000 2.881670 
# 
# 
# High freq. dielectric constant tensor:
#      x y z
#    x 1.743880 0.000000 0.000000 
#    y 0.000000 1.722600 0.000000 
#    z 0.000000 0.000000 1.670630 
# 
# From -- ./inp_files/13949.got.cif
#   From: 2010.03.12/outbox.cif.g09.slc.cpg/sg23_7_cif.got.tgz:13949.got - 2010.04.14 02:50:06.
