data_PCOD8163419
_publ_section_title
;
Structure prediction by ZEFSAII (Michael W. Deem and Ramdas Pophale) SiO2 
 PCOD8163419
Probable space group: I 2 2 2
;
_chemical_formula_sum "Si O2"
_cell_formula_units_Z 56
_cell_length_a 19.105057
_cell_length_b 18.746211
_cell_length_c 8.376431
_cell_angle_alpha 90.000000
_cell_angle_beta 90.000000
_cell_angle_gamma 90.000000
_cell_volume 2999.997233
_symmetry_space_group_name_H-M "I 2 2 2"
_symmetry_group_IT_number 23
_symmetry_cell_setting 'orthorhombic'
loop_
_space_group_symop_operation_xyz
x,y,z
-x,-y,z
x,-y,-z
-x,y,-z
1/2+x,1/2+y,1/2+z
1/2-x,1/2-y,1/2+z
1/2+x,1/2-y,1/2-z
1/2-x,1/2+y,1/2-z
loop_
_atom_site_type_symbol
_atom_site_label
_atom_site_fract_x
_atom_site_fract_y
_atom_site_fract_z
Si Si1 0.129510 0.735093 0.695067
Si Si2 0.653618 0.768862 0.172885
Si Si3 0.464106 0.433998 0.323828
Si Si4 0.230551 0.141555 0.286210
Si Si5 0.984837 0.224294 0.184331
Si Si6 0.742815 0.852645 0.653802
Si Si7 0.674652 0.511459 0.184472
O O1 0.129312 0.736869 0.506504
O O2 0.167061 0.806060 0.763518
O O3 0.166967 0.665792 0.771987
O O4 0.048278 0.733880 0.736755
O O5 0.699799 0.840967 0.184775
O O6 0.585317 0.769754 0.285364
O O7 0.700319 0.701422 0.229770
O O8 0.500000 0.500000 0.227551
O O9 0.500000 0.433482 0.500000
O O10 0.476583 0.356501 0.244136
O O11 0.382306 0.454759 0.305894
O O12 0.255680 0.157248 0.464808
O O13 0.203209 0.062870 0.247211
O O14 0.000000 0.218006 0.000000
O O15 0.760264 0.934428 0.691723
O O16 0.648270 0.500000 0.000000
#
# Coordination Sequence:
#
# PCOD8163419 Si02
#       7
#     8   8   8   8   8   8   8
#     4  10  20  34  53  80 109 144 186 233 273 329
#     4  10  19  35  52  80 108 145 188 232 273 329
#     4  10  21  36  48  80 119 151 181 217 274 334
#     4   9  19  34  56  78 107 144 190 228 276 325
#     4  11  21  34  56  78 112 149 183 229 282 329
#     4   9  18  35  54  77 108 142 188 230 275 326
#     4  10  19  36  57  81 111 151 190 231 271 330
#
# _framework density 18.666684
#
# number of rings (size 3 to 8) (size 9 to 14) (size 15 to 20)
#    0.000    2.143    1.429    2.143    0.000    1.429 
#    7.714    0.000    0.000    0.857    0.000    6.000 
#    0.000    0.000    0.000    0.000    0.000    0.000 
#
# Total GULP energy -346995.072985 kJ/mol
# GULP energy per Si atom -12392.681178 kJ/mol
# Density = 1.862420 g / cm^3
# Si number density = 18.666684 Si / 1000 Ang^3
#
#
#
# Elastic Constant Matrix: (Units=GPa)
#
#
# Indices 1 2 3 4 5 6 
#
# 1 130.5148 47.0537 31.3565 0.0000 0.0000 0.0000
# 2 47.0537 81.0283 22.1796 0.0000 0.0000 0.0000
# 3 31.3565 22.1796 38.9821 0.0000 0.0000 0.0000
# 4 0.0000 0.0000 0.0000 18.7346 0.0000 0.0000
# 5 0.0000 0.0000 0.0000 0.0000 33.1360 0.0000
# 6 0.0000 0.0000 0.0000 0.0000 0.0000 24.0773
#
#
#
# Elastic Compliance Matrix: (Units=1/GPa)
#
#
# Indices 1 2 3 4 5 6 
#
# 1 0.010774 -0.004601 -0.006049 0.000000 0.000000 0.000000
# 2 -0.004601 0.016583 -0.005734 0.000000 0.000000 0.000000
# 3 -0.006049 -0.005734 0.033781 0.000000 0.000000 0.000000
# 4 0.000000 0.000000 0.000000 0.053377 0.000000 0.000000
# 5 0.000000 0.000000 0.000000 0.000000 0.030179 0.000000
# 6 0.000000 0.000000 0.000000 0.000000 0.000000 0.041533
#
#
# Mechanical properties :
#
#
# Convention : Reuss Voigt Hill
#
# Bulk Modulus (GPa) = 35.24841 50.18944 42.71892
# Shear Modulus (GPa) = 21.88663 25.18527 23.53595
#
# Velocity S-wave (km/s) = 3.42789 3.67714 3.55470
# Velocity P-wave (km/s) = 5.88144 6.70627 6.30735
#
# Compressibility (1/GPa) = 0.02837008
#
# Stress axis : x y z
#
# Youngs Moduli (GPa) = 92.81727 60.30379 29.60262
#
# Poissons Ratio (x) = 0.27745 0.17905
# Poissons Ratio (y) = 0.42703 0.16975
# Poissons Ratio (z) = 0.56141 0.34580
#
# Static dielectric constant tensor:
#      x y z
#    x 3.449540 0.000000 0.000000 
#    y 0.000000 3.474670 0.000000 
#    z 0.000000 0.000000 3.326400 
# 
# 
# High freq. dielectric constant tensor:
#      x y z
#    x 1.718500 0.000000 0.000000 
#    y 0.000000 1.708920 0.000000 
#    z 0.000000 0.000000 1.714980 
# 
# From -- ./inp_files/10233.got.cif
#   From: 2010.03.12/outbox.cif.g09.slc.cpg/sg23_6_cif.got.tgz:10233.got - 2010.04.14 02:50:06.
