data_PCOD8163991
_publ_section_title
;
Structure prediction by ZEFSAII (Michael W. Deem and Ramdas Pophale) SiO2 
 PCOD8163991
Probable space group: I 2 2 2
;
_chemical_formula_sum "Si O2"
_cell_formula_units_Z 40
_cell_length_a 7.402011
_cell_length_b 25.038867
_cell_length_c 8.988403
_cell_angle_alpha 90.000000
_cell_angle_beta 90.000000
_cell_angle_gamma 90.000000
_cell_volume 1665.892356
_symmetry_space_group_name_H-M "I 2 2 2"
_symmetry_group_IT_number 23
_symmetry_cell_setting 'orthorhombic'
loop_
_space_group_symop_operation_xyz
x,y,z
-x,-y,z
x,-y,-z
-x,y,-z
1/2+x,1/2+y,1/2+z
1/2-x,1/2-y,1/2+z
1/2+x,1/2-y,1/2-z
1/2-x,1/2+y,1/2-z
loop_
_atom_site_type_symbol
_atom_site_label
_atom_site_fract_x
_atom_site_fract_y
_atom_site_fract_z
Si Si1 0.555643 0.724992 0.254446
Si Si2 0.549346 0.398116 0.830995
Si Si3 0.261268 0.213985 0.028944
Si Si4 0.233719 0.595473 0.392825
Si Si5 0.612816 0.053615 0.187354
O O1 0.567536 0.665022 0.191794
O O2 0.555616 0.765791 0.112312
O O3 0.729621 0.736527 0.363362
O O4 0.386298 0.737389 0.357121
O O5 0.395992 0.420364 0.717637
O O6 0.734124 0.431143 0.805980
O O7 0.500000 0.410845 0.000000
O O8 0.233036 0.150673 0.021817
O O9 0.207578 0.551175 0.523185
O O10 0.042401 0.599686 0.305769
O O11 0.500000 0.000000 0.226256
#
# Coordination Sequence:
#
# PCOD8163991 Si02
#       5
#     8   8   8   8   8
#     4  10  23  39  61 100 141 195 239 284 361 425
#     4  11  25  46  70 104 154 191 232 301 375 446
#     4  10  22  38  62  99 144 188 241 294 349 432
#     4  10  22  44  71 104 146 186 241 310 352 429
#     4  11  24  46  77 105 130 185 254 303 372 432
#
# _framework density 24.011154000000001
#
# number of rings (size 3 to 8) (size 9 to 14) (size 15 to 20)
#    0.000    1.600    2.000    1.800    8.400    1.600 
#    0.000    8.000    0.000    0.000    0.000    0.000 
#    0.000    0.000    0.000    0.000    0.000    0.000 
#
# Total GULP energy -247810.618453 kJ/mol
# GULP energy per Si atom -12390.530923 kJ/mol
# Density = 2.395650 g / cm^3
# Si number density = 24.011154 Si / 1000 Ang^3
#
#
#
# Elastic Constant Matrix: (Units=GPa)
#
#
# Indices 1 2 3 4 5 6 
#
# 1 71.7456 -13.4856 34.6359 -0.0001 0.0002 0.0000
# 2 -13.4856 54.1997 34.0195 0.0009 0.0005 0.0003
# 3 34.6359 34.0195 129.5894 0.0027 -0.0002 0.0017
# 4 -0.0001 0.0009 0.0027 17.0146 -0.0001 0.0007
# 5 0.0002 0.0005 -0.0002 -0.0001 47.3164 0.0003
# 6 0.0000 0.0003 0.0017 0.0007 0.0003 36.1323
#
#
#
# Elastic Compliance Matrix: (Units=1/GPa)
#
#
# Indices 1 2 3 4 5 6 
#
# 1 0.019521 0.009736 -0.007773 0.000001 0.000000 0.000000
# 2 0.009736 0.026946 -0.009676 0.000000 0.000000 0.000000
# 3 -0.007773 -0.009676 0.012334 -0.000002 0.000000 0.000000
# 4 0.000001 0.000000 -0.000002 0.058773 0.000000 -0.000001
# 5 0.000000 0.000000 0.000000 0.000000 0.021134 0.000000
# 6 0.000000 0.000000 0.000000 -0.000001 0.000000 0.027676
#
#
# Mechanical properties :
#
#
# Convention : Reuss Voigt Hill
#
# Bulk Modulus (GPa) = 23.05483 40.65270 31.85376
# Shear Modulus (GPa) = 25.47516 33.45032 29.46274
#
# Velocity S-wave (km/s) = 3.26079 3.73650 3.50672
# Velocity P-wave (km/s) = 4.87848 5.96512 5.44896
#
# Compressibility (1/GPa) = 0.04337486
#
# Stress axis : x y z
#
# Youngs Moduli (GPa) = 51.22740 37.11109 81.07398
#
# Poissons Ratio (x) = -0.36132 0.63021
# Poissons Ratio (y) = -0.49876 0.78447
# Poissons Ratio (z) = 0.39821 0.35909
#
# Static dielectric constant tensor:
#      x y z
#    x 4.872370 0.000000 0.000000 
#    y 0.000000 4.020530 0.000000 
#    z 0.000000 0.000000 4.386540 
# 
# 
# High freq. dielectric constant tensor:
#      x y z
#    x 1.985710 0.000000 0.000000 
#    y 0.000000 1.924440 0.000000 
#    z 0.000000 0.000000 1.957600 
# 
# From -- ./inp_files/7098.got.cif
#   From: 2010.03.12/outbox.cif.g09.slc.cpg/sg23_4_cif.got.tgz:7098.got - 2010.04.14 02:50:06.
