data_PCOD8163171
_publ_section_title
;
Structure prediction by ZEFSAII (Michael W. Deem and Ramdas Pophale) SiO2 
 PCOD8163171
Probable space group: F 2 2 2
;
_chemical_formula_sum "Si O2"
_cell_formula_units_Z 64
_cell_length_a 30.281688
_cell_length_b 5.087141
_cell_length_c 15.871773
_cell_angle_alpha 90.000000
_cell_angle_beta 90.000000
_cell_angle_gamma 90.000000
_cell_volume 2445.002453
_symmetry_space_group_name_H-M "F 2 2 2"
_symmetry_group_IT_number 22
_symmetry_cell_setting 'orthorhombic'
loop_
_space_group_symop_operation_xyz
x,y,z
-x,-y,z
x,-y,-z
-x,y,-z
x,1/2+y,1/2+z
-x,1/2-y,1/2+z
x,1/2-y,1/2-z
-x,1/2+y,1/2-z
1/2+x,y,1/2+z
1/2-x,-y,1/2+z
1/2+x,-y,1/2-z
1/2-x,y,1/2-z
1/2+x,1/2+y,z
1/2-x,1/2-y,z
1/2+x,1/2-y,-z
1/2-x,1/2+y,-z
loop_
_atom_site_type_symbol
_atom_site_label
_atom_site_fract_x
_atom_site_fract_y
_atom_site_fract_z
Si Si1 0.860609 0.500000 0.000000
Si Si2 0.935042 0.843163 0.078066
Si Si3 0.132159 0.500574 0.695526
Si Si4 0.500000 0.500000 0.691047
Si Si5 0.704987 0.858993 0.585866
O O1 0.890679 0.712813 0.044556
O O2 0.829950 0.374249 0.071466
O O3 0.964952 0.627752 0.125787
O O4 0.913363 0.054388 0.142376
O O5 0.959110 0.000000 0.000000
O O6 0.142421 0.250000 0.750000
O O7 0.177902 0.560821 0.644851
O O8 0.119639 0.750000 0.750000
O O9 0.484044 0.250000 0.750000
O O10 0.750000 0.750000 0.628379
O O11 0.719613 0.000000 0.500000
#
# Coordination Sequence:
#
# PCOD8163171 Si02
#       5
#     8  16  16   8  16
#     4  12  22  47  84 116 148 210 284 329 398 466
#     4  12  28  54  91 118 162 218 289 337 410 507
#     4  12  27  49  82 119 166 220 268 334 420 493
#     4  12  34  61  83 128 178 216 268 360 445 500
#     4  12  25  45  76 119 159 215 277 339 393 486
#
# _framework density 26.175840999999998
#
# number of rings (size 3 to 8) (size 9 to 14) (size 15 to 20)
#    0.000    0.000    6.250    2.250    3.500    5.000 
#    0.000    3.750    0.000    0.000    0.000    0.000 
#    0.000    0.000    0.000    0.000    0.000    0.000 
#
# Total GULP energy -198236.453949 kJ/mol
# GULP energy per Si atom -12389.778372 kJ/mol
# Density = 2.611626 g / cm^3
# Si number density = 26.175841 Si / 1000 Ang^3
#
#
#
# Elastic Constant Matrix: (Units=GPa)
#
#
# Indices 1 2 3 4 5 6 
#
# 1 159.2679 43.7022 60.9762 0.0017 -0.0008 -0.0027
# 2 43.7022 118.2713 52.8197 0.0034 -0.0012 -0.0042
# 3 60.9762 52.8197 132.2319 0.0010 -0.0007 -0.0011
# 4 0.0017 0.0034 0.0010 48.5179 -0.0007 -0.0015
# 5 -0.0008 -0.0012 -0.0007 -0.0007 19.5488 0.0017
# 6 -0.0027 -0.0042 -0.0011 -0.0015 0.0017 56.9557
#
#
#
# Elastic Compliance Matrix: (Units=1/GPa)
#
#
# Indices 1 2 3 4 5 6 
#
# 1 0.007856 -0.001564 -0.002998 0.000000 0.000000 0.000000
# 2 -0.001564 0.010602 -0.003514 -0.000001 0.000000 0.000001
# 3 -0.002998 -0.003514 0.010348 0.000000 0.000000 0.000000
# 4 0.000000 -0.000001 0.000000 0.020611 0.000001 0.000001
# 5 0.000000 0.000000 0.000000 0.000001 0.051154 -0.000001
# 6 0.000000 0.000001 0.000000 0.000001 -0.000001 0.017557
#
#
# Mechanical properties :
#
#
# Convention : Reuss Voigt Hill
#
# Bulk Modulus (GPa) = 79.01883 80.52969 79.77426
# Shear Modulus (GPa) = 36.10152 41.82269 38.96211
#
# Velocity S-wave (km/s) = 3.71778 4.00153 3.86226
# Velocity P-wave (km/s) = 6.97728 7.22367 7.10154
#
# Compressibility (1/GPa) = 0.01265521
#
# Stress axis : x y z
#
# Youngs Moduli (GPa) = 127.29860 94.31904 96.63293
#
# Poissons Ratio (x) = 0.14751 0.28968
# Poissons Ratio (y) = 0.19908 0.33956
# Poissons Ratio (z) = 0.38161 0.33143
#
# Static dielectric constant tensor:
#      x y z
#    x 4.592530 0.000000 0.000000 
#    y 0.000000 4.700150 -0.000010 
#    z 0.000000 -0.000010 5.710710 
# 
# 
# High freq. dielectric constant tensor:
#      x y z
#    x 2.053990 0.000000 0.000000 
#    y 0.000000 2.049840 0.000000 
#    z 0.000000 0.000000 2.055930 
# 
# From -- ./inp_files/2906.got.cif
#   From: 2010.03.12/outbox.cif.g09.slc.cpg/sg22_2_cif.got.tgz:2906.got - 2010.04.14 02:24:06.
