data_PCOD8163877
_publ_section_title
;
Structure prediction by ZEFSAII (Michael W. Deem and Ramdas Pophale) SiO2 
 PCOD8163877
Probable space group: I 2 2 2
;
_chemical_formula_sum "Si O2"
_cell_formula_units_Z 58
_cell_length_a 11.868777
_cell_length_b 26.984267
_cell_length_c 8.770393
_cell_angle_alpha 90.000000
_cell_angle_beta 90.000000
_cell_angle_gamma 90.000000
_cell_volume 2808.895937
_symmetry_space_group_name_H-M "I 2 2 2"
_symmetry_group_IT_number 23
_symmetry_cell_setting 'orthorhombic'
loop_
_space_group_symop_operation_xyz
x,y,z
-x,-y,z
x,-y,-z
-x,y,-z
1/2+x,1/2+y,1/2+z
1/2-x,1/2-y,1/2+z
1/2+x,1/2-y,1/2-z
1/2-x,1/2+y,1/2-z
loop_
_atom_site_type_symbol
_atom_site_label
_atom_site_fract_x
_atom_site_fract_y
_atom_site_fract_z
Si Si1 0.061756 0.618337 0.258211
Si Si2 0.500000 0.500000 0.500000
Si Si3 0.342707 0.867610 0.084349
Si Si4 0.189303 0.690870 0.081571
Si Si5 0.817089 0.055506 0.198544
Si Si6 0.752777 0.215648 0.266788
Si Si7 0.622505 0.362969 0.931017
Si Si8 0.124058 0.512891 0.176525
O O1 0.110577 0.637432 0.416951
O O2 0.077265 0.661551 0.132603
O O3 0.131969 0.571555 0.199238
O O4 0.929115 0.609136 0.288272
O O5 0.424429 0.533366 0.611944
O O6 0.236425 0.904101 0.084995
O O7 0.314937 0.811576 0.132503
O O8 0.216817 0.729664 0.214944
O O9 0.173684 0.718631 0.919089
O O10 0.288917 0.649350 0.066833
O O11 0.853294 0.083321 0.354912
O O12 0.725528 0.012626 0.231694
O O13 0.863101 0.181691 0.306631
O O14 0.500000 0.363110 0.000000
O O15 0.000000 0.500000 0.242682
O O16 0.133433 0.500000 0.000000
#
# Coordination Sequence:
#
# PCOD8163877 Si02
#       8
#     8   2   8   8   8   8   8   8
#     4  11  22  37  64  96 129 178 209 275 345 405
#     4  12  28  40  72  92 136 188 240 276 340 400
#     4  10  22  40  62  94 134 170 217 272 343 393
#     4  10  21  39  64  94 130 169 222 277 336 404
#     4  11  23  46  60  99 134 175 233 283 325 418
#     4   9  21  39  63  93 131 166 219 279 324 414
#     4   9  22  41  67  89 133 181 223 275 337 409
#     4  11  23  38  67  98 138 176 222 283 353 413
#
# _framework density 20.648682000000001
#
# number of rings (size 3 to 8) (size 9 to 14) (size 15 to 20)
#    0.828    0.966    1.379    2.483    0.000    4.966 
#    0.000    0.000    0.000    0.000    0.000    0.000 
#    0.000    0.000    0.000    0.000    0.000    0.000 
#
# Total GULP energy -359369.252803 kJ/mol
# GULP energy per Si atom -12392.043200 kJ/mol
# Density = 2.060169 g / cm^3
# Si number density = 20.648682 Si / 1000 Ang^3
#
#
#
# Elastic Constant Matrix: (Units=GPa)
#
#
# Indices 1 2 3 4 5 6 
#
# 1 99.8714 39.1174 31.9964 0.0011 -0.0009 -0.0005
# 2 39.1174 117.3443 50.0469 0.0006 -0.0002 -0.0006
# 3 31.9964 50.0469 79.4428 0.0073 -0.0028 -0.0138
# 4 0.0011 0.0006 0.0073 37.2272 -0.0005 -0.0037
# 5 -0.0009 -0.0002 -0.0028 -0.0005 34.4187 0.0011
# 6 -0.0005 -0.0006 -0.0138 -0.0037 0.0011 20.1796
#
#
#
# Elastic Compliance Matrix: (Units=1/GPa)
#
#
# Indices 1 2 3 4 5 6 
#
# 1 0.012078 -0.002669 -0.003183 0.000000 0.000000 -0.000002
# 2 -0.002669 0.012242 -0.006638 0.000001 -0.000001 -0.000004
# 3 -0.003183 -0.006638 0.018051 -0.000003 0.000001 0.000012
# 4 0.000000 0.000001 -0.000003 0.026862 0.000000 0.000005
# 5 0.000000 -0.000001 0.000001 0.000000 0.029054 -0.000002
# 6 -0.000002 -0.000004 0.000012 0.000005 -0.000002 0.049555
#
#
# Mechanical properties :
#
#
# Convention : Reuss Voigt Hill
#
# Bulk Modulus (GPa) = 57.49576 59.88665 58.69121
# Shear Modulus (GPa) = 27.99246 30.06495 29.02871
#
# Velocity S-wave (km/s) = 3.68591 3.81993 3.75352
# Velocity P-wave (km/s) = 6.78379 6.96573 6.87536
#
# Compressibility (1/GPa) = 0.01739259
#
# Stress axis : x y z
#
# Youngs Moduli (GPa) = 82.79532 81.68309 55.39744
#
# Poissons Ratio (x) = 0.21797 0.17635
# Poissons Ratio (y) = 0.22094 0.36771
# Poissons Ratio (z) = 0.26357 0.54218
#
# Static dielectric constant tensor:
#      x y z
#    x 3.645180 0.000000 0.000000 
#    y 0.000000 3.646650 -0.000010 
#    z 0.000000 -0.000010 3.662600 
# 
# 
# High freq. dielectric constant tensor:
#      x y z
#    x 1.791780 0.000000 0.000000 
#    y 0.000000 1.809860 0.000000 
#    z 0.000000 0.000000 1.807830 
# 
# From -- ./inp_files/8870.got.cif
#   From: 2010.03.12/outbox.cif.g09.slc.cpg/sg23_5_cif.got.tgz:8870.got - 2010.04.14 02:50:06.
