data_PCOD8163239
_publ_section_title
;
Structure prediction by ZEFSAII (Michael W. Deem and Ramdas Pophale) SiO2 
 PCOD8163239
Probable space group: I 2 2 2
;
_chemical_formula_sum "Si O2"
_cell_formula_units_Z 64
_cell_length_a 12.298507
_cell_length_b 8.731974
_cell_length_c 31.394243
_cell_angle_alpha 90.000000
_cell_angle_beta 90.000000
_cell_angle_gamma 90.000000
_cell_volume 3371.435396
_symmetry_space_group_name_H-M "I 2 2 2"
_symmetry_group_IT_number 23
_symmetry_cell_setting 'orthorhombic'
loop_
_space_group_symop_operation_xyz
x,y,z
-x,-y,z
x,-y,-z
-x,y,-z
1/2+x,1/2+y,1/2+z
1/2-x,1/2-y,1/2+z
1/2+x,1/2-y,1/2-z
1/2-x,1/2+y,1/2-z
loop_
_atom_site_type_symbol
_atom_site_label
_atom_site_fract_x
_atom_site_fract_y
_atom_site_fract_z
Si Si1 0.595788 0.891485 0.871567
Si Si2 0.303780 0.160925 0.589630
Si Si3 0.715531 0.160101 0.829996
Si Si4 0.018480 0.337666 0.860485
Si Si5 0.509987 0.320128 0.803760
Si Si6 0.770981 0.686046 0.913723
Si Si7 0.562377 0.652334 0.715689
Si Si8 0.377971 0.182278 0.500627
O O1 0.543492 0.758523 0.844134
O O2 0.669821 0.800302 0.905575
O O3 0.500000 0.000000 0.892387
O O4 0.666993 0.994702 0.839951
O O5 0.245530 0.266655 0.624209
O O6 0.431530 0.149821 0.601187
O O7 0.308135 0.234911 0.542284
O O8 0.242620 0.995763 0.587395
O O9 0.636360 0.271857 0.803857
O O10 0.813089 0.133863 0.797120
O O11 0.136255 0.294324 0.878125
O O12 0.000000 0.500000 0.836585
O O13 0.000225 0.213354 0.824950
O O14 0.500000 0.500000 0.811068
O O15 0.451516 0.256453 0.760387
O O16 0.814089 0.741284 0.959407
O O17 0.500000 0.500000 0.728301
O O18 0.500000 0.252423 0.500000
O O19 0.386120 0.000000 0.500000
#
# Coordination Sequence:
#
# PCOD8163239 Si02
#       8
#     8   8   8   8   8   8   8   8
#     4  10  22  38  55  75 103 146 190 226 272 330
#     4   9  17  31  52  82 113 142 176 215 265 332
#     4  10  21  37  55  76 110 147 175 223 282 324
#     4   9  17  28  48  80 113 142 174 212 264 330
#     4  10  22  39  57  78 102 136 188 237 271 323
#     4  10  17  30  55  80 109 148 178 219 272 313
#     4  10  21  35  53  79 109 140 180 226 273 330
#     4   9  15  27  52  86 118 140 172 220 268 327
#
# _framework density 18.983013
#
# number of rings (size 3 to 8) (size 9 to 14) (size 15 to 20)
#    0.000    2.375    1.250    1.500    0.000    4.500 
#    0.000    1.875    0.000    6.000    0.000   11.375 
#    0.000    0.000    0.000    0.000    0.000    0.000 
#
# Total GULP energy -396486.294116 kJ/mol
# GULP energy per Si atom -12390.196691 kJ/mol
# Density = 1.893981 g / cm^3
# Si number density = 18.983013 Si / 1000 Ang^3
#
#
#
# Elastic Constant Matrix: (Units=GPa)
#
#
# Indices 1 2 3 4 5 6 
#
# 1 123.0760 43.9431 51.3896 0.0000 0.0000 0.0000
# 2 43.9431 70.9810 28.5181 0.0000 0.0000 0.0000
# 3 51.3896 28.5181 86.2300 0.0000 0.0000 0.0000
# 4 0.0000 0.0000 0.0000 13.1745 0.0000 0.0000
# 5 0.0000 0.0000 0.0000 0.0000 -18.3582 0.0000
# 6 0.0000 0.0000 0.0000 0.0000 0.0000 26.4681
#
#
#
# Elastic Compliance Matrix: (Units=1/GPa)
#
#
# Indices 1 2 3 4 5 6 
#
# 1 0.012399 -0.005428 -0.005594 0.000000 0.000000 0.000000
# 2 -0.005428 0.018624 -0.002924 0.000000 0.000000 0.000000
# 3 -0.005594 -0.002924 0.015898 0.000000 0.000000 0.000000
# 4 0.000000 0.000000 0.000000 0.075904 0.000000 0.000000
# 5 0.000000 0.000000 0.000000 0.000000 -0.054472 0.000000
# 6 0.000000 0.000000 0.000000 0.000000 0.000000 0.037781
#
#
# Mechanical properties :
#
#
# Convention : Reuss Voigt Hill
#
# Bulk Modulus (GPa) = 52.55598 58.66540 55.61069
# Shear Modulus (GPa) = 35.62010 14.68597 25.15303
#
# Velocity S-wave (km/s) = 4.33647 2.78445 3.64404
# Velocity P-wave (km/s) = 7.26768 6.42719 6.86032
#
# Compressibility (1/GPa) = 0.01902733
#
# Stress axis : x y z
#
# Youngs Moduli (GPa) = 80.65183 53.69480 62.90200
#
# Poissons Ratio (x) = 0.29148 0.35187
# Poissons Ratio (y) = 0.43782 0.18393
# Poissons Ratio (z) = 0.45116 0.15701
#
# Static dielectric constant tensor:
#      x y z
#    x 3.630030 0.000000 0.000000 
#    y 0.000000 3.447380 0.000000 
#    z 0.000000 0.000000 3.494210 
# 
# 
# High freq. dielectric constant tensor:
#      x y z
#    x 1.730380 0.000000 0.000000 
#    y 0.000000 1.725210 0.000000 
#    z 0.000000 0.000000 1.738020 
# 
# From -- ./inp_files/8970.got.cif
#   From: 2010.03.12/outbox.cif.g09.slc.cpg/sg23_5_cif.got.tgz:8970.got - 2010.04.14 02:50:06.
