data_PCOD8163921
_publ_section_title
;
Structure prediction by ZEFSAII (Michael W. Deem and Ramdas Pophale) SiO2 
 PCOD8163921
Probable space group: I 2 2 2
;
_chemical_formula_sum "Si O2"
_cell_formula_units_Z 56
_cell_length_a 16.537186
_cell_length_b 11.921646
_cell_length_c 14.179895
_cell_angle_alpha 90.000000
_cell_angle_beta 90.000000
_cell_angle_gamma 90.000000
_cell_volume 2795.573068
_symmetry_space_group_name_H-M "I 2 2 2"
_symmetry_group_IT_number 23
_symmetry_cell_setting 'orthorhombic'
loop_
_space_group_symop_operation_xyz
x,y,z
-x,-y,z
x,-y,-z
-x,y,-z
1/2+x,1/2+y,1/2+z
1/2-x,1/2-y,1/2+z
1/2+x,1/2-y,1/2-z
1/2-x,1/2+y,1/2-z
loop_
_atom_site_type_symbol
_atom_site_label
_atom_site_fract_x
_atom_site_fract_y
_atom_site_fract_z
Si Si1 0.237124 0.764841 0.096523
Si Si2 0.667047 0.862296 0.730284
Si Si3 0.974958 0.872900 0.598382
Si Si4 0.303889 0.283233 0.104813
Si Si5 0.069499 0.881493 0.056371
Si Si6 0.992353 0.234036 0.781861
Si Si7 0.146475 0.379562 0.764401
O O1 0.292844 0.832056 0.169582
O O2 0.159451 0.835004 0.060747
O O3 0.206620 0.652791 0.149526
O O4 0.290436 0.741057 0.005025
O O5 0.731051 0.855242 0.646430
O O6 0.595133 0.782827 0.691263
O O7 0.636523 0.988308 0.742813
O O8 0.879782 0.864742 0.615957
O O9 0.000000 0.816032 0.500000
O O10 0.023711 0.804857 0.675944
O O11 0.000000 0.000000 0.600724
O O12 0.318375 0.169762 0.165713
O O13 0.027357 0.874863 0.160433
O O14 0.000000 0.808550 0.000000
O O15 0.073981 0.000000 0.000000
O O16 0.058211 0.332226 0.787739
#
# Coordination Sequence:
#
# PCOD8163921 Si02
#       7
#     8   8   8   8   8   8   8
#     4  10  22  40  60  91 128 159 211 266 315 379
#     4  11  22  38  65  88 120 169 199 261 325 370
#     4  10  22  38  59  85 118 163 203 250 312 374
#     4  10  22  39  57  91 122 151 211 263 300 383
#     4  10  22  38  59  92 122 165 207 260 319 376
#     4  10  21  41  59  87 125 159 211 259 308 389
#     4   9  22  39  58  88 122 159 211 253 316 384
#
# _framework density 20.031670999999999
#
# number of rings (size 3 to 8) (size 9 to 14) (size 15 to 20)
#    0.000    2.000    0.000    3.000    4.000    5.143 
#    2.571    0.000    0.000    5.143    0.000    0.000 
#    0.000    0.000    0.000    0.000    0.000    0.000 
#
# Total GULP energy -346894.654913 kJ/mol
# GULP energy per Si atom -12389.094818 kJ/mol
# Density = 1.998608 g / cm^3
# Si number density = 20.031671 Si / 1000 Ang^3
#
#
#
# Elastic Constant Matrix: (Units=GPa)
#
#
# Indices 1 2 3 4 5 6 
#
# 1 83.7669 35.1649 30.0854 0.0000 0.0000 0.0000
# 2 35.1649 94.2105 41.3415 0.0000 0.0000 0.0000
# 3 30.0854 41.3415 110.3680 0.0000 0.0000 0.0000
# 4 0.0000 0.0000 0.0000 21.0651 0.0000 0.0000
# 5 0.0000 0.0000 0.0000 0.0000 31.2226 0.0000
# 6 0.0000 0.0000 0.0000 0.0000 0.0000 23.6001
#
#
#
# Elastic Compliance Matrix: (Units=1/GPa)
#
#
# Indices 1 2 3 4 5 6 
#
# 1 0.014639 -0.004443 -0.002326 0.000000 0.000000 0.000000
# 2 -0.004443 0.014051 -0.004052 0.000000 0.000000 0.000000
# 3 -0.002326 -0.004052 0.011212 0.000000 0.000000 0.000000
# 4 0.000000 0.000000 0.000000 0.047472 0.000000 0.000000
# 5 0.000000 0.000000 0.000000 0.000000 0.032028 0.000000
# 6 0.000000 0.000000 0.000000 0.000000 0.000000 0.042373
#
#
# Mechanical properties :
#
#
# Convention : Reuss Voigt Hill
#
# Bulk Modulus (GPa) = 54.76600 55.72544 55.24572
# Shear Modulus (GPa) = 26.38468 27.29447 26.83958
#
# Velocity S-wave (km/s) = 3.63319 3.69530 3.66438
# Velocity P-wave (km/s) = 6.70814 6.78867 6.74853
#
# Compressibility (1/GPa) = 0.01825950
#
# Stress axis : x y z
#
# Youngs Moduli (GPa) = 68.31282 71.16858 89.18646
#
# Poissons Ratio (x) = 0.31622 0.20745
# Poissons Ratio (y) = 0.30353 0.36139
# Poissons Ratio (z) = 0.15889 0.28838
#
# Static dielectric constant tensor:
#      x y z
#    x 3.796240 0.000000 0.000000 
#    y 0.000000 3.324170 0.000000 
#    z 0.000000 0.000000 4.075060 
# 
# 
# High freq. dielectric constant tensor:
#      x y z
#    x 1.801090 0.000000 0.000000 
#    y 0.000000 1.754220 0.000000 
#    z 0.000000 0.000000 1.797850 
# 
# From -- ./inp_files/21615.got.cif
#   From: 2010.03.12/outbox.cif.g09.slc.cpg/sg23_11_cif.got.tgz:21615.got - 2010.04.14 02:50:06.
