data_PCOD8163278
_publ_section_title
;
Structure prediction by ZEFSAII (Michael W. Deem and Ramdas Pophale) SiO2 
 PCOD8163278
Probable space group: I 2 2 2
;
_chemical_formula_sum "Si O2"
_cell_formula_units_Z 52
_cell_length_a 10.831680
_cell_length_b 12.873990
_cell_length_c 21.385706
_cell_angle_alpha 90.000000
_cell_angle_beta 90.000000
_cell_angle_gamma 90.000000
_cell_volume 2982.171262
_symmetry_space_group_name_H-M "I 2 2 2"
_symmetry_group_IT_number 23
_symmetry_cell_setting 'orthorhombic'
loop_
_space_group_symop_operation_xyz
x,y,z
-x,-y,z
x,-y,-z
-x,y,-z
1/2+x,1/2+y,1/2+z
1/2-x,1/2-y,1/2+z
1/2+x,1/2-y,1/2-z
1/2-x,1/2+y,1/2-z
loop_
_atom_site_type_symbol
_atom_site_label
_atom_site_fract_x
_atom_site_fract_y
_atom_site_fract_z
Si Si1 0.205068 0.293465 0.666465
Si Si2 0.388441 0.803541 0.698752
Si Si3 0.444746 0.286493 0.065342
Si Si4 0.133539 0.124399 0.337467
Si Si5 0.000000 0.500000 0.865654
Si Si6 0.752118 0.918690 0.614461
Si Si7 0.451245 0.611993 0.300245
O O1 0.118342 0.306689 0.726343
O O2 0.118145 0.308699 0.604426
O O3 0.262290 0.176218 0.664238
O O4 0.316582 0.375592 0.668088
O O5 0.251776 0.800760 0.669323
O O6 0.457040 0.700601 0.674025
O O7 0.460722 0.906244 0.678702
O O8 0.554870 0.335136 0.105007
O O9 0.336875 0.375702 0.056580
O O10 0.500000 0.247267 0.000000
O O11 0.054218 0.124724 0.274393
O O12 0.174282 0.006901 0.349094
O O13 0.116978 0.539100 0.907692
O O14 0.500000 0.500000 0.320913
#
# Coordination Sequence:
#
# PCOD8163278 Si02
#       7
#     8   8   8   8   4   8   8
#     4   9  19  31  47  77 106 139 181 224 263 332
#     4  10  18  31  51  75 111 140 177 227 284 324
#     4  10  19  33  52  76 113 147 179 223 269 336
#     4  10  19  29  50  78 107 145 180 222 277 331
#     4  10  18  32  52  77 107 148 170 230 280 326
#     4   9  18  31  49  73 110 141 179 218 271 323
#     4  11  18  32  53  76 111 143 180 230 274 330
#
# _framework density 17.436959999999999
#
# number of rings (size 3 to 8) (size 9 to 14) (size 15 to 20)
#    0.923    1.231    3.077    2.308    0.000    1.231 
#    0.000    0.000    0.000   12.000    0.000    5.923 
#    0.000    0.000    0.000    0.000    0.000    0.000 
#
# Total GULP energy -322112.177875 kJ/mol
# GULP energy per Si atom -12388.929918 kJ/mol
# Density = 1.739727 g / cm^3
# Si number density = 17.436960 Si / 1000 Ang^3
#
#
#
# Elastic Constant Matrix: (Units=GPa)
#
#
# Indices 1 2 3 4 5 6 
#
# 1 108.6272 38.3254 42.8621 0.0000 0.0000 0.0000
# 2 38.3254 83.4563 18.9668 0.0000 0.0000 0.0000
# 3 42.8621 18.9668 76.2315 0.0000 0.0000 0.0000
# 4 0.0000 0.0000 0.0000 13.7726 0.0000 0.0000
# 5 0.0000 0.0000 0.0000 0.0000 18.0558 0.0000
# 6 0.0000 0.0000 0.0000 0.0000 0.0000 30.4406
#
#
#
# Elastic Compliance Matrix: (Units=1/GPa)
#
#
# Indices 1 2 3 4 5 6 
#
# 1 0.013367 -0.004696 -0.006347 0.000000 0.000000 0.000000
# 2 -0.004696 0.014350 -0.000930 0.000000 0.000000 0.000000
# 3 -0.006347 -0.000930 0.016918 0.000000 0.000000 0.000000
# 4 0.000000 0.000000 0.000000 0.072608 0.000000 0.000000
# 5 0.000000 0.000000 0.000000 0.000000 0.055384 0.000000
# 6 0.000000 0.000000 0.000000 0.000000 0.000000 0.032851
#
#
# Mechanical properties :
#
#
# Convention : Reuss Voigt Hill
#
# Bulk Modulus (GPa) = 48.33561 52.06928 50.20245
# Shear Modulus (GPa) = 21.15759 23.66452 22.41106
#
# Velocity S-wave (km/s) = 3.48713 3.68794 3.58894
# Velocity P-wave (km/s) = 6.63279 6.93259 6.78435
#
# Compressibility (1/GPa) = 0.02068868
#
# Stress axis : x y z
#
# Youngs Moduli (GPa) = 74.80988 69.68532 59.10768
#
# Poissons Ratio (x) = 0.32724 0.37519
# Poissons Ratio (y) = 0.35131 0.05497
# Poissons Ratio (z) = 0.47485 0.06481
#
# Static dielectric constant tensor:
#      x y z
#    x 3.612870 0.000000 0.000000 
#    y 0.000000 3.137820 0.000000 
#    z 0.000000 0.000000 2.776300 
# 
# 
# High freq. dielectric constant tensor:
#      x y z
#    x 1.698660 0.000000 0.000000 
#    y 0.000000 1.656970 0.000000 
#    z 0.000000 0.000000 1.622670 
# 
# From -- ./inp_files/24374.got.cif
#   From: 2010.03.12/outbox.cif.g09.slc.cpg/sg23_13_cif.got.tgz:24374.got - 2010.04.14 02:50:06.
