data_PCOD8163235
_publ_section_title
;
Structure prediction by ZEFSAII (Michael W. Deem and Ramdas Pophale) SiO2 
 PCOD8163235
Probable space group: I 2 2 2
;
_chemical_formula_sum "Si O2"
_cell_formula_units_Z 64
_cell_length_a 11.342403
_cell_length_b 10.025443
_cell_length_c 31.580140
_cell_angle_alpha 90.000000
_cell_angle_beta 90.000000
_cell_angle_gamma 90.000000
_cell_volume 3591.060294
_symmetry_space_group_name_H-M "I 2 2 2"
_symmetry_group_IT_number 23
_symmetry_cell_setting 'orthorhombic'
loop_
_space_group_symop_operation_xyz
x,y,z
-x,-y,z
x,-y,-z
-x,y,-z
1/2+x,1/2+y,1/2+z
1/2-x,1/2-y,1/2+z
1/2+x,1/2-y,1/2-z
1/2-x,1/2+y,1/2-z
loop_
_atom_site_type_symbol
_atom_site_label
_atom_site_fract_x
_atom_site_fract_y
_atom_site_fract_z
Si Si1 0.364154 0.514078 0.283720
Si Si2 0.371189 0.224902 0.663478
Si Si3 0.635751 0.016700 0.724261
Si Si4 0.501271 0.656952 0.952825
Si Si5 0.867236 0.243703 0.164951
Si Si6 0.741824 0.662586 0.082249
Si Si7 0.256432 0.652861 0.084867
Si Si8 0.869288 0.658483 0.998608
O O1 0.500000 0.500000 0.263789
O O2 0.347588 0.661476 0.302011
O O3 0.249968 0.488762 0.253858
O O4 0.353073 0.409477 0.321834
O O5 0.503663 0.230863 0.645615
O O6 0.286512 0.241716 0.623242
O O7 0.350228 0.082731 0.685060
O O8 0.650529 0.166460 0.706884
O O9 0.500000 0.000000 0.743920
O O10 0.500000 0.500000 0.960070
O O11 0.393170 0.702506 0.923946
O O12 0.611886 0.698605 0.925033
O O13 0.500000 0.722531 0.000000
O O14 0.774398 0.276033 0.128601
O O15 0.761614 0.505328 0.089392
O O16 0.804429 0.715538 0.039771
O O17 0.182644 0.710540 0.045508
O O18 0.859502 0.500000 0.000000
O O19 0.000000 0.713254 0.000000
#
# Coordination Sequence:
#
# PCOD8163235 Si02
#       8
#     8   8   8   8   8   8   8   8
#     4  10  22  40  56  77 108 141 171 210 269 322
#     4  10  20  35  56  78 106 137 172 216 259 307
#     4  10  20  38  60  81 104 133 173 222 265 308
#     4   9  16  28  44  69 111 145 165 211 267 305
#     4  10  20  35  56  78 106 137 172 216 259 307
#     4  10  17  29  47  73 105 137 175 209 258 306
#     4  10  17  29  47  73 105 137 175 209 258 306
#     4   9  16  23  41  70 100 130 166 214 253 296
#
# _framework density 17.822033000000001
#
# number of rings (size 3 to 8) (size 9 to 14) (size 15 to 20)
#    0.000    2.250    2.500    1.500    0.000    1.000 
#    4.500    0.000    0.000    0.750    0.000    4.375 
#    0.000    0.000    0.000    0.000    0.000    0.000 
#
# Total GULP energy -396532.694420 kJ/mol
# GULP energy per Si atom -12391.646701 kJ/mol
# Density = 1.778147 g / cm^3
# Si number density = 17.822033 Si / 1000 Ang^3
#
#
#
# Elastic Constant Matrix: (Units=GPa)
#
#
# Indices 1 2 3 4 5 6 
#
# 1 160.8474 9.0452 66.2785 0.0000 0.0000 0.0000
# 2 9.0452 34.3437 2.8099 0.0000 0.0000 0.0000
# 3 66.2785 2.8099 77.9306 0.0000 0.0000 0.0000
# 4 0.0000 0.0000 0.0000 11.7516 0.0000 0.0000
# 5 0.0000 0.0000 0.0000 0.0000 63.8577 0.0000
# 6 0.0000 0.0000 0.0000 0.0000 0.0000 15.6880
#
#
#
# Elastic Compliance Matrix: (Units=1/GPa)
#
#
# Indices 1 2 3 4 5 6 
#
# 1 0.009691 -0.001884 -0.008174 0.000000 0.000000 0.000000
# 2 -0.001884 0.029570 0.000536 0.000000 0.000000 0.000000
# 3 -0.008174 0.000536 0.019765 0.000000 0.000000 0.000000
# 4 0.000000 0.000000 0.000000 0.085094 0.000000 0.000000
# 5 0.000000 0.000000 0.000000 0.000000 0.015660 0.000000
# 6 0.000000 0.000000 0.000000 0.000000 0.000000 0.063743
#
#
# Mechanical properties :
#
#
# Convention : Reuss Voigt Hill
#
# Bulk Modulus (GPa) = 25.01163 47.70987 36.36075
# Shear Modulus (GPa) = 19.53930 31.25867 25.39898
#
# Velocity S-wave (km/s) = 3.31472 4.19254 3.77920
# Velocity P-wave (km/s) = 5.35858 7.08977 6.28408
#
# Compressibility (1/GPa) = 0.03998141
#
# Stress axis : x y z
#
# Youngs Moduli (GPa) = 103.18517 33.81840 50.59509
#
# Poissons Ratio (x) = 0.06370 0.41358
# Poissons Ratio (y) = 0.19436 -0.02711
# Poissons Ratio (z) = 0.84347 -0.01812
#
# Static dielectric constant tensor:
#      x y z
#    x 2.101270 0.000000 0.000000 
#    y 0.000000 2.900900 0.000000 
#    z 0.000000 0.000000 3.118220 
# 
# 
# High freq. dielectric constant tensor:
#      x y z
#    x 1.705480 0.000000 0.000000 
#    y 0.000000 1.645430 0.000000 
#    z 0.000000 0.000000 1.681750 
# 
# From -- ./inp_files/30476.got.cif
#   From: 2010.03.12/outbox.cif.g09.slc.cpg/sg23_16_cif.got.tgz:30476.got - 2010.04.14 02:50:06.
