data_PCOD8163370
_publ_section_title
;
Structure prediction by ZEFSAII (Michael W. Deem and Ramdas Pophale) SiO2 
 PCOD8163370
Probable space group: I 2 2 2
;
_chemical_formula_sum "Si O2"
_cell_formula_units_Z 56
_cell_length_a 4.983500
_cell_length_b 34.246861
_cell_length_c 16.143189
_cell_angle_alpha 90.000000
_cell_angle_beta 90.000000
_cell_angle_gamma 90.000000
_cell_volume 2755.145665
_symmetry_space_group_name_H-M "I 2 2 2"
_symmetry_group_IT_number 23
_symmetry_cell_setting 'orthorhombic'
loop_
_space_group_symop_operation_xyz
x,y,z
-x,-y,z
x,-y,-z
-x,y,-z
1/2+x,1/2+y,1/2+z
1/2-x,1/2-y,1/2+z
1/2+x,1/2-y,1/2-z
1/2-x,1/2+y,1/2-z
loop_
_atom_site_type_symbol
_atom_site_label
_atom_site_fract_x
_atom_site_fract_y
_atom_site_fract_z
Si Si1 0.584724 0.617618 0.094086
Si Si2 0.831416 0.273987 0.270656
Si Si3 0.568518 0.852843 0.317319
Si Si4 0.036333 0.044150 0.693950
Si Si5 0.470784 0.073554 0.218953
Si Si6 0.743811 0.599725 0.554546
Si Si7 0.739127 0.313020 0.444056
O O1 0.367117 0.637150 0.153884
O O2 0.631395 0.572049 0.118635
O O3 0.861461 0.641290 0.106687
O O4 0.500000 0.620787 0.000000
O O5 0.555965 0.259479 0.229646
O O6 0.945494 0.309152 0.215578
O O7 0.775568 0.286039 0.364687
O O8 0.474641 0.881218 0.242041
O O9 0.249247 0.049375 0.770718
O O10 0.737605 0.055822 0.717408
O O11 0.000000 0.000000 0.663152
O O12 0.335820 0.070848 0.128189
O O13 0.500000 0.581265 0.500000
O O14 0.658674 0.642964 0.586396
O O15 0.000000 0.606281 0.500000
O O16 0.500000 0.295684 0.500000
O O17 0.000000 0.312453 0.500000
#
# Coordination Sequence:
#
# PCOD8163370 Si02
#       7
#     8   8   8   8   8   8   8
#     4  10  21  38  62  86 117 156 200 250 296 352
#     4  12  24  40  61  87 120 161 201 244 301 368
#     4  10  21  39  58  84 114 151 201 242 296 353
#     4  10  21  35  58  87 118 157 196 242 299 348
#     4  10  19  36  58  82 117 150 192 247 285 354
#     4  10  19  32  57  87 110 142 189 245 295 335
#     4  10  21  38  59  84 116 146 190 253 303 341
#
# _framework density 20.325603999999998
#
# number of rings (size 3 to 8) (size 9 to 14) (size 15 to 20)
#    0.000    1.714    1.429    3.429    0.000    0.286 
#    0.000    7.143    0.000   11.571    0.000    0.000 
#    0.000    0.000    0.000    0.000    0.000    0.000 
#
# Total GULP energy -347174.732060 kJ/mol
# GULP energy per Si atom -12399.097574 kJ/mol
# Density = 2.027934 g / cm^3
# Si number density = 20.325604 Si / 1000 Ang^3
#
#
#
# Elastic Constant Matrix: (Units=GPa)
#
#
# Indices 1 2 3 4 5 6 
#
# 1 113.1818 20.9234 21.0950 0.0000 0.0000 0.0000
# 2 20.9234 79.1954 34.1261 0.0000 0.0000 0.0000
# 3 21.0950 34.1261 92.2044 0.0000 0.0000 0.0000
# 4 0.0000 0.0000 0.0000 20.5720 0.0000 0.0000
# 5 0.0000 0.0000 0.0000 0.0000 40.7252 0.0000
# 6 0.0000 0.0000 0.0000 0.0000 0.0000 28.7691
#
#
#
# Elastic Compliance Matrix: (Units=1/GPa)
#
#
# Indices 1 2 3 4 5 6 
#
# 1 0.009454 -0.001863 -0.001474 0.000000 0.000000 0.000000
# 2 -0.001863 0.015390 -0.005270 0.000000 0.000000 0.000000
# 3 -0.001474 -0.005270 0.013133 0.000000 0.000000 0.000000
# 4 0.000000 0.000000 0.000000 0.048610 0.000000 0.000000
# 5 0.000000 0.000000 0.000000 0.000000 0.024555 0.000000
# 6 0.000000 0.000000 0.000000 0.000000 0.000000 0.034760
#
#
# Mechanical properties :
#
#
# Convention : Reuss Voigt Hill
#
# Bulk Modulus (GPa) = 48.15826 48.54117 48.34971
# Shear Modulus (GPa) = 29.40558 31.90906 30.65732
#
# Velocity S-wave (km/s) = 3.80771 3.96649 3.88791
# Velocity P-wave (km/s) = 6.56326 6.70157 6.63277
#
# Compressibility (1/GPa) = 0.02076487
#
# Stress axis : x y z
#
# Youngs Moduli (GPa) = 105.77132 64.97731 76.14385
#
# Poissons Ratio (x) = 0.12104 0.11220
# Poissons Ratio (y) = 0.19704 0.40127
# Poissons Ratio (z) = 0.15586 0.34242
#
# Static dielectric constant tensor:
#      x y z
#    x 3.865530 0.000000 0.000000 
#    y 0.000000 3.613520 0.000000 
#    z 0.000000 0.000000 3.427020 
# 
# 
# High freq. dielectric constant tensor:
#      x y z
#    x 1.816890 0.000000 0.000000 
#    y 0.000000 1.772350 0.000000 
#    z 0.000000 0.000000 1.777510 
# 
# From -- ./inp_files/5366.got.cif
#   From: 2010.03.12/outbox.cif.g09.slc.cpg/sg23_3_cif.got.tgz:5366.got - 2010.04.14 02:50:06.
