data_PCOD8163046
_publ_section_title
;
Structure prediction by ZEFSAII (Michael W. Deem and Ramdas Pophale) SiO2 
 PCOD8163046
Probable space group: F 2 2 2
;
_chemical_formula_sum "Si O2"
_cell_formula_units_Z 80
_cell_length_a 8.302469
_cell_length_b 17.828250
_cell_length_c 25.076789
_cell_angle_alpha 90.000000
_cell_angle_beta 90.000000
_cell_angle_gamma 90.000000
_cell_volume 3711.828516
_symmetry_space_group_name_H-M "F 2 2 2"
_symmetry_group_IT_number 22
_symmetry_cell_setting 'orthorhombic'
loop_
_space_group_symop_operation_xyz
x,y,z
-x,-y,z
x,-y,-z
-x,y,-z
x,1/2+y,1/2+z
-x,1/2-y,1/2+z
x,1/2-y,1/2-z
-x,1/2+y,1/2-z
1/2+x,y,1/2+z
1/2-x,-y,1/2+z
1/2+x,-y,1/2-z
1/2-x,y,1/2-z
1/2+x,1/2+y,z
1/2-x,1/2-y,z
1/2+x,1/2-y,-z
1/2-x,1/2+y,-z
loop_
_atom_site_type_symbol
_atom_site_label
_atom_site_fract_x
_atom_site_fract_y
_atom_site_fract_z
Si Si1 0.427492 0.163456 0.725532
Si Si2 0.919168 0.921248 0.133190
Si Si3 0.927558 0.918613 0.316573
Si Si4 0.894268 0.300073 0.551300
Si Si5 0.076277 0.720434 0.142621
O O1 0.250000 0.147061 0.750000
O O2 0.445861 0.125301 0.666454
O O3 0.567641 0.124527 0.759896
O O4 0.450998 0.251681 0.705554
O O5 0.755756 0.927964 0.166566
O O6 0.866929 0.881687 0.077446
O O7 0.000000 0.000000 0.118741
O O8 0.042047 0.868953 0.356266
O O9 0.000000 0.000000 0.310417
O O10 0.750000 0.250000 0.528435
O O11 0.000000 0.313634 0.500000
O O12 0.953467 0.249765 0.599946
O O13 0.250000 0.750000 0.124418
#
# Coordination Sequence:
#
# PCOD8163046 Si02
#       5
#    16  16  16  16  16
#     4  11  22  39  66  98 139 187 232 277 334 407
#     4  11  25  44  66  98 141 181 227 285 346 413
#     4  12  24  40  65  96 143 184 229 276 341 409
#     4  11  24  47  74  97 127 170 229 289 351 414
#     4  11  23  42  70 100 132 178 233 283 338 410
#
# _framework density 21.552720999999998
#
# number of rings (size 3 to 8) (size 9 to 14) (size 15 to 20)
#    0.000    0.800    4.000    3.600    2.800    0.400 
#    0.000    2.000    0.000    0.600    0.000    0.000 
#    0.000    0.000    0.000    0.000    0.000    0.000 
#
# Total GULP energy -247767.426172 kJ/mol
# GULP energy per Si atom -12388.371309 kJ/mol
# Density = 2.150367 g / cm^3
# Si number density = 21.552721 Si / 1000 Ang^3
#
#
#
# Elastic Constant Matrix: (Units=GPa)
#
#
# Indices 1 2 3 4 5 6 
#
# 1 107.1235 54.3862 34.7488 0.0000 0.0000 0.0000
# 2 54.3862 150.3031 23.1726 0.0000 0.0000 0.0000
# 3 34.7488 23.1726 98.8174 0.0000 0.0000 0.0000
# 4 0.0000 0.0000 0.0000 -1.2020 0.0000 0.0000
# 5 0.0000 0.0000 0.0000 0.0000 19.5001 0.0000
# 6 0.0000 0.0000 0.0000 0.0000 0.0000 37.2699
#
#
#
# Elastic Compliance Matrix: (Units=1/GPa)
#
#
# Indices 1 2 3 4 5 6 
#
# 1 0.012477 -0.003982 -0.003454 0.000000 0.000000 0.000000
# 2 -0.003982 0.008174 -0.000516 0.000000 0.000000 0.000000
# 3 -0.003454 -0.000516 0.011455 0.000000 0.000000 0.000000
# 4 0.000000 0.000000 0.000000 -0.831971 0.000000 0.000000
# 5 0.000000 0.000000 0.000000 0.000000 0.051282 0.000000
# 6 0.000000 0.000000 0.000000 0.000000 0.000000 0.026831
#
#
# Mechanical properties :
#
#
# Convention : Reuss Voigt Hill
#
# Bulk Modulus (GPa) = 61.72301 64.53993 63.13147
# Shear Modulus (GPa) = -7.13830 27.37604 10.11887
#
# Velocity S-wave (km/s) = -1.82187 3.56784 2.16913
# Velocity P-wave (km/s) = 4.92694 6.85440 5.96898
#
# Compressibility (1/GPa) = 0.01620141
#
# Stress axis : x y z
#
# Youngs Moduli (GPa) = 80.14666 122.34202 87.29620
#
# Poissons Ratio (x) = 0.48720 0.30149
# Poissons Ratio (y) = 0.31917 0.04508
# Poissons Ratio (z) = 0.27680 0.06318
#
# Static dielectric constant tensor:
#      x y z
#    x 3.878370 0.000000 0.000000 
#    y 0.000000 4.213850 0.000000 
#    z 0.000000 0.000000 3.939570 
# 
# 
# High freq. dielectric constant tensor:
#      x y z
#    x 1.845580 0.000000 0.000000 
#    y 0.000000 1.861990 0.000000 
#    z 0.000000 0.000000 1.838950 
# 
# From -- ./inp_files/51788.got.cif
#   From: 2010.03.12/outbox.cif.g09.slc.cpg/sg22_26_cif.got.tgz:51788.got - 2010.04.14 02:24:06.
