data_PCOD8163915
_publ_section_title
;
Structure prediction by ZEFSAII (Michael W. Deem and Ramdas Pophale) SiO2 
 PCOD8163915
Probable space group: I 2 2 2
;
_chemical_formula_sum "Si O2"
_cell_formula_units_Z 52
_cell_length_a 7.812356
_cell_length_b 16.855507
_cell_length_c 19.733368
_cell_angle_alpha 90.000000
_cell_angle_beta 90.000000
_cell_angle_gamma 90.000000
_cell_volume 2598.513998
_symmetry_space_group_name_H-M "I 2 2 2"
_symmetry_group_IT_number 23
_symmetry_cell_setting 'orthorhombic'
loop_
_space_group_symop_operation_xyz
x,y,z
-x,-y,z
x,-y,-z
-x,y,-z
1/2+x,1/2+y,1/2+z
1/2-x,1/2-y,1/2+z
1/2+x,1/2-y,1/2-z
1/2-x,1/2+y,1/2-z
loop_
_atom_site_type_symbol
_atom_site_label
_atom_site_fract_x
_atom_site_fract_y
_atom_site_fract_z
Si Si1 0.189171 0.905589 0.269919
Si Si2 0.812101 0.699257 0.500000
Si Si3 0.800369 0.909843 0.882386
Si Si4 0.699630 0.409842 0.382386
Si Si5 0.500000 0.905529 0.359922
Si Si6 0.189170 0.905589 0.730080
Si Si7 0.000000 0.681693 0.000000
O O1 0.233591 0.877868 0.193674
O O2 0.331550 0.872352 0.321450
O O3 0.000000 0.874178 0.291328
O O4 0.187345 0.000000 0.270471
O O5 0.801184 0.645285 0.433487
O O6 0.801182 0.645287 0.566513
O O7 0.669827 0.766451 0.499999
O O8 0.000000 0.739436 0.500000
O O9 1.000000 0.905404 0.900256
O O10 0.734269 0.000000 0.890105
O O11 0.733590 0.377868 0.306326
O O12 0.668451 0.872352 0.321451
O O13 0.499999 0.874589 0.435493
O O14 0.500000 0.000000 0.360846
#
# Coordination Sequence:
#
# PCOD8163915 Si02
#       7
#     8   8   8   8   8   8   4
#     4   8  16  32  59  93 118 136 178 241 296 342
#     4  12  25  38  56  79 125 167 200 227 275 339
#     4   9  17  34  61  90 122 157 190 234 284 332
#     4   9  17  34  61  90 122 157 190 234 284 332
#     4  10  21  40  68  88 105 141 194 252 301 343
#     4   8  16  32  59  93 118 136 178 241 296 342
#     4  12  27  46  55  78 120 158 196 242 289 346
#
# _framework density 20.011437999999998
#
# number of rings (size 3 to 8) (size 9 to 14) (size 15 to 20)
#    0.000    2.462    1.538    2.538    2.154    3.692 
#    0.000    1.538    0.000    4.615    0.000    0.000 
#    0.000    0.000    0.000    0.000    0.000    0.000 
#
# Total GULP energy -322351.161993 kJ/mol
# GULP energy per Si atom -12398.121615 kJ/mol
# Density = 1.996589 g / cm^3
# Si number density = 20.011438 Si / 1000 Ang^3
#
#
#
# Elastic Constant Matrix: (Units=GPa)
#
#
# Indices 1 2 3 4 5 6 
#
# 1 155.1581 32.0406 81.4525 0.0000 0.0000 0.0000
# 2 32.0406 29.5025 26.6088 0.0000 0.0000 0.0000
# 3 81.4525 26.6088 151.9133 0.0000 0.0000 0.0000
# 4 0.0000 0.0000 0.0000 -4.3379 0.0000 0.0000
# 5 0.0000 0.0000 0.0000 0.0000 -69.1134 0.0000
# 6 0.0000 0.0000 0.0000 0.0000 0.0000 4.5144
#
#
#
# Elastic Compliance Matrix: (Units=1/GPa)
#
#
# Indices 1 2 3 4 5 6 
#
# 1 0.010125 -0.007244 -0.004160 0.000000 0.000000 0.000000
# 2 -0.007244 0.045438 -0.004075 0.000000 0.000000 0.000000
# 3 -0.004160 -0.004075 0.009527 0.000000 0.000000 0.000000
# 4 0.000000 0.000000 0.000000 -0.230524 0.000000 0.000000
# 5 0.000000 0.000000 0.000000 0.000000 -0.014469 0.000000
# 6 0.000000 0.000000 0.000000 0.000000 0.000000 0.221513
#
#
# Mechanical properties :
#
#
# Convention : Reuss Voigt Hill
#
# Bulk Modulus (GPa) = 29.29787 68.53084 48.91435
# Shear Modulus (GPa) = 59.56424 -0.68924 29.43750
#
# Velocity S-wave (km/s) = 5.46166 -0.58751 3.83957
# Velocity P-wave (km/s) = 7.37871 5.81893 6.64474
#
# Compressibility (1/GPa) = 0.03413218
#
# Stress axis : x y z
#
# Youngs Moduli (GPa) = 98.76867 22.00825 104.96695
#
# Poissons Ratio (x) = 0.15943 0.43664
# Poissons Ratio (y) = 0.71547 0.42771
# Poissons Ratio (z) = 0.41086 0.08968
#
# Static dielectric constant tensor:
#      x y z
#    x 3.931630 0.000000 0.000000 
#    y 0.000000 3.179220 0.000000 
#    z 0.000000 0.000000 3.732320 
# 
# 
# High freq. dielectric constant tensor:
#      x y z
#    x 1.788860 0.000000 0.000000 
#    y 0.000000 1.736970 0.000000 
#    z 0.000000 0.000000 1.786630 
# 
# From -- ./inp_files/23852.got.cif
#   From: 2010.03.12/outbox.cif.g09.slc.cpg/sg23_12_cif.got.tgz:23852.got - 2010.04.14 02:50:06.
