data_PCOD8163496
_publ_section_title
;
Structure prediction by ZEFSAII (Michael W. Deem and Ramdas Pophale) SiO2 
 PCOD8163496
Probable space group: I 2 2 2
;
_chemical_formula_sum "Si O2"
_cell_formula_units_Z 64
_cell_length_a 11.228494
_cell_length_b 14.266315
_cell_length_c 20.288534
_cell_angle_alpha 90.000000
_cell_angle_beta 90.000000
_cell_angle_gamma 90.000000
_cell_volume 3250.004688
_symmetry_space_group_name_H-M "I 2 2 2"
_symmetry_group_IT_number 23
_symmetry_cell_setting 'orthorhombic'
loop_
_space_group_symop_operation_xyz
x,y,z
-x,-y,z
x,-y,-z
-x,y,-z
1/2+x,1/2+y,1/2+z
1/2-x,1/2-y,1/2+z
1/2+x,1/2-y,1/2-z
1/2-x,1/2+y,1/2-z
loop_
_atom_site_type_symbol
_atom_site_label
_atom_site_fract_x
_atom_site_fract_y
_atom_site_fract_z
Si Si1 0.790756 0.217742 0.173143
Si Si2 0.027502 0.284960 0.927620
Si Si3 0.739089 0.902707 0.463671
Si Si4 0.358087 0.395216 0.828130
Si Si5 0.372535 0.394919 0.200652
Si Si6 0.855933 0.391990 0.430179
Si Si7 0.261514 0.793960 0.409715
Si Si8 0.134439 0.600522 0.579530
O O1 0.902819 0.218185 0.123208
O O2 0.740137 0.319430 0.197044
O O3 0.826082 0.157939 0.235559
O O4 0.684426 0.171100 0.132990
O O5 0.107524 0.378854 0.935268
O O6 0.901190 0.307683 0.895145
O O7 0.000000 0.238578 0.000000
O O8 0.838835 0.906904 0.406902
O O9 0.773951 0.820442 0.515070
O O10 0.729922 0.000000 0.500000
O O11 0.347435 0.494341 0.790122
O O12 0.492350 0.362905 0.813588
O O13 0.298420 0.368125 0.137224
O O14 0.781547 0.311590 0.392599
O O15 0.814975 0.385271 0.506201
O O16 0.829805 0.494385 0.399566
O O17 0.995566 0.376909 0.422156
#
# Coordination Sequence:
#
# PCOD8163496 Si02
#       8
#     8   8   8   8   8   8   8   8
#     4  11  23  42  65  83 129 175 203 264 317 378
#     4   9  21  37  61  92 124 160 213 256 316 379
#     4  10  19  39  66  92 126 168 205 273 325 376
#     4  10  23  45  62  91 126 162 220 263 317 381
#     4  11  25  40  62  90 126 172 209 258 315 384
#     4   9  18  34  62  91 120 148 205 271 306 373
#     4  11  21  36  60  96 124 160 208 254 325 382
#     4   9  18  36  60  90 117 157 205 258 323 359
#
# _framework density 19.692278999999999
#
# number of rings (size 3 to 8) (size 9 to 14) (size 15 to 20)
#    0.000    2.000    1.250    3.750    1.750    4.750 
#    2.250    0.000    0.000    3.750    0.000    0.000 
#    0.000    0.000    0.000    0.000    0.000    0.000 
#
# Total GULP energy -396613.821587 kJ/mol
# GULP energy per Si atom -12394.181925 kJ/mol
# Density = 1.964746 g / cm^3
# Si number density = 19.692279 Si / 1000 Ang^3
#
#
#
# Elastic Constant Matrix: (Units=GPa)
#
#
# Indices 1 2 3 4 5 6 
#
# 1 93.4814 43.0160 46.1852 0.0000 0.0000 0.0000
# 2 43.0160 99.6529 39.2384 0.0000 0.0000 0.0000
# 3 46.1852 39.2384 78.2899 0.0000 0.0000 0.0000
# 4 0.0000 0.0000 0.0000 36.4233 0.0000 0.0000
# 5 0.0000 0.0000 0.0000 0.0000 27.0450 0.0000
# 6 0.0000 0.0000 0.0000 0.0000 0.0000 26.3284
#
#
#
# Elastic Compliance Matrix: (Units=1/GPa)
#
#
# Indices 1 2 3 4 5 6 
#
# 1 0.016313 -0.004052 -0.007593 0.000000 0.000000 0.000000
# 2 -0.004052 0.013509 -0.004380 0.000000 0.000000 0.000000
# 3 -0.007593 -0.004380 0.019447 0.000000 0.000000 0.000000
# 4 0.000000 0.000000 0.000000 0.027455 0.000000 0.000000
# 5 0.000000 0.000000 0.000000 0.000000 0.036975 0.000000
# 6 0.000000 0.000000 0.000000 0.000000 0.000000 0.037982
#
#
# Mechanical properties :
#
#
# Convention : Reuss Voigt Hill
#
# Bulk Modulus (GPa) = 58.07330 58.70038 58.38684
# Shear Modulus (GPa) = 26.38933 27.49164 26.94049
#
# Velocity S-wave (km/s) = 3.66469 3.74044 3.70276
# Velocity P-wave (km/s) = 6.88919 6.96621 6.92781
#
# Compressibility (1/GPa) = 0.01721962
#
# Stress axis : x y z
#
# Youngs Moduli (GPa) = 61.30039 74.02708 51.42087
#
# Poissons Ratio (x) = 0.29996 0.39042
# Poissons Ratio (y) = 0.24839 0.22522
# Poissons Ratio (z) = 0.46543 0.32424
#
# Static dielectric constant tensor:
#      x y z
#    x 3.589740 0.000000 0.000000 
#    y 0.000000 3.729510 0.000000 
#    z 0.000000 0.000000 3.474460 
# 
# 
# High freq. dielectric constant tensor:
#      x y z
#    x 1.766100 0.000000 0.000000 
#    y 0.000000 1.770890 0.000000 
#    z 0.000000 0.000000 1.750960 
# 
# From -- ./inp_files/24433.got.cif
#   From: 2010.03.12/outbox.cif.g09.slc.cpg/sg23_13_cif.got.tgz:24433.got - 2010.04.14 02:50:06.
