data_PCOD8163707
_publ_section_title
;
Structure prediction by ZEFSAII (Michael W. Deem and Ramdas Pophale) SiO2 
 PCOD8163707
Probable space group: I 2 2 2
;
_chemical_formula_sum "Si O2"
_cell_formula_units_Z 40
_cell_length_a 16.966721
_cell_length_b 8.472618
_cell_length_c 11.796374
_cell_angle_alpha 90.000000
_cell_angle_beta 90.000000
_cell_angle_gamma 90.000000
_cell_volume 1695.758793
_symmetry_space_group_name_H-M "I 2 2 2"
_symmetry_group_IT_number 23
_symmetry_cell_setting 'orthorhombic'
loop_
_space_group_symop_operation_xyz
x,y,z
-x,-y,z
x,-y,-z
-x,y,-z
1/2+x,1/2+y,1/2+z
1/2-x,1/2-y,1/2+z
1/2+x,1/2-y,1/2-z
1/2-x,1/2+y,1/2-z
loop_
_atom_site_type_symbol
_atom_site_label
_atom_site_fract_x
_atom_site_fract_y
_atom_site_fract_z
Si Si1 0.379755 0.427071 0.612067
Si Si2 0.678268 0.076253 0.620943
Si Si3 0.695177 0.792616 0.787968
Si Si4 0.466518 0.825303 0.112943
Si Si5 0.030648 0.227736 0.847777
O O1 0.337827 0.500000 0.500000
O O2 0.318834 0.342531 0.693577
O O3 0.451384 0.303761 0.572597
O O4 0.418568 0.573025 0.674688
O O5 0.726620 0.239022 0.643702
O O6 0.584809 0.120812 0.620230
O O7 0.700292 0.000000 0.500000
O O8 0.702410 0.956555 0.720529
O O9 0.628448 0.814887 0.883957
O O10 0.494019 0.741627 0.224858
O O11 0.500000 0.000000 0.112239
O O12 0.500000 0.738821 0.000000
#
# Coordination Sequence:
#
# PCOD8163707 Si02
#       5
#     8   8   8   8   8
#     4  10  21  40  67  98 133 179 224 279 336 393
#     4  12  26  44  67 100 141 183 221 279 351 408
#     4  11  25  44  66 100 137 176 229 281 330 417
#     4  10  21  42  68  94 125 174 225 272 330 383
#     4  10  20  39  64  97 133 169 226 276 327 405
#
# _framework density 23.588260999999999
#
# number of rings (size 3 to 8) (size 9 to 14) (size 15 to 20)
#    0.000    1.400    2.000    3.600    0.000    4.800 
#    0.000    9.000    0.000    0.000    0.000    0.000 
#    0.000    0.000    0.000    0.000    0.000    0.000 
#
# Total GULP energy -247792.704583 kJ/mol
# GULP energy per Si atom -12389.635229 kJ/mol
# Density = 2.353457 g / cm^3
# Si number density = 23.588261 Si / 1000 Ang^3
#
#
#
# Elastic Constant Matrix: (Units=GPa)
#
#
# Indices 1 2 3 4 5 6 
#
# 1 96.2863 12.8657 29.0716 0.0000 0.0000 0.0000
# 2 12.8657 62.0427 3.1908 0.0000 0.0000 0.0000
# 3 29.0716 3.1908 49.1365 0.0000 0.0000 0.0000
# 4 0.0000 0.0000 0.0000 45.5156 0.0000 0.0000
# 5 0.0000 0.0000 0.0000 0.0000 19.4910 0.0000
# 6 0.0000 0.0000 0.0000 0.0000 0.0000 35.8450
#
#
#
# Elastic Compliance Matrix: (Units=1/GPa)
#
#
# Indices 1 2 3 4 5 6 
#
# 1 0.012964 -0.002302 -0.007521 0.000000 0.000000 0.000000
# 2 -0.002302 0.016581 0.000285 0.000000 0.000000 0.000000
# 3 -0.007521 0.000285 0.024783 0.000000 0.000000 0.000000
# 4 0.000000 0.000000 0.000000 0.021970 0.000000 0.000000
# 5 0.000000 0.000000 0.000000 0.000000 0.051306 0.000000
# 6 0.000000 0.000000 0.000000 0.000000 0.000000 0.027898
#
#
# Mechanical properties :
#
#
# Convention : Reuss Voigt Hill
#
# Bulk Modulus (GPa) = 28.36667 33.08019 30.72343
# Shear Modulus (GPa) = 26.83465 30.99281 28.91373
#
# Velocity S-wave (km/s) = 3.37653 3.62872 3.50490
# Velocity P-wave (km/s) = 5.22046 5.62239 5.42515
#
# Compressibility (1/GPa) = 0.03525264
#
# Stress axis : x y z
#
# Youngs Moduli (GPa) = 77.13716 60.31168 40.35100
#
# Poissons Ratio (x) = 0.13881 0.30346
# Poissons Ratio (y) = 0.17753 -0.01150
# Poissons Ratio (z) = 0.58012 -0.01719
#
# Static dielectric constant tensor:
#      x y z
#    x 4.395950 0.000000 0.000000 
#    y 0.000000 4.310370 0.000000 
#    z 0.000000 0.000000 5.800820 
# 
# 
# High freq. dielectric constant tensor:
#      x y z
#    x 1.927660 0.000000 0.000000 
#    y 0.000000 1.939870 0.000000 
#    z 0.000000 0.000000 1.938350 
# 
# From -- ./inp_files/17238.got.cif
#   From: 2010.03.12/outbox.cif.g09.slc.cpg/sg23_9_cif.got.tgz:17238.got - 2010.04.14 02:50:06.
