data_PCOD8163082
_publ_section_title
;
Structure prediction by ZEFSAII (Michael W. Deem and Ramdas Pophale) SiO2 
 PCOD8163082
Probable space group: F 2 2 2
;
_chemical_formula_sum "Si O2"
_cell_formula_units_Z 120
_cell_length_a 12.555832
_cell_length_b 19.346586
_cell_length_c 22.817054
_cell_angle_alpha 90.000000
_cell_angle_beta 90.000000
_cell_angle_gamma 90.000000
_cell_volume 5542.547255
_symmetry_space_group_name_H-M "F 2 2 2"
_symmetry_group_IT_number 22
_symmetry_cell_setting 'orthorhombic'
loop_
_space_group_symop_operation_xyz
x,y,z
-x,-y,z
x,-y,-z
-x,y,-z
x,1/2+y,1/2+z
-x,1/2-y,1/2+z
x,1/2-y,1/2-z
-x,1/2+y,1/2-z
1/2+x,y,1/2+z
1/2-x,-y,1/2+z
1/2+x,-y,1/2-z
1/2-x,y,1/2-z
1/2+x,1/2+y,z
1/2-x,1/2-y,z
1/2+x,1/2-y,-z
1/2-x,1/2+y,-z
loop_
_atom_site_type_symbol
_atom_site_label
_atom_site_fract_x
_atom_site_fract_y
_atom_site_fract_z
Si Si1 0.634509 0.896583 0.774439
Si Si2 0.304210 0.943844 0.049992
Si Si3 0.535905 0.316475 0.782407
Si Si4 0.329889 0.189290 0.523172
Si Si5 0.515375 0.874433 0.887380
Si Si6 0.542645 0.223521 0.587015
Si Si7 0.250000 0.875896 0.750000
Si Si8 0.670499 0.971083 0.159513
O O1 0.750000 0.873077 0.750000
O O2 0.548216 0.879012 0.724109
O O3 0.597625 0.856213 0.834128
O O4 0.629949 0.977999 0.788755
O O5 0.217855 0.886756 0.031969
O O6 0.418122 0.907004 0.059070
O O7 0.270134 0.983514 0.109853
O O8 0.315700 0.000000 0.000000
O O9 0.484825 0.250000 0.750000
O O10 0.565870 0.306640 0.849532
O O11 0.643957 0.330753 0.746621
O O12 0.250000 0.250000 0.542176
O O13 0.430817 0.194647 0.565098
O O14 0.362543 0.199001 0.455337
O O15 0.456971 0.806661 0.911173
O O16 0.429389 0.930591 0.867154
O O17 0.245024 0.920360 0.810024
#
# Coordination Sequence:
#
# PCOD8163082 Si02
#       8
#    16  16  16  16  16  16   8  16
#     4  11  23  41  67 105 143 181 228 292 364 420
#     4  11  26  44  73 104 138 182 240 300 367 422
#     4  12  26  44  70 105 143 190 236 288 356 436
#     4  11  26  48  72 101 143 186 242 300 367 431
#     4  11  23  46  71 107 142 180 239 308 355 429
#     4  11  26  46  72 104 145 188 242 295 364 432
#     4  12  25  44  72 100 145 196 232 282 356 438
#     4  11  25  43  72 106 144 179 238 298 357 430
#
# _framework density 21.650694999999999
#
# number of rings (size 3 to 8) (size 9 to 14) (size 15 to 20)
#    0.000    0.800    4.667    1.800    7.467    2.400 
#    0.000    1.333    0.000    0.000    0.000    0.000 
#    0.000    0.000    0.000    0.000    0.000    0.000 
#
# Total GULP energy -372011.329106 kJ/mol
# GULP energy per Si atom -12400.377637 kJ/mol
# Density = 2.160142 g / cm^3
# Si number density = 21.650695 Si / 1000 Ang^3
#
#
#
# Elastic Constant Matrix: (Units=GPa)
#
#
# Indices 1 2 3 4 5 6 
#
# 1 110.3359 47.6742 30.9305 0.0000 0.0000 0.0000
# 2 47.6742 124.3843 60.6999 0.0000 0.0000 0.0000
# 3 30.9305 60.6999 105.4898 0.0000 0.0000 0.0000
# 4 0.0000 0.0000 0.0000 40.2929 0.0000 0.0000
# 5 0.0000 0.0000 0.0000 0.0000 32.6833 0.0000
# 6 0.0000 0.0000 0.0000 0.0000 0.0000 26.6404
#
#
#
# Elastic Compliance Matrix: (Units=1/GPa)
#
#
# Indices 1 2 3 4 5 6 
#
# 1 0.010954 -0.003658 -0.001107 0.000000 0.000000 0.000000
# 2 -0.003658 0.012400 -0.006063 0.000000 0.000000 0.000000
# 3 -0.001107 -0.006063 0.013293 0.000000 0.000000 0.000000
# 4 0.000000 0.000000 0.000000 0.024818 0.000000 0.000000
# 5 0.000000 0.000000 0.000000 0.000000 0.030597 0.000000
# 6 0.000000 0.000000 0.000000 0.000000 0.000000 0.037537
#
#
# Mechanical properties :
#
#
# Convention : Reuss Voigt Hill
#
# Bulk Modulus (GPa) = 66.70422 68.75767 67.73094
# Shear Modulus (GPa) = 31.99957 33.31701 32.65829
#
# Velocity S-wave (km/s) = 3.84864 3.92706 3.88805
# Velocity P-wave (km/s) = 7.11516 7.23803 7.17686
#
# Compressibility (1/GPa) = 0.01499156
#
# Stress axis : x y z
#
# Youngs Moduli (GPa) = 91.28881 80.64256 75.22981
#
# Poissons Ratio (x) = 0.29503 0.08326
# Poissons Ratio (y) = 0.33398 0.45609
# Poissons Ratio (z) = 0.10103 0.48891
#
# Static dielectric constant tensor:
#      x y z
#    x 3.807350 0.000000 0.000000 
#    y 0.000000 4.008630 0.000000 
#    z 0.000000 0.000000 4.156440 
# 
# 
# High freq. dielectric constant tensor:
#      x y z
#    x 1.839340 0.000000 0.000000 
#    y 0.000000 1.856950 0.000000 
#    z 0.000000 0.000000 1.857930 
# 
# From -- ./inp_files/24000.got.cif
#   From: 2010.03.12/outbox.cif.g09.slc.cpg/sg22_12_cif.got.tgz:24000.got - 2010.04.14 02:24:06.
