data_PCOD8163173
_publ_section_title
;
Structure prediction by ZEFSAII (Michael W. Deem and Ramdas Pophale) SiO2 
 PCOD8163173
Probable space group: F 2 2 2
;
_chemical_formula_sum "Si O2"
_cell_formula_units_Z 88
_cell_length_a 11.490809
_cell_length_b 14.501137
_cell_length_c 21.493976
_cell_angle_alpha 90.000000
_cell_angle_beta 90.000000
_cell_angle_gamma 90.000000
_cell_volume 3581.536826
_symmetry_space_group_name_H-M "F 2 2 2"
_symmetry_group_IT_number 22
_symmetry_cell_setting 'orthorhombic'
loop_
_space_group_symop_operation_xyz
x,y,z
-x,-y,z
x,-y,-z
-x,y,-z
x,1/2+y,1/2+z
-x,1/2-y,1/2+z
x,1/2-y,1/2-z
-x,1/2+y,1/2-z
1/2+x,y,1/2+z
1/2-x,-y,1/2+z
1/2+x,-y,1/2-z
1/2-x,y,1/2-z
1/2+x,1/2+y,z
1/2-x,1/2-y,z
1/2+x,1/2-y,-z
1/2-x,1/2+y,-z
loop_
_atom_site_type_symbol
_atom_site_label
_atom_site_fract_x
_atom_site_fract_y
_atom_site_fract_z
Si Si1 0.191466 0.895495 0.001469
Si Si2 0.756987 0.144514 0.634579
Si Si3 0.364910 0.000671 0.706852
Si Si4 0.500000 0.243063 0.000000
Si Si5 0.504092 0.100993 0.888362
Si Si6 0.736472 0.643607 0.632511
O O1 0.278511 0.885173 0.059780
O O2 0.261019 0.873467 0.939228
O O3 0.102963 0.813538 0.013722
O O4 0.138728 0.000000 0.000000
O O5 0.750000 0.250000 0.653461
O O6 0.882881 0.106492 0.657349
O O7 0.648297 0.091394 0.664984
O O8 0.250000 0.000715 0.750000
O O9 0.345344 0.090598 0.663339
O O10 0.500000 0.000000 0.732870
O O11 0.517218 0.182442 0.938718
O O12 0.391912 0.114448 0.842765
O O13 0.500000 0.000000 0.920118
O O14 0.750000 0.750000 0.646219
#
# Coordination Sequence:
#
# PCOD8163173 Si02
#       6
#    16  16  16   8  16  16
#     4  12  23  41  68 115 162 208 251 307 377 468
#     4  12  26  47  77 114 157 202 254 310 387 461
#     4  12  32  57  85 110 148 199 268 324 388 453
#     4  12  24  36  66 112 170 206 258 300 380 460
#     4  12  23  41  69 105 161 205 251 305 371 450
#     4  12  26  47  77 114 157 202 254 310 387 461
#
# _framework density 24.570459
#
# number of rings (size 3 to 8) (size 9 to 14) (size 15 to 20)
#    0.000    0.000    7.273    2.182    7.636    0.727 
#    0.000    1.818    0.000    0.000    0.000    0.000 
#    0.000    0.000    0.000    0.000    0.000    0.000 
#
# Total GULP energy -272583.011680 kJ/mol
# GULP energy per Si atom -12390.136895 kJ/mol
# Density = 2.451454 g / cm^3
# Si number density = 24.570459 Si / 1000 Ang^3
#
#
#
# Elastic Constant Matrix: (Units=GPa)
#
#
# Indices 1 2 3 4 5 6 
#
# 1 172.4597 43.2167 35.9273 0.0000 0.0000 0.0000
# 2 43.2167 226.8218 12.3505 0.0000 0.0000 0.0000
# 3 35.9273 12.3505 35.5877 0.0000 0.0000 0.0000
# 4 0.0000 0.0000 0.0000 2.2876 0.0000 0.0000
# 5 0.0000 0.0000 0.0000 0.0000 28.6069 0.0000
# 6 0.0000 0.0000 0.0000 0.0000 0.0000 35.8332
#
#
#
# Elastic Compliance Matrix: (Units=1/GPa)
#
#
# Indices 1 2 3 4 5 6 
#
# 1 0.007579 -0.001047 -0.007288 0.000000 0.000000 0.000000
# 2 -0.001047 0.004638 -0.000552 0.000000 0.000000 0.000000
# 3 -0.007288 -0.000552 0.035649 0.000000 0.000000 0.000000
# 4 0.000000 0.000000 0.000000 0.437145 0.000000 0.000000
# 5 0.000000 0.000000 0.000000 0.000000 0.034957 0.000000
# 6 0.000000 0.000000 0.000000 0.000000 0.000000 0.027907
#
#
# Mechanical properties :
#
#
# Convention : Reuss Voigt Hill
#
# Bulk Modulus (GPa) = 33.23266 68.65092 50.94179
# Shear Modulus (GPa) = 8.68537 36.23719 22.46128
#
# Velocity S-wave (km/s) = 1.88217 3.84451 3.02678
# Velocity P-wave (km/s) = 4.27530 6.90711 5.74397
#
# Compressibility (1/GPa) = 0.03009088
#
# Stress axis : x y z
#
# Youngs Moduli (GPa) = 131.94102 215.59346 28.05136
#
# Poissons Ratio (x) = 0.22578 0.20444
# Poissons Ratio (y) = 0.13817 0.01550
# Poissons Ratio (z) = 0.96159 0.11911
#
# Static dielectric constant tensor:
#      x y z
#    x 4.962420 0.000000 0.000000 
#    y 0.000000 4.817540 0.000000 
#    z 0.000000 0.000000 4.141710 
# 
# 
# High freq. dielectric constant tensor:
#      x y z
#    x 1.993830 0.000000 0.000000 
#    y 0.000000 2.005200 0.000000 
#    z 0.000000 0.000000 1.939320 
# 
# From -- ./inp_files/48056.got.cif
#   From: 2010.03.12/outbox.cif.g09.slc.cpg/sg22_25_cif.got.tgz:48056.got - 2010.04.14 02:24:06.
