data_PCOD8163874
_publ_section_title
;
Structure prediction by ZEFSAII (Michael W. Deem and Ramdas Pophale) SiO2 
 PCOD8163874
Probable space group: I 2 2 2
;
_chemical_formula_sum "Si O2"
_cell_formula_units_Z 48
_cell_length_a 7.981837
_cell_length_b 16.565560
_cell_length_c 18.099041
_cell_angle_alpha 90.000000
_cell_angle_beta 90.000000
_cell_angle_gamma 90.000000
_cell_volume 2393.120353
_symmetry_space_group_name_H-M "I 2 2 2"
_symmetry_group_IT_number 23
_symmetry_cell_setting 'orthorhombic'
loop_
_space_group_symop_operation_xyz
x,y,z
-x,-y,z
x,-y,-z
-x,y,-z
1/2+x,1/2+y,1/2+z
1/2-x,1/2-y,1/2+z
1/2+x,1/2-y,1/2-z
1/2-x,1/2+y,1/2-z
loop_
_atom_site_type_symbol
_atom_site_label
_atom_site_fract_x
_atom_site_fract_y
_atom_site_fract_z
Si Si1 0.186502 0.828966 0.157418
Si Si2 0.697662 0.500000 0.084285
Si Si3 0.190490 0.645362 0.814379
Si Si4 0.309510 0.854638 0.685621
Si Si5 0.313500 0.671034 0.342582
Si Si6 0.500001 0.911271 0.086488
O O1 0.196134 0.861351 0.241478
O O2 0.215062 0.733310 0.150706
O O3 0.329542 0.867272 0.108134
O O4 0.000001 0.851669 0.128251
O O5 0.500000 0.500000 0.085099
O O6 0.761997 0.579842 0.124738
O O7 0.761997 0.420159 0.124738
O O8 0.765607 0.500000 0.000000
O O9 0.215061 0.733310 0.849294
O O10 1.000000 0.632233 0.788325
O O11 0.196134 0.861351 0.758522
O O12 0.170461 0.632728 0.391867
O O13 0.500000 0.000000 0.123099
O O14 0.500000 0.918063 0.000000
#
# Coordination Sequence:
#
# PCOD8163874 Si02
#       6
#     8   8   8   8   8   8
#     4  10  22  41  67  95 124 165 214 262 313 369
#     4  11  25  39  57  93 135 174 211 255 317 383
#     4  10  21  39  64  93 126 166 215 259 305 375
#     4  10  21  39  64  93 126 166 215 259 305 375
#     4  10  22  41  67  95 124 165 214 262 313 369
#     4  11  26  44  64  93 125 165 211 261 326 378
#
# _framework density 20.057494999999999
#
# number of rings (size 3 to 8) (size 9 to 14) (size 15 to 20)
#    0.000    1.667    1.667    1.500    7.000    4.000 
#    0.000    5.000    0.000    0.000    0.000    0.000 
#    0.000    0.000    0.000    0.000    0.000    0.000 
#
# Total GULP energy -297608.607720 kJ/mol
# GULP energy per Si atom -12400.358655 kJ/mol
# Density = 2.001184 g / cm^3
# Si number density = 20.057495 Si / 1000 Ang^3
#
#
#
# Elastic Constant Matrix: (Units=GPa)
#
#
# Indices 1 2 3 4 5 6 
#
# 1 149.9185 60.4454 37.3646 0.0000 0.0000 0.0000
# 2 60.4454 128.2024 67.0300 0.0000 0.0000 0.0000
# 3 37.3646 67.0300 82.4116 0.0000 0.0000 0.0000
# 4 0.0000 0.0000 0.0000 23.5901 0.0000 0.0000
# 5 0.0000 0.0000 0.0000 0.0000 30.2677 0.0000
# 6 0.0000 0.0000 0.0000 0.0000 0.0000 25.7779
#
#
#
# Elastic Compliance Matrix: (Units=1/GPa)
#
#
# Indices 1 2 3 4 5 6 
#
# 1 0.008284 -0.003379 -0.001008 0.000000 0.000000 0.000000
# 2 -0.003379 0.014950 -0.010628 0.000000 0.000000 0.000000
# 3 -0.001008 -0.010628 0.021235 0.000000 0.000000 0.000000
# 4 0.000000 0.000000 0.000000 0.042391 0.000000 0.000000
# 5 0.000000 0.000000 0.000000 0.000000 0.033038 0.000000
# 6 0.000000 0.000000 0.000000 0.000000 0.000000 0.038793
#
#
# Mechanical properties :
#
#
# Convention : Reuss Voigt Hill
#
# Bulk Modulus (GPa) = 69.24919 76.69028 72.96973
# Shear Modulus (GPa) = 25.83551 28.97332 27.40442
#
# Velocity S-wave (km/s) = 3.59287 3.80480 3.70035
# Velocity P-wave (km/s) = 7.19805 7.59080 7.39703
#
# Compressibility (1/GPa) = 0.01444060
#
# Stress axis : x y z
#
# Youngs Moduli (GPa) = 120.71869 66.89046 47.09201
#
# Poissons Ratio (x) = 0.22601 0.04745
# Poissons Ratio (y) = 0.40789 0.50047
# Poissons Ratio (z) = 0.12163 0.71088
#
# Static dielectric constant tensor:
#      x y z
#    x 3.863880 0.000000 0.000000 
#    y 0.000000 3.747790 0.000000 
#    z 0.000000 0.000000 3.504110 
# 
# 
# High freq. dielectric constant tensor:
#      x y z
#    x 1.802610 0.000000 0.000000 
#    y 0.000000 1.790400 0.000000 
#    z 0.000000 0.000000 1.768040 
# 
# From -- ./inp_files/11037.got.cif
#   From: 2010.03.12/outbox.cif.g09.slc.cpg/sg23_6_cif.got.tgz:11037.got - 2010.04.14 02:50:06.
