data_PCOD8163884
_publ_section_title
;
Structure prediction by ZEFSAII (Michael W. Deem and Ramdas Pophale) SiO2 
 PCOD8163884
Probable space group: I 2 2 2
;
_chemical_formula_sum "Si O2"
_cell_formula_units_Z 58
_cell_length_a 17.500196
_cell_length_b 5.332413
_cell_length_c 27.772942
_cell_angle_alpha 90.000000
_cell_angle_beta 90.000000
_cell_angle_gamma 90.000000
_cell_volume 2591.722974
_symmetry_space_group_name_H-M "I 2 2 2"
_symmetry_group_IT_number 23
_symmetry_cell_setting 'orthorhombic'
loop_
_space_group_symop_operation_xyz
x,y,z
-x,-y,z
x,-y,-z
-x,y,-z
1/2+x,1/2+y,1/2+z
1/2-x,1/2-y,1/2+z
1/2+x,1/2-y,1/2-z
1/2-x,1/2+y,1/2-z
loop_
_atom_site_type_symbol
_atom_site_label
_atom_site_fract_x
_atom_site_fract_y
_atom_site_fract_z
Si Si1 0.214459 0.199838 0.959105
Si Si2 0.000000 0.000000 0.500000
Si Si3 0.047648 0.257466 0.716609
Si Si4 0.914695 0.488730 0.083030
Si Si5 0.146302 0.257360 0.625463
Si Si6 0.811552 0.125624 0.873420
Si Si7 0.876827 0.775317 0.433697
Si Si8 0.076782 0.844594 0.178459
O O1 0.142503 0.388215 0.958644
O O2 0.299179 0.317242 0.965795
O O3 0.219845 0.102299 0.904833
O O4 0.197553 0.000000 0.000000
O O5 0.948354 0.196042 0.530495
O O6 0.116647 0.267688 0.679570
O O7 0.080109 0.296702 0.770633
O O8 0.000000 0.500000 0.702844
O O9 0.000000 0.000000 0.712535
O O10 0.881159 0.759044 0.095772
O O11 0.917612 0.342036 0.133622
O O12 0.000000 0.500000 0.060991
O O13 0.237116 0.203541 0.633356
O O14 0.123097 0.504076 0.593762
O O15 0.112334 0.006951 0.602501
O O16 0.848677 0.027031 0.823649
O O17 0.000000 0.000000 0.173574
#
# Coordination Sequence:
#
# PCOD8163884 Si02
#       8
#     8   2   8   8   8   8   8   8
#     4  10  24  44  66  96 140 182 224 290 358 421
#     4  12  32  46  80 114 130 194 248 294 340 442
#     4  11  25  44  69 102 140 187 232 289 363 418
#     4  11  20  39  71  95 131 181 236 293 352 422
#     4  11  25  49  68 102 146 188 224 298 358 425
#     4  10  22  42  65  95 134 181 230 280 353 409
#     4  11  27  47  73 102 145 179 241 290 357 418
#     4  10  21  39  66  99 131 178 234 291 338 428
#
# _framework density 22.378935999999999
#
# number of rings (size 3 to 8) (size 9 to 14) (size 15 to 20)
#    0.000    1.379    2.759    1.241    8.690    1.103 
#    2.483    2.069    0.000    0.000    0.000    0.000 
#    0.000    0.000    0.000    0.000    0.000    0.000 
#
# Total GULP energy -359303.749265 kJ/mol
# GULP energy per Si atom -12389.784457 kJ/mol
# Density = 2.232800 g / cm^3
# Si number density = 22.378936 Si / 1000 Ang^3
#
#
#
# Elastic Constant Matrix: (Units=GPa)
#
#
# Indices 1 2 3 4 5 6 
#
# 1 154.3315 22.8004 45.2698 0.0000 0.0000 0.0000
# 2 22.8004 94.2782 14.3801 0.0000 0.0000 0.0000
# 3 45.2698 14.3801 79.5812 0.0000 0.0000 0.0000
# 4 0.0000 0.0000 0.0000 41.5572 0.0000 0.0000
# 5 0.0000 0.0000 0.0000 0.0000 23.8902 0.0000
# 6 0.0000 0.0000 0.0000 0.0000 0.0000 32.1577
#
#
#
# Elastic Compliance Matrix: (Units=1/GPa)
#
#
# Indices 1 2 3 4 5 6 
#
# 1 0.007921 -0.001263 -0.004278 0.000000 0.000000 0.000000
# 2 -0.001263 0.011109 -0.001289 0.000000 0.000000 0.000000
# 3 -0.004278 -0.001289 0.015232 0.000000 0.000000 0.000000
# 4 0.000000 0.000000 0.000000 0.024063 0.000000 0.000000
# 5 0.000000 0.000000 0.000000 0.000000 0.041858 0.000000
# 6 0.000000 0.000000 0.000000 0.000000 0.000000 0.031097
#
#
# Mechanical properties :
#
#
# Convention : Reuss Voigt Hill
#
# Bulk Modulus (GPa) = 48.53713 54.78793 51.66253
# Shear Modulus (GPa) = 32.93664 35.90373 34.42018
#
# Velocity S-wave (km/s) = 3.84053 4.00978 3.92607
# Velocity P-wave (km/s) = 6.43444 6.78033 6.60965
#
# Compressibility (1/GPa) = 0.02060278
#
# Stress axis : x y z
#
# Youngs Moduli (GPa) = 126.24832 90.01732 65.65149
#
# Poissons Ratio (x) = 0.11371 0.28083
# Poissons Ratio (y) = 0.15947 0.08461
# Poissons Ratio (z) = 0.54003 0.11601
#
# Static dielectric constant tensor:
#      x y z
#    x 4.557780 0.000000 0.000000 
#    y 0.000000 4.160690 0.000000 
#    z 0.000000 0.000000 4.042010 
# 
# 
# High freq. dielectric constant tensor:
#      x y z
#    x 1.895630 0.000000 0.000000 
#    y 0.000000 1.883390 0.000000 
#    z 0.000000 0.000000 1.872830 
# 
# From -- ./inp_files/23270.got.cif
#   From: 2010.03.12/outbox.cif.g09.slc.cpg/sg23_12_cif.got.tgz:23270.got - 2010.04.14 02:50:06.
