data_PCOD8163885
_publ_section_title
;
Structure prediction by ZEFSAII (Michael W. Deem and Ramdas Pophale) SiO2 
 PCOD8163885
Probable space group: I 2 2 2
;
_chemical_formula_sum "Si O2"
_cell_formula_units_Z 64
_cell_length_a 11.475141
_cell_length_b 14.981163
_cell_length_c 15.450592
_cell_angle_alpha 90.000000
_cell_angle_beta 90.000000
_cell_angle_gamma 90.000000
_cell_volume 2656.126069
_symmetry_space_group_name_H-M "I 2 2 2"
_symmetry_group_IT_number 23
_symmetry_cell_setting 'orthorhombic'
loop_
_space_group_symop_operation_xyz
x,y,z
-x,-y,z
x,-y,-z
-x,y,-z
1/2+x,1/2+y,1/2+z
1/2-x,1/2-y,1/2+z
1/2+x,1/2-y,1/2-z
1/2-x,1/2+y,1/2-z
loop_
_atom_site_type_symbol
_atom_site_label
_atom_site_fract_x
_atom_site_fract_y
_atom_site_fract_z
Si Si1 0.577917 0.831583 0.240107
Si Si2 0.571048 0.743133 0.411458
Si Si3 0.176076 0.048431 0.911677
Si Si4 0.550438 0.408788 0.115491
Si Si5 0.202995 0.205287 0.489690
Si Si6 0.313745 0.334409 0.175043
Si Si7 0.265516 0.476497 0.754477
Si Si8 0.920820 0.375364 0.573457
O O1 0.512746 0.794078 0.328141
O O2 0.683005 0.758530 0.228121
O O3 0.639075 0.928746 0.249303
O O4 0.487265 0.840013 0.159887
O O5 0.500000 0.752220 0.500000
O O6 0.601369 0.638335 0.396015
O O7 0.690243 0.798065 0.423669
O O8 0.315970 0.059723 0.900900
O O9 0.157286 0.977693 0.834150
O O10 0.138167 0.000000 0.000000
O O11 0.500000 0.500000 0.082279
O O12 0.604729 0.367396 0.029311
O O13 0.451855 0.350278 0.161022
O O14 0.657040 0.421037 0.180471
O O15 0.251666 0.186458 0.585377
O O16 0.138568 0.298841 0.483858
O O17 0.248868 0.418041 0.219709
O O18 0.000000 0.423154 0.500000
#
# Coordination Sequence:
#
# PCOD8163885 Si02
#       8
#     8   8   8   8   8   8   8   8
#     4  12  23  45  72 103 153 194 243 299 373 449
#     4  11  27  49  70 104 148 205 243 294 378 462
#     4  11  26  46  68 101 147 188 251 305 358 442
#     4  10  21  39  67 103 137 172 235 305 361 417
#     4  11  21  44  70 107 140 177 246 306 369 436
#     4  11  23  42  72 105 140 184 241 311 366 427
#     4  11  25  42  67 105 145 190 235 304 373 436
#     4  11  22  41  74 107 136 183 241 308 374 426
#
# _framework density 24.095241999999999
#
# number of rings (size 3 to 8) (size 9 to 14) (size 15 to 20)
#    0.000    1.000    5.000    1.125    1.750    7.500 
#    2.250    0.000    0.000    0.000    0.000    0.000 
#    0.000    0.000    0.000    0.000    0.000    0.000 
#
# Total GULP energy -396512.376630 kJ/mol
# GULP energy per Si atom -12391.011770 kJ/mol
# Density = 2.404040 g / cm^3
# Si number density = 24.095242 Si / 1000 Ang^3
#
#
#
# Elastic Constant Matrix: (Units=GPa)
#
#
# Indices 1 2 3 4 5 6 
#
# 1 43.9561 14.3263 -2.8031 0.0000 0.0000 0.0000
# 2 14.3263 89.8419 17.2555 0.0000 0.0000 0.0000
# 3 -2.8031 17.2555 119.6465 0.0000 0.0000 0.0000
# 4 0.0000 0.0000 0.0000 34.7864 0.0000 0.0000
# 5 0.0000 0.0000 0.0000 0.0000 25.6121 0.0000
# 6 0.0000 0.0000 0.0000 0.0000 0.0000 24.2687
#
#
#
# Elastic Compliance Matrix: (Units=1/GPa)
#
#
# Indices 1 2 3 4 5 6 
#
# 1 0.024151 -0.004073 0.001153 0.000000 0.000000 0.000000
# 2 -0.004073 0.012135 -0.001845 0.000000 0.000000 0.000000
# 3 0.001153 -0.001845 0.008651 0.000000 0.000000 0.000000
# 4 0.000000 0.000000 0.000000 0.028747 0.000000 0.000000
# 5 0.000000 0.000000 0.000000 0.000000 0.039044 0.000000
# 6 0.000000 0.000000 0.000000 0.000000 0.000000 0.041205
#
#
# Mechanical properties :
#
#
# Convention : Reuss Voigt Hill
#
# Bulk Modulus (GPa) = 28.24323 34.55575 31.39949
# Shear Modulus (GPa) = 28.52826 31.91116 30.21971
#
# Velocity S-wave (km/s) = 3.44463 3.64315 3.54528
# Velocity P-wave (km/s) = 5.25049 5.66296 5.46062
#
# Compressibility (1/GPa) = 0.03540672
#
# Stress axis : x y z
#
# Youngs Moduli (GPa) = 41.40641 82.40942 115.59191
#
# Poissons Ratio (x) = 0.33562 -0.13330
# Poissons Ratio (y) = 0.16863 0.21332
# Poissons Ratio (z) = -0.04775 0.15208
#
# Static dielectric constant tensor:
#      x y z
#    x 3.371890 0.000000 0.000000 
#    y 0.000000 4.447880 0.000000 
#    z 0.000000 0.000000 4.476050 
# 
# 
# High freq. dielectric constant tensor:
#      x y z
#    x 1.935450 0.000000 0.000000 
#    y 0.000000 1.957820 0.000000 
#    z 0.000000 0.000000 1.978000 
# 
# From -- ./inp_files/21072.got.cif
#   From: 2010.03.12/outbox.cif.g09.slc.cpg/sg23_11_cif.got.tgz:21072.got - 2010.04.14 02:50:06.
