data_PCOD8163863
_publ_section_title
;
Structure prediction by ZEFSAII (Michael W. Deem and Ramdas Pophale) SiO2 
 PCOD8163863
Probable space group: I 2 2 2
;
_chemical_formula_sum "Si O2"
_cell_formula_units_Z 40
_cell_length_a 23.746229
_cell_length_b 8.394121
_cell_length_c 9.268060
_cell_angle_alpha 90.000000
_cell_angle_beta 90.000000
_cell_angle_gamma 90.000000
_cell_volume 1847.390532
_symmetry_space_group_name_H-M "I 2 2 2"
_symmetry_group_IT_number 23
_symmetry_cell_setting 'orthorhombic'
loop_
_space_group_symop_operation_xyz
x,y,z
-x,-y,z
x,-y,-z
-x,y,-z
1/2+x,1/2+y,1/2+z
1/2-x,1/2-y,1/2+z
1/2+x,1/2-y,1/2-z
1/2-x,1/2+y,1/2-z
loop_
_atom_site_type_symbol
_atom_site_label
_atom_site_fract_x
_atom_site_fract_y
_atom_site_fract_z
Si Si1 0.858915 0.653282 0.899905
Si Si2 0.567539 0.680297 0.845929
Si Si3 0.826469 0.800278 0.173957
Si Si4 0.941278 0.807462 0.676086
Si Si5 0.249190 0.490670 0.165282
O O1 0.907081 0.701226 0.788799
O O2 0.802592 0.613164 0.811398
O O3 0.875495 0.500000 0.000000
O O4 0.844820 0.802257 0.006413
O O5 0.618781 0.761744 0.761574
O O6 0.506260 0.740087 0.794918
O O7 0.569954 0.493976 0.806276
O O8 0.575850 0.729268 0.011983
O O9 0.774127 0.682769 0.203696
O O10 0.802375 0.969871 0.230744
O O11 0.270962 0.500000 0.000000
#
# Coordination Sequence:
#
# PCOD8163863 Si02
#       5
#     8   8   8   8   8
#     4   9  21  41  60  88 127 161 207 262 310 376
#     4   9  20  36  64  92 119 160 205 256 305 382
#     4  10  21  39  61  89 120 162 208 249 318 359
#     4   9  19  39  62  91 123 157 204 255 318 369
#     4   9  22  40  56  87 124 161 207 254 302 370
#
# _framework density 21.652162000000001
#
# number of rings (size 3 to 8) (size 9 to 14) (size 15 to 20)
#    0.000    3.200    0.000    1.200    5.600    3.200 
#    3.600   22.000    0.000    9.600    0.000    0.000 
#    0.000    0.000    0.000    0.000    0.000    0.000 
#
# Total GULP energy -247796.445252 kJ/mol
# GULP energy per Si atom -12389.822263 kJ/mol
# Density = 2.160288 g / cm^3
# Si number density = 21.652162 Si / 1000 Ang^3
#
#
#
# Elastic Constant Matrix: (Units=GPa)
#
#
# Indices 1 2 3 4 5 6 
#
# 1 101.1871 19.8183 63.7602 0.0000 0.0000 0.0000
# 2 19.8183 23.6155 30.8809 0.0000 0.0000 0.0000
# 3 63.7602 30.8809 87.6028 0.0000 0.0000 0.0000
# 4 0.0000 0.0000 0.0000 37.5203 0.0000 0.0000
# 5 0.0000 0.0000 0.0000 0.0000 41.8771 0.0000
# 6 0.0000 0.0000 0.0000 0.0000 0.0000 26.8900
#
#
#
# Elastic Compliance Matrix: (Units=1/GPa)
#
#
# Indices 1 2 3 4 5 6 
#
# 1 0.018442 0.003850 -0.014780 0.000000 0.000000 0.000000
# 2 0.003850 0.079360 -0.030778 0.000000 0.000000 0.000000
# 3 -0.014780 -0.030778 0.033022 0.000000 0.000000 0.000000
# 4 0.000000 0.000000 0.000000 0.026652 0.000000 0.000000
# 5 0.000000 0.000000 0.000000 0.000000 0.023879 0.000000
# 6 0.000000 0.000000 0.000000 0.000000 0.000000 0.037189
#
#
# Mechanical properties :
#
#
# Convention : Reuss Voigt Hill
#
# Bulk Modulus (GPa) = 21.09278 49.03603 35.06441
# Shear Modulus (GPa) = 15.73509 27.78722 21.76115
#
# Velocity S-wave (km/s) = 2.69870 3.58627 3.17367
# Velocity P-wave (km/s) = 4.41287 6.31227 5.44602
#
# Compressibility (1/GPa) = 0.04740958
#
# Stress axis : x y z
#
# Youngs Moduli (GPa) = 54.22541 12.60075 30.28303
#
# Poissons Ratio (x) = -0.04852 0.44757
# Poissons Ratio (y) = -0.20879 0.93205
# Poissons Ratio (z) = 0.80143 0.38782
#
# Static dielectric constant tensor:
#      x y z
#    x 4.042440 0.000000 0.000000 
#    y 0.000000 3.591240 0.000000 
#    z 0.000000 0.000000 3.765990 
# 
# 
# High freq. dielectric constant tensor:
#      x y z
#    x 1.859000 0.000000 0.000000 
#    y 0.000000 1.828950 0.000000 
#    z 0.000000 0.000000 1.842120 
# 
# From -- ./inp_files/12422.got.cif
#   From: 2010.03.12/outbox.cif.g09.slc.cpg/sg23_7_cif.got.tgz:12422.got - 2010.04.14 02:50:06.
