data_PCOD8163887
_publ_section_title
;
Structure prediction by ZEFSAII (Michael W. Deem and Ramdas Pophale) SiO2 
 PCOD8163887
Probable space group: I 2 2 2
;
_chemical_formula_sum "Si O2"
_cell_formula_units_Z 48
_cell_length_a 14.807745
_cell_length_b 5.992349
_cell_length_c 24.016832
_cell_angle_alpha 90.000000
_cell_angle_beta 90.000000
_cell_angle_gamma 90.000000
_cell_volume 2131.089779
_symmetry_space_group_name_H-M "I 2 2 2"
_symmetry_group_IT_number 23
_symmetry_cell_setting 'orthorhombic'
loop_
_space_group_symop_operation_xyz
x,y,z
-x,-y,z
x,-y,-z
-x,y,-z
1/2+x,1/2+y,1/2+z
1/2-x,1/2-y,1/2+z
1/2+x,1/2-y,1/2-z
1/2-x,1/2+y,1/2-z
loop_
_atom_site_type_symbol
_atom_site_label
_atom_site_fract_x
_atom_site_fract_y
_atom_site_fract_z
Si Si1 0.644962 0.689399 0.792087
Si Si2 0.777478 0.698320 0.082646
Si Si3 0.086249 0.881730 0.392805
Si Si4 0.000000 0.500000 0.327739
Si Si5 0.819527 0.035748 0.177753
Si Si6 0.919392 0.325323 0.093418
Si Si7 0.384645 0.500000 0.500000
O O1 0.616796 0.528765 0.841113
O O2 0.568205 0.876141 0.786377
O O3 0.741663 0.790386 0.806966
O O4 0.641953 0.557876 0.734727
O O5 0.672829 0.647948 0.067076
O O6 0.828223 0.461904 0.082492
O O7 0.783448 0.826142 0.141823
O O8 0.818061 0.853043 0.035971
O O9 0.059022 0.643730 0.369880
O O10 0.000000 0.000000 0.423145
O O11 0.901128 0.164798 0.146140
O O12 0.000000 0.500000 0.104735
O O13 0.943993 0.165517 0.040085
#
# Coordination Sequence:
#
# PCOD8163887 Si02
#       7
#     8   8   8   4   8   8   4
#     4  11  22  41  63 100 137 189 231 275 336 417
#     4  11  22  45  68 101 132 175 228 286 351 418
#     4  10  21  39  68  98 134 182 223 273 337 410
#     4  10  22  40  62  97 134 188 233 270 328 414
#     4  11  24  40  67  98 143 184 232 283 350 408
#     4  11  26  49  71 101 138 177 236 302 355 426
#     4  10  26  43  78  99 126 180 232 289 372 427
#
# _framework density 22.523688
#
# number of rings (size 3 to 8) (size 9 to 14) (size 15 to 20)
#    0.000    1.333    3.333    1.500    0.000    4.667 
#   12.000    0.000    1.833    7.500    0.000    0.000 
#    0.000    0.000    0.000    0.000    0.000    0.000 
#
# Total GULP energy -297579.171952 kJ/mol
# GULP energy per Si atom -12399.132165 kJ/mol
# Density = 2.247242 g / cm^3
# Si number density = 22.523688 Si / 1000 Ang^3
#
#
#
# Elastic Constant Matrix: (Units=GPa)
#
#
# Indices 1 2 3 4 5 6 
#
# 1 140.9368 43.2586 22.0190 0.0000 0.0000 0.0000
# 2 43.2586 110.9620 21.0012 0.0000 0.0000 0.0000
# 3 22.0190 21.0012 65.5337 0.0000 0.0000 0.0000
# 4 0.0000 0.0000 0.0000 31.4523 0.0000 0.0000
# 5 0.0000 0.0000 0.0000 0.0000 25.7816 0.0000
# 6 0.0000 0.0000 0.0000 0.0000 0.0000 52.0195
#
#
#
# Elastic Compliance Matrix: (Units=1/GPa)
#
#
# Indices 1 2 3 4 5 6 
#
# 1 0.008267 -0.002871 -0.001857 0.000000 0.000000 0.000000
# 2 -0.002871 0.010591 -0.002429 0.000000 0.000000 0.000000
# 3 -0.001857 -0.002429 0.016662 0.000000 0.000000 0.000000
# 4 0.000000 0.000000 0.000000 0.031794 0.000000 0.000000
# 5 0.000000 0.000000 0.000000 0.000000 0.038787 0.000000
# 6 0.000000 0.000000 0.000000 0.000000 0.000000 0.019224
#
#
# Mechanical properties :
#
#
# Convention : Reuss Voigt Hill
#
# Bulk Modulus (GPa) = 47.16138 54.44335 50.80237
# Shear Modulus (GPa) = 34.08098 37.26093 35.67095
#
# Velocity S-wave (km/s) = 3.89410 4.07172 3.98390
# Velocity P-wave (km/s) = 6.41893 6.80656 6.61559
#
# Compressibility (1/GPa) = 0.02120379
#
# Stress axis : x y z
#
# Youngs Moduli (GPa) = 120.96459 94.41744 60.01699
#
# Poissons Ratio (x) = 0.27110 0.11148
# Poissons Ratio (y) = 0.34732 0.14580
# Poissons Ratio (z) = 0.22469 0.22938
#
# Static dielectric constant tensor:
#      x y z
#    x 4.380840 0.000000 0.000000 
#    y 0.000000 4.544870 0.000000 
#    z 0.000000 0.000000 3.899920 
# 
# 
# High freq. dielectric constant tensor:
#      x y z
#    x 1.902590 0.000000 0.000000 
#    y 0.000000 1.914100 0.000000 
#    z 0.000000 0.000000 1.863480 
# 
# From -- ./inp_files/29580.got.cif
#   From: 2010.03.12/outbox.cif.g09.slc.cpg/sg23_15_cif.got.tgz:29580.got - 2010.04.14 02:50:06.
