data_PCOD8163835
_publ_section_title
;
Structure prediction by ZEFSAII (Michael W. Deem and Ramdas Pophale) SiO2 
 PCOD8163835
Probable space group: I 2 2 2
;
_chemical_formula_sum "Si O2"
_cell_formula_units_Z 26
_cell_length_a 5.012430
_cell_length_b 27.791444
_cell_length_c 9.277506
_cell_angle_alpha 90.000000
_cell_angle_beta 90.000000
_cell_angle_gamma 90.000000
_cell_volume 1292.381335
_symmetry_space_group_name_H-M "I 2 2 2"
_symmetry_group_IT_number 23
_symmetry_cell_setting 'orthorhombic'
loop_
_space_group_symop_operation_xyz
x,y,z
-x,-y,z
x,-y,-z
-x,y,-z
1/2+x,1/2+y,1/2+z
1/2-x,1/2-y,1/2+z
1/2+x,1/2-y,1/2-z
1/2-x,1/2+y,1/2-z
loop_
_atom_site_type_symbol
_atom_site_label
_atom_site_fract_x
_atom_site_fract_y
_atom_site_fract_z
Si Si1 0.744445 0.529893 0.728453
Si Si2 0.052512 0.231168 0.170054
Si Si3 0.500000 0.500000 0.000000
Si Si4 0.253705 0.630961 0.404723
O O1 0.500000 0.500000 0.653800
O O2 0.690929 0.532777 0.900249
O O3 0.806483 0.584676 0.690172
O O4 0.000000 0.500000 0.683688
O O5 0.277160 0.265708 0.239617
O O6 0.161832 0.176954 0.190258
O O7 0.000000 0.242755 0.000000
O O8 0.500000 0.614575 0.500000
O O9 0.000000 0.646011 0.500000
#
# Coordination Sequence:
#
# PCOD8163835 Si02
#       4
#     8   8   2   8
#     4  10  21  38  60  87 124 166 201 256 307 368
#     4  11  23  44  67  96 132 172 217 275 332 387
#     4   8  22  40  56  80 134 160 198 266 298 360
#     4  11  23  40  64  92 128 164 209 263 318 377
#
# _framework density 20.117902000000001
#
# number of rings (size 3 to 8) (size 9 to 14) (size 15 to 20)
#    0.923    0.615    0.000    6.923    0.000    3.692 
#    5.538    0.000    0.000    0.000    0.000    0.000 
#    0.000    0.000    0.000    0.000    0.000    0.000 
#
# Total GULP energy -161073.119084 kJ/mol
# GULP energy per Si atom -12390.239930 kJ/mol
# Density = 2.007211 g / cm^3
# Si number density = 20.117902 Si / 1000 Ang^3
#
#
#
# Elastic Constant Matrix: (Units=GPa)
#
#
# Indices 1 2 3 4 5 6 
#
# 1 151.7093 41.3159 43.3777 0.0000 0.0000 0.0000
# 2 41.3159 139.8285 53.4246 0.0002 0.0000 0.0000
# 3 43.3777 53.4246 90.3512 0.0003 0.0000 0.0000
# 4 0.0000 0.0002 0.0003 6.8345 0.0000 0.0000
# 5 0.0000 0.0000 0.0000 0.0000 14.4009 0.0000
# 6 0.0000 0.0000 0.0000 0.0000 0.0000 38.0260
#
#
#
# Elastic Compliance Matrix: (Units=1/GPa)
#
#
# Indices 1 2 3 4 5 6 
#
# 1 0.007775 -0.001125 -0.003067 0.000000 0.000000 0.000000
# 2 -0.001125 0.009402 -0.005019 0.000000 0.000000 0.000000
# 3 -0.003067 -0.005019 0.015508 0.000000 0.000000 0.000000
# 4 0.000000 0.000000 0.000000 0.146316 0.000000 0.000000
# 5 0.000000 0.000000 0.000000 0.000000 0.069440 0.000000
# 6 0.000000 0.000000 0.000000 0.000000 0.000000 0.026298
#
#
# Mechanical properties :
#
#
# Convention : Reuss Voigt Hill
#
# Bulk Modulus (GPa) = 70.11802 73.12506 71.62154
# Shear Modulus (GPa) = 16.78325 28.10368 22.44347
#
# Velocity S-wave (km/s) = 2.89146 3.74163 3.34368
# Velocity P-wave (km/s) = 6.78798 7.42251 7.11232
#
# Compressibility (1/GPa) = 0.01426167
#
# Stress axis : x y z
#
# Youngs Moduli (GPa) = 128.61599 106.36334 64.48166
#
# Poissons Ratio (x) = 0.11970 0.19779
# Poissons Ratio (y) = 0.14474 0.32363
# Poissons Ratio (z) = 0.39452 0.53383
#
# Static dielectric constant tensor:
#      x y z
#    x 3.930110 0.000000 0.000000 
#    y 0.000000 3.713530 0.000000 
#    z 0.000000 0.000000 3.537350 
# 
# 
# High freq. dielectric constant tensor:
#      x y z
#    x 1.809980 0.000000 0.000000 
#    y 0.000000 1.780380 0.000000 
#    z 0.000000 0.000000 1.770530 
# 
# From -- ./inp_files/4671.got.cif
#   From: 2010.03.12/outbox.cif.g09.slc.cpg/sg23_3_cif.got.tgz:4671.got - 2010.04.14 02:50:06.
