data_PCOD8163062
_publ_section_title
;
Structure prediction by ZEFSAII (Michael W. Deem and Ramdas Pophale) SiO2 
 PCOD8163062
Probable space group: F 2 2 2
;
_chemical_formula_sum "Si O2"
_cell_formula_units_Z 116
_cell_length_a 9.164454
_cell_length_b 20.762030
_cell_length_c 28.812236
_cell_angle_alpha 90.000000
_cell_angle_beta 90.000000
_cell_angle_gamma 90.000000
_cell_volume 5482.181040
_symmetry_space_group_name_H-M "F 2 2 2"
_symmetry_group_IT_number 22
_symmetry_cell_setting 'orthorhombic'
loop_
_space_group_symop_operation_xyz
x,y,z
-x,-y,z
x,-y,-z
-x,y,-z
x,1/2+y,1/2+z
-x,1/2-y,1/2+z
x,1/2-y,1/2-z
-x,1/2+y,1/2-z
1/2+x,y,1/2+z
1/2-x,-y,1/2+z
1/2+x,-y,1/2-z
1/2-x,y,1/2-z
1/2+x,1/2+y,z
1/2-x,1/2-y,z
1/2+x,1/2-y,-z
1/2-x,1/2+y,-z
loop_
_atom_site_type_symbol
_atom_site_label
_atom_site_fract_x
_atom_site_fract_y
_atom_site_fract_z
Si Si1 0.918848 0.739815 0.043586
Si Si2 0.557975 0.316285 0.865677
Si Si3 0.943687 0.284979 0.201192
Si Si4 0.848488 0.883923 0.341291
Si Si5 0.829610 0.509782 0.796540
Si Si6 0.543449 0.392578 0.428141
Si Si7 0.000000 0.500000 0.000000
Si Si8 0.759758 0.370024 0.354718
O O1 0.750000 0.750000 0.035734
O O2 0.975938 0.777993 0.087762
O O3 0.957307 0.664134 0.045971
O O4 0.000000 0.771171 0.000000
O O5 0.540264 0.266244 0.825040
O O6 0.723344 0.340535 0.864508
O O7 0.435002 0.371328 0.859107
O O8 0.911329 0.250000 0.250000
O O9 0.790903 0.308543 0.177338
O O10 0.050608 0.347790 0.197569
O O11 0.944923 0.913024 0.383515
O O12 0.766814 0.942175 0.315312
O O13 0.750000 0.531325 0.750000
O O14 0.796845 0.563724 0.833961
O O15 0.000000 0.500000 0.787415
O O16 0.582367 0.451406 0.463983
O O17 0.694112 0.364914 0.406801
#
# Coordination Sequence:
#
# PCOD8163062 Si02
#       8
#    16  16  16  16  16  16   4  16
#     4  12  25  43  69 103 140 174 219 274 347 416
#     4  12  25  42  68 104 140 171 221 276 344 410
#     4  11  24  40  68 100 137 183 227 275 334 401
#     4  11  24  46  69  92 140 180 220 282 333 395
#     4  12  27  46  66  93 130 182 238 275 327 399
#     4  11  22  44  67  97 127 174 221 272 338 393
#     4  12  24  40  80  98 112 168 248 268 316 428
#     4  11  26  44  69  97 139 179 219 287 339 389
#
# _framework density 21.159461
#
# number of rings (size 3 to 8) (size 9 to 14) (size 15 to 20)
#    0.000    0.552    7.586    1.655    7.724    1.103 
#    0.000    0.000    0.000    0.828    0.000    0.000 
#    0.000    0.000    0.000    0.000    0.000    0.000 
#
# Total GULP energy -359359.419572 kJ/mol
# GULP energy per Si atom -12391.704123 kJ/mol
# Density = 2.111130 g / cm^3
# Si number density = 21.159461 Si / 1000 Ang^3
#
#
#
# Elastic Constant Matrix: (Units=GPa)
#
#
# Indices 1 2 3 4 5 6 
#
# 1 90.1479 10.5128 19.2946 0.0000 0.0000 0.0000
# 2 10.5128 85.1007 31.4009 0.0000 0.0000 0.0000
# 3 19.2946 31.4009 119.5824 0.0000 0.0000 0.0000
# 4 0.0000 0.0000 0.0000 50.0928 0.0000 0.0000
# 5 0.0000 0.0000 0.0000 0.0000 26.0177 0.0000
# 6 0.0000 0.0000 0.0000 0.0000 0.0000 21.6381
#
#
#
# Elastic Compliance Matrix: (Units=1/GPa)
#
#
# Indices 1 2 3 4 5 6 
#
# 1 0.011541 -0.000818 -0.001647 0.000000 0.000000 0.000000
# 2 -0.000818 0.013069 -0.003300 0.000000 0.000000 0.000000
# 3 -0.001647 -0.003300 0.009495 0.000000 0.000000 0.000000
# 4 0.000000 0.000000 0.000000 0.019963 0.000000 0.000000
# 5 0.000000 0.000000 0.000000 0.000000 0.038435 0.000000
# 6 0.000000 0.000000 0.000000 0.000000 0.000000 0.046215
#
#
# Mechanical properties :
#
#
# Convention : Reuss Voigt Hill
#
# Bulk Modulus (GPa) = 44.29716 46.36085 45.32900
# Shear Modulus (GPa) = 31.69104 35.12456 33.40780
#
# Velocity S-wave (km/s) = 3.87424 4.07872 3.97780
# Velocity P-wave (km/s) = 6.40261 6.64372 6.52428
#
# Compressibility (1/GPa) = 0.02257481
#
# Stress axis : x y z
#
# Youngs Moduli (GPa) = 86.64875 76.51438 105.32137
#
# Poissons Ratio (x) = 0.06258 0.17350
# Poissons Ratio (y) = 0.07086 0.34755
# Poissons Ratio (z) = 0.14274 0.25249
#
# Static dielectric constant tensor:
#      x y z
#    x 3.311750 0.000000 0.000000 
#    y 0.000000 4.008870 0.000000 
#    z 0.000000 0.000000 3.823260 
# 
# 
# High freq. dielectric constant tensor:
#      x y z
#    x 1.822430 0.000000 0.000000 
#    y 0.000000 1.834570 0.000000 
#    z 0.000000 0.000000 1.833300 
# 
# From -- ./inp_files/52118.got.cif
#   From: 2010.03.12/outbox.cif.g09.slc.cpg/sg22_27_cif.got.tgz:52118.got - 2010.04.14 02:24:06.
