data_PCOD8163042
_publ_section_title
;
Structure prediction by ZEFSAII (Michael W. Deem and Ramdas Pophale) SiO2 
 PCOD8163042
Probable space group: F 2 2 2
;
_chemical_formula_sum "Si O2"
_cell_formula_units_Z 52
_cell_length_a 6.677791
_cell_length_b 17.529112
_cell_length_c 23.537712
_cell_angle_alpha 90.000000
_cell_angle_beta 90.000000
_cell_angle_gamma 90.000000
_cell_volume 2755.224446
_symmetry_space_group_name_H-M "F 2 2 2"
_symmetry_group_IT_number 22
_symmetry_cell_setting 'orthorhombic'
loop_
_space_group_symop_operation_xyz
x,y,z
-x,-y,z
x,-y,-z
-x,y,-z
x,1/2+y,1/2+z
-x,1/2-y,1/2+z
x,1/2-y,1/2-z
-x,1/2+y,1/2-z
1/2+x,y,1/2+z
1/2-x,-y,1/2+z
1/2+x,-y,1/2-z
1/2-x,y,1/2-z
1/2+x,1/2+y,z
1/2-x,1/2-y,z
1/2+x,1/2-y,-z
1/2-x,1/2+y,-z
loop_
_atom_site_type_symbol
_atom_site_label
_atom_site_fract_x
_atom_site_fract_y
_atom_site_fract_z
Si Si1 0.874811 0.073554 0.446266
Si Si2 0.973709 0.090156 0.761481
Si Si3 0.500000 0.500000 0.000000
Si Si4 0.234634 0.160054 0.662669
O O1 0.858799 0.135976 0.397447
O O2 0.000000 0.107434 0.500000
O O3 0.646193 0.052277 0.461931
O O4 0.000000 0.000000 0.424171
O O5 0.750000 0.115146 0.750000
O O6 0.092738 0.130846 0.711878
O O7 0.048616 0.121874 0.823017
O O8 0.000000 0.000000 0.758805
O O9 0.250000 0.250000 0.663280
#
# Coordination Sequence:
#
# PCOD8163042 Si02
#       4
#    16  16   4  16
#     4   9  20  38  62  85 117 158 210 251 288 354
#     4  11  22  38  63  91 115 159 204 245 302 368
#     4   8  18  36  60  90 104 156 212 248 282 346
#     4  11  24  39  58  92 129 156 195 257 306 362
#
# _framework density 18.873235999999999
#
# number of rings (size 3 to 8) (size 9 to 14) (size 15 to 20)
#    0.000    2.154    3.077    2.769    2.154    4.923 
#    2.769    0.000    0.000    0.000    0.000    0.000 
#    0.000    0.000    0.000    0.000    0.000    0.000 
#
# Total GULP energy -161102.461157 kJ/mol
# GULP energy per Si atom -12392.497012 kJ/mol
# Density = 1.883028 g / cm^3
# Si number density = 18.873236 Si / 1000 Ang^3
#
#
#
# Elastic Constant Matrix: (Units=GPa)
#
#
# Indices 1 2 3 4 5 6 
#
# 1 142.1467 48.4299 45.1495 0.0000 0.0000 0.0000
# 2 48.4299 161.5802 79.4181 0.0000 0.0000 0.0000
# 3 45.1495 79.4181 131.2777 0.0000 0.0000 0.0000
# 4 0.0000 0.0000 0.0000 23.3325 0.0000 0.0000
# 5 0.0000 0.0000 0.0000 0.0000 26.2476 0.0000
# 6 0.0000 0.0000 0.0000 0.0000 0.0000 22.0501
#
#
#
# Elastic Compliance Matrix: (Units=1/GPa)
#
#
# Indices 1 2 3 4 5 6 
#
# 1 0.008151 -0.001516 -0.001886 0.000000 0.000000 0.000000
# 2 -0.001516 0.009090 -0.004978 0.000000 0.000000 0.000000
# 3 -0.001886 -0.004978 0.011277 0.000000 0.000000 0.000000
# 4 0.000000 0.000000 0.000000 0.042859 0.000000 0.000000
# 5 0.000000 0.000000 0.000000 0.000000 0.038099 0.000000
# 6 0.000000 0.000000 0.000000 0.000000 0.000000 0.045351
#
#
# Mechanical properties :
#
#
# Convention : Reuss Voigt Hill
#
# Bulk Modulus (GPa) = 85.04513 86.77772 85.91143
# Shear Modulus (GPa) = 28.48921 31.79319 30.14120
#
# Velocity S-wave (km/s) = 3.88945 4.10880 4.00063
# Velocity P-wave (km/s) = 8.08266 8.28183 8.18285
#
# Compressibility (1/GPa) = 0.01175846
#
# Stress axis : x y z
#
# Youngs Moduli (GPa) = 122.69146 110.01372 88.67297
#
# Poissons Ratio (x) = 0.16677 0.16725
# Poissons Ratio (y) = 0.18599 0.44138
# Poissons Ratio (z) = 0.23141 0.54761
#
# Static dielectric constant tensor:
#      x y z
#    x 4.139380 0.000000 0.000000 
#    y 0.000000 3.343560 0.000000 
#    z 0.000000 0.000000 3.724580 
# 
# 
# High freq. dielectric constant tensor:
#      x y z
#    x 1.749300 0.000000 0.000000 
#    y 0.000000 1.718090 0.000000 
#    z 0.000000 0.000000 1.732250 
# 
# From -- ./inp_files/34054.got.cif
#   From: 2010.03.12/outbox.cif.g09.slc.cpg/sg22_18_cif.got.tgz:34054.got - 2010.04.14 02:24:06.
