data_PCOD8163946
_publ_section_title
;
Structure prediction by ZEFSAII (Michael W. Deem and Ramdas Pophale) SiO2 
 PCOD8163946
Probable space group: I 2 2 2
;
_chemical_formula_sum "Si O2"
_cell_formula_units_Z 58
_cell_length_a 10.862749
_cell_length_b 26.260901
_cell_length_c 9.841433
_cell_angle_alpha 90.000000
_cell_angle_beta 90.000000
_cell_angle_gamma 90.000000
_cell_volume 2807.422054
_symmetry_space_group_name_H-M "I 2 2 2"
_symmetry_group_IT_number 23
_symmetry_cell_setting 'orthorhombic'
loop_
_space_group_symop_operation_xyz
x,y,z
-x,-y,z
x,-y,-z
-x,y,-z
1/2+x,1/2+y,1/2+z
1/2-x,1/2-y,1/2+z
1/2+x,1/2-y,1/2-z
1/2-x,1/2+y,1/2-z
loop_
_atom_site_type_symbol
_atom_site_label
_atom_site_fract_x
_atom_site_fract_y
_atom_site_fract_z
Si Si1 0.163025 0.122149 0.596613
Si Si2 0.131668 0.558573 0.781696
Si Si3 0.262438 0.470013 0.624282
Si Si4 0.574659 0.883715 0.128038
Si Si5 0.755693 0.193698 0.773961
Si Si6 0.000000 0.500000 0.000000
Si Si7 0.353333 0.733991 0.992564
Si Si8 0.599327 0.602082 0.801605
O O1 0.272386 0.103978 0.692608
O O2 0.152063 0.182794 0.595286
O O3 0.177773 0.103195 0.441536
O O4 0.043118 0.099062 0.666563
O O5 0.177752 0.511336 0.695406
O O6 0.013119 0.581696 0.714290
O O7 0.092445 0.536667 0.923908
O O8 0.326030 0.500000 0.500000
O O9 0.182037 0.421446 0.573066
O O10 0.368813 0.449665 0.723092
O O11 0.629641 0.840173 0.228494
O O12 0.500000 0.859575 0.000000
O O13 0.734728 0.227128 0.909851
O O14 0.786019 0.227664 0.639938
O O15 0.867909 0.152985 0.786592
O O16 0.500000 0.749555 0.000000
#
# Coordination Sequence:
#
# PCOD8163946 Si02
#       8
#     8   8   8   8   8   2   8   8
#     4  10  21  42  68  88 129 175 215 269 321 384
#     4  12  24  36  61  98 128 172 219 268 322 378
#     4  11  21  39  65  91 132 174 212 262 324 386
#     4  11  22  41  66  93 132 174 215 266 332 391
#     4  10  23  41  73  99 124 174 219 271 331 403
#     4  12  24  36  58  98 144 160 224 286 306 376
#     4  11  22  46  71  96 137 173 216 276 344 397
#     4   9  20  44  66  90 128 172 213 260 322 390
#
# _framework density 20.659524000000001
#
# number of rings (size 3 to 8) (size 9 to 14) (size 15 to 20)
#    0.000    1.379    5.517    1.241    3.862    2.759 
#    0.000    6.207    3.034    0.000    0.000    0.000 
#    0.000    0.000    0.000    0.000    0.000    0.000 
#
# Total GULP energy -359312.688322 kJ/mol
# GULP energy per Si atom -12390.092701 kJ/mol
# Density = 2.061250 g / cm^3
# Si number density = 20.659524 Si / 1000 Ang^3
#
#
#
# Elastic Constant Matrix: (Units=GPa)
#
#
# Indices 1 2 3 4 5 6 
#
# 1 64.6805 33.0508 41.1288 0.0005 -0.0062 -0.0003
# 2 33.0508 85.8940 51.3817 0.0000 -0.0098 -0.0001
# 3 41.1288 51.3817 99.5215 0.0035 -0.0030 0.0019
# 4 0.0005 0.0000 0.0035 49.9272 -0.0183 0.0008
# 5 -0.0062 -0.0098 -0.0030 -0.0183 -75.9989 0.0259
# 6 -0.0003 -0.0001 0.0019 0.0008 0.0259 12.4957
#
#
#
# Elastic Compliance Matrix: (Units=1/GPa)
#
#
# Indices 1 2 3 4 5 6 
#
# 1 0.022060 -0.004391 -0.006850 0.000000 -0.000001 0.000002
# 2 -0.004391 0.017719 -0.007333 0.000001 -0.000002 0.000001
# 3 -0.006850 -0.007333 0.016665 -0.000001 0.000001 -0.000003
# 4 0.000000 0.000001 -0.000001 0.020029 -0.000005 -0.000001
# 5 -0.000001 -0.000002 0.000001 -0.000005 -0.013158 0.000027
# 6 0.000002 0.000001 -0.000003 -0.000001 0.000027 0.080027
#
#
# Mechanical properties :
#
#
# Convention : Reuss Voigt Hill
#
# Bulk Modulus (GPa) = 51.82498 55.69097 53.75798
# Shear Modulus (GPa) = 26.74925 5.58712 16.16819
#
# Velocity S-wave (km/s) = 3.60219 1.64628 2.80054
# Velocity P-wave (km/s) = 6.51466 5.53432 6.04440
#
# Compressibility (1/GPa) = 0.01929571
#
# Stress axis : x y z
#
# Youngs Moduli (GPa) = 45.33132 56.43796 60.00648
#
# Poissons Ratio (x) = 0.24781 0.41102
# Poissons Ratio (y) = 0.19904 0.44004
# Poissons Ratio (z) = 0.31050 0.41388
#
# Static dielectric constant tensor:
#      x y z
#    x 3.697640 0.000460 0.000000 
#    y 0.000460 90.988930 -0.001020 
#    z 0.000000 -0.001020 3.866300 
# 
# 
# High freq. dielectric constant tensor:
#      x y z
#    x 1.800110 0.000000 0.000000 
#    y 0.000000 1.816380 0.000000 
#    z 0.000000 0.000000 1.801670 
# 
# From -- ./inp_files/8866.got.cif
#   From: 2010.03.12/outbox.cif.g09.slc.cpg/sg23_5_cif.got.tgz:8866.got - 2010.04.14 02:50:06.
