data_PCOD8163719
_publ_section_title
;
Structure prediction by ZEFSAII (Michael W. Deem and Ramdas Pophale) SiO2 
 PCOD8163719
Probable space group: I 2 2 2
;
_chemical_formula_sum "Si O2"
_cell_formula_units_Z 46
_cell_length_a 17.394535
_cell_length_b 10.551310
_cell_length_c 12.089163
_cell_angle_alpha 90.000000
_cell_angle_beta 90.000000
_cell_angle_gamma 90.000000
_cell_volume 2218.786116
_symmetry_space_group_name_H-M "I 2 2 2"
_symmetry_group_IT_number 23
_symmetry_cell_setting 'orthorhombic'
loop_
_space_group_symop_operation_xyz
x,y,z
-x,-y,z
x,-y,-z
-x,y,-z
1/2+x,1/2+y,1/2+z
1/2-x,1/2-y,1/2+z
1/2+x,1/2-y,1/2-z
1/2-x,1/2+y,1/2-z
loop_
_atom_site_type_symbol
_atom_site_label
_atom_site_fract_x
_atom_site_fract_y
_atom_site_fract_z
Si Si1 0.066122 0.171221 0.204669
Si Si2 0.377599 0.830342 0.098723
Si Si3 0.893826 0.121225 0.215696
Si Si4 0.000000 0.500000 0.500000
Si Si5 0.162790 0.224851 0.013932
Si Si6 0.311061 0.631410 0.943657
Si Si7 0.759655 0.500000 0.500000
O O1 0.119305 0.246122 0.291568
O O2 0.084807 0.237951 0.086138
O O3 0.976923 0.186204 0.238477
O O4 0.090264 0.025493 0.192660
O O5 0.308170 0.932486 0.098287
O O6 0.454028 0.910555 0.083041
O O7 0.365246 0.738575 0.994976
O O8 0.833112 0.132981 0.314860
O O9 0.856401 0.197260 0.113677
O O10 0.220259 0.344040 0.031342
O O11 0.208215 0.103275 0.063355
O O12 0.334510 0.500000 0.000000
#
# Coordination Sequence:
#
# PCOD8163719 Si02
#       7
#     8   8   8   2   8   8   4
#     4  11  22  39  67  94 130 171 214 276 330 396
#     4  10  21  39  62  93 125 169 213 274 328 395
#     4  11  23  40  63  97 131 172 219 269 333 392
#     4  10  20  40  62  92 132 168 222 258 354 406
#     4  11  23  40  65  92 132 173 223 270 322 400
#     4  11  24  41  64  97 133 171 223 276 331 390
#     4   9  20  37  59  88 123 166 216 262 317 388
#
# _framework density 20.732056
#
# number of rings (size 3 to 8) (size 9 to 14) (size 15 to 20)
#    0.000    1.391    3.478    1.565    4.870    1.391 
#    0.000    1.739    0.000    1.043    0.000    0.000 
#    0.000    0.000    0.000    0.000    0.000    0.000 
#
# Total GULP energy -285044.656373 kJ/mol
# GULP energy per Si atom -12393.245929 kJ/mol
# Density = 2.068487 g / cm^3
# Si number density = 20.732056 Si / 1000 Ang^3
#
#
#
# Elastic Constant Matrix: (Units=GPa)
#
#
# Indices 1 2 3 4 5 6 
#
# 1 91.5432 26.0025 42.0412 0.0000 0.0000 0.0000
# 2 26.0025 58.1514 19.4417 0.0000 0.0000 0.0000
# 3 42.0412 19.4417 139.0645 0.0000 0.0000 0.0000
# 4 0.0000 0.0000 0.0000 26.1446 0.0000 0.0000
# 5 0.0000 0.0000 0.0000 0.0000 30.4375 0.0000
# 6 0.0000 0.0000 0.0000 0.0000 0.0000 31.8304
#
#
#
# Elastic Compliance Matrix: (Units=1/GPa)
#
#
# Indices 1 2 3 4 5 6 
#
# 1 0.013981 -0.005076 -0.003517 0.000000 0.000000 0.000000
# 2 -0.005076 0.019882 -0.001245 0.000000 0.000000 0.000000
# 3 -0.003517 -0.001245 0.008428 0.000000 0.000000 0.000000
# 4 0.000000 0.000000 0.000000 0.038249 0.000000 0.000000
# 5 0.000000 0.000000 0.000000 0.000000 0.032854 0.000000
# 6 0.000000 0.000000 0.000000 0.000000 0.000000 0.031417
#
#
# Mechanical properties :
#
#
# Convention : Reuss Voigt Hill
#
# Bulk Modulus (GPa) = 44.21713 51.52554 47.87133
# Shear Modulus (GPa) = 29.06552 31.10073 30.08313
#
# Velocity S-wave (km/s) = 3.74834 3.87735 3.81339
# Velocity P-wave (km/s) = 6.33306 6.70464 6.52149
#
# Compressibility (1/GPa) = 0.02261567
#
# Stress axis : x y z
#
# Youngs Moduli (GPa) = 71.52723 50.29573 118.64905
#
# Poissons Ratio (x) = 0.25528 0.41728
# Poissons Ratio (y) = 0.36305 0.14774
# Poissons Ratio (z) = 0.25156 0.06263
#
# Static dielectric constant tensor:
#      x y z
#    x 4.060270 0.000000 0.000000 
#    y 0.000000 3.818710 0.000000 
#    z 0.000000 0.000000 3.517270 
# 
# 
# High freq. dielectric constant tensor:
#      x y z
#    x 1.820560 0.000000 0.000000 
#    y 0.000000 1.805930 0.000000 
#    z 0.000000 0.000000 1.798100 
# 
# From -- ./inp_files/17423.got.cif
#   From: 2010.03.12/outbox.cif.g09.slc.cpg/sg23_9_cif.got.tgz:17423.got - 2010.04.14 02:50:06.
