data_PCOD8163093
_publ_section_title
;
Structure prediction by ZEFSAII (Michael W. Deem and Ramdas Pophale) SiO2 
 PCOD8163093
Probable space group: F 2 2 2
;
_chemical_formula_sum "Si O2"
_cell_formula_units_Z 80
_cell_length_a 12.024468
_cell_length_b 14.263666
_cell_length_c 21.189835
_cell_angle_alpha 90.000000
_cell_angle_beta 90.000000
_cell_angle_gamma 90.000000
_cell_volume 3634.332072
_symmetry_space_group_name_H-M "F 2 2 2"
_symmetry_group_IT_number 22
_symmetry_cell_setting 'orthorhombic'
loop_
_space_group_symop_operation_xyz
x,y,z
-x,-y,z
x,-y,-z
-x,y,-z
x,1/2+y,1/2+z
-x,1/2-y,1/2+z
x,1/2-y,1/2-z
-x,1/2+y,1/2-z
1/2+x,y,1/2+z
1/2-x,-y,1/2+z
1/2+x,-y,1/2-z
1/2-x,y,1/2-z
1/2+x,1/2+y,z
1/2-x,1/2-y,z
1/2+x,1/2-y,-z
1/2-x,1/2+y,-z
loop_
_atom_site_type_symbol
_atom_site_label
_atom_site_fract_x
_atom_site_fract_y
_atom_site_fract_z
Si Si1 0.034968 0.894746 0.289456
Si Si2 0.969054 0.392472 0.352269
Si Si3 0.129936 0.394324 0.003463
Si Si4 0.769570 0.649348 0.875680
Si Si5 0.871125 0.226831 0.626924
O O1 0.046774 0.852871 0.219059
O O2 0.151327 0.903359 0.326403
O O3 0.941370 0.837073 0.326024
O O4 0.000000 0.000000 0.280996
O O5 0.850113 0.396633 0.386503
O O6 0.000000 0.500000 0.355565
O O7 0.057845 0.322587 0.386609
O O8 0.170768 0.337895 0.942753
O O9 0.182393 0.500000 0.000000
O O10 0.159739 0.333378 0.064723
O O11 0.000000 0.405495 0.000000
O O12 0.750000 0.750000 0.845029
O O13 0.750000 0.250000 0.657199
#
# Coordination Sequence:
#
# PCOD8163093 Si02
#       5
#    16  16  16  16  16
#     4  11  24  44  72 103 141 191 243 291 350 431
#     4  11  27  45  69 108 146 186 235 295 365 419
#     4  11  23  43  73 103 134 184 243 295 351 425
#     4  12  23  44  72  99 139 183 239 297 353 419
#     4  12  26  44  71 104 147 188 241 296 362 421
#
# _framework density 22.012297
#
# number of rings (size 3 to 8) (size 9 to 14) (size 15 to 20)
#    0.000    0.600    4.000    3.000    5.600    2.400 
#    0.000    0.000    0.000    0.000    0.000    0.000 
#    0.000    0.000    0.000    0.000    0.000    0.000 
#
# Total GULP energy -247911.463171 kJ/mol
# GULP energy per Si atom -12395.573159 kJ/mol
# Density = 2.196220 g / cm^3
# Si number density = 22.012297 Si / 1000 Ang^3
#
#
#
# Elastic Constant Matrix: (Units=GPa)
#
#
# Indices 1 2 3 4 5 6 
#
# 1 152.8780 35.4982 26.9993 0.0000 0.0000 0.0000
# 2 35.4982 98.4323 36.2534 0.0000 0.0000 0.0000
# 3 26.9993 36.2534 97.3370 0.0000 0.0000 0.0000
# 4 0.0000 0.0000 0.0000 37.9834 0.0000 0.0000
# 5 0.0000 0.0000 0.0000 0.0000 -26.6883 0.0000
# 6 0.0000 0.0000 0.0000 0.0000 0.0000 30.4849
#
#
#
# Elastic Compliance Matrix: (Units=1/GPa)
#
#
# Indices 1 2 3 4 5 6 
#
# 1 0.007259 -0.002174 -0.001204 0.000000 0.000000 0.000000
# 2 -0.002174 0.012426 -0.004025 0.000000 0.000000 0.000000
# 3 -0.001204 -0.004025 0.012106 0.000000 0.000000 0.000000
# 4 0.000000 0.000000 0.000000 0.026327 0.000000 0.000000
# 5 0.000000 0.000000 0.000000 0.000000 -0.037470 0.000000
# 6 0.000000 0.000000 0.000000 0.000000 0.000000 0.032803
#
#
# Mechanical properties :
#
#
# Convention : Reuss Voigt Hill
#
# Bulk Modulus (GPa) = 58.87460 60.68324 59.77892
# Shear Modulus (GPa) = 67.64138 25.01576 46.32857
#
# Velocity S-wave (km/s) = 5.54938 3.37478 4.59264
# Velocity P-wave (km/s) = 8.23803 6.54318 7.43903
#
# Compressibility (1/GPa) = 0.01698525
#
# Stress axis : x y z
#
# Youngs Moduli (GPa) = 137.76722 80.47738 82.60031
#
# Poissons Ratio (x) = 0.17499 0.09941
# Poissons Ratio (y) = 0.29957 0.33246
# Poissons Ratio (z) = 0.16580 0.32391
#
# Static dielectric constant tensor:
#      x y z
#    x 3.046190 0.000000 0.000000 
#    y 0.000000 4.307920 0.000000 
#    z 0.000000 0.000000 3.998620 
# 
# 
# High freq. dielectric constant tensor:
#      x y z
#    x 1.874890 0.000000 0.000000 
#    y 0.000000 1.882430 0.000000 
#    z 0.000000 0.000000 1.856090 
# 
# From -- ./inp_files/19816.got.cif
#   From: 2010.03.12/outbox.cif.g09.slc.cpg/sg22_10_cif.got.tgz:19816.got - 2010.04.14 02:24:06.
