data_PCOD8163548
_publ_section_title
;
Structure prediction by ZEFSAII (Michael W. Deem and Ramdas Pophale) SiO2 
 PCOD8163548
Probable space group: I 2 2 2
;
_chemical_formula_sum "Si O2"
_cell_formula_units_Z 56
_cell_length_a 19.412043
_cell_length_b 7.816432
_cell_length_c 18.777838
_cell_angle_alpha 90.000000
_cell_angle_beta 90.000000
_cell_angle_gamma 90.000000
_cell_volume 2849.216080
_symmetry_space_group_name_H-M "I 2 2 2"
_symmetry_group_IT_number 23
_symmetry_cell_setting 'orthorhombic'
loop_
_space_group_symop_operation_xyz
x,y,z
-x,-y,z
x,-y,-z
-x,y,-z
1/2+x,1/2+y,1/2+z
1/2-x,1/2-y,1/2+z
1/2+x,1/2-y,1/2-z
1/2-x,1/2+y,1/2-z
loop_
_atom_site_type_symbol
_atom_site_label
_atom_site_fract_x
_atom_site_fract_y
_atom_site_fract_z
Si Si1 0.322943 0.684564 0.479366
Si Si2 0.744052 0.790287 0.651143
Si Si3 0.852952 0.202854 0.727959
Si Si4 0.645319 0.699792 0.257312
Si Si5 0.036133 0.314872 0.066502
Si Si6 0.258347 0.175138 0.380520
Si Si7 0.505851 0.696312 0.722000
O O1 0.354589 0.500000 0.500000
O O2 0.274976 0.653669 0.409833
O O3 0.382852 0.817940 0.454980
O O4 0.273823 0.754729 0.541380
O O5 0.687523 0.810610 0.712993
O O6 0.815569 0.728368 0.687454
O O7 0.747343 0.972159 0.612528
O O8 0.816018 0.234968 0.651827
O O9 0.932154 0.270892 0.728746
O O10 0.850811 0.005584 0.753680
O O11 0.680195 0.764415 0.329460
O O12 0.567898 0.778544 0.258272
O O13 0.000000 0.500000 0.074457
O O14 0.024695 0.213912 0.139079
O O15 0.000000 0.218368 0.000000
O O16 0.500000 0.500000 0.740762
#
# Coordination Sequence:
#
# PCOD8163548 Si02
#       7
#     8   8   8   8   8   8   8
#     4  12  25  38  56  79 114 152 192 230 279 337
#     4  10  20  35  55  78 109 145 193 236 278 334
#     4   9  18  36  54  81 108 146 189 234 282 336
#     4   9  19  34  55  81 108 145 188 235 285 335
#     4  11  26  36  50  78 118 149 184 216 274 340
#     4  10  21  34  56  78 110 148 191 237 279 328
#     4  10  20  34  57  80 113 146 182 226 282 342
#
# _framework density 19.654529
#
# number of rings (size 3 to 8) (size 9 to 14) (size 15 to 20)
#    0.000    1.857    1.429    2.143   10.000    1.143 
#    0.000    0.000    0.000    0.857    0.000    6.000 
#    0.000    0.000    0.000    0.000    0.000    0.000 
#
# Total GULP energy -346952.869470 kJ/mol
# GULP energy per Si atom -12391.173910 kJ/mol
# Density = 1.960979 g / cm^3
# Si number density = 19.654529 Si / 1000 Ang^3
#
#
#
# Elastic Constant Matrix: (Units=GPa)
#
#
# Indices 1 2 3 4 5 6 
#
# 1 174.5270 5.9503 70.6231 0.0000 0.0000 0.0000
# 2 5.9503 24.1320 5.8918 0.0000 0.0000 0.0000
# 3 70.6231 5.8918 102.1700 0.0000 0.0000 0.0000
# 4 0.0000 0.0000 0.0000 26.4509 0.0000 0.0000
# 5 0.0000 0.0000 0.0000 0.0000 33.0397 0.0000
# 6 0.0000 0.0000 0.0000 0.0000 0.0000 18.8077
#
#
#
# Elastic Compliance Matrix: (Units=1/GPa)
#
#
# Indices 1 2 3 4 5 6 
#
# 1 0.007964 -0.000629 -0.005469 0.000000 0.000000 0.000000
# 2 -0.000629 0.042080 -0.001992 0.000000 0.000000 0.000000
# 3 -0.005469 -0.001992 0.013683 0.000000 0.000000 0.000000
# 4 0.000000 0.000000 0.000000 0.037806 0.000000 0.000000
# 5 0.000000 0.000000 0.000000 0.000000 0.030267 0.000000
# 6 0.000000 0.000000 0.000000 0.000000 0.000000 0.053170
#
#
# Mechanical properties :
#
#
# Convention : Reuss Voigt Hill
#
# Bulk Modulus (GPa) = 21.03138 51.75104 36.39121
# Shear Modulus (GPa) = 23.04170 30.21723 26.62947
#
# Velocity S-wave (km/s) = 3.42765 3.92525 3.68486
# Velocity P-wave (km/s) = 5.13701 6.85061 6.05474
#
# Compressibility (1/GPa) = 0.04754800
#
# Stress axis : x y z
#
# Youngs Moduli (GPa) = 125.56187 23.76416 73.08474
#
# Poissons Ratio (x) = 0.01494 0.39969
# Poissons Ratio (y) = 0.07892 0.14560
# Poissons Ratio (z) = 0.68668 0.04734
#
# Static dielectric constant tensor:
#      x y z
#    x 4.102360 0.000000 0.000000 
#    y 0.000000 3.411310 0.000000 
#    z 0.000000 0.000000 3.581450 
# 
# 
# High freq. dielectric constant tensor:
#      x y z
#    x 1.764460 0.000000 0.000000 
#    y 0.000000 1.755850 0.000000 
#    z 0.000000 0.000000 1.748730 
# 
# From -- ./inp_files/25225.got.cif
#   From: 2010.03.12/outbox.cif.g09.slc.cpg/sg23_13_cif.got.tgz:25225.got - 2010.04.14 02:50:06.
