data_PCOD8163965
_publ_section_title
;
Structure prediction by ZEFSAII (Michael W. Deem and Ramdas Pophale) SiO2 
 PCOD8163965
Probable space group: I 2 2 2
;
_chemical_formula_sum "Si O2"
_cell_formula_units_Z 52
_cell_length_a 8.855124
_cell_length_b 16.267606
_cell_length_c 17.111322
_cell_angle_alpha 90.000000
_cell_angle_beta 90.000000
_cell_angle_gamma 90.000000
_cell_volume 2464.914481
_symmetry_space_group_name_H-M "I 2 2 2"
_symmetry_group_IT_number 23
_symmetry_cell_setting 'orthorhombic'
loop_
_space_group_symop_operation_xyz
x,y,z
-x,-y,z
x,-y,-z
-x,y,-z
1/2+x,1/2+y,1/2+z
1/2-x,1/2-y,1/2+z
1/2+x,1/2-y,1/2-z
1/2-x,1/2+y,1/2-z
loop_
_atom_site_type_symbol
_atom_site_label
_atom_site_fract_x
_atom_site_fract_y
_atom_site_fract_z
Si Si1 0.137604 0.716207 0.387197
Si Si2 0.235986 0.875386 0.317682
Si Si3 0.450493 0.091854 0.380289
Si Si4 0.179816 0.300087 0.332468
Si Si5 0.343249 0.760831 0.529535
Si Si6 0.500000 0.500000 0.790524
Si Si7 0.782828 0.132809 0.752735
O O1 0.131571 0.797587 0.334119
O O2 0.204815 0.741170 0.471358
O O3 0.230022 0.645508 0.341972
O O4 0.965066 0.684570 0.388618
O O5 0.388083 0.863441 0.368290
O O6 0.284325 0.876273 0.225565
O O7 0.136643 0.956761 0.340043
O O8 0.361494 0.140710 0.449707
O O9 0.351343 0.093959 0.300888
O O10 0.500000 0.000000 0.404197
O O11 0.320133 0.287485 0.389837
O O12 0.156255 0.218242 0.281162
O O13 0.500000 0.724304 0.500000
O O14 0.423777 0.428870 0.739378
#
# Coordination Sequence:
#
# PCOD8163965 Si02
#       7
#     8   8   8   8   8   4   8
#     4  11  21  40  60  89 126 171 213 259 320 390
#     4  11  22  37  63  90 125 160 219 275 319 378
#     4  11  21  40  59  90 125 171 212 263 326 393
#     4  10  22  39  62  88 122 171 215 263 318 382
#     4  11  24  37  59  92 127 167 213 260 316 391
#     4  12  22  36  60 102 122 154 206 292 322 364
#     4  10  22  35  64  91 122 161 219 268 318 371
#
# _framework density 21.096067000000001
#
# number of rings (size 3 to 8) (size 9 to 14) (size 15 to 20)
#    0.000    1.231    6.154    0.462    2.154    0.308 
#    0.000    0.000    0.000    2.769    0.000    3.231 
#    0.000    0.000    0.000    0.000    0.000    0.000 
#
# Total GULP energy -322140.898259 kJ/mol
# GULP energy per Si atom -12390.034548 kJ/mol
# Density = 2.104805 g / cm^3
# Si number density = 21.096067 Si / 1000 Ang^3
#
#
#
# Elastic Constant Matrix: (Units=GPa)
#
#
# Indices 1 2 3 4 5 6 
#
# 1 89.2052 17.8304 26.5601 0.0000 0.0000 0.0000
# 2 17.8304 38.5519 15.2745 0.0000 0.0000 0.0000
# 3 26.5601 15.2745 91.6186 0.0000 0.0000 0.0000
# 4 0.0000 0.0000 0.0000 19.1595 0.0000 0.0000
# 5 0.0000 0.0000 0.0000 0.0000 37.8077 0.0000
# 6 0.0000 0.0000 0.0000 0.0000 0.0000 39.3392
#
#
#
# Elastic Compliance Matrix: (Units=1/GPa)
#
#
# Indices 1 2 3 4 5 6 
#
# 1 0.013069 -0.004865 -0.002978 0.000000 0.000000 0.000000
# 2 -0.004865 0.029584 -0.003522 0.000000 0.000000 0.000000
# 3 -0.002978 -0.003522 0.012365 0.000000 0.000000 0.000000
# 4 0.000000 0.000000 0.000000 0.052193 0.000000 0.000000
# 5 0.000000 0.000000 0.000000 0.000000 0.026450 0.000000
# 6 0.000000 0.000000 0.000000 0.000000 0.000000 0.025420
#
#
# Mechanical properties :
#
#
# Convention : Reuss Voigt Hill
#
# Bulk Modulus (GPa) = 30.96939 37.63397 34.30168
# Shear Modulus (GPa) = 25.96409 29.90868 27.93639
#
# Velocity S-wave (km/s) = 3.51202 3.76937 3.64297
# Velocity P-wave (km/s) = 5.58191 6.06813 5.83009
#
# Compressibility (1/GPa) = 0.03228995
#
# Stress axis : x y z
#
# Youngs Moduli (GPa) = 76.51665 33.80160 80.87201
#
# Poissons Ratio (x) = 0.16443 0.24081
# Poissons Ratio (y) = 0.37223 0.28483
# Poissons Ratio (z) = 0.22784 0.11905
#
# Static dielectric constant tensor:
#      x y z
#    x 4.039290 0.000000 0.000000 
#    y 0.000000 3.618830 0.000000 
#    z 0.000000 0.000000 3.617260 
# 
# 
# High freq. dielectric constant tensor:
#      x y z
#    x 1.848400 0.000000 0.000000 
#    y 0.000000 1.794410 0.000000 
#    z 0.000000 0.000000 1.801630 
# 
# From -- ./inp_files/11245.got.cif
#   From: 2010.03.12/outbox.cif.g09.slc.cpg/sg23_6_cif.got.tgz:11245.got - 2010.04.14 02:50:06.
