data_PCOD8163032
_publ_section_title
;
Structure prediction by ZEFSAII (Michael W. Deem and Ramdas Pophale) SiO2 
 PCOD8163032
Probable space group: F 2 2 2
;
_chemical_formula_sum "Si O2"
_cell_formula_units_Z 116
_cell_length_a 27.125869
_cell_length_b 9.074400
_cell_length_c 22.483943
_cell_angle_alpha 90.000000
_cell_angle_beta 90.000000
_cell_angle_gamma 90.000000
_cell_volume 5534.444731
_symmetry_space_group_name_H-M "F 2 2 2"
_symmetry_group_IT_number 22
_symmetry_cell_setting 'orthorhombic'
loop_
_space_group_symop_operation_xyz
x,y,z
-x,-y,z
x,-y,-z
-x,y,-z
x,1/2+y,1/2+z
-x,1/2-y,1/2+z
x,1/2-y,1/2-z
-x,1/2+y,1/2-z
1/2+x,y,1/2+z
1/2-x,-y,1/2+z
1/2+x,-y,1/2-z
1/2-x,y,1/2-z
1/2+x,1/2+y,z
1/2-x,1/2-y,z
1/2+x,1/2-y,-z
1/2-x,1/2+y,-z
loop_
_atom_site_type_symbol
_atom_site_label
_atom_site_fract_x
_atom_site_fract_y
_atom_site_fract_z
Si Si1 0.953524 0.414038 0.276471
Si Si2 0.165102 0.782049 0.071377
Si Si3 0.326403 0.528310 0.622315
Si Si4 0.859657 0.803978 0.065034
Si Si5 0.647387 0.927306 0.251739
Si Si6 0.500000 0.000000 0.500000
Si Si7 0.069845 0.063484 0.904337
Si Si8 0.214763 0.973586 0.860187
O O1 0.947753 0.250000 0.250000
O O2 0.904358 0.512201 0.274811
O O3 0.964004 0.412158 0.346863
O O4 0.000000 0.500000 0.246147
O O5 0.176953 0.613181 0.080472
O O6 0.113877 0.820981 0.103230
O O7 0.208590 0.874155 0.102930
O O8 0.157712 0.826142 0.002608
O O9 0.362937 0.633327 0.583897
O O10 0.349606 0.500183 0.686672
O O11 0.270968 0.579975 0.637919
O O12 0.815016 0.848305 0.106971
O O13 0.908201 0.898240 0.082213
O O14 0.647198 0.750000 0.250000
O O15 0.692595 0.985319 0.292994
O O16 0.534035 0.104874 0.459054
#
# Coordination Sequence:
#
# PCOD8163032 Si02
#       8
#    16  16  16  16  16   4  16  16
#     4  12  25  43  70 100 134 173 219 276 345 404
#     4  11  23  41  61  94 135 165 216 274 336 391
#     4  12  25  38  63  94 131 176 216 272 338 389
#     4  11  22  40  65  91 134 168 219 271 331 386
#     4  12  24  44  65  90 132 172 225 285 326 393
#     4  12  20  40  84  94 112 168 240 256 324 408
#     4  11  21  43  70  98 123 172 221 271 322 409
#     4  11  23  40  64  90 124 180 227 264 321 406
#
# _framework density 20.959647
#
# number of rings (size 3 to 8) (size 9 to 14) (size 15 to 20)
#    0.000    0.552    6.207    4.138    0.000    3.862 
#    0.000    1.379    0.000    0.828    0.000    0.000 
#    0.000    0.000    0.000    0.000    0.000    0.000 
#
# Total GULP energy -359369.802669 kJ/mol
# GULP energy per Si atom -12392.062161 kJ/mol
# Density = 2.091194 g / cm^3
# Si number density = 20.959647 Si / 1000 Ang^3
#
#
#
# Elastic Constant Matrix: (Units=GPa)
#
#
# Indices 1 2 3 4 5 6 
#
# 1 85.7560 11.3561 7.7409 0.0000 0.0000 0.0000
# 2 11.3561 87.0100 30.8414 0.0000 0.0000 0.0000
# 3 7.7409 30.8414 113.9643 0.0000 0.0000 0.0000
# 4 0.0000 0.0000 0.0000 27.8702 0.0000 0.0000
# 5 0.0000 0.0000 0.0000 0.0000 25.1184 0.0000
# 6 0.0000 0.0000 0.0000 0.0000 0.0000 12.1703
#
#
#
# Elastic Compliance Matrix: (Units=1/GPa)
#
#
# Indices 1 2 3 4 5 6 
#
# 1 0.011885 -0.001399 -0.000429 0.000000 0.000000 0.000000
# 2 -0.001399 0.012877 -0.003390 0.000000 0.000000 0.000000
# 3 -0.000429 -0.003390 0.009721 0.000000 0.000000 0.000000
# 4 0.000000 0.000000 0.000000 0.035881 0.000000 0.000000
# 5 0.000000 0.000000 0.000000 0.000000 0.039811 0.000000
# 6 0.000000 0.000000 0.000000 0.000000 0.000000 0.082167
#
#
# Mechanical properties :
#
#
# Convention : Reuss Voigt Hill
#
# Bulk Modulus (GPa) = 41.58365 42.95636 42.27000
# Shear Modulus (GPa) = 23.71985 28.81791 26.26888
#
# Velocity S-wave (km/s) = 3.36771 3.71202 3.54405
# Velocity P-wave (km/s) = 5.91649 6.23790 6.07932
#
# Compressibility (1/GPa) = 0.02404791
#
# Stress axis : x y z
#
# Youngs Moduli (GPa) = 84.13991 77.65727 102.86846
#
# Poissons Ratio (x) = 0.10866 0.04409
# Poissons Ratio (y) = 0.11773 0.34870
# Poissons Ratio (z) = 0.03606 0.26324
#
# Static dielectric constant tensor:
#      x y z
#    x 3.867380 0.000000 0.000000 
#    y 0.000000 3.954010 0.000000 
#    z 0.000000 0.000000 4.026010 
# 
# 
# High freq. dielectric constant tensor:
#      x y z
#    x 1.820410 0.000000 0.000000 
#    y 0.000000 1.807740 0.000000 
#    z 0.000000 0.000000 1.837140 
# 
# From -- ./inp_files/47614.got.cif
#   From: 2010.03.12/outbox.cif.g09.slc.cpg/sg22_24_cif.got.tgz:47614.got - 2010.04.14 02:24:06.
