data_PCOD8163754
_publ_section_title
;
Structure prediction by ZEFSAII (Michael W. Deem and Ramdas Pophale) SiO2 
 PCOD8163754
Probable space group: I 2 2 2
;
_chemical_formula_sum "Si O2"
_cell_formula_units_Z 44
_cell_length_a 9.012671
_cell_length_b 30.461173
_cell_length_c 7.510477
_cell_angle_alpha 90.000000
_cell_angle_beta 90.000000
_cell_angle_gamma 90.000000
_cell_volume 2061.900298
_symmetry_space_group_name_H-M "I 2 2 2"
_symmetry_group_IT_number 23
_symmetry_cell_setting 'orthorhombic'
loop_
_space_group_symop_operation_xyz
x,y,z
-x,-y,z
x,-y,-z
-x,y,-z
1/2+x,1/2+y,1/2+z
1/2-x,1/2-y,1/2+z
1/2+x,1/2-y,1/2-z
1/2-x,1/2+y,1/2-z
loop_
_atom_site_type_symbol
_atom_site_label
_atom_site_fract_x
_atom_site_fract_y
_atom_site_fract_z
Si Si1 0.165655 0.870341 0.678882
Si Si2 0.334528 0.211865 0.217724
Si Si3 0.330136 0.385016 0.216350
Si Si4 0.000000 0.500000 0.500000
Si Si5 0.000000 0.000000 0.000000
Si Si6 0.746148 0.438469 0.443377
Si Si7 0.167672 0.701507 0.696067
O O1 0.232077 0.821084 0.664687
O O2 0.176725 0.897223 0.493476
O O3 0.263406 0.895529 0.824684
O O4 0.998035 0.868987 0.755692
O O5 0.278069 0.261097 0.237044
O O6 0.505471 0.210579 0.279098
O O7 0.327903 0.197946 0.014568
O O8 0.277861 0.424724 0.347364
O O9 0.218532 0.345083 0.234063
O O10 0.108469 0.533034 0.395504
O O11 0.894081 0.031589 0.881664
#
# Coordination Sequence:
#
# PCOD8163754 Si02
#       7
#     8   8   8   2   2   8   8
#     4  11  23  40  67  97 128 171 218 262 322 389
#     4  11  24  40  61  92 132 174 219 266 316 377
#     4  11  23  40  67  97 128 171 218 262 322 389
#     4  10  28  42  74  94 136 164 220 270 330 406
#     4  10  20  42  74  90 124 172 208 258 346 374
#     4  11  22  46  66 100 130 172 208 276 328 385
#     4  11  24  40  61  92 132 174 219 266 316 377
#
# _framework density 21.339538000000001
#
# number of rings (size 3 to 8) (size 9 to 14) (size 15 to 20)
#    0.000    1.091    3.636    2.182    2.545    7.273 
#    0.000    5.455    0.000    0.000    0.000    0.000 
#    0.000    0.000    0.000    0.000    0.000    0.000 
#
# Total GULP energy -272687.931043 kJ/mol
# GULP energy per Si atom -12394.905957 kJ/mol
# Density = 2.129097 g / cm^3
# Si number density = 21.339538 Si / 1000 Ang^3
#
#
#
# Elastic Constant Matrix: (Units=GPa)
#
#
# Indices 1 2 3 4 5 6 
#
# 1 149.5432 45.0840 17.2834 -0.0055 0.0041 0.0015
# 2 45.0840 86.8380 8.3429 -0.0128 0.0036 -0.0013
# 3 17.2834 8.3429 77.6363 -0.0303 0.0069 0.0040
# 4 -0.0055 -0.0128 -0.0303 10.2802 0.0094 0.0008
# 5 0.0041 0.0036 0.0069 0.0094 20.5167 -0.0087
# 6 0.0015 -0.0013 0.0040 0.0008 -0.0087 38.4533
#
#
#
# Elastic Compliance Matrix: (Units=1/GPa)
#
#
# Indices 1 2 3 4 5 6 
#
# 1 0.008068 -0.004058 -0.001360 -0.000005 0.000000 0.000000
# 2 -0.004058 0.013677 -0.000566 0.000013 -0.000001 0.000001
# 3 -0.001360 -0.000566 0.013244 0.000038 -0.000004 -0.000001
# 4 -0.000005 0.000013 0.000038 0.097274 -0.000044 -0.000002
# 5 0.000000 -0.000001 -0.000004 -0.000044 0.048741 0.000011
# 6 0.000000 0.000001 -0.000001 -0.000002 0.000011 0.026006
#
#
# Mechanical properties :
#
#
# Convention : Reuss Voigt Hill
#
# Bulk Modulus (GPa) = 43.43991 50.60426 47.02208
# Shear Modulus (GPa) = 22.06035 30.07052 26.06543
#
# Velocity S-wave (km/s) = 3.21873 3.75793 3.49873
# Velocity P-wave (km/s) = 5.84930 6.52646 6.19714
#
# Compressibility (1/GPa) = 0.02302030
#
# Stress axis : x y z
#
# Youngs Moduli (GPa) = 123.95349 73.11646 75.50478
#
# Poissons Ratio (x) = 0.29669 0.10268
# Poissons Ratio (y) = 0.50298 0.04276
# Poissons Ratio (z) = 0.16857 0.04141
#
# Static dielectric constant tensor:
#      x y z
#    x 4.131670 0.000010 0.000000 
#    y 0.000010 3.894870 0.000020 
#    z 0.000000 0.000020 3.777940 
# 
# 
# High freq. dielectric constant tensor:
#      x y z
#    x 1.849800 0.000000 0.000000 
#    y 0.000000 1.839500 0.000000 
#    z 0.000000 0.000000 1.818750 
# 
# From -- ./inp_files/7304.got.cif
#   From: 2010.03.12/outbox.cif.g09.slc.cpg/sg23_4_cif.got.tgz:7304.got - 2010.04.14 02:50:06.
