data_PCOD8163791
_publ_section_title
;
Structure prediction by ZEFSAII (Michael W. Deem and Ramdas Pophale) SiO2 
 PCOD8163791
Probable space group: I 2 2 2
;
_chemical_formula_sum "Si O2"
_cell_formula_units_Z 44
_cell_length_a 25.542773
_cell_length_b 5.065844
_cell_length_c 15.626230
_cell_angle_alpha 90.000000
_cell_angle_beta 90.000000
_cell_angle_gamma 90.000000
_cell_volume 2021.967021
_symmetry_space_group_name_H-M "I 2 2 2"
_symmetry_group_IT_number 23
_symmetry_cell_setting 'orthorhombic'
loop_
_space_group_symop_operation_xyz
x,y,z
-x,-y,z
x,-y,-z
-x,y,-z
1/2+x,1/2+y,1/2+z
1/2-x,1/2-y,1/2+z
1/2+x,1/2-y,1/2-z
1/2-x,1/2+y,1/2-z
loop_
_atom_site_type_symbol
_atom_site_label
_atom_site_fract_x
_atom_site_fract_y
_atom_site_fract_z
Si Si1 0.847037 0.754847 0.441599
Si Si2 0.910497 0.506266 0.899737
Si Si3 0.718750 0.724692 0.770849
Si Si4 0.000000 0.500000 0.210832
Si Si5 0.379521 0.481737 0.312853
Si Si6 0.554332 0.387273 0.163913
O O1 0.843554 0.500000 0.500000
O O2 0.805322 0.732167 0.365203
O O3 0.907407 0.781787 0.409942
O O4 0.831220 0.000000 0.500000
O O5 0.866497 0.713287 0.866178
O O6 0.961281 0.650236 0.855552
O O7 0.907360 0.203681 0.870679
O O8 0.914257 0.500000 0.000000
O O9 0.765175 0.508068 0.768704
O O10 0.675968 0.604499 0.708553
O O11 0.038029 0.338252 0.271252
O O12 0.412635 0.411877 0.225140
O O13 0.500000 0.500000 0.123697
#
# Coordination Sequence:
#
# PCOD8163791 Si02
#       6
#     8   8   8   4   8   8
#     4  11  26  45  67 102 142 169 215 289 340 385
#     4  11  21  36  57  88 128 167 208 275 325 364
#     4  11  23  45  75  95 121 175 225 264 339 420
#     4  10  21  36  59  86 124 174 238 250 301 392
#     4  10  22  39  61  90 127 163 220 267 319 395
#     4  10  21  39  64  89 130 184 219 259 316 403
#
# _framework density 21.760991000000001
#
# number of rings (size 3 to 8) (size 9 to 14) (size 15 to 20)
#    0.000    1.455    1.818    3.000    2.545    3.273 
#    0.000   10.909    0.000    0.000    0.000    0.000 
#    0.000    0.000    0.000    0.000    0.000    0.000 
#
# Total GULP energy -272543.752105 kJ/mol
# GULP energy per Si atom -12388.352368 kJ/mol
# Density = 2.171146 g / cm^3
# Si number density = 21.760991 Si / 1000 Ang^3
#
#
#
# Elastic Constant Matrix: (Units=GPa)
#
#
# Indices 1 2 3 4 5 6 
#
# 1 93.9259 24.1382 53.0951 0.0000 0.0000 0.0000
# 2 24.1382 109.1299 56.3414 0.0000 0.0000 0.0000
# 3 53.0951 56.3414 137.0914 0.0000 0.0000 0.0000
# 4 0.0000 0.0000 0.0000 40.0388 0.0000 0.0000
# 5 0.0000 0.0000 0.0000 0.0000 37.0436 0.0000
# 6 0.0000 0.0000 0.0000 0.0000 0.0000 29.9319
#
#
#
# Elastic Compliance Matrix: (Units=1/GPa)
#
#
# Indices 1 2 3 4 5 6 
#
# 1 0.013643 -0.000368 -0.005133 0.000000 0.000000 0.000000
# 2 -0.000368 0.011641 -0.004642 0.000000 0.000000 0.000000
# 3 -0.005133 -0.004642 0.011190 0.000000 0.000000 0.000000
# 4 0.000000 0.000000 0.000000 0.024976 0.000000 0.000000
# 5 0.000000 0.000000 0.000000 0.000000 0.026995 0.000000
# 6 0.000000 0.000000 0.000000 0.000000 0.000000 0.033409
#
#
# Mechanical properties :
#
#
# Convention : Reuss Voigt Hill
#
# Bulk Modulus (GPa) = 61.76887 67.47740 64.62314
# Shear Modulus (GPa) = 33.89033 35.17437 34.53235
#
# Velocity S-wave (km/s) = 3.95066 4.02480 3.98790
# Velocity P-wave (km/s) = 7.01834 7.25772 7.13903
#
# Compressibility (1/GPa) = 0.01618938
#
# Stress axis : x y z
#
# Youngs Moduli (GPa) = 73.29983 85.90169 89.36596
#
# Poissons Ratio (x) = 0.03159 0.45868
# Poissons Ratio (y) = 0.02695 0.41482
# Poissons Ratio (z) = 0.37622 0.39874
#
# Static dielectric constant tensor:
#      x y z
#    x 4.303540 0.000000 0.000000 
#    y 0.000000 4.201780 0.000000 
#    z 0.000000 0.000000 3.845830 
# 
# 
# High freq. dielectric constant tensor:
#      x y z
#    x 1.857090 0.000000 0.000000 
#    y 0.000000 1.857880 0.000000 
#    z 0.000000 0.000000 1.850580 
# 
# From -- ./inp_files/22678.got.cif
#   From: 2010.03.12/outbox.cif.g09.slc.cpg/sg23_12_cif.got.tgz:22678.got - 2010.04.14 02:50:06.
