data_PCOD8163080
_publ_section_title
;
Structure prediction by ZEFSAII (Michael W. Deem and Ramdas Pophale) SiO2 
 PCOD8163080
Probable space group: F 2 2 2
;
_chemical_formula_sum "Si O2"
_cell_formula_units_Z 88
_cell_length_a 28.030336
_cell_length_b 14.596084
_cell_length_c 10.056176
_cell_angle_alpha 90.000000
_cell_angle_beta 90.000000
_cell_angle_gamma 90.000000
_cell_volume 4114.314851
_symmetry_space_group_name_H-M "F 2 2 2"
_symmetry_group_IT_number 22
_symmetry_cell_setting 'orthorhombic'
loop_
_space_group_symop_operation_xyz
x,y,z
-x,-y,z
x,-y,-z
-x,y,-z
x,1/2+y,1/2+z
-x,1/2-y,1/2+z
x,1/2-y,1/2-z
-x,1/2+y,1/2-z
1/2+x,y,1/2+z
1/2-x,-y,1/2+z
1/2+x,-y,1/2-z
1/2-x,y,1/2-z
1/2+x,1/2+y,z
1/2-x,1/2-y,z
1/2+x,1/2-y,-z
1/2-x,1/2+y,-z
loop_
_atom_site_type_symbol
_atom_site_label
_atom_site_fract_x
_atom_site_fract_y
_atom_site_fract_z
Si Si1 0.500000 0.000000 0.781057
Si Si2 0.518149 0.823260 0.643550
Si Si3 0.869684 0.348217 0.357756
Si Si4 0.579003 0.000000 0.000000
Si Si5 0.348409 0.158100 0.945180
Si Si6 0.254077 0.852394 0.907308
Si Si7 0.179307 0.000000 0.000000
O O1 0.491882 0.916004 0.682327
O O2 0.547243 0.992635 0.869011
O O3 0.500000 0.790027 0.500000
O O4 0.500699 0.750000 0.750000
O O5 0.574249 0.837564 0.655588
O O6 0.854487 0.268782 0.465960
O O7 0.843831 0.343413 0.214631
O O8 0.856418 0.451226 0.398627
O O9 0.608785 0.094818 0.999850
O O10 0.303646 0.115199 0.025971
O O11 0.250000 0.851740 0.750000
O O12 0.250000 0.750000 0.964909
O O13 0.211780 0.918712 0.947259
#
# Coordination Sequence:
#
# PCOD8163080 Si02
#       7
#     8  16  16   8  16  16   8
#     4  11  25  44  68 110 146 188 250 294 370 436
#     4  12  27  47  73 107 152 194 249 307 369 436
#     4  11  25  46  72 101 145 186 245 293 364 441
#     4  11  23  40  79 102 140 193 244 301 359 442
#     4  11  23  48  71 100 138 188 237 300 354 441
#     4  11  26  47  67 102 140 175 234 301 361 428
#     4  12  27  44  70 104 134 188 234 297 366 424
#
# _framework density 21.388738
#
# number of rings (size 3 to 8) (size 9 to 14) (size 15 to 20)
#    0.000    0.727    5.455    0.818   12.727    0.000 
#    0.000    0.000    0.000    0.000    0.000    0.000 
#    0.000    0.000    0.000    0.000    0.000    0.000 
#
# Total GULP energy -272567.091961 kJ/mol
# GULP energy per Si atom -12389.413271 kJ/mol
# Density = 2.134006 g / cm^3
# Si number density = 21.388738 Si / 1000 Ang^3
#
#
#
# Elastic Constant Matrix: (Units=GPa)
#
#
# Indices 1 2 3 4 5 6 
#
# 1 73.6042 29.8708 47.9582 0.0000 0.0000 0.0000
# 2 29.8708 151.5427 49.9273 0.0000 0.0000 0.0000
# 3 47.9582 49.9273 118.3170 0.0000 0.0000 0.0000
# 4 0.0000 0.0000 0.0000 29.3068 0.0000 0.0000
# 5 0.0000 0.0000 0.0000 0.0000 13.7524 0.0000
# 6 0.0000 0.0000 0.0000 0.0000 0.0000 45.2366
#
#
#
# Elastic Compliance Matrix: (Units=1/GPa)
#
#
# Indices 1 2 3 4 5 6 
#
# 1 0.018708 -0.001381 -0.007000 0.000000 0.000000 0.000000
# 2 -0.001381 0.007766 -0.002717 0.000000 0.000000 0.000000
# 3 -0.007000 -0.002717 0.012436 0.000000 0.000000 0.000000
# 4 0.000000 0.000000 0.000000 0.034122 0.000000 0.000000
# 5 0.000000 0.000000 0.000000 0.000000 0.072715 0.000000
# 6 0.000000 0.000000 0.000000 0.000000 0.000000 0.022106
#
#
# Mechanical properties :
#
#
# Convention : Reuss Voigt Hill
#
# Bulk Modulus (GPa) = 59.83496 66.55293 63.19394
# Shear Modulus (GPa) = 25.55965 32.03965 28.79965
#
# Velocity S-wave (km/s) = 3.46063 3.87456 3.67343
# Velocity P-wave (km/s) = 6.63353 7.15540 6.89940
#
# Compressibility (1/GPa) = 0.01671264
#
# Stress axis : x y z
#
# Youngs Moduli (GPa) = 53.45371 128.76111 80.41227
#
# Poissons Ratio (x) = 0.17785 0.56289
# Poissons Ratio (y) = 0.07383 0.21851
# Poissons Ratio (z) = 0.37418 0.34989
#
# Static dielectric constant tensor:
#      x y z
#    x 3.865940 0.000000 0.000000 
#    y 0.000000 4.460970 0.000000 
#    z 0.000000 0.000000 3.725110 
# 
# 
# High freq. dielectric constant tensor:
#      x y z
#    x 1.840620 0.000000 0.000000 
#    y 0.000000 1.863790 0.000000 
#    z 0.000000 0.000000 1.831400 
# 
# From -- ./inp_files/23688.got.cif
#   From: 2010.03.12/outbox.cif.g09.slc.cpg/sg22_12_cif.got.tgz:23688.got - 2010.04.14 02:24:06.
