data_PCOD8163902
_publ_section_title
;
Structure prediction by ZEFSAII (Michael W. Deem and Ramdas Pophale) SiO2 
 PCOD8163902
Probable space group: I 2 2 2
;
_chemical_formula_sum "Si O2"
_cell_formula_units_Z 56
_cell_length_a 16.013804
_cell_length_b 11.165881
_cell_length_c 13.858656
_cell_angle_alpha 90.000000
_cell_angle_beta 90.000000
_cell_angle_gamma 90.000000
_cell_volume 2478.041747
_symmetry_space_group_name_H-M "I 2 2 2"
_symmetry_group_IT_number 23
_symmetry_cell_setting 'orthorhombic'
loop_
_space_group_symop_operation_xyz
x,y,z
-x,-y,z
x,-y,-z
-x,y,-z
1/2+x,1/2+y,1/2+z
1/2-x,1/2-y,1/2+z
1/2+x,1/2-y,1/2-z
1/2-x,1/2+y,1/2-z
loop_
_atom_site_type_symbol
_atom_site_label
_atom_site_fract_x
_atom_site_fract_y
_atom_site_fract_z
Si Si1 0.483918 0.250694 0.298421
Si Si2 0.800156 0.333399 0.652467
Si Si3 0.322308 0.765512 0.945613
Si Si4 0.088052 0.548789 0.314206
Si Si5 0.338776 0.705545 0.333515
Si Si6 0.128722 0.951042 0.106185
Si Si7 0.529081 0.365765 0.898548
O O1 0.426996 0.131198 0.283163
O O2 0.573725 0.221370 0.347568
O O3 0.440949 0.357911 0.357479
O O4 0.508809 0.291656 0.189927
O O5 0.841731 0.270664 0.559711
O O6 0.853872 0.435090 0.707337
O O7 0.787299 0.234746 0.735805
O O8 0.715484 0.383424 0.608354
O O9 0.365284 0.881369 0.898918
O O10 0.223013 0.764478 0.922551
O O11 0.369039 0.648425 0.900232
O O12 0.000000 0.500000 0.352870
O O13 0.364729 0.566087 0.324673
O O14 0.106150 0.000000 0.000000
O O15 0.500000 0.500000 0.888093
O O16 0.500000 0.308876 0.000000
#
# Coordination Sequence:
#
# PCOD8163902 Si02
#       7
#     8   8   8   8   8   8   8
#     4  11  25  42  70 105 142 196 244 295 369 432
#     4  12  23  44  71 103 145 184 243 307 364 437
#     4  11  24  41  66 107 138 186 245 294 365 436
#     4  11  22  43  68 105 137 185 237 297 366 439
#     4  12  24  43  66 106 145 187 242 302 364 431
#     4  12  25  47  73 105 144 191 255 304 360 442
#     4  10  21  40  64  99 143 184 232 296 375 442
#
# _framework density 22.598490000000002
#
# number of rings (size 3 to 8) (size 9 to 14) (size 15 to 20)
#    0.000    0.714    4.286    4.286    2.000    2.857 
#    0.000    0.000    0.000    2.571    0.000    0.000 
#    0.000    0.000    0.000    0.000    0.000    0.000 
#
# Total GULP energy -347017.023241 kJ/mol
# GULP energy per Si atom -12393.465116 kJ/mol
# Density = 2.254706 g / cm^3
# Si number density = 22.598490 Si / 1000 Ang^3
#
#
#
# Elastic Constant Matrix: (Units=GPa)
#
#
# Indices 1 2 3 4 5 6 
#
# 1 124.6272 36.2355 33.7702 0.0000 0.0000 0.0000
# 2 36.2355 100.1968 53.4056 0.0000 0.0000 0.0000
# 3 33.7702 53.4056 112.0828 0.0000 0.0000 0.0000
# 4 0.0000 0.0000 0.0000 28.1381 0.0000 0.0000
# 5 0.0000 0.0000 0.0000 0.0000 28.3824 0.0000
# 6 0.0000 0.0000 0.0000 0.0000 0.0000 42.8209
#
#
#
# Elastic Compliance Matrix: (Units=1/GPa)
#
#
# Indices 1 2 3 4 5 6 
#
# 1 0.009172 -0.002472 -0.001586 0.000000 0.000000 0.000000
# 2 -0.002472 0.014044 -0.005947 0.000000 0.000000 0.000000
# 3 -0.001586 -0.005947 0.012233 0.000000 0.000000 0.000000
# 4 0.000000 0.000000 0.000000 0.035539 0.000000 0.000000
# 5 0.000000 0.000000 0.000000 0.000000 0.035233 0.000000
# 6 0.000000 0.000000 0.000000 0.000000 0.000000 0.023353
#
#
# Mechanical properties :
#
#
# Convention : Reuss Voigt Hill
#
# Bulk Modulus (GPa) = 64.76476 64.85883 64.81179
# Shear Modulus (GPa) = 32.31410 34.10131 33.20771
#
# Velocity S-wave (km/s) = 3.78553 3.88881 3.83752
# Velocity P-wave (km/s) = 6.91579 6.99476 6.95538
#
# Compressibility (1/GPa) = 0.01544050
#
# Stress axis : x y z
#
# Youngs Moduli (GPa) = 109.02352 71.20428 81.74333
#
# Poissons Ratio (x) = 0.17601 0.12963
# Poissons Ratio (y) = 0.26949 0.48613
# Poissons Ratio (z) = 0.17289 0.42345
#
# Static dielectric constant tensor:
#      x y z
#    x 4.281140 0.000000 0.000000 
#    y 0.000000 4.180320 0.000000 
#    z 0.000000 0.000000 4.065690 
# 
# 
# High freq. dielectric constant tensor:
#      x y z
#    x 1.906720 0.000000 0.000000 
#    y 0.000000 1.882170 0.000000 
#    z 0.000000 0.000000 1.873670 
# 
# From -- ./inp_files/21599.got.cif
#   From: 2010.03.12/outbox.cif.g09.slc.cpg/sg23_11_cif.got.tgz:21599.got - 2010.04.14 02:50:06.
