data_PCOD8163667
_publ_section_title
;
Structure prediction by ZEFSAII (Michael W. Deem and Ramdas Pophale) SiO2 
 PCOD8163667
Probable space group: I 2 2 2
;
_chemical_formula_sum "Si O2"
_cell_formula_units_Z 60
_cell_length_a 11.389339
_cell_length_b 13.131278
_cell_length_c 20.253376
_cell_angle_alpha 90.000000
_cell_angle_beta 90.000000
_cell_angle_gamma 90.000000
_cell_volume 3029.025580
_symmetry_space_group_name_H-M "I 2 2 2"
_symmetry_group_IT_number 23
_symmetry_cell_setting 'orthorhombic'
loop_
_space_group_symop_operation_xyz
x,y,z
-x,-y,z
x,-y,-z
-x,y,-z
1/2+x,1/2+y,1/2+z
1/2-x,1/2-y,1/2+z
1/2+x,1/2-y,1/2-z
1/2-x,1/2+y,1/2-z
loop_
_atom_site_type_symbol
_atom_site_label
_atom_site_fract_x
_atom_site_fract_y
_atom_site_fract_z
Si Si1 0.162193 0.312896 0.811469
Si Si2 0.250478 0.525528 0.283787
Si Si3 0.225585 0.888272 0.027154
Si Si4 0.500000 0.500000 0.223581
Si Si5 0.023286 0.253007 0.928087
Si Si6 0.768712 0.805131 0.109390
Si Si7 0.143951 0.337776 0.347376
Si Si8 0.071403 0.787141 0.314815
O O1 0.187828 0.420520 0.777922
O O2 0.087764 0.330992 0.878485
O O3 0.285447 0.264464 0.831895
O O4 0.094434 0.235899 0.762330
O O5 0.386092 0.503524 0.269648
O O6 0.245048 0.592485 0.349641
O O7 0.176699 0.422578 0.293187
O O8 0.105074 0.846467 0.059844
O O9 0.329190 0.884485 0.080638
O O10 0.269761 0.819042 0.966426
O O11 0.198510 0.000000 0.000000
O O12 0.511977 0.601461 0.178239
O O13 0.906053 0.220860 0.889781
O O14 0.000000 0.304794 0.000000
O O15 0.692479 0.714872 0.142985
O O16 0.008664 0.304625 0.343492
#
# Coordination Sequence:
#
# PCOD8163667 Si02
#       8
#     8   8   8   4   8   8   8   8
#     4  10  21  37  57  90 127 158 199 259 305 375
#     4  11  22  35  61  92 125 162 207 250 322 377
#     4  10  20  38  60  93 128 164 201 252 314 381
#     4  12  22  38  64  90 118 168 210 266 306 380
#     4   9  20  36  61  90 123 162 206 256 311 366
#     4  10  22  37  57  94 125 165 200 250 315 385
#     4  11  22  39  59  93 127 162 204 254 318 376
#     4  11  24  39  61  87 130 164 211 255 317 377
#
# _framework density 19.808350000000001
#
# number of rings (size 3 to 8) (size 9 to 14) (size 15 to 20)
#    0.000    1.600    4.000    0.800    3.733    5.067 
#    0.000    0.667    0.000    1.600    0.000    6.533 
#    0.000    0.000    0.000    0.000    0.000    0.000 
#
# Total GULP energy -371946.092103 kJ/mol
# GULP energy per Si atom -12398.203070 kJ/mol
# Density = 1.976327 g / cm^3
# Si number density = 19.808350 Si / 1000 Ang^3
#
#
#
# Elastic Constant Matrix: (Units=GPa)
#
#
# Indices 1 2 3 4 5 6 
#
# 1 92.2897 34.5636 47.2408 0.0000 0.0000 0.0000
# 2 34.5636 80.1443 33.9812 0.0000 0.0000 0.0000
# 3 47.2408 33.9812 118.5684 0.0000 0.0000 0.0000
# 4 0.0000 0.0000 0.0000 25.3693 0.0000 0.0000
# 5 0.0000 0.0000 0.0000 0.0000 40.2887 0.0000
# 6 0.0000 0.0000 0.0000 0.0000 0.0000 26.3886
#
#
#
# Elastic Compliance Matrix: (Units=1/GPa)
#
#
# Indices 1 2 3 4 5 6 
#
# 1 0.014883 -0.004444 -0.004656 0.000000 0.000000 0.000000
# 2 -0.004444 0.015531 -0.002680 0.000000 0.000000 0.000000
# 3 -0.004656 -0.002680 0.011057 0.000000 0.000000 0.000000
# 4 0.000000 0.000000 0.000000 0.039418 0.000000 0.000000
# 5 0.000000 0.000000 0.000000 0.000000 0.024821 0.000000
# 6 0.000000 0.000000 0.000000 0.000000 0.000000 0.037895
#
#
# Mechanical properties :
#
#
# Convention : Reuss Voigt Hill
#
# Bulk Modulus (GPa) = 55.83625 58.06374 56.94999
# Shear Modulus (GPa) = 28.87896 30.09044 29.48470
#
# Velocity S-wave (km/s) = 3.82241 3.90176 3.86229
# Velocity P-wave (km/s) = 6.90873 7.04803 6.97873
#
# Compressibility (1/GPa) = 0.01790951
#
# Stress axis : x y z
#
# Youngs Moduli (GPa) = 67.18933 64.38876 90.43864
#
# Poissons Ratio (x) = 0.28617 0.42110
# Poissons Ratio (y) = 0.29862 0.24240
# Poissons Ratio (z) = 0.31284 0.17258
#
# Static dielectric constant tensor:
#      x y z
#    x 3.646550 0.000000 0.000000 
#    y 0.000000 3.419160 0.000000 
#    z 0.000000 0.000000 3.761020 
# 
# 
# High freq. dielectric constant tensor:
#      x y z
#    x 1.777700 0.000000 0.000000 
#    y 0.000000 1.745650 0.000000 
#    z 0.000000 0.000000 1.773200 
# 
# From -- ./inp_files/15954.got.cif
#   From: 2010.03.12/outbox.cif.g09.slc.cpg/sg23_8_cif.got.tgz:15954.got - 2010.04.14 02:50:06.
