data_PCOD8163407
_publ_section_title
;
Structure prediction by ZEFSAII (Michael W. Deem and Ramdas Pophale) SiO2 
 PCOD8163407
Probable space group: I 2 2 2
;
_chemical_formula_sum "Si O2"
_cell_formula_units_Z 48
_cell_length_a 17.498976
_cell_length_b 24.526435
_cell_length_c 5.127887
_cell_angle_alpha 90.000000
_cell_angle_beta 90.000000
_cell_angle_gamma 90.000000
_cell_volume 2200.824989
_symmetry_space_group_name_H-M "I 2 2 2"
_symmetry_group_IT_number 23
_symmetry_cell_setting 'orthorhombic'
loop_
_space_group_symop_operation_xyz
x,y,z
-x,-y,z
x,-y,-z
-x,y,-z
1/2+x,1/2+y,1/2+z
1/2-x,1/2-y,1/2+z
1/2+x,1/2-y,1/2-z
1/2-x,1/2+y,1/2-z
loop_
_atom_site_type_symbol
_atom_site_label
_atom_site_fract_x
_atom_site_fract_y
_atom_site_fract_z
Si Si1 0.543174 0.228592 0.749420
Si Si2 0.465482 0.439286 0.247594
Si Si3 0.711542 0.557435 0.133394
Si Si4 0.214709 0.602333 0.351795
Si Si5 0.455951 0.098826 0.250167
Si Si6 0.787869 0.271690 0.357736
O O1 0.500000 0.253398 0.500000
O O2 0.540390 0.163697 0.741829
O O3 0.630234 0.248959 0.754535
O O4 0.500000 0.251803 0.000000
O O5 0.500000 0.500000 0.248301
O O6 0.500000 0.408580 0.500000
O O7 0.374626 0.439706 0.236782
O O8 0.500000 0.407359 0.000000
O O9 0.761135 0.567712 0.393343
O O10 0.731403 0.500000 0.000000
O O11 0.728360 0.599481 0.897863
O O12 0.132244 0.580078 0.257954
O O13 0.211032 0.665046 0.438458
O O14 0.500000 0.074241 0.500000
O O15 0.500000 0.075614 0.000000
O O16 0.770502 0.239152 0.622688
#
# Coordination Sequence:
#
# PCOD8163407 Si02
#       6
#     8   8   8   8   8   8
#     4   9  17  31  55  86 107 145 204 254 288 340
#     4  10  19  34  59  86 112 154 217 254 292 354
#     4  12  23  39  62  92 128 159 198 271 314 359
#     4  11  24  38  61  96 125 157 211 262 317 371
#     4   9  17  33  57  83 115 149 198 252 286 350
#     4  11  22  39  63  88 124 167 203 255 320 383
#
# _framework density 21.810005
#
# number of rings (size 3 to 8) (size 9 to 14) (size 15 to 20)
#    0.000    1.667    1.667    4.500    2.333    5.333 
#    0.000    0.000    0.000   27.500    0.000    0.000 
#    0.000    0.000    0.000    0.000    0.000    0.000 
#
# Total GULP energy -297511.682291 kJ/mol
# GULP energy per Si atom -12396.320095 kJ/mol
# Density = 2.176036 g / cm^3
# Si number density = 21.810005 Si / 1000 Ang^3
#
#
#
# Elastic Constant Matrix: (Units=GPa)
#
#
# Indices 1 2 3 4 5 6 
#
# 1 155.8297 37.8848 80.8374 0.0000 0.0000 0.0000
# 2 37.8848 31.9715 23.7693 0.0000 0.0000 0.0000
# 3 80.8374 23.7693 216.2257 0.0000 0.0000 0.0000
# 4 0.0000 0.0000 0.0000 16.0799 0.0000 0.0000
# 5 0.0000 0.0000 0.0000 0.0000 52.7987 0.0000
# 6 0.0000 0.0000 0.0000 0.0000 0.0000 21.4463
#
#
#
# Elastic Compliance Matrix: (Units=1/GPa)
#
#
# Indices 1 2 3 4 5 6 
#
# 1 0.010313 -0.010186 -0.002736 0.000000 0.000000 0.000000
# 2 -0.010186 0.044123 -0.001042 0.000000 0.000000 0.000000
# 3 -0.002736 -0.001042 0.005762 0.000000 0.000000 0.000000
# 4 0.000000 0.000000 0.000000 0.062189 0.000000 0.000000
# 5 0.000000 0.000000 0.000000 0.000000 0.018940 0.000000
# 6 0.000000 0.000000 0.000000 0.000000 0.000000 0.046628
#
#
# Mechanical properties :
#
#
# Convention : Reuss Voigt Hill
#
# Bulk Modulus (GPa) = 30.98900 76.55666 53.77283
# Shear Modulus (GPa) = 22.06134 35.50067 28.78100
#
# Velocity S-wave (km/s) = 3.18390 4.03888 3.63660
# Velocity P-wave (km/s) = 5.26837 7.54506 6.50706
#
# Compressibility (1/GPa) = 0.03226952
#
# Stress axis : x y z
#
# Youngs Moduli (GPa) = 96.96522 22.66383 173.54643
#
# Poissons Ratio (x) = 0.23086 0.47479
# Poissons Ratio (y) = 0.98774 0.18085
# Poissons Ratio (z) = 0.26528 0.02362
#
# Static dielectric constant tensor:
#      x y z
#    x 4.071210 0.000000 0.000000 
#    y 0.000000 3.363460 0.000000 
#    z 0.000000 0.000000 3.053980 
# 
# 
# High freq. dielectric constant tensor:
#      x y z
#    x 1.868850 0.000000 0.000000 
#    y 0.000000 1.802800 0.000000 
#    z 0.000000 0.000000 1.886050 
# 
# From -- ./inp_files/2557.got.cif
#   From: 2010.03.12/outbox.cif.g09.slc.cpg/sg23_2_cif.got.tgz:2557.got - 2010.04.14 02:50:06.
