data_PCOD8163673
_publ_section_title
;
Structure prediction by ZEFSAII (Michael W. Deem and Ramdas Pophale) SiO2 
 PCOD8163673
Probable space group: I 2 2 2
;
_chemical_formula_sum "Si O2"
_cell_formula_units_Z 64
_cell_length_a 18.950370
_cell_length_b 8.542177
_cell_length_c 18.884111
_cell_angle_alpha 90.000000
_cell_angle_beta 90.000000
_cell_angle_gamma 90.000000
_cell_volume 3056.911069
_symmetry_space_group_name_H-M "I 2 2 2"
_symmetry_group_IT_number 23
_symmetry_cell_setting 'orthorhombic'
loop_
_space_group_symop_operation_xyz
x,y,z
-x,-y,z
x,-y,-z
-x,y,-z
1/2+x,1/2+y,1/2+z
1/2-x,1/2-y,1/2+z
1/2+x,1/2-y,1/2-z
1/2-x,1/2+y,1/2-z
loop_
_atom_site_type_symbol
_atom_site_label
_atom_site_fract_x
_atom_site_fract_y
_atom_site_fract_z
Si Si1 0.402109 0.901544 0.196459
Si Si2 0.047257 0.741666 0.306107
Si Si3 0.711817 0.706737 0.721518
Si Si4 0.775458 0.356014 0.922765
Si Si5 0.837440 0.625063 0.447202
Si Si6 0.299186 0.797614 0.576617
Si Si7 0.610487 0.643993 0.046810
Si Si8 0.841581 0.140402 0.210592
O O1 0.462487 0.766886 0.195105
O O2 0.340301 0.832700 0.244090
O O3 0.376871 0.951131 0.118220
O O4 0.427758 0.070634 0.220630
O O5 0.068947 0.816731 0.381416
O O6 0.080491 0.852326 0.245132
O O7 0.713056 0.729521 0.637474
O O8 0.789774 0.730457 0.753710
O O9 0.689006 0.528384 0.731096
O O10 0.807912 0.522587 0.898929
O O11 0.693073 0.384370 0.937457
O O12 0.816010 0.288834 0.992459
O O13 0.799483 0.500000 0.500000
O O14 0.781766 0.744911 0.413100
O O15 0.896924 0.708372 0.494843
O O16 0.346498 0.682979 0.626428
O O17 0.579531 0.500000 0.000000
#
# Coordination Sequence:
#
# PCOD8163673 Si02
#       8
#     8   8   8   8   8   8   8   8
#     4  11  25  44  62  88 123 173 217 266 315 383
#     4  11  25  44  63  86 126 170 220 262 318 383
#     4  12  25  38  63  91 124 165 214 266 323 379
#     4  10  20  38  61  92 125 155 202 260 317 378
#     4  11  21  35  59  87 125 165 207 251 302 372
#     4  10  21  36  62  93 124 157 199 260 320 376
#     4  11  21  37  59  89 125 166 205 253 305 368
#     4  12  25  38  62  92 123 167 211 267 322 381
#
# _framework density 20.936167000000001
#
# number of rings (size 3 to 8) (size 9 to 14) (size 15 to 20)
#    0.000    1.000    6.250    2.250    5.250    1.000 
#    0.000    0.625    0.000    0.750    0.000    5.250 
#    0.000    0.000    0.000    0.000    0.000    0.000 
#
# Total GULP energy -396531.885329 kJ/mol
# GULP energy per Si atom -12391.621417 kJ/mol
# Density = 2.088851 g / cm^3
# Si number density = 20.936167 Si / 1000 Ang^3
#
#
#
# Elastic Constant Matrix: (Units=GPa)
#
#
# Indices 1 2 3 4 5 6 
#
# 1 47.0791 -1.8636 25.3681 0.0000 0.0000 0.0000
# 2 -1.8636 75.5088 17.3945 0.0000 0.0000 0.0000
# 3 25.3681 17.3945 108.0128 0.0000 0.0000 0.0000
# 4 0.0000 0.0000 0.0000 42.5206 0.0000 0.0000
# 5 0.0000 0.0000 0.0000 0.0000 13.9096 0.0000
# 6 0.0000 0.0000 0.0000 0.0000 0.0000 23.0196
#
#
#
# Elastic Compliance Matrix: (Units=1/GPa)
#
#
# Indices 1 2 3 4 5 6 
#
# 1 0.024610 0.002014 -0.006104 0.000000 0.000000 0.000000
# 2 0.002014 0.013918 -0.002714 0.000000 0.000000 0.000000
# 3 -0.006104 -0.002714 0.011129 0.000000 0.000000 0.000000
# 4 0.000000 0.000000 0.000000 0.023518 0.000000 0.000000
# 5 0.000000 0.000000 0.000000 0.000000 0.071893 0.000000
# 6 0.000000 0.000000 0.000000 0.000000 0.000000 0.043441
#
#
# Mechanical properties :
#
#
# Convention : Reuss Voigt Hill
#
# Bulk Modulus (GPa) = 27.74139 34.71097 31.22618
# Shear Modulus (GPa) = 23.34979 28.53674 25.94327
#
# Velocity S-wave (km/s) = 3.34321 3.69594 3.52399
# Velocity P-wave (km/s) = 5.30867 5.90158 5.61296
#
# Compressibility (1/GPa) = 0.03604722
#
# Stress axis : x y z
#
# Youngs Moduli (GPa) = 40.63430 71.84694 89.85597
#
# Poissons Ratio (x) = -0.14467 0.54850
# Poissons Ratio (y) = -0.08182 0.24390
# Poissons Ratio (z) = 0.24804 0.19502
#
# Static dielectric constant tensor:
#      x y z
#    x 3.477240 0.000000 0.000000 
#    y 0.000000 3.927890 0.000000 
#    z 0.000000 0.000000 4.078440 
# 
# 
# High freq. dielectric constant tensor:
#      x y z
#    x 1.766300 0.000000 0.000000 
#    y 0.000000 1.834330 0.000000 
#    z 0.000000 0.000000 1.829240 
# 
# From -- ./inp_files/25264.got.cif
#   From: 2010.03.12/outbox.cif.g09.slc.cpg/sg23_13_cif.got.tgz:25264.got - 2010.04.14 02:50:06.
