data_PCOD8163800
_publ_section_title
;
Structure prediction by ZEFSAII (Michael W. Deem and Ramdas Pophale) SiO2 
 PCOD8163800
Probable space group: I 2 2 2
;
_chemical_formula_sum "Si O2"
_cell_formula_units_Z 56
_cell_length_a 13.643846
_cell_length_b 23.455822
_cell_length_c 8.621964
_cell_angle_alpha 90.000000
_cell_angle_beta 90.000000
_cell_angle_gamma 90.000000
_cell_volume 2759.266646
_symmetry_space_group_name_H-M "I 2 2 2"
_symmetry_group_IT_number 23
_symmetry_cell_setting 'orthorhombic'
loop_
_space_group_symop_operation_xyz
x,y,z
-x,-y,z
x,-y,-z
-x,y,-z
1/2+x,1/2+y,1/2+z
1/2-x,1/2-y,1/2+z
1/2+x,1/2-y,1/2-z
1/2-x,1/2+y,1/2-z
loop_
_atom_site_type_symbol
_atom_site_label
_atom_site_fract_x
_atom_site_fract_y
_atom_site_fract_z
Si Si1 0.271797 0.332423 0.630420
Si Si2 0.904201 0.661171 0.406756
Si Si3 0.914303 0.728677 0.106704
Si Si4 0.114414 0.932966 0.020948
Si Si5 0.764860 0.424257 0.768620
Si Si6 0.398558 0.980420 0.675366
Si Si7 0.184477 0.370257 0.927648
O O1 0.173829 0.318701 0.534728
O O2 0.335259 0.277563 0.598089
O O3 0.324204 0.392893 0.594440
O O4 0.252846 0.334177 0.814147
O O5 0.936024 0.712047 0.286871
O O6 0.851638 0.611588 0.310796
O O7 0.000000 0.639744 0.500000
O O8 0.884968 0.671225 0.020326
O O9 0.000000 0.754450 0.000000
O O10 0.157507 0.917580 0.191562
O O11 0.000000 0.918324 0.000000
O O12 0.133796 0.000000 0.000000
O O13 0.803458 0.489124 0.749911
O O14 0.751234 0.406151 0.948243
O O15 0.382327 0.912281 0.679987
O O16 0.500000 0.000000 0.759916
O O17 0.407226 0.000000 0.500000
#
# Coordination Sequence:
#
# PCOD8163800 Si02
#       7
#     8   8   8   8   8   8   8
#     4  11  22  39  60  87 119 153 209 253 314 367
#     4  10  22  37  58  86 120 156 197 251 305 377
#     4  11  23  38  60  83 117 162 209 251 308 367
#     4  10  21  40  63  83 116 160 203 256 315 366
#     4   9  20  37  57  89 123 155 202 247 311 381
#     4   9  18  30  56  91 126 156 196 237 310 393
#     4  10  21  36  62  86 122 164 197 258 314 379
#
# _framework density 20.295248000000001
#
# number of rings (size 3 to 8) (size 9 to 14) (size 15 to 20)
#    0.000    2.000    0.000    3.000    8.000    0.000 
#    0.000    5.000    0.000    1.714    0.000    0.000 
#    0.000    0.000    0.000    0.000    0.000    0.000 
#
# Total GULP energy -346938.388254 kJ/mol
# GULP energy per Si atom -12390.656723 kJ/mol
# Density = 2.024905 g / cm^3
# Si number density = 20.295248 Si / 1000 Ang^3
#
#
#
# Elastic Constant Matrix: (Units=GPa)
#
#
# Indices 1 2 3 4 5 6 
#
# 1 131.5305 36.2302 58.9569 -0.0004 0.0010 0.0000
# 2 36.2302 84.6457 26.4521 -0.0075 0.0046 0.0008
# 3 58.9569 26.4521 109.1922 -0.0246 0.0108 0.0023
# 4 -0.0004 -0.0075 -0.0246 17.2614 0.0062 0.0021
# 5 0.0010 0.0046 0.0108 0.0062 26.9430 -0.0021
# 6 0.0000 0.0008 0.0023 0.0021 -0.0021 27.7067
#
#
#
# Elastic Compliance Matrix: (Units=1/GPa)
#
#
# Indices 1 2 3 4 5 6 
#
# 1 0.010691 -0.002999 -0.005046 -0.000008 0.000002 0.000001
# 2 -0.002999 0.013623 -0.001681 0.000003 -0.000002 0.000000
# 3 -0.005046 -0.001681 0.012290 0.000017 -0.000004 -0.000001
# 4 -0.000008 0.000003 0.000017 0.057933 -0.000013 -0.000004
# 5 0.000002 -0.000002 -0.000004 -0.000013 0.037115 0.000003
# 6 0.000001 0.000000 -0.000001 -0.000004 0.000003 0.036092
#
#
# Mechanical properties :
#
#
# Convention : Reuss Voigt Hill
#
# Bulk Modulus (GPa) = 58.30243 63.18297 60.74270
# Shear Modulus (GPa) = 25.91854 27.96418 26.94136
#
# Velocity S-wave (km/s) = 3.57749 3.71599 3.64740
# Velocity P-wave (km/s) = 6.77157 7.04350 6.90887
#
# Compressibility (1/GPa) = 0.01715194
#
# Stress axis : x y z
#
# Youngs Moduli (GPa) = 93.54056 73.40594 81.36877
#
# Poissons Ratio (x) = 0.22014 0.41056
# Poissons Ratio (y) = 0.28053 0.13677
# Poissons Ratio (z) = 0.47198 0.12339
#
# Static dielectric constant tensor:
#      x y z
#    x 3.632360 0.000000 0.000010 
#    y 0.000000 3.732860 0.000000 
#    z 0.000010 0.000000 3.957760 
# 
# 
# High freq. dielectric constant tensor:
#      x y z
#    x 1.778820 0.000000 0.000000 
#    y 0.000000 1.794580 0.000000 
#    z 0.000000 0.000000 1.792780 
# 
# From -- ./inp_files/10227.got.cif
#   From: 2010.03.12/outbox.cif.g09.slc.cpg/sg23_6_cif.got.tgz:10227.got - 2010.04.14 02:50:06.
