data_PCOD8163581
_publ_section_title
;
Structure prediction by ZEFSAII (Michael W. Deem and Ramdas Pophale) SiO2 
 PCOD8163581
Probable space group: I 2 2 2
;
_chemical_formula_sum "Si O2"
_cell_formula_units_Z 60
_cell_length_a 29.851501
_cell_length_b 6.248896
_cell_length_c 17.521304
_cell_angle_alpha 90.000000
_cell_angle_beta 90.000000
_cell_angle_gamma 90.000000
_cell_volume 3268.405216
_symmetry_space_group_name_H-M "I 2 2 2"
_symmetry_group_IT_number 23
_symmetry_cell_setting 'orthorhombic'
loop_
_space_group_symop_operation_xyz
x,y,z
-x,-y,z
x,-y,-z
-x,y,-z
1/2+x,1/2+y,1/2+z
1/2-x,1/2-y,1/2+z
1/2+x,1/2-y,1/2-z
1/2-x,1/2+y,1/2-z
loop_
_atom_site_type_symbol
_atom_site_label
_atom_site_fract_x
_atom_site_fract_y
_atom_site_fract_z
Si Si1 0.615447 0.192251 0.181082
Si Si2 0.383083 0.191694 0.283076
Si Si3 0.337453 0.119964 0.427272
Si Si4 0.231225 0.721001 0.860432
Si Si5 0.450908 0.428791 0.193957
Si Si6 0.951772 0.563705 0.587204
Si Si7 0.215664 0.000000 0.000000
Si Si8 0.310159 0.518798 0.219601
O O1 0.578106 0.362552 0.200187
O O2 0.663007 0.310405 0.165600
O O3 0.625322 0.047631 0.254235
O O4 0.594116 0.051934 0.113425
O O5 0.379310 0.184526 0.374355
O O6 0.432810 0.262396 0.257480
O O7 0.345141 0.347255 0.250523
O O8 0.313874 0.338046 0.451127
O O9 0.357791 0.000000 0.500000
O O10 0.304150 0.962411 0.381787
O O11 0.275992 0.600743 0.835474
O O12 0.214179 0.868051 0.790889
O O13 0.243298 0.865416 0.935763
O O14 0.500000 0.500000 0.215838
O O15 0.447210 0.315456 0.109668
O O16 0.955544 0.500000 0.500000
O O17 0.000000 0.500000 0.625808
#
# Coordination Sequence:
#
# PCOD8163581 Si02
#       8
#     8   8   8   8   8   8   4   8
#     4  10  21  37  57  84 116 143 203 245 289 353
#     4  10  20  36  58  86 114 147 192 247 298 347
#     4  10  20  36  58  87 113 147 194 245 297 353
#     4  11  22  36  61  85 116 157 205 248 302 357
#     4  10  20  35  58  87 113 147 193 240 293 354
#     4  10  20  36  60  84 116 157 195 242 296 356
#     4  10  22  38  58  84 119 144 200 255 294 358
#     4  11  22  35  62  84 114 159 201 248 298 357
#
# _framework density 18.357576999999999
#
# number of rings (size 3 to 8) (size 9 to 14) (size 15 to 20)
#    0.000    1.733    4.000    0.800    0.000    0.533 
#    0.000    0.000   44.000    0.000    0.000    7.000 
#    0.000    0.000    0.000    0.000    0.000    0.000 
#
# Total GULP energy -371656.651064 kJ/mol
# GULP energy per Si atom -12388.555035 kJ/mol
# Density = 1.831579 g / cm^3
# Si number density = 18.357577 Si / 1000 Ang^3
#
#
#
# Elastic Constant Matrix: (Units=GPa)
#
#
# Indices 1 2 3 4 5 6 
#
# 1 103.6153 47.9506 58.3336 0.0000 0.0000 0.0000
# 2 47.9506 113.7091 46.5181 0.0000 0.0000 0.0000
# 3 58.3336 46.5181 111.9162 0.0000 0.0000 0.0000
# 4 0.0000 0.0000 0.0000 28.9436 0.0000 0.0000
# 5 0.0000 0.0000 0.0000 0.0000 21.3273 0.0000
# 6 0.0000 0.0000 0.0000 0.0000 0.0000 31.6205
#
#
#
# Elastic Compliance Matrix: (Units=1/GPa)
#
#
# Indices 1 2 3 4 5 6 
#
# 1 0.014868 -0.003735 -0.006198 0.000000 0.000000 0.000000
# 2 -0.003735 0.011534 -0.002848 0.000000 0.000000 0.000000
# 3 -0.006198 -0.002848 0.013349 0.000000 0.000000 0.000000
# 4 0.000000 0.000000 0.000000 0.034550 0.000000 0.000000
# 5 0.000000 0.000000 0.000000 0.000000 0.046888 0.000000
# 6 0.000000 0.000000 0.000000 0.000000 0.000000 0.031625
#
#
# Mechanical properties :
#
#
# Convention : Reuss Voigt Hill
#
# Bulk Modulus (GPa) = 70.46057 70.53836 70.49947
# Shear Modulus (GPa) = 27.30668 28.14083 27.72375
#
# Velocity S-wave (km/s) = 3.86098 3.91951 3.89036
# Velocity P-wave (km/s) = 7.63818 7.68059 7.65942
#
# Compressibility (1/GPa) = 0.01419233
#
# Stress axis : x y z
#
# Youngs Moduli (GPa) = 67.25649 86.69882 74.91085
#
# Poissons Ratio (x) = 0.32378 0.46426
# Poissons Ratio (y) = 0.25117 0.21332
# Poissons Ratio (z) = 0.41682 0.24689
#
# Static dielectric constant tensor:
#      x y z
#    x 3.665670 0.000000 0.000000 
#    y 0.000000 3.908900 0.000000 
#    z 0.000000 0.000000 3.424660 
# 
# 
# High freq. dielectric constant tensor:
#      x y z
#    x 1.696640 0.000000 0.000000 
#    y 0.000000 1.740600 0.000000 
#    z 0.000000 0.000000 1.694690 
# 
# From -- ./inp_files/5013.got.cif
#   From: 2010.03.12/outbox.cif.g09.slc.cpg/sg23_3_cif.got.tgz:5013.got - 2010.04.14 02:50:06.
