data_PCOD8163219
_publ_section_title
;
Structure prediction by ZEFSAII (Michael W. Deem and Ramdas Pophale) SiO2 
 PCOD8163219
Probable space group: I 2 2 2
;
_chemical_formula_sum "Si O2"
_cell_formula_units_Z 44
_cell_length_a 31.669741
_cell_length_b 9.120344
_cell_length_c 7.647268
_cell_angle_alpha 90.000000
_cell_angle_beta 90.000000
_cell_angle_gamma 90.000000
_cell_volume 2208.828724
_symmetry_space_group_name_H-M "I 2 2 2"
_symmetry_group_IT_number 23
_symmetry_cell_setting 'orthorhombic'
loop_
_space_group_symop_operation_xyz
x,y,z
-x,-y,z
x,-y,-z
-x,y,-z
1/2+x,1/2+y,1/2+z
1/2-x,1/2-y,1/2+z
1/2+x,1/2-y,1/2-z
1/2-x,1/2+y,1/2-z
loop_
_atom_site_type_symbol
_atom_site_label
_atom_site_fract_x
_atom_site_fract_y
_atom_site_fract_z
Si Si1 0.713977 0.154028 0.794286
Si Si2 0.000000 0.500000 0.500000
Si Si3 0.796633 0.314796 0.685657
Si Si4 0.484115 0.744412 0.232160
Si Si5 0.646871 0.829969 0.498737
Si Si6 0.000000 0.000000 0.500000
Si Si7 0.062828 0.169387 0.942908
O O1 0.760662 0.212045 0.762969
O O2 0.684614 0.203047 0.634966
O O3 0.718622 0.980294 0.792643
O O4 0.695069 0.214669 0.979173
O O5 0.026260 0.607440 0.625750
O O6 0.838611 0.286570 0.803677
O O7 0.469618 0.604851 0.116380
O O8 0.534079 0.710187 0.274361
O O9 0.456596 0.765287 0.401902
O O10 0.610406 0.724228 0.424521
O O11 0.632591 0.000000 0.500000
O O12 0.059475 0.000000 0.000000
#
# Coordination Sequence:
#
# PCOD8163219 Si02
#       7
#     8   2   8   8   8   2   8
#     4  10  20  37  60  85 115 154 197 248 305 362
#     4  10  24  36  64 102 112 152 208 254 300 372
#     4  10  20  37  60  85 115 154 197 248 305 362
#     4  10  21  40  63  91 124 162 206 247 309 354
#     4  10  23  39  55  87 127 160 201 258 308 359
#     4  10  16  40  64  86 124 152 200 258 292 360
#     4  11  22  41  63  86 122 172 204 250 306 370
#
# _framework density 19.920058000000001
#
# number of rings (size 3 to 8) (size 9 to 14) (size 15 to 20)
#    0.000    1.818    3.636    0.545    2.545    2.182 
#    6.545    0.000    0.000    0.000    0.000    0.000 
#    0.000    0.000    0.000    0.000    0.000    0.000 
#
# Total GULP energy -272619.710288 kJ/mol
# GULP energy per Si atom -12391.805013 kJ/mol
# Density = 1.987472 g / cm^3
# Si number density = 19.920058 Si / 1000 Ang^3
#
#
#
# Elastic Constant Matrix: (Units=GPa)
#
#
# Indices 1 2 3 4 5 6 
#
# 1 65.2450 20.3543 8.3189 0.0000 0.0000 0.0000
# 2 20.3543 80.6186 27.1842 0.0000 0.0000 0.0000
# 3 8.3189 27.1842 104.7162 0.0000 0.0000 0.0000
# 4 0.0000 0.0000 0.0000 17.9346 0.0000 0.0000
# 5 0.0000 0.0000 0.0000 0.0000 13.3929 0.0000
# 6 0.0000 0.0000 0.0000 0.0000 0.0000 22.3919
#
#
#
# Elastic Compliance Matrix: (Units=1/GPa)
#
#
# Indices 1 2 3 4 5 6 
#
# 1 0.016643 -0.004117 -0.000254 0.000000 0.000000 0.000000
# 2 -0.004117 0.014612 -0.003466 0.000000 0.000000 0.000000
# 3 -0.000254 -0.003466 0.010470 0.000000 0.000000 0.000000
# 4 0.000000 0.000000 0.000000 0.055758 0.000000 0.000000
# 5 0.000000 0.000000 0.000000 0.000000 0.074666 0.000000
# 6 0.000000 0.000000 0.000000 0.000000 0.000000 0.044659
#
#
# Mechanical properties :
#
#
# Convention : Reuss Voigt Hill
#
# Bulk Modulus (GPa) = 38.38409 40.25495 39.31952
# Shear Modulus (GPa) = 20.73263 23.72538 22.22900
#
# Velocity S-wave (km/s) = 3.22963 3.45487 3.34415
# Velocity P-wave (km/s) = 5.76353 6.01390 5.89004
#
# Compressibility (1/GPa) = 0.02605246
#
# Stress axis : x y z
#
# Youngs Moduli (GPa) = 60.08383 68.43573 95.51454
#
# Poissons Ratio (x) = 0.28172 0.02422
# Poissons Ratio (y) = 0.24734 0.33108
# Poissons Ratio (z) = 0.01523 0.23722
#
# Static dielectric constant tensor:
#      x y z
#    x 3.281440 0.000000 0.000000 
#    y 0.000000 3.643400 0.000000 
#    z 0.000000 0.000000 4.110900 
# 
# 
# High freq. dielectric constant tensor:
#      x y z
#    x 1.737000 0.000000 0.000000 
#    y 0.000000 1.778810 0.000000 
#    z 0.000000 0.000000 1.801900 
# 
# From -- ./inp_files/13294.got.cif
#   From: 2010.03.12/outbox.cif.g09.slc.cpg/sg23_7_cif.got.tgz:13294.got - 2010.04.14 02:50:06.
