data_PCOD8163580
_publ_section_title
;
Structure prediction by ZEFSAII (Michael W. Deem and Ramdas Pophale) SiO2 
 PCOD8163580
Probable space group: I 2 2 2
;
_chemical_formula_sum "Si O2"
_cell_formula_units_Z 58
_cell_length_a 17.205075
_cell_length_b 9.094523
_cell_length_c 18.349843
_cell_angle_alpha 90.000000
_cell_angle_beta 90.000000
_cell_angle_gamma 90.000000
_cell_volume 2871.235722
_symmetry_space_group_name_H-M "I 2 2 2"
_symmetry_group_IT_number 23
_symmetry_cell_setting 'orthorhombic'
loop_
_space_group_symop_operation_xyz
x,y,z
-x,-y,z
x,-y,-z
-x,y,-z
1/2+x,1/2+y,1/2+z
1/2-x,1/2-y,1/2+z
1/2+x,1/2-y,1/2-z
1/2-x,1/2+y,1/2-z
loop_
_atom_site_type_symbol
_atom_site_label
_atom_site_fract_x
_atom_site_fract_y
_atom_site_fract_z
Si Si1 0.000000 0.500000 0.500000
Si Si2 0.222550 0.033894 0.081586
Si Si3 0.589193 0.469644 0.923607
Si Si4 0.587200 0.048789 0.723977
Si Si5 0.326126 0.770468 0.305467
Si Si6 0.683299 0.319638 0.703053
Si Si7 0.586242 0.437330 0.222556
Si Si8 0.610619 0.138954 0.889292
O O1 0.954373 0.390494 0.448446
O O2 0.180989 0.176929 0.119429
O O3 0.312068 0.074704 0.076092
O O4 0.214931 0.881005 0.126237
O O5 0.190029 0.000000 0.000000
O O6 0.500000 0.500000 0.939826
O O7 0.611260 0.587869 0.861707
O O8 0.611482 0.315935 0.884460
O O9 0.634756 0.500000 0.000000
O O10 0.612868 0.204980 0.689660
O O11 0.593920 0.063383 0.811638
O O12 0.500000 0.000000 0.701740
O O13 0.651745 0.941264 0.686553
O O14 0.248849 0.747749 0.255867
O O15 0.404143 0.718188 0.262020
O O16 0.650787 0.461999 0.741825
O O17 0.500000 0.500000 0.230616
#
# Coordination Sequence:
#
# PCOD8163580 Si02
#       8
#     2   8   8   8   8   8   8   8
#     4  12  24  32  58  96 152 164 204 262 328 420
#     4  11  24  44  67  93 132 180 227 269 344 403
#     4  10  21  34  50  81 132 176 213 258 318 398
#     4  12  23  38  67 100 131 171 229 289 344 387
#     4  11  22  38  65  93 126 169 226 277 324 399
#     4  11  21  41  62  94 128 169 226 278 323 407
#     4  10  20  35  58  81 118 166 219 266 322 385
#     4  12  22  37  60  93 133 183 221 256 328 417
#
# _framework density 20.200361000000001
#
# number of rings (size 3 to 8) (size 9 to 14) (size 15 to 20)
#    0.000    0.966    5.517    2.483    1.931    2.207 
#    0.000    0.690    0.000   15.724    0.000    0.000 
#    0.000    0.000    0.000    0.000    0.000    0.000 
#
# Total GULP energy -359262.587086 kJ/mol
# GULP energy per Si atom -12388.365072 kJ/mol
# Density = 2.015438 g / cm^3
# Si number density = 20.200361 Si / 1000 Ang^3
#
#
#
# Elastic Constant Matrix: (Units=GPa)
#
#
# Indices 1 2 3 4 5 6 
#
# 1 72.1754 15.5707 23.1255 0.0000 0.0000 0.0000
# 2 15.5707 66.1405 31.9369 0.0000 0.0000 0.0000
# 3 23.1255 31.9369 126.2064 0.0000 0.0000 0.0000
# 4 0.0000 0.0000 0.0000 59.4586 0.0000 0.0000
# 5 0.0000 0.0000 0.0000 0.0000 10.9610 0.0000
# 6 0.0000 0.0000 0.0000 0.0000 0.0000 41.0024
#
#
#
# Elastic Compliance Matrix: (Units=1/GPa)
#
#
# Indices 1 2 3 4 5 6 
#
# 1 0.015080 -0.002524 -0.002124 0.000000 0.000000 0.000000
# 2 -0.002524 0.017647 -0.004003 0.000000 0.000000 0.000000
# 3 -0.002124 -0.004003 0.009326 0.000000 0.000000 0.000000
# 4 0.000000 0.000000 0.000000 0.016818 0.000000 0.000000
# 5 0.000000 0.000000 0.000000 0.000000 0.091232 0.000000
# 6 0.000000 0.000000 0.000000 0.000000 0.000000 0.024389
#
#
# Mechanical properties :
#
#
# Convention : Reuss Voigt Hill
#
# Bulk Modulus (GPa) = 40.40550 45.08760 42.74655
# Shear Modulus (GPa) = 24.99433 35.21036 30.10234
#
# Velocity S-wave (km/s) = 3.52137 4.17952 3.86448
# Velocity P-wave (km/s) = 6.04808 6.75721 6.41245
#
# Compressibility (1/GPa) = 0.02474911
#
# Stress axis : x y z
#
# Youngs Moduli (GPa) = 66.31115 56.66842 107.22979
#
# Poissons Ratio (x) = 0.14305 0.22781
# Poissons Ratio (y) = 0.16739 0.42924
# Poissons Ratio (z) = 0.14088 0.22684
#
# Static dielectric constant tensor:
#      x y z
#    x 3.584490 0.000000 0.000000 
#    y 0.000000 4.938870 0.000000 
#    z 0.000000 0.000000 3.938220 
# 
# 
# High freq. dielectric constant tensor:
#      x y z
#    x 1.777580 0.000000 0.000000 
#    y 0.000000 1.798700 0.000000 
#    z 0.000000 0.000000 1.775560 
# 
# From -- ./inp_files/25084.got.cif
#   From: 2010.03.12/outbox.cif.g09.slc.cpg/sg23_13_cif.got.tgz:25084.got - 2010.04.14 02:50:06.
