data_PCOD8163811
_publ_section_title
;
Structure prediction by ZEFSAII (Michael W. Deem and Ramdas Pophale) SiO2 
 PCOD8163811
Probable space group: I 2 2 2
;
_chemical_formula_sum "Si O2"
_cell_formula_units_Z 60
_cell_length_a 23.975711
_cell_length_b 10.197695
_cell_length_c 12.173708
_cell_angle_alpha 90.000000
_cell_angle_beta 90.000000
_cell_angle_gamma 90.000000
_cell_volume 2976.434941
_symmetry_space_group_name_H-M "I 2 2 2"
_symmetry_group_IT_number 23
_symmetry_cell_setting 'orthorhombic'
loop_
_space_group_symop_operation_xyz
x,y,z
-x,-y,z
x,-y,-z
-x,y,-z
1/2+x,1/2+y,1/2+z
1/2-x,1/2-y,1/2+z
1/2+x,1/2-y,1/2-z
1/2-x,1/2+y,1/2-z
loop_
_atom_site_type_symbol
_atom_site_label
_atom_site_fract_x
_atom_site_fract_y
_atom_site_fract_z
Si Si1 0.000000 0.500000 0.256011
Si Si2 0.132986 0.110588 0.578742
Si Si3 0.191848 0.574360 0.695540
Si Si4 0.552446 0.135646 0.439971
Si Si5 0.667491 0.242064 0.404773
Si Si6 0.228838 0.795043 0.556784
Si Si7 0.695833 0.468425 0.251128
Si Si8 0.598896 0.903535 0.102632
O O1 0.035526 0.395123 0.185558
O O2 0.043040 0.582276 0.327872
O O3 0.196282 0.130885 0.538797
O O4 0.100059 0.247728 0.576570
O O5 0.103521 0.000000 0.500000
O O6 0.143587 0.048903 0.699587
O O7 0.175142 0.627540 0.815026
O O8 0.187350 0.675102 0.592693
O O9 0.258516 0.558144 0.691255
O O10 0.154644 0.445960 0.670011
O O11 0.500000 0.205239 0.500000
O O12 0.605343 0.229653 0.452238
O O13 0.566712 0.000000 0.500000
O O14 0.710564 0.237207 0.506715
O O15 0.669706 0.381041 0.346177
O O16 0.233154 0.884938 0.664690
O O17 0.592649 0.000000 0.000000
#
# Coordination Sequence:
#
# PCOD8163811 Si02
#       8
#     4   8   8   8   8   8   8   8
#     4  10  22  40  62  92 116 144 208 268 318 362
#     4  10  21  39  57  85 128 168 197 248 318 384
#     4  11  22  35  58  92 126 159 210 253 307 381
#     4   9  21  40  62  91 115 153 211 272 311 358
#     4  11  21  37  62  88 128 169 202 260 315 366
#     4  10  21  37  57  89 129 166 202 250 316 388
#     4  10  23  35  55  92 128 168 207 242 314 401
#     4  12  23  38  64  91 122 161 208 269 319 368
#
# _framework density 20.158344
#
# number of rings (size 3 to 8) (size 9 to 14) (size 15 to 20)
#    0.000    1.733    4.000    1.000    3.733    0.000 
#    0.000    0.000    0.000    5.600    0.000    0.000 
#    0.000    0.000    0.000    0.000    0.000    0.000 
#
# Total GULP energy -371799.656582 kJ/mol
# GULP energy per Si atom -12393.321886 kJ/mol
# Density = 2.011246 g / cm^3
# Si number density = 20.158344 Si / 1000 Ang^3
#
#
#
# Elastic Constant Matrix: (Units=GPa)
#
#
# Indices 1 2 3 4 5 6 
#
# 1 102.9000 35.3038 36.4517 0.0000 0.0000 0.0000
# 2 35.3038 106.3379 32.5214 0.0000 0.0000 0.0000
# 3 36.4517 32.5214 78.9061 0.0000 0.0000 0.0000
# 4 0.0000 0.0000 0.0000 16.1315 0.0000 0.0000
# 5 0.0000 0.0000 0.0000 0.0000 24.8833 0.0000
# 6 0.0000 0.0000 0.0000 0.0000 0.0000 24.4713
#
#
#
# Elastic Compliance Matrix: (Units=1/GPa)
#
#
# Indices 1 2 3 4 5 6 
#
# 1 0.012250 -0.002673 -0.004557 0.000000 0.000000 0.000000
# 2 -0.002673 0.011344 -0.003440 0.000000 0.000000 0.000000
# 3 -0.004557 -0.003440 0.016197 0.000000 0.000000 0.000000
# 4 0.000000 0.000000 0.000000 0.061990 0.000000 0.000000
# 5 0.000000 0.000000 0.000000 0.000000 0.040188 0.000000
# 6 0.000000 0.000000 0.000000 0.000000 0.000000 0.040864
#
#
# Mechanical properties :
#
#
# Convention : Reuss Voigt Hill
#
# Bulk Modulus (GPa) = 54.20531 55.18867 54.69699
# Shear Modulus (GPa) = 23.77295 25.35501 24.56398
#
# Velocity S-wave (km/s) = 3.43784 3.55038 3.49456
# Velocity P-wave (km/s) = 6.53501 6.65162 6.59357
#
# Compressibility (1/GPa) = 0.01844838
#
# Stress axis : x y z
#
# Youngs Moduli (GPa) = 81.63513 88.15506 61.74172
#
# Poissons Ratio (x) = 0.23565 0.28137
# Poissons Ratio (y) = 0.21822 0.21242
# Poissons Ratio (z) = 0.37202 0.30329
#
# Static dielectric constant tensor:
#      x y z
#    x 3.443440 0.000000 0.000000 
#    y 0.000000 3.650520 0.000000 
#    z 0.000000 0.000000 3.739900 
# 
# 
# High freq. dielectric constant tensor:
#      x y z
#    x 1.762980 0.000000 0.000000 
#    y 0.000000 1.775150 0.000000 
#    z 0.000000 0.000000 1.796500 
# 
# From -- ./inp_files/18614.got.cif
#   From: 2010.03.12/outbox.cif.g09.slc.cpg/sg23_10_cif.got.tgz:18614.got - 2010.04.14 02:50:06.
