data_PCOD8163240
_publ_section_title
;
Structure prediction by ZEFSAII (Michael W. Deem and Ramdas Pophale) SiO2 
 PCOD8163240
Probable space group: I 2 2 2
;
_chemical_formula_sum "Si O2"
_cell_formula_units_Z 40
_cell_length_a 14.042489
_cell_length_b 17.071820
_cell_length_c 8.321325
_cell_angle_alpha 90.000000
_cell_angle_beta 90.000000
_cell_angle_gamma 90.000000
_cell_volume 1994.878270
_symmetry_space_group_name_H-M "I 2 2 2"
_symmetry_group_IT_number 23
_symmetry_cell_setting 'orthorhombic'
loop_
_space_group_symop_operation_xyz
x,y,z
-x,-y,z
x,-y,-z
-x,y,-z
1/2+x,1/2+y,1/2+z
1/2-x,1/2-y,1/2+z
1/2+x,1/2-y,1/2-z
1/2-x,1/2+y,1/2-z
loop_
_atom_site_type_symbol
_atom_site_label
_atom_site_fract_x
_atom_site_fract_y
_atom_site_fract_z
Si Si1 0.041098 0.246037 0.829615
Si Si2 0.639006 0.810638 0.849938
Si Si3 0.396495 0.031477 0.729453
Si Si4 0.691367 0.699596 0.119519
Si Si5 0.170540 0.611779 0.076609
O O1 0.100515 0.177462 0.734212
O O2 0.122364 0.311248 0.853740
O O3 0.961496 0.278847 0.711977
O O4 0.000000 0.215210 0.000000
O O5 0.638234 0.906185 0.864283
O O6 0.717007 0.779494 0.725159
O O7 0.661425 0.778163 0.025355
O O8 0.400101 0.081586 0.564318
O O9 0.500000 0.000000 0.775150
O O10 0.323332 0.958057 0.709106
O O11 0.723331 0.630563 0.994909
#
# Coordination Sequence:
#
# PCOD8163240 Si02
#       5
#     8   8   8   8   8
#     4  12  19  35  57  81 119 159 195 248 301 358
#     4  11  21  35  57  85 123 161 198 250 298 362
#     4  10  17  30  58  86 115 162 192 235 311 373
#     4  11  22  35  54  84 125 159 207 242 292 373
#     4  10  18  32  55  82 120 157 195 235 293 370
#
# _framework density 20.051348000000001
#
# number of rings (size 3 to 8) (size 9 to 14) (size 15 to 20)
#    0.000    1.200    8.000    1.800    0.000    0.000 
#    0.000    1.000    0.000    0.000    0.000   44.800 
#    0.000   35.200    0.000    0.000    0.000    0.000 
#
# Total GULP energy -247786.824379 kJ/mol
# GULP energy per Si atom -12389.341219 kJ/mol
# Density = 2.000571 g / cm^3
# Si number density = 20.051348 Si / 1000 Ang^3
#
#
#
# Elastic Constant Matrix: (Units=GPa)
#
#
# Indices 1 2 3 4 5 6 
#
# 1 123.1794 58.8796 50.5743 0.0000 0.0000 0.0000
# 2 58.8796 74.7578 45.0626 0.0000 0.0000 0.0000
# 3 50.5743 45.0626 73.6195 0.0000 0.0000 0.0000
# 4 0.0000 0.0000 0.0000 25.7169 0.0000 0.0000
# 5 0.0000 0.0000 0.0000 0.0000 36.9321 0.0000
# 6 0.0000 0.0000 0.0000 0.0000 0.0000 25.2561
#
#
#
# Elastic Compliance Matrix: (Units=1/GPa)
#
#
# Indices 1 2 3 4 5 6 
#
# 1 0.013907 -0.008231 -0.004515 0.000000 0.000000 0.000000
# 2 -0.008231 0.026070 -0.010303 0.000000 0.000000 0.000000
# 3 -0.004515 -0.010303 0.022991 0.000000 0.000000 0.000000
# 4 0.000000 0.000000 0.000000 0.038885 0.000000 0.000000
# 5 0.000000 0.000000 0.000000 0.000000 0.027077 0.000000
# 6 0.000000 0.000000 0.000000 0.000000 0.000000 0.039594
#
#
# Mechanical properties :
#
#
# Convention : Reuss Voigt Hill
#
# Bulk Modulus (GPa) = 59.27794 64.50996 61.89395
# Shear Modulus (GPa) = 22.70201 25.38370 24.04286
#
# Velocity S-wave (km/s) = 3.36846 3.56186 3.46651
# Velocity P-wave (km/s) = 6.68999 7.01128 6.85252
#
# Compressibility (1/GPa) = 0.01686968
#
# Stress axis : x y z
#
# Youngs Moduli (GPa) = 71.90876 38.35855 43.49481
#
# Poissons Ratio (x) = 0.31574 0.19638
# Poissons Ratio (y) = 0.59190 0.44811
# Poissons Ratio (z) = 0.32466 0.39520
#
# Static dielectric constant tensor:
#      x y z
#    x 3.745460 0.000000 0.000000 
#    y 0.000000 3.795190 0.000000 
#    z 0.000000 0.000000 3.774560 
# 
# 
# High freq. dielectric constant tensor:
#      x y z
#    x 1.769690 0.000000 0.000000 
#    y 0.000000 1.744760 0.000000 
#    z 0.000000 0.000000 1.786030 
# 
# From -- ./inp_files/8220.got.cif
#   From: 2010.03.12/outbox.cif.g09.slc.cpg/sg23_5_cif.got.tgz:8220.got - 2010.04.14 02:50:06.
