data_PCOD8163773
_publ_section_title
;
Structure prediction by ZEFSAII (Michael W. Deem and Ramdas Pophale) SiO2 
 PCOD8163773
Probable space group: I 2 2 2
;
_chemical_formula_sum "Si O2"
_cell_formula_units_Z 58
_cell_length_a 18.234825
_cell_length_b 6.011373
_cell_length_c 27.540054
_cell_angle_alpha 90.000000
_cell_angle_beta 90.000000
_cell_angle_gamma 90.000000
_cell_volume 3018.839776
_symmetry_space_group_name_H-M "I 2 2 2"
_symmetry_group_IT_number 23
_symmetry_cell_setting 'orthorhombic'
loop_
_space_group_symop_operation_xyz
x,y,z
-x,-y,z
x,-y,-z
-x,y,-z
1/2+x,1/2+y,1/2+z
1/2-x,1/2-y,1/2+z
1/2+x,1/2-y,1/2-z
1/2-x,1/2+y,1/2-z
loop_
_atom_site_type_symbol
_atom_site_label
_atom_site_fract_x
_atom_site_fract_y
_atom_site_fract_z
Si Si1 0.687510 0.118281 0.114623
Si Si2 0.413631 0.494118 0.298248
Si Si3 0.745449 0.987354 0.552235
Si Si4 0.616103 0.179457 0.958184
Si Si5 0.805663 0.758691 0.140043
Si Si6 0.317978 0.898603 0.715882
Si Si7 0.500000 0.500000 0.000000
Si Si8 0.338212 0.255718 0.783385
O O1 0.726694 0.278842 0.075117
O O2 0.650661 0.261626 0.158272
O O3 0.622751 0.966873 0.091233
O O4 0.748268 0.961621 0.139735
O O5 0.500000 0.500000 0.300779
O O6 0.384462 0.657747 0.340656
O O7 0.380254 0.252225 0.309427
O O8 0.386405 0.557010 0.243628
O O9 0.814811 0.837579 0.539352
O O10 0.689602 0.855152 0.587117
O O11 0.704239 0.000000 0.500000
O O12 0.545666 0.340394 0.963434
O O13 0.616037 0.000000 0.000000
O O14 0.781096 0.566105 0.176796
O O15 0.247203 0.762711 0.733543
O O16 0.360576 0.017657 0.760400
#
# Coordination Sequence:
#
# PCOD8163773 Si02
#       8
#     8   8   8   8   8   8   2   8
#     4  11  21  37  61  93 119 154 216 267 318 368
#     4  11  24  39  61  90 130 165 209 264 322 391
#     4  11  20  36  61  93 123 152 207 280 317 377
#     4  11  22  37  61  83 117 160 213 268 318 379
#     4  10  21  34  62  93 116 159 203 263 319 378
#     4  11  19  37  62  90 115 160 210 253 309 380
#     4  12  22  40  60  78 116 176 222 254 324 386
#     4  11  20  34  64  87 119 162 206 259 308 377
#
# _framework density 19.212679000000001
#
# number of rings (size 3 to 8) (size 9 to 14) (size 15 to 20)
#    0.000    1.103    6.207    1.034    0.000    2.207 
#    0.000    0.000   22.759    0.000    0.000   13.517 
#    0.000    0.000    0.000    0.000    0.000    0.000 
#
# Total GULP energy -359315.303313 kJ/mol
# GULP energy per Si atom -12390.182873 kJ/mol
# Density = 1.916895 g / cm^3
# Si number density = 19.212679 Si / 1000 Ang^3
#
#
#
# Elastic Constant Matrix: (Units=GPa)
#
#
# Indices 1 2 3 4 5 6 
#
# 1 106.0687 39.4392 38.3095 0.0000 0.0000 0.0000
# 2 39.4392 105.6510 47.1199 0.0000 0.0000 0.0000
# 3 38.3095 47.1199 144.9023 0.0000 0.0000 0.0000
# 4 0.0000 0.0000 0.0000 26.3256 0.0000 0.0000
# 5 0.0000 0.0000 0.0000 0.0000 16.3452 0.0000
# 6 0.0000 0.0000 0.0000 0.0000 0.0000 25.6751
#
#
#
# Elastic Compliance Matrix: (Units=1/GPa)
#
#
# Indices 1 2 3 4 5 6 
#
# 1 0.011379 -0.003399 -0.001903 0.000000 0.000000 0.000000
# 2 -0.003399 0.012086 -0.003032 0.000000 0.000000 0.000000
# 3 -0.001903 -0.003032 0.008390 0.000000 0.000000 0.000000
# 4 0.000000 0.000000 0.000000 0.037986 0.000000 0.000000
# 5 0.000000 0.000000 0.000000 0.000000 0.061180 0.000000
# 6 0.000000 0.000000 0.000000 0.000000 0.000000 0.038948
#
#
# Mechanical properties :
#
#
# Convention : Reuss Voigt Hill
#
# Bulk Modulus (GPa) = 65.84177 67.37325 66.60751
# Shear Modulus (GPa) = 26.08255 29.11942 27.60098
#
# Velocity S-wave (km/s) = 3.68852 3.89734 3.79437
# Velocity P-wave (km/s) = 7.24462 7.44282 7.34439
#
# Compressibility (1/GPa) = 0.01518793
#
# Stress axis : x y z
#
# Youngs Moduli (GPa) = 87.88087 82.74024 119.18723
#
# Poissons Ratio (x) = 0.28123 0.22683
# Poissons Ratio (y) = 0.29871 0.36132
# Poissons Ratio (z) = 0.16725 0.25083
#
# Static dielectric constant tensor:
#      x y z
#    x 3.058230 0.000000 0.000000 
#    y 0.000000 3.985850 0.000000 
#    z 0.000000 0.000000 3.772620 
# 
# 
# High freq. dielectric constant tensor:
#      x y z
#    x 1.689730 0.000000 0.000000 
#    y 0.000000 1.775990 0.000000 
#    z 0.000000 0.000000 1.750030 
# 
# From -- ./inp_files/3481.got.cif
#   From: 2010.03.12/outbox.cif.g09.slc.cpg/sg23_2_cif.got.tgz:3481.got - 2010.04.14 02:50:06.
