data_PCOD8163409
_publ_section_title
;
Structure prediction by ZEFSAII (Michael W. Deem and Ramdas Pophale) SiO2 
 PCOD8163409
Probable space group: I 2 2 2
;
_chemical_formula_sum "Si O2"
_cell_formula_units_Z 32
_cell_length_a 5.066251
_cell_length_b 8.547958
_cell_length_c 33.282073
_cell_angle_alpha 90.000000
_cell_angle_beta 90.000000
_cell_angle_gamma 90.000000
_cell_volume 1441.316807
_symmetry_space_group_name_H-M "I 2 2 2"
_symmetry_group_IT_number 23
_symmetry_cell_setting 'orthorhombic'
loop_
_space_group_symop_operation_xyz
x,y,z
-x,-y,z
x,-y,-z
-x,y,-z
1/2+x,1/2+y,1/2+z
1/2-x,1/2-y,1/2+z
1/2+x,1/2-y,1/2-z
1/2-x,1/2+y,1/2-z
loop_
_atom_site_type_symbol
_atom_site_label
_atom_site_fract_x
_atom_site_fract_y
_atom_site_fract_z
Si Si1 0.746819 0.674126 0.518404
Si Si2 0.096094 0.831168 0.641540
Si Si3 0.097976 0.168592 0.265776
Si Si4 0.102334 0.829903 0.889737
O O1 0.748170 0.500000 0.500000
O O2 0.500000 0.767451 0.500000
O O3 0.729225 0.671295 0.566101
O O4 0.000000 0.762900 0.500000
O O5 0.848366 0.713436 0.638462
O O6 0.183535 0.836574 0.687770
O O7 0.352194 0.785375 0.615126
O O8 0.000000 0.000000 0.625882
O O9 0.360276 0.209733 0.240949
O O10 0.000000 0.000000 0.250530
O O11 0.000000 0.000000 0.877308
#
# Coordination Sequence:
#
# PCOD8163409 Si02
#       4
#     8   8   8   8
#     4  10  19  34  59  93 124 157 206 270 332 366
#     4  11  26  44  62  94 143 178 206 262 357 400
#     4  11  24  43  68  94 129 179 220 270 326 395
#     4  12  23  39  68 102 123 168 228 282 313 385
#
# _framework density 22.201917000000002
#
# number of rings (size 3 to 8) (size 9 to 14) (size 15 to 20)
#    0.000    1.000    2.500    5.250    3.500   10.000 
#    0.000    0.000    0.000   11.250    0.000    0.000 
#    0.000    0.000    0.000    0.000    0.000    0.000 
#
# Total GULP energy -198364.952727 kJ/mol
# GULP energy per Si atom -12397.809545 kJ/mol
# Density = 2.215138 g / cm^3
# Si number density = 22.201917 Si / 1000 Ang^3
#
#
#
# Elastic Constant Matrix: (Units=GPa)
#
#
# Indices 1 2 3 4 5 6 
#
# 1 170.2319 19.3318 31.8783 0.0000 0.0000 0.0000
# 2 19.3318 63.6186 35.4228 0.0000 0.0000 0.0000
# 3 31.8783 35.4228 77.0794 0.0000 0.0000 0.0000
# 4 0.0000 0.0000 0.0000 19.9771 0.0000 0.0000
# 5 0.0000 0.0000 0.0000 0.0000 51.2711 0.0000
# 6 0.0000 0.0000 0.0000 0.0000 0.0000 30.4293
#
#
#
# Elastic Compliance Matrix: (Units=1/GPa)
#
#
# Indices 1 2 3 4 5 6 
#
# 1 0.006386 -0.000632 -0.002351 0.000000 0.000000 0.000000
# 2 -0.000632 0.021186 -0.009475 0.000000 0.000000 0.000000
# 3 -0.002351 -0.009475 0.018300 0.000000 0.000000 0.000000
# 4 0.000000 0.000000 0.000000 0.050057 0.000000 0.000000
# 5 0.000000 0.000000 0.000000 0.000000 0.019504 0.000000
# 6 0.000000 0.000000 0.000000 0.000000 0.000000 0.032863
#
#
# Mechanical properties :
#
#
# Convention : Reuss Voigt Hill
#
# Bulk Modulus (GPa) = 47.71566 53.79952 50.75759
# Shear Modulus (GPa) = 27.74705 35.28862 31.51784
#
# Velocity S-wave (km/s) = 3.53903 3.99110 3.77185
# Velocity P-wave (km/s) = 6.18369 6.74708 6.47152
#
# Compressibility (1/GPa) = 0.02095748
#
# Stress axis : x y z
#
# Youngs Moduli (GPa) = 156.58477 47.20004 54.64350
#
# Poissons Ratio (x) = 0.02981 0.12847
# Poissons Ratio (y) = 0.09890 0.51776
# Poissons Ratio (z) = 0.36813 0.44723
#
# Static dielectric constant tensor:
#      x y z
#    x 3.309540 0.000000 0.000000 
#    y 0.000000 3.849520 0.000000 
#    z 0.000000 0.000000 3.844600 
# 
# 
# High freq. dielectric constant tensor:
#      x y z
#    x 1.907910 0.000000 0.000000 
#    y 0.000000 1.846380 0.000000 
#    z 0.000000 0.000000 1.871610 
# 
# From -- ./inp_files/807.got.cif
#   From: 2010.03.12/outbox.cif.g09.slc.cpg/sg23_1_cif.got.tgz:807.got - 2010.04.14 02:50:06.
