data_PCOD8163066
_publ_section_title
;
Structure prediction by ZEFSAII (Michael W. Deem and Ramdas Pophale) SiO2 
 PCOD8163066
Probable space group: F 2 2 2
;
_chemical_formula_sum "Si O2"
_cell_formula_units_Z 88
_cell_length_a 22.532416
_cell_length_b 20.146168
_cell_length_c 9.250525
_cell_angle_alpha 90.000000
_cell_angle_beta 90.000000
_cell_angle_gamma 90.000000
_cell_volume 4199.200323
_symmetry_space_group_name_H-M "F 2 2 2"
_symmetry_group_IT_number 22
_symmetry_cell_setting 'orthorhombic'
loop_
_space_group_symop_operation_xyz
x,y,z
-x,-y,z
x,-y,-z
-x,y,-z
x,1/2+y,1/2+z
-x,1/2-y,1/2+z
x,1/2-y,1/2-z
-x,1/2+y,1/2-z
1/2+x,y,1/2+z
1/2-x,-y,1/2+z
1/2+x,-y,1/2-z
1/2-x,y,1/2-z
1/2+x,1/2+y,z
1/2-x,1/2-y,z
1/2+x,1/2-y,-z
1/2-x,1/2+y,-z
loop_
_atom_site_type_symbol
_atom_site_label
_atom_site_fract_x
_atom_site_fract_y
_atom_site_fract_z
Si Si1 0.775057 0.434168 0.910279
Si Si2 0.490497 0.077211 0.797051
Si Si3 0.000000 0.145920 0.000000
Si Si4 0.400750 0.764613 0.408895
Si Si5 0.598256 0.878037 0.019736
Si Si6 0.724264 0.179597 0.403090
O O1 0.750000 0.445421 0.750000
O O2 0.845406 0.418207 0.918209
O O3 0.761476 0.500000 0.000000
O O4 0.737386 0.374045 0.975448
O O5 0.490139 0.096495 0.631534
O O6 0.543957 0.118512 0.868630
O O7 0.500000 0.000000 0.819497
O O8 0.426429 0.093235 0.867759
O O9 0.944396 0.195130 0.986744
O O10 0.429690 0.750000 0.250000
O O11 0.382291 0.697862 0.493254
O O12 0.345414 0.812345 0.381223
O O13 0.750000 0.155295 0.250000
O O14 0.750000 0.250000 0.452673
#
# Coordination Sequence:
#
# PCOD8163066 Si02
#       6
#    16  16   8  16  16  16
#     4  12  27  47  70 106 140 185 239 295 358 429
#     4  11  24  45  68  99 137 183 229 279 351 417
#     4  12  27  40  68 106 135 176 232 294 342 410
#     4  12  23  43  69 102 138 180 230 290 352 414
#     4  11  23  45  73  95 136 183 228 284 348 421
#     4  11  22  45  73  99 139 188 236 280 360 426
#
# _framework density 20.956371000000001
#
# number of rings (size 3 to 8) (size 9 to 14) (size 15 to 20)
#    0.000    0.545    5.455    4.091    2.545    0.364 
#    3.273    0.000    0.000    0.000    0.000    0.000 
#    0.000    0.000    0.000    0.000    0.000    0.000 
#
# Total GULP energy -272839.475658 kJ/mol
# GULP energy per Si atom -12401.794348 kJ/mol
# Density = 2.090867 g / cm^3
# Si number density = 20.956371 Si / 1000 Ang^3
#
#
#
# Elastic Constant Matrix: (Units=GPa)
#
#
# Indices 1 2 3 4 5 6 
#
# 1 129.8056 29.3209 51.0896 -0.0018 0.0009 0.0024
# 2 29.3209 88.8942 49.2231 -0.0038 0.0020 0.0032
# 3 51.0896 49.2231 141.0004 -0.0076 0.0035 0.0021
# 4 -0.0018 -0.0038 -0.0076 27.5881 0.0020 0.0012
# 5 0.0009 0.0020 0.0035 0.0020 32.8901 -0.0008
# 6 0.0024 0.0032 0.0021 0.0012 -0.0008 48.4750
#
#
#
# Elastic Compliance Matrix: (Units=1/GPa)
#
#
# Indices 1 2 3 4 5 6 
#
# 1 0.009136 -0.001463 -0.002800 0.000000 0.000000 0.000000
# 2 -0.001463 0.014179 -0.004420 0.000001 0.000000 -0.000001
# 3 -0.002800 -0.004420 0.009650 0.000002 -0.000001 0.000000
# 4 0.000000 0.000001 0.000002 0.036248 -0.000002 -0.000001
# 5 0.000000 0.000000 -0.000001 -0.000002 0.030404 0.000001
# 6 0.000000 -0.000001 0.000000 -0.000001 0.000001 0.020629
#
#
# Mechanical properties :
#
#
# Convention : Reuss Voigt Hill
#
# Bulk Modulus (GPa) = 64.10347 68.77416 66.43881
# Shear Modulus (GPa) = 35.01125 37.12842 36.06983
#
# Velocity S-wave (km/s) = 4.09182 4.21372 4.15322
# Velocity P-wave (km/s) = 7.27870 7.52084 7.40076
#
# Compressibility (1/GPa) = 0.01559978
#
# Stress axis : x y z
#
# Youngs Moduli (GPa) = 109.45432 70.52518 103.63228
#
# Poissons Ratio (x) = 0.10320 0.29012
# Poissons Ratio (y) = 0.16017 0.45803
# Poissons Ratio (z) = 0.30642 0.31171
#
# Static dielectric constant tensor:
#      x y z
#    x 4.076450 0.000000 0.000000 
#    y 0.000000 3.838390 0.000000 
#    z 0.000000 0.000000 3.752120 
# 
# 
# High freq. dielectric constant tensor:
#      x y z
#    x 1.827030 0.000000 0.000000 
#    y 0.000000 1.830950 0.000000 
#    z 0.000000 0.000000 1.816010 
# 
# From -- ./inp_files/13755.got.cif
#   From: 2010.03.12/outbox.cif.g09.slc.cpg/sg22_7_cif.got.tgz:13755.got - 2010.04.14 02:24:06.
