data_PCOD8163193
_publ_section_title
;
Structure prediction by ZEFSAII (Michael W. Deem and Ramdas Pophale) SiO2 
 PCOD8163193
Probable space group: I 2 2 2
;
_chemical_formula_sum "Si O2"
_cell_formula_units_Z 34
_cell_length_a 16.842731
_cell_length_b 5.059504
_cell_length_c 19.942888
_cell_angle_alpha 90.000000
_cell_angle_beta 90.000000
_cell_angle_gamma 90.000000
_cell_volume 1699.450449
_symmetry_space_group_name_H-M "I 2 2 2"
_symmetry_group_IT_number 23
_symmetry_cell_setting 'orthorhombic'
loop_
_space_group_symop_operation_xyz
x,y,z
-x,-y,z
x,-y,-z
-x,y,-z
1/2+x,1/2+y,1/2+z
1/2-x,1/2-y,1/2+z
1/2+x,1/2-y,1/2-z
1/2-x,1/2+y,1/2-z
loop_
_atom_site_type_symbol
_atom_site_label
_atom_site_fract_x
_atom_site_fract_y
_atom_site_fract_z
Si Si1 0.629029 0.000000 0.500000
Si Si2 0.264402 0.500000 0.500000
Si Si3 0.870709 0.621353 0.399578
Si Si4 0.083760 0.096067 0.673945
Si Si5 0.500000 0.000000 0.391187
Si Si6 0.000000 0.000000 0.197972
Si Si7 0.000000 0.500000 0.500000
O O1 0.682391 0.750149 0.517921
O O2 0.575301 0.075905 0.563621
O O3 0.211422 0.446932 0.434896
O O4 0.895667 0.390667 0.348289
O O5 0.940930 0.674708 0.453832
O O6 0.853563 0.885796 0.356314
O O7 0.076031 0.079305 0.755121
O O8 0.000000 0.000000 0.642431
O O9 0.523572 0.250883 0.346672
#
# Coordination Sequence:
#
# PCOD8163193 Si02
#       7
#     4   4   8   8   4   4   2
#     4  11  24  44  62  89 112 138 198 253 306 352
#     4  11  24  38  58  85 126 164 184 235 294 354
#     4  11  20  32  53  82 121 166 190 229 274 323
#     4  10  19  33  53  85 120 150 192 241 255 331
#     4  11  22  41  72  87 102 141 192 264 310 349
#     4  10  20  35  64  97 110 142 192 254 296 326
#     4  10  16  28  44  78 104 148 212 218 244 322
#
# _framework density 20.006467000000001
#
# number of rings (size 3 to 8) (size 9 to 14) (size 15 to 20)
#    0.706    0.706    2.353    4.235    0.000    5.647 
#    0.000    0.000    0.000   28.235    0.000    0.000 
#    0.000    0.000    0.000    0.000    0.000    0.000 
#
# Total GULP energy -210727.702740 kJ/mol
# GULP energy per Si atom -12395.747220 kJ/mol
# Density = 1.996093 g / cm^3
# Si number density = 20.006467 Si / 1000 Ang^3
#
#
#
# Elastic Constant Matrix: (Units=GPa)
#
#
# Indices 1 2 3 4 5 6 
#
# 1 80.3562 13.0828 29.7776 0.0000 0.0000 0.0000
# 2 13.0828 103.6347 35.2057 0.0000 0.0000 0.0000
# 3 29.7776 35.2057 113.8306 0.0000 0.0000 0.0000
# 4 0.0000 0.0000 0.0000 34.7857 0.0000 0.0000
# 5 0.0000 0.0000 0.0000 0.0000 5.7513 0.0000
# 6 0.0000 0.0000 0.0000 0.0000 0.0000 32.3701
#
#
#
# Elastic Compliance Matrix: (Units=1/GPa)
#
#
# Indices 1 2 3 4 5 6 
#
# 1 0.013811 -0.000577 -0.003435 0.000000 0.000000 0.000000
# 2 -0.000577 0.010806 -0.003191 0.000000 0.000000 0.000000
# 3 -0.003435 -0.003191 0.010670 0.000000 0.000000 0.000000
# 4 0.000000 0.000000 0.000000 0.028747 0.000000 0.000000
# 5 0.000000 0.000000 0.000000 0.000000 0.173874 0.000000
# 6 0.000000 0.000000 0.000000 0.000000 0.000000 0.030893
#
#
# Mechanical properties :
#
#
# Convention : Reuss Voigt Hill
#
# Bulk Modulus (GPa) = 47.88664 50.43930 49.16297
# Shear Modulus (GPa) = 17.23140 29.23178 23.23159
#
# Velocity S-wave (km/s) = 2.93796 3.82660 3.41134
# Velocity P-wave (km/s) = 5.95788 6.69254 6.33587
#
# Compressibility (1/GPa) = 0.02088265
#
# Stress axis : x y z
#
# Youngs Moduli (GPa) = 72.40472 92.53948 93.71665
#
# Poissons Ratio (x) = 0.05337 0.32188
# Poissons Ratio (y) = 0.04176 0.29908
# Poissons Ratio (z) = 0.24868 0.29532
#
# Static dielectric constant tensor:
#      x y z
#    x 3.430280 0.000000 0.000000 
#    y 0.000000 3.682140 0.000000 
#    z 0.000000 0.000000 3.635340 
# 
# 
# High freq. dielectric constant tensor:
#      x y z
#    x 1.748900 0.000000 0.000000 
#    y 0.000000 1.789110 0.000000 
#    z 0.000000 0.000000 1.782050 
# 
# From -- ./inp_files/3093.got.cif
#   From: 2010.03.12/outbox.cif.g09.slc.cpg/sg23_2_cif.got.tgz:3093.got - 2010.04.14 02:50:06.
