data_PCOD8163633
_publ_section_title
;
Structure prediction by ZEFSAII (Michael W. Deem and Ramdas Pophale) SiO2 
 PCOD8163633
Probable space group: I 2 2 2
;
_chemical_formula_sum "Si O2"
_cell_formula_units_Z 64
_cell_length_a 18.580906
_cell_length_b 7.681683
_cell_length_c 24.532585
_cell_angle_alpha 90.000000
_cell_angle_beta 90.000000
_cell_angle_gamma 90.000000
_cell_volume 3501.600371
_symmetry_space_group_name_H-M "I 2 2 2"
_symmetry_group_IT_number 23
_symmetry_cell_setting 'orthorhombic'
loop_
_space_group_symop_operation_xyz
x,y,z
-x,-y,z
x,-y,-z
-x,y,-z
1/2+x,1/2+y,1/2+z
1/2-x,1/2-y,1/2+z
1/2+x,1/2-y,1/2-z
1/2-x,1/2+y,1/2-z
loop_
_atom_site_type_symbol
_atom_site_label
_atom_site_fract_x
_atom_site_fract_y
_atom_site_fract_z
Si Si1 0.580387 0.795054 0.148788
Si Si2 0.915082 0.192507 0.765724
Si Si3 0.419613 0.204946 0.851212
Si Si4 0.914344 0.500000 0.841579
Si Si5 0.309008 1.000000 0.562583
Si Si6 0.915082 0.807493 0.765724
Si Si7 0.301813 0.799999 0.937449
Si Si8 0.198187 0.299999 0.437449
O O1 0.500000 0.719708 0.138261
O O2 0.615078 0.720639 0.204636
O O3 0.630554 0.739683 0.098656
O O4 0.576360 1.000000 0.155132
O O5 0.884922 0.220639 0.704636
O O6 0.885064 0.331784 0.808758
O O7 1.000000 0.218818 0.761720
O O8 0.893674 1.000000 0.786386
O O9 0.369446 0.260317 0.901344
O O10 0.880567 0.500000 0.901373
O O11 0.885064 0.668216 0.808758
O O12 0.000000 0.500000 0.848699
O O13 0.264462 0.174295 0.576124
O O14 0.334082 0.000000 0.500000
O O15 0.264462 0.825705 0.576124
O O16 0.279224 1.000000 0.925017
O O17 0.325870 0.777915 0.000000
#
# Coordination Sequence:
#
# PCOD8163633 Si02
#       8
#     8   8   8   8   8   8   8   8
#     4   9  16  29  52  78 107 142 179 215 247 289
#     4   9  17  30  51  77 105 137 165 201 260 310
#     4   9  16  29  52  78 107 142 179 215 247 289
#     4  10  20  37  58  79 102 126 166 218 263 317
#     4  10  22  39  57  76 100 134 172 212 265 317
#     4   9  17  30  51  77 105 137 165 201 260 310
#     4   9  19  35  53  73 105 145 177 211 255 301
#     4   9  19  35  53  73 105 145 177 211 255 301
#
# _framework density 18.277356999999999
#
# number of rings (size 3 to 8) (size 9 to 14) (size 15 to 20)
#    0.000    2.750    1.250    0.000    1.750    1.750 
#    0.000    3.750    0.000    2.250    0.000    7.000 
#    0.000    0.000    0.000    0.000    0.000    0.000 
#
# Total GULP energy -396720.759025 kJ/mol
# GULP energy per Si atom -12397.523720 kJ/mol
# Density = 1.823576 g / cm^3
# Si number density = 18.277357 Si / 1000 Ang^3
#
#
#
# Elastic Constant Matrix: (Units=GPa)
#
#
# Indices 1 2 3 4 5 6 
#
# 1 58.3269 37.9799 58.9730 0.0000 0.0000 0.0000
# 2 37.9799 103.1032 60.8664 0.0000 0.0000 0.0000
# 3 58.9730 60.8664 120.9036 0.0000 0.0000 0.0000
# 4 0.0000 0.0000 0.0000 16.5969 0.0000 0.0000
# 5 0.0000 0.0000 0.0000 0.0000 23.7734 0.0000
# 6 0.0000 0.0000 0.0000 0.0000 0.0000 12.5927
#
#
#
# Elastic Compliance Matrix: (Units=1/GPa)
#
#
# Indices 1 2 3 4 5 6 
#
# 1 0.034949 -0.003999 -0.015034 0.000000 0.000000 0.000000
# 2 -0.003999 0.014258 -0.005227 0.000000 0.000000 0.000000
# 3 -0.015034 -0.005227 0.018236 0.000000 0.000000 0.000000
# 4 0.000000 0.000000 0.000000 0.060252 0.000000 0.000000
# 5 0.000000 0.000000 0.000000 0.000000 0.042064 0.000000
# 6 0.000000 0.000000 0.000000 0.000000 0.000000 0.079411
#
#
# Mechanical properties :
#
#
# Convention : Reuss Voigt Hill
#
# Bulk Modulus (GPa) = 52.84717 66.44136 59.64426
# Shear Modulus (GPa) = 16.44748 18.89356 17.67052
#
# Velocity S-wave (km/s) = 3.00306 3.21863 3.11271
# Velocity P-wave (km/s) = 6.40322 7.08826 6.75443
#
# Compressibility (1/GPa) = 0.01892249
#
# Stress axis : x y z
#
# Youngs Moduli (GPa) = 28.61302 70.13579 54.83747
#
# Poissons Ratio (x) = 0.28047 0.82442
# Poissons Ratio (y) = 0.11442 0.28666
# Poissons Ratio (z) = 0.43016 0.36662
#
# Static dielectric constant tensor:
#      x y z
#    x 2.979840 0.000000 0.000000 
#    y 0.000000 3.560460 0.000000 
#    z 0.000000 0.000000 3.361060 
# 
# 
# High freq. dielectric constant tensor:
#      x y z
#    x 1.664230 0.000000 0.000000 
#    y 0.000000 1.722300 0.000000 
#    z 0.000000 0.000000 1.708770 
# 
# From -- ./inp_files/27207.got.cif
#   From: 2010.03.12/outbox.cif.g09.slc.cpg/sg23_14_cif.got.tgz:27207.got - 2010.04.14 02:50:06.
