data_PCOD8163294
_publ_section_title
;
Structure prediction by ZEFSAII (Michael W. Deem and Ramdas Pophale) SiO2 
 PCOD8163294
Probable space group: I 2 2 2
;
_chemical_formula_sum "Si O2"
_cell_formula_units_Z 64
_cell_length_a 17.711311
_cell_length_b 16.571427
_cell_length_c 12.543111
_cell_angle_alpha 90.000000
_cell_angle_beta 90.000000
_cell_angle_gamma 90.000000
_cell_volume 3681.424368
_symmetry_space_group_name_H-M "I 2 2 2"
_symmetry_group_IT_number 23
_symmetry_cell_setting 'orthorhombic'
loop_
_space_group_symop_operation_xyz
x,y,z
-x,-y,z
x,-y,-z
-x,y,-z
1/2+x,1/2+y,1/2+z
1/2-x,1/2-y,1/2+z
1/2+x,1/2-y,1/2-z
1/2-x,1/2+y,1/2-z
loop_
_atom_site_type_symbol
_atom_site_label
_atom_site_fract_x
_atom_site_fract_y
_atom_site_fract_z
Si Si1 0.167955 0.342096 0.124310
Si Si2 0.667070 0.406315 0.877504
Si Si3 0.584142 1.000000 0.373293
Si Si4 0.667070 0.593685 0.877504
Si Si5 0.667955 0.842096 0.375690
Si Si6 0.411552 0.688903 0.702248
Si Si7 0.411552 0.688903 0.297752
Si Si8 0.589373 0.411044 0.500000
O O1 0.256320 0.356648 0.141120
O O2 0.125951 0.420925 0.168498
O O3 0.138167 0.269849 0.198264
O O4 0.148565 0.325256 1.000000
O O5 0.676870 0.500000 0.843656
O O6 0.602590 0.362176 0.809271
O O7 0.641804 0.401525 0.000000
O O8 0.625951 0.920925 0.331502
O O9 0.500000 0.000000 0.327217
O O10 0.585827 0.000000 0.500000
O O11 0.743680 0.643352 0.858880
O O12 0.602590 0.637824 0.809271
O O13 0.638167 0.769849 0.301736
O O14 0.500000 0.710692 0.693909
O O15 0.382602 0.634979 0.604370
O O16 0.382602 0.634979 0.395630
O O17 0.625880 0.500000 0.500000
O O18 0.500000 0.417477 0.500000
#
# Coordination Sequence:
#
# PCOD8163294 Si02
#       8
#     8   8   8   8   8   8   8   8
#     4  10  18  33  53  78 109 139 174 218 268 320
#     4  10  21  37  55  76 106 145 183 217 260 314
#     4   9  16  26  48  78 108 138 167 210 268 321
#     4  10  21  37  55  76 106 145 183 217 260 314
#     4  10  18  33  53  78 109 139 174 218 268 320
#     4  11  21  33  53  80 109 140 176 222 268 313
#     4  11  21  33  53  80 109 140 176 222 268 313
#     4   9  18  32  48  71 105 139 169 209 264 316
#
# _framework density 17.384575000000002
#
# number of rings (size 3 to 8) (size 9 to 14) (size 15 to 20)
#    0.000    2.000    2.500    2.250    0.000    3.000 
#    0.000    1.250    0.000    0.000    0.000    0.875 
#    0.000    3.000    0.000    0.000    0.000    0.000 
#
# Total GULP energy -396810.517830 kJ/mol
# GULP energy per Si atom -12400.328682 kJ/mol
# Density = 1.734501 g / cm^3
# Si number density = 17.384575 Si / 1000 Ang^3
#
#
#
# Elastic Constant Matrix: (Units=GPa)
#
#
# Indices 1 2 3 4 5 6 
#
# 1 44.7367 26.9644 23.2461 0.0000 0.0000 0.0000
# 2 26.9644 131.3180 45.6533 0.0000 0.0000 0.0000
# 3 23.2461 45.6533 67.1671 0.0000 0.0000 0.0000
# 4 0.0000 0.0000 0.0000 27.9970 0.0000 0.0000
# 5 0.0000 0.0000 0.0000 0.0000 23.9231 0.0000
# 6 0.0000 0.0000 0.0000 0.0000 0.0000 29.7153
#
#
#
# Elastic Compliance Matrix: (Units=1/GPa)
#
#
# Indices 1 2 3 4 5 6 
#
# 1 0.028210 -0.003140 -0.007629 0.000000 0.000000 0.000000
# 2 -0.003140 0.010321 -0.005928 0.000000 0.000000 0.000000
# 3 -0.007629 -0.005928 0.021558 0.000000 0.000000 0.000000
# 4 0.000000 0.000000 0.000000 0.035718 0.000000 0.000000
# 5 0.000000 0.000000 0.000000 0.000000 0.041801 0.000000
# 6 0.000000 0.000000 0.000000 0.000000 0.000000 0.033653
#
#
# Mechanical properties :
#
#
# Convention : Reuss Voigt Hill
#
# Bulk Modulus (GPa) = 37.46160 48.32771 42.89466
# Shear Modulus (GPa) = 23.41341 26.15095 24.78218
#
# Velocity S-wave (km/s) = 3.67385 3.88269 3.77971
# Velocity P-wave (km/s) = 6.29220 6.92531 6.61633
#
# Compressibility (1/GPa) = 0.02669400
#
# Stress axis : x y z
#
# Youngs Moduli (GPa) = 35.44855 96.89062 46.38665
#
# Poissons Ratio (x) = 0.30427 0.35387
# Poissons Ratio (y) = 0.11132 0.27499
# Poissons Ratio (z) = 0.27043 0.57439
#
# Static dielectric constant tensor:
#      x y z
#    x 3.069010 0.000000 0.000000 
#    y 0.000000 3.404400 0.000000 
#    z 0.000000 0.000000 2.965520 
# 
# 
# High freq. dielectric constant tensor:
#      x y z
#    x 1.661890 0.000000 0.000000 
#    y 0.000000 1.687530 0.000000 
#    z 0.000000 0.000000 1.639600 
# 
# From -- ./inp_files/17581.got.cif
#   From: 2010.03.12/outbox.cif.g09.slc.cpg/sg23_9_cif.got.tgz:17581.got - 2010.04.14 02:50:06.
