data_PCOD8163418
_publ_section_title
;
Structure prediction by ZEFSAII (Michael W. Deem and Ramdas Pophale) SiO2 
 PCOD8163418
Probable space group: I 2 2 2
;
_chemical_formula_sum "Si O2"
_cell_formula_units_Z 56
_cell_length_a 22.035740
_cell_length_b 12.089535
_cell_length_c 11.338049
_cell_angle_alpha 90.000000
_cell_angle_beta 90.000000
_cell_angle_gamma 90.000000
_cell_volume 3020.477229
_symmetry_space_group_name_H-M "I 2 2 2"
_symmetry_group_IT_number 23
_symmetry_cell_setting 'orthorhombic'
loop_
_space_group_symop_operation_xyz
x,y,z
-x,-y,z
x,-y,-z
-x,y,-z
1/2+x,1/2+y,1/2+z
1/2-x,1/2-y,1/2+z
1/2+x,1/2-y,1/2-z
1/2-x,1/2+y,1/2-z
loop_
_atom_site_type_symbol
_atom_site_label
_atom_site_fract_x
_atom_site_fract_y
_atom_site_fract_z
Si Si1 0.161434 0.378958 0.469018
Si Si2 0.142041 0.474534 0.866616
Si Si3 0.798552 0.888006 0.878118
Si Si4 0.481660 0.126194 0.375125
Si Si5 0.203753 0.691081 0.287727
Si Si6 0.091682 0.306550 0.252511
Si Si7 0.830856 0.866514 0.136537
O O1 0.135606 0.500000 0.500000
O O2 0.226632 0.393059 0.405477
O O3 0.166455 0.311626 0.590495
O O4 0.112008 0.314798 0.388888
O O5 0.090624 0.377495 0.856594
O O6 0.196046 0.421011 0.790421
O O7 0.123125 0.591797 0.814537
O O8 0.162582 0.500000 0.000000
O O9 0.816637 0.800104 0.780231
O O10 0.822538 0.005116 0.830067
O O11 0.834923 0.854329 0.995680
O O12 0.500000 0.183801 0.500000
O O13 0.518578 0.184568 0.267395
O O14 0.500000 0.000000 0.383526
O O15 0.274524 0.703366 0.314247
O O16 0.110661 0.188297 0.197535
#
# Coordination Sequence:
#
# PCOD8163418 Si02
#       7
#     8   8   8   8   8   8   8
#     4  11  19  35  49  76 116 149 174 226 283 345
#     4  11  19  33  55  85 110 141 188 237 285 335
#     4  10  19  35  50  75 112 145 182 230 279 331
#     4   9  17  32  50  80 112 137 176 240 284 325
#     4  11  21  33  54  76 110 151 184 228 280 350
#     4  11  19  33  56  75 109 151 180 223 297 341
#     4  10  20  34  53  78 108 148 185 228 285 342
#
# _framework density 18.540116999999999
#
# number of rings (size 3 to 8) (size 9 to 14) (size 15 to 20)
#    0.000    1.571    8.571    0.857    0.000    0.000 
#    0.000    1.429    0.000    0.857    0.000    0.000 
#    0.000    2.286    0.000    0.000    0.000    0.000 
#
# Total GULP energy -347047.655530 kJ/mol
# GULP energy per Si atom -12394.559126 kJ/mol
# Density = 1.849792 g / cm^3
# Si number density = 18.540117 Si / 1000 Ang^3
#
#
#
# Elastic Constant Matrix: (Units=GPa)
#
#
# Indices 1 2 3 4 5 6 
#
# 1 41.1764 13.5952 26.3915 0.0000 0.0000 0.0000
# 2 13.5952 92.8141 43.7517 0.0000 0.0000 0.0000
# 3 26.3915 43.7517 110.8273 0.0000 0.0000 0.0000
# 4 0.0000 0.0000 0.0000 25.6672 0.0000 0.0000
# 5 0.0000 0.0000 0.0000 0.0000 17.2324 0.0000
# 6 0.0000 0.0000 0.0000 0.0000 0.0000 20.1390
#
#
#
# Elastic Compliance Matrix: (Units=1/GPa)
#
#
# Indices 1 2 3 4 5 6 
#
# 1 0.028770 -0.001210 -0.006374 0.000000 0.000000 0.000000
# 2 -0.001210 0.013289 -0.004958 0.000000 0.000000 0.000000
# 3 -0.006374 -0.004958 0.012498 0.000000 0.000000 0.000000
# 4 0.000000 0.000000 0.000000 0.038960 0.000000 0.000000
# 5 0.000000 0.000000 0.000000 0.000000 0.058030 0.000000
# 6 0.000000 0.000000 0.000000 0.000000 0.000000 0.049655
#
#
# Mechanical properties :
#
#
# Convention : Reuss Voigt Hill
#
# Bulk Modulus (GPa) = 33.92769 45.81052 39.86910
# Shear Modulus (GPa) = 21.17662 23.34634 22.26148
#
# Velocity S-wave (km/s) = 3.38332 3.55242 3.46890
# Velocity P-wave (km/s) = 5.79671 6.44893 6.13150
#
# Compressibility (1/GPa) = 0.02947445
#
# Stress axis : x y z
#
# Youngs Moduli (GPa) = 34.75810 75.25291 80.01255
#
# Poissons Ratio (x) = 0.09104 0.50996
# Poissons Ratio (y) = 0.04205 0.39669
# Poissons Ratio (z) = 0.22153 0.37309
#
# Static dielectric constant tensor:
#      x y z
#    x 3.587680 0.000000 0.000000 
#    y 0.000000 3.204360 0.000000 
#    z 0.000000 0.000000 3.605950 
# 
# 
# High freq. dielectric constant tensor:
#      x y z
#    x 1.684080 0.000000 0.000000 
#    y 0.000000 1.697970 0.000000 
#    z 0.000000 0.000000 1.722890 
# 
# From -- ./inp_files/16119.got.cif
#   From: 2010.03.12/outbox.cif.g09.slc.cpg/sg23_9_cif.got.tgz:16119.got - 2010.04.14 02:50:06.
