data_PCOD8163950
_publ_section_title
;
Structure prediction by ZEFSAII (Michael W. Deem and Ramdas Pophale) SiO2 
 PCOD8163950
Probable space group: I 2 2 2
;
_chemical_formula_sum "Si O2"
_cell_formula_units_Z 40
_cell_length_a 13.556251
_cell_length_b 5.799911
_cell_length_c 22.394962
_cell_angle_alpha 90.000000
_cell_angle_beta 90.000000
_cell_angle_gamma 90.000000
_cell_volume 1760.804991
_symmetry_space_group_name_H-M "I 2 2 2"
_symmetry_group_IT_number 23
_symmetry_cell_setting 'orthorhombic'
loop_
_space_group_symop_operation_xyz
x,y,z
-x,-y,z
x,-y,-z
-x,y,-z
1/2+x,1/2+y,1/2+z
1/2-x,1/2-y,1/2+z
1/2+x,1/2-y,1/2-z
1/2-x,1/2+y,1/2-z
loop_
_atom_site_type_symbol
_atom_site_label
_atom_site_fract_x
_atom_site_fract_y
_atom_site_fract_z
Si Si1 0.535843 0.751733 0.932571
Si Si2 0.259528 0.222767 0.674467
Si Si3 0.251119 0.891155 0.564638
Si Si4 0.399514 0.094582 0.254786
Si Si5 0.099816 0.112781 0.868471
O O1 0.500000 0.500000 0.904130
O O2 0.654506 0.768017 0.930663
O O3 0.500000 0.000000 0.903336
O O4 0.500000 0.748314 0.000000
O O5 0.151772 0.259270 0.702802
O O6 0.315326 0.453176 0.657496
O O7 0.241745 0.085650 0.614290
O O8 0.322666 0.099889 0.725671
O O9 0.351332 0.749516 0.576608
O O10 0.261120 0.000000 0.500000
O O11 0.434451 0.230511 0.313505
O O12 0.500000 0.000000 0.225587
O O13 0.000000 0.000000 0.894156
#
# Coordination Sequence:
#
# PCOD8163950 Si02
#       5
#     8   8   8   8   8
#     4  10  21  42  73  98 144 206 246 304 377 443
#     4  11  24  43  74 106 142 194 249 309 390 455
#     4  11  26  47  70 109 153 201 251 308 372 473
#     4  11  22  44  74 105 146 182 249 320 390 459
#     4  11  24  45  77  99 144 199 243 318 387 449
#
# _framework density 22.716881999999998
#
# number of rings (size 3 to 8) (size 9 to 14) (size 15 to 20)
#    0.000    1.200    6.000    0.000    2.800    0.800 
#    3.600    4.000    0.000    0.000    0.000    0.000 
#    0.000    0.000    0.000    0.000    0.000    0.000 
#
# Total GULP energy -247894.989743 kJ/mol
# GULP energy per Si atom -12394.749487 kJ/mol
# Density = 2.266518 g / cm^3
# Si number density = 22.716882 Si / 1000 Ang^3
#
#
#
# Elastic Constant Matrix: (Units=GPa)
#
#
# Indices 1 2 3 4 5 6 
#
# 1 190.6923 63.8643 69.2440 0.0000 0.0000 0.0000
# 2 63.8643 131.9987 36.2069 0.0000 0.0000 0.0000
# 3 69.2440 36.2069 92.3248 0.0000 0.0000 0.0000
# 4 0.0000 0.0000 0.0000 -6.0746 0.0000 0.0000
# 5 0.0000 0.0000 0.0000 0.0000 75.6401 0.0000
# 6 0.0000 0.0000 0.0000 0.0000 0.0000 47.7015
#
#
#
# Elastic Compliance Matrix: (Units=1/GPa)
#
#
# Indices 1 2 3 4 5 6 
#
# 1 0.007854 -0.002448 -0.004931 0.000000 0.000000 0.000000
# 2 -0.002448 0.009252 -0.001793 0.000000 0.000000 0.000000
# 3 -0.004931 -0.001793 0.015232 0.000000 0.000000 0.000000
# 4 0.000000 0.000000 0.000000 -0.164621 0.000000 0.000000
# 5 0.000000 0.000000 0.000000 0.000000 0.013220 0.000000
# 6 0.000000 0.000000 0.000000 0.000000 0.000000 0.020964
#
#
# Mechanical properties :
#
#
# Convention : Reuss Voigt Hill
#
# Bulk Modulus (GPa) = 71.44650 83.73846 77.59248
# Shear Modulus (GPa) = -66.58581 39.83346 -13.37617
#
# Velocity S-wave (km/s) = -5.41985 4.19199 -2.42920
# Velocity P-wave (km/s) = 2.76537 7.76996 5.13444
#
# Compressibility (1/GPa) = 0.01399649
#
# Stress axis : x y z
#
# Youngs Moduli (GPa) = 127.31973 108.08805 65.64921
#
# Poissons Ratio (x) = 0.26455 0.32371
# Poissons Ratio (y) = 0.31162 0.11768
# Poissons Ratio (z) = 0.62780 0.19375
#
# Static dielectric constant tensor:
#      x y z
#    x 4.173590 0.000000 0.000000 
#    y 0.000000 4.647190 0.000000 
#    z 0.000000 0.000000 3.907100 
# 
# 
# High freq. dielectric constant tensor:
#      x y z
#    x 1.911100 0.000000 0.000000 
#    y 0.000000 1.904790 0.000000 
#    z 0.000000 0.000000 1.878010 
# 
# From -- ./inp_files/1705.got.cif
#   From: 2010.03.12/outbox.cif.g09.slc.cpg/sg23_1_cif.got.tgz:1705.got - 2010.04.14 02:50:06.
