data_PCOD8163831
_publ_section_title
;
Structure prediction by ZEFSAII (Michael W. Deem and Ramdas Pophale) SiO2 
 PCOD8163831
Probable space group: I 2 2 2
;
_chemical_formula_sum "Si O2"
_cell_formula_units_Z 56
_cell_length_a 15.370108
_cell_length_b 7.828508
_cell_length_c 22.251504
_cell_angle_alpha 90.000000
_cell_angle_beta 90.000000
_cell_angle_gamma 90.000000
_cell_volume 2677.412518
_symmetry_space_group_name_H-M "I 2 2 2"
_symmetry_group_IT_number 23
_symmetry_cell_setting 'orthorhombic'
loop_
_space_group_symop_operation_xyz
x,y,z
-x,-y,z
x,-y,-z
-x,y,-z
1/2+x,1/2+y,1/2+z
1/2-x,1/2-y,1/2+z
1/2+x,1/2-y,1/2-z
1/2-x,1/2+y,1/2-z
loop_
_atom_site_type_symbol
_atom_site_label
_atom_site_fract_x
_atom_site_fract_y
_atom_site_fract_z
Si Si1 0.936097 0.147204 0.752450
Si Si2 0.062234 0.759142 0.625103
Si Si3 0.248790 0.763893 0.784187
Si Si4 0.500000 0.000000 0.702985
Si Si5 0.116855 0.387302 0.618273
Si Si6 0.780106 0.848131 0.451600
Si Si7 0.204206 0.500000 0.500000
Si Si8 0.184483 0.582831 0.171225
O O1 0.917505 0.117651 0.681511
O O2 0.844452 0.138985 0.787082
O O3 0.982168 0.332884 0.756693
O O4 0.000000 0.000000 0.777893
O O5 0.087217 0.567679 0.644848
O O6 0.118654 0.824533 0.568086
O O7 0.958668 0.756653 0.612637
O O8 0.305688 0.828747 0.839315
O O9 0.233343 0.565962 0.793633
O O10 0.298212 0.765926 0.719450
O O11 0.582692 0.042656 0.661170
O O12 0.145313 0.413309 0.550272
O O13 0.742036 0.664813 0.475473
O O14 0.722303 0.888053 0.394140
O O15 0.771622 0.000000 0.500000
#
# Coordination Sequence:
#
# PCOD8163831 Si02
#       8
#     8   8   8   4   8   8   4   8
#     4  11  23  37  60  94 128 169 217 268 335 392
#     4  10  21  38  59  90 127 171 215 261 326 389
#     4  11  23  38  63  96 128 173 217 277 337 394
#     4  10  24  42  61  90 130 165 212 272 334 398
#     4  10  21  39  64  88 130 172 217 266 323 399
#     4  11  24  43  63  95 131 170 224 275 327 405
#     4  10  24  41  64  90 127 178 214 260 325 396
#     4  11  24  42  65  95 130 170 220 275 343 397
#
# _framework density 20.915717000000001
#
# number of rings (size 3 to 8) (size 9 to 14) (size 15 to 20)
#    0.000    1.429    1.429    4.286    6.000    5.714 
#    0.000    2.500    0.000    0.000    0.000   15.500 
#    0.000    0.000    0.000    0.000    0.000    0.000 
#
# Total GULP energy -347027.678248 kJ/mol
# GULP energy per Si atom -12393.845652 kJ/mol
# Density = 2.086811 g / cm^3
# Si number density = 20.915717 Si / 1000 Ang^3
#
#
#
# Elastic Constant Matrix: (Units=GPa)
#
#
# Indices 1 2 3 4 5 6 
#
# 1 116.1309 54.4665 69.0013 0.0000 0.0000 0.0000
# 2 54.4665 93.4021 44.1295 0.0000 0.0000 0.0000
# 3 69.0013 44.1295 140.5251 0.0000 0.0000 0.0000
# 4 0.0000 0.0000 0.0000 25.5054 0.0000 0.0000
# 5 0.0000 0.0000 0.0000 0.0000 0.1339 0.0000
# 6 0.0000 0.0000 0.0000 0.0000 0.0000 28.3084
#
#
#
# Elastic Compliance Matrix: (Units=1/GPa)
#
#
# Indices 1 2 3 4 5 6 
#
# 1 0.014550 -0.006000 -0.005261 0.000000 0.000000 0.000000
# 2 -0.006000 0.015045 -0.001779 0.000000 0.000000 0.000000
# 3 -0.005261 -0.001779 0.010258 0.000000 0.000000 0.000000
# 4 0.000000 0.000000 0.000000 0.039207 0.000000 0.000000
# 5 0.000000 0.000000 0.000000 0.000000 7.470280 0.000000
# 6 0.000000 0.000000 0.000000 0.000000 0.000000 0.035325
#
#
# Mechanical properties :
#
#
# Convention : Reuss Voigt Hill
#
# Bulk Modulus (GPa) = 72.59084 76.13918 74.36501
# Shear Modulus (GPa) = 0.65657 22.95359 11.80508
#
# Velocity S-wave (km/s) = 0.56089 3.31635 2.37831
# Velocity P-wave (km/s) = 5.93306 7.15165 6.57066
#
# Compressibility (1/GPa) = 0.01377584
#
# Stress axis : x y z
#
# Youngs Moduli (GPa) = 68.72622 66.46554 97.48610
#
# Poissons Ratio (x) = 0.39876 0.51284
# Poissons Ratio (y) = 0.41232 0.17341
# Poissons Ratio (z) = 0.36154 0.11823
#
# Static dielectric constant tensor:
#      x y z
#    x 3.949270 0.000000 0.000000 
#    y 0.000000 4.203360 0.000000 
#    z 0.000000 0.000000 3.604080 
# 
# 
# High freq. dielectric constant tensor:
#      x y z
#    x 1.808680 0.000000 0.000000 
#    y 0.000000 1.833600 0.000000 
#    z 0.000000 0.000000 1.804160 
# 
# From -- ./inp_files/27031.got.cif
#   From: 2010.03.12/outbox.cif.g09.slc.cpg/sg23_14_cif.got.tgz:27031.got - 2010.04.14 02:50:06.
