data_PCOD8163351
_publ_section_title
;
Structure prediction by ZEFSAII (Michael W. Deem and Ramdas Pophale) SiO2 
 PCOD8163351
Probable space group: I 2 2 2
;
_chemical_formula_sum "Si O2"
_cell_formula_units_Z 64
_cell_length_a 23.264903
_cell_length_b 18.780301
_cell_length_c 9.037428
_cell_angle_alpha 90.000000
_cell_angle_beta 90.000000
_cell_angle_gamma 90.000000
_cell_volume 3948.650042
_symmetry_space_group_name_H-M "I 2 2 2"
_symmetry_group_IT_number 23
_symmetry_cell_setting 'orthorhombic'
loop_
_space_group_symop_operation_xyz
x,y,z
-x,-y,z
x,-y,-z
-x,y,-z
1/2+x,1/2+y,1/2+z
1/2-x,1/2-y,1/2+z
1/2+x,1/2-y,1/2-z
1/2-x,1/2+y,1/2-z
loop_
_atom_site_type_symbol
_atom_site_label
_atom_site_fract_x
_atom_site_fract_y
_atom_site_fract_z
Si Si1 0.246449 1.000000 0.175656
Si Si2 0.665843 0.262965 0.829569
Si Si3 0.115204 1.000000 0.825272
Si Si4 0.725439 0.141745 0.672172
Si Si5 0.774561 0.641745 0.172172
Si Si6 0.565592 0.635408 0.170044
Si Si7 0.934408 0.135408 0.670044
Si Si8 0.834157 0.762965 0.329569
O O1 0.279014 0.931374 0.238522
O O2 0.180650 1.000000 0.232830
O O3 0.279014 0.068626 0.238522
O O4 0.250346 0.000000 0.000000
O O5 0.674938 0.193936 0.727884
O O6 0.713158 0.322842 0.793056
O O7 0.603994 0.295961 0.789884
O O8 0.670390 0.239292 1.000000
O O9 0.081999 0.930966 0.770020
O O10 0.081999 0.069034 0.770020
O O11 0.113909 0.000000 0.000000
O O12 0.716703 0.126136 0.500000
O O13 0.786842 0.177158 0.706944
O O14 0.825062 0.693936 0.227884
O O15 0.500000 0.657254 0.200118
O O16 0.575951 0.613112 1.000000
O O17 0.896006 0.204039 0.710116
#
# Coordination Sequence:
#
# PCOD8163351 Si02
#       8
#     8   8   8   8   8   8   8   8
#     4  11  21  32  48  71  99 131 162 197 242 290
#     4   9  18  32  48  69  96 125 159 201 241 281
#     4  11  22  32  45  68 100 133 167 203 238 277
#     4  10  19  31  50  71  94 125 160 199 243 289
#     4  10  19  31  50  71  94 125 160 199 243 289
#     4  10  20  34  51  69  94 132 171 201 234 280
#     4  10  20  34  51  69  94 132 171 201 234 280
#     4   9  18  32  48  69  96 125 159 201 241 281
#
# _framework density 16.208072000000001
#
# number of rings (size 3 to 8) (size 9 to 14) (size 15 to 20)
#    0.000    2.000    2.500    1.875    0.000    5.000 
#    0.000    0.000    0.000    0.000    0.000    0.875 
#    0.000    7.000    0.000    0.000    0.000    0.000 
#
# Total GULP energy -396930.735458 kJ/mol
# GULP energy per Si atom -12404.085483 kJ/mol
# Density = 1.617118 g / cm^3
# Si number density = 16.208072 Si / 1000 Ang^3
#
#
#
# Elastic Constant Matrix: (Units=GPa)
#
#
# Indices 1 2 3 4 5 6 
#
# 1 84.9210 54.0961 33.6255 0.0000 0.0000 0.0000
# 2 54.0961 115.4784 53.7052 0.0000 0.0000 0.0000
# 3 33.6255 53.7052 70.3595 0.0000 0.0000 0.0000
# 4 0.0000 0.0000 0.0000 27.3854 0.0000 0.0000
# 5 0.0000 0.0000 0.0000 0.0000 19.9803 0.0000
# 6 0.0000 0.0000 0.0000 0.0000 0.0000 20.0965
#
#
#
# Elastic Compliance Matrix: (Units=1/GPa)
#
#
# Indices 1 2 3 4 5 6 
#
# 1 0.017241 -0.006581 -0.003217 0.000000 0.000000 0.000000
# 2 -0.006581 0.015937 -0.009020 0.000000 0.000000 0.000000
# 3 -0.003217 -0.009020 0.022635 0.000000 0.000000 0.000000
# 4 0.000000 0.000000 0.000000 0.036516 0.000000 0.000000
# 5 0.000000 0.000000 0.000000 0.000000 0.050049 0.000000
# 6 0.000000 0.000000 0.000000 0.000000 0.000000 0.049760
#
#
# Mechanical properties :
#
#
# Convention : Reuss Voigt Hill
#
# Bulk Modulus (GPa) = 55.00919 61.51250 58.26085
# Shear Modulus (GPa) = 21.20146 22.11458 21.65802
#
# Velocity S-wave (km/s) = 3.62066 3.69781 3.65944
# Velocity P-wave (km/s) = 7.17579 7.50106 7.34023
#
# Compressibility (1/GPa) = 0.01817878
#
# Stress axis : x y z
#
# Youngs Moduli (GPa) = 57.99985 62.74620 44.17968
#
# Poissons Ratio (x) = 0.41292 0.14212
# Poissons Ratio (y) = 0.38168 0.39849
# Poissons Ratio (z) = 0.18657 0.56596
#
# Static dielectric constant tensor:
#      x y z
#    x 2.997770 0.000000 0.000000 
#    y 0.000000 2.986390 0.000000 
#    z 0.000000 0.000000 3.091850 
# 
# 
# High freq. dielectric constant tensor:
#      x y z
#    x 1.598160 0.000000 0.000000 
#    y 0.000000 1.615760 0.000000 
#    z 0.000000 0.000000 1.631410 
# 
# From -- ./inp_files/12762.got.cif
#   From: 2010.03.12/outbox.cif.g09.slc.cpg/sg23_7_cif.got.tgz:12762.got - 2010.04.14 02:50:06.
