data_PCOD8163455
_publ_section_title
;
Structure prediction by ZEFSAII (Michael W. Deem and Ramdas Pophale) SiO2 
 PCOD8163455
Probable space group: I 2 2 2
;
_chemical_formula_sum "Si O2"
_cell_formula_units_Z 48
_cell_length_a 7.556639
_cell_length_b 13.866320
_cell_length_c 20.735473
_cell_angle_alpha 90.000000
_cell_angle_beta 90.000000
_cell_angle_gamma 90.000000
_cell_volume 2172.720391
_symmetry_space_group_name_H-M "I 2 2 2"
_symmetry_group_IT_number 23
_symmetry_cell_setting 'orthorhombic'
loop_
_space_group_symop_operation_xyz
x,y,z
-x,-y,z
x,-y,-z
-x,y,-z
1/2+x,1/2+y,1/2+z
1/2-x,1/2-y,1/2+z
1/2+x,1/2-y,1/2-z
1/2-x,1/2+y,1/2-z
loop_
_atom_site_type_symbol
_atom_site_label
_atom_site_fract_x
_atom_site_fract_y
_atom_site_fract_z
Si Si1 0.846582 0.660037 0.313618
Si Si2 0.887702 0.392345 0.062526
Si Si3 0.179206 0.939227 0.390507
Si Si4 0.419514 0.180603 0.303621
Si Si5 0.467731 0.266026 0.930776
Si Si6 0.702257 0.504783 0.753839
O O1 0.662568 0.716312 0.321358
O O2 0.962097 0.681298 0.377505
O O3 0.814557 0.545044 0.304195
O O4 0.933968 0.702458 0.249109
O O5 0.831428 0.507776 0.064789
O O6 0.995037 0.366561 0.129202
O O7 0.708334 0.330778 0.068279
O O8 0.000000 0.363014 0.000000
O O9 0.139553 0.832884 0.416955
O O10 0.234765 0.936113 0.315786
O O11 0.000000 0.000000 0.395745
O O12 0.270550 0.110903 0.271131
O O13 0.500000 0.216508 0.000000
O O14 0.500000 0.500000 0.732328
#
# Coordination Sequence:
#
# PCOD8163455 Si02
#       6
#     8   8   8   8   8   8
#     4  11  21  37  59  83 114 153 192 237 287 338
#     4   9  19  34  54  84 117 147 184 230 279 338
#     4   8  16  33  54  78 115 153 177 212 279 354
#     4  10  21  36  58  89 119 151 193 235 284 347
#     4  10  21  37  53  75 110 154 193 225 277 343
#     4  10  19  36  60  87 116 146 186 238 291 346
#
# _framework density 22.092122
#
# number of rings (size 3 to 8) (size 9 to 14) (size 15 to 20)
#    0.000    2.333    0.000    5.500    0.000    5.667 
#    0.000   15.000    0.000    2.000    0.000    1.167 
#    0.000    0.000    0.000    0.000    0.000    0.000 
#
# Total GULP energy -297506.174296 kJ/mol
# GULP energy per Si atom -12396.090596 kJ/mol
# Density = 2.204184 g / cm^3
# Si number density = 22.092122 Si / 1000 Ang^3
#
#
#
# Elastic Constant Matrix: (Units=GPa)
#
#
# Indices 1 2 3 4 5 6 
#
# 1 49.8275 9.5936 37.4766 0.0000 0.0000 0.0000
# 2 9.5936 47.7080 34.5345 0.0000 0.0000 0.0000
# 3 37.4766 34.5345 152.3413 0.0000 0.0000 0.0000
# 4 0.0000 0.0000 0.0000 29.8186 0.0000 0.0000
# 5 0.0000 0.0000 0.0000 0.0000 39.3578 0.0000
# 6 0.0000 0.0000 0.0000 0.0000 0.0000 21.9154
#
#
#
# Elastic Compliance Matrix: (Units=1/GPa)
#
#
# Indices 1 2 3 4 5 6 
#
# 1 0.024644 -0.000679 -0.005909 0.000000 0.000000 0.000000
# 2 -0.000679 0.025094 -0.005522 0.000000 0.000000 0.000000
# 3 -0.005909 -0.005522 0.009270 0.000000 0.000000 0.000000
# 4 0.000000 0.000000 0.000000 0.033536 0.000000 0.000000
# 5 0.000000 0.000000 0.000000 0.000000 0.025408 0.000000
# 6 0.000000 0.000000 0.000000 0.000000 0.000000 0.045630
#
#
# Mechanical properties :
#
#
# Convention : Reuss Voigt Hill
#
# Bulk Modulus (GPa) = 28.74404 45.89849 37.32126
# Shear Modulus (GPa) = 25.07566 29.43648 27.25607
#
# Velocity S-wave (km/s) = 3.37271 3.65422 3.51628
# Velocity P-wave (km/s) = 5.31094 6.21494 5.78064
#
# Compressibility (1/GPa) = 0.03478982
#
# Stress axis : x y z
#
# Youngs Moduli (GPa) = 40.57789 39.84966 107.88054
#
# Poissons Ratio (x) = 0.02704 0.63743
# Poissons Ratio (y) = 0.02753 0.59569
# Poissons Ratio (z) = 0.23976 0.22004
#
# Static dielectric constant tensor:
#      x y z
#    x 4.237900 0.000000 0.000000 
#    y 0.000000 3.633900 0.000000 
#    z 0.000000 0.000000 4.220800 
# 
# 
# High freq. dielectric constant tensor:
#      x y z
#    x 1.890490 0.000000 0.000000 
#    y 0.000000 1.823130 0.000000 
#    z 0.000000 0.000000 1.864090 
# 
# From -- ./inp_files/26174.got.cif
#   From: 2010.03.12/outbox.cif.g09.slc.cpg/sg23_14_cif.got.tgz:26174.got - 2010.04.14 02:50:06.
