data_PCOD8163148
_publ_section_title
;
Structure prediction by ZEFSAII (Michael W. Deem and Ramdas Pophale) SiO2 
 PCOD8163148
Probable space group: F 2 2 2
;
_chemical_formula_sum "Si O2"
_cell_formula_units_Z 108
_cell_length_a 26.228558
_cell_length_b 14.512062
_cell_length_c 11.751351
_cell_angle_alpha 90.000000
_cell_angle_beta 90.000000
_cell_angle_gamma 90.000000
_cell_volume 4472.922135
_symmetry_space_group_name_H-M "F 2 2 2"
_symmetry_group_IT_number 22
_symmetry_cell_setting 'orthorhombic'
loop_
_space_group_symop_operation_xyz
x,y,z
-x,-y,z
x,-y,-z
-x,y,-z
x,1/2+y,1/2+z
-x,1/2-y,1/2+z
x,1/2-y,1/2-z
-x,1/2+y,1/2-z
1/2+x,y,1/2+z
1/2-x,-y,1/2+z
1/2+x,-y,1/2-z
1/2-x,y,1/2-z
1/2+x,1/2+y,z
1/2-x,1/2-y,z
1/2+x,1/2-y,-z
1/2-x,1/2+y,-z
loop_
_atom_site_type_symbol
_atom_site_label
_atom_site_fract_x
_atom_site_fract_y
_atom_site_fract_z
Si Si1 0.956967 0.666383 0.588068
Si Si2 0.250000 0.995710 0.750000
Si Si3 0.860779 0.104631 0.961914
Si Si4 0.853881 0.895300 0.512999
Si Si5 0.000000 0.000000 0.500000
Si Si6 0.556707 0.364037 0.340495
Si Si7 0.740993 0.646932 0.924374
Si Si8 0.664709 0.148801 0.777390
O O1 0.902472 0.664856 0.526902
O O2 0.951741 0.610095 0.707436
O O3 0.971358 0.769450 0.625730
O O4 0.000000 0.627439 0.500000
O O5 0.292601 0.929154 0.802680
O O6 0.276642 0.066783 0.662379
O O7 0.870435 0.113662 0.826708
O O8 0.804328 0.147984 0.982644
O O9 0.866244 0.000000 0.000000
O O10 0.883297 0.853620 0.623412
O O11 0.793601 0.885135 0.523035
O O12 0.868988 0.844744 0.393197
O O13 0.870007 0.000000 0.500000
O O14 0.035638 0.942910 0.418622
O O15 0.750000 0.750000 0.873134
O O16 0.687728 0.250000 0.750000
#
# Coordination Sequence:
#
# PCOD8163148 Si02
#       8
#    16   8  16  16   4  16  16  16
#     4  11  27  52  76 112 150 196 249 318 385 456
#     4  12  24  42  68 108 142 204 256 312 366 460
#     4  12  27  48  72 106 153 198 257 314 378 451
#     4  12  25  46  73 110 151 199 254 309 377 456
#     4  12  24  48  82 108 150 192 244 322 374 440
#     4  11  26  48  81 113 149 193 252 312 382 462
#     4  12  25  45  70 105 154 204 253 311 379 451
#     4  12  25  44  70 103 146 201 251 313 373 445
#
# _framework density 24.145291
#
# number of rings (size 3 to 8) (size 9 to 14) (size 15 to 20)
#    0.000    0.296    4.444    4.444    4.148    2.667 
#    2.667    0.000    0.000    0.000    0.000    0.000 
#    0.000    0.000    0.000    0.000    0.000    0.000 
#
# Total GULP energy -334648.047511 kJ/mol
# GULP energy per Si atom -12394.372130 kJ/mol
# Density = 2.409034 g / cm^3
# Si number density = 24.145291 Si / 1000 Ang^3
#
#
#
# Elastic Constant Matrix: (Units=GPa)
#
#
# Indices 1 2 3 4 5 6 
#
# 1 114.2909 12.0880 73.3850 0.0000 0.0000 0.0000
# 2 12.0880 126.7810 29.6480 0.0000 0.0000 0.0000
# 3 73.3850 29.6480 191.6450 0.0000 0.0000 0.0000
# 4 0.0000 0.0000 0.0000 43.4349 0.0000 0.0000
# 5 0.0000 0.0000 0.0000 0.0000 32.4378 0.0000
# 6 0.0000 0.0000 0.0000 0.0000 0.0000 6.9870
#
#
#
# Elastic Compliance Matrix: (Units=1/GPa)
#
#
# Indices 1 2 3 4 5 6 
#
# 1 0.011603 -0.000070 -0.004432 0.000000 0.000000 0.000000
# 2 -0.000070 0.008184 -0.001239 0.000000 0.000000 0.000000
# 3 -0.004432 -0.001239 0.007107 0.000000 0.000000 0.000000
# 4 0.000000 0.000000 0.000000 0.023023 0.000000 0.000000
# 5 0.000000 0.000000 0.000000 0.000000 0.030828 0.000000
# 6 0.000000 0.000000 0.000000 0.000000 0.000000 0.143122
#
#
# Mechanical properties :
#
#
# Convention : Reuss Voigt Hill
#
# Bulk Modulus (GPa) = 64.88819 73.66209 69.27514
# Shear Modulus (GPa) = 20.79116 37.74502 29.26809
#
# Velocity S-wave (km/s) = 2.93761 3.95808 3.48539
# Velocity P-wave (km/s) = 6.19988 7.17374 6.70452
#
# Compressibility (1/GPa) = 0.01541112
#
# Stress axis : x y z
#
# Youngs Moduli (GPa) = 86.18580 122.18815 140.70844
#
# Poissons Ratio (x) = 0.00853 0.62365
# Poissons Ratio (y) = 0.00602 0.17439
# Poissons Ratio (z) = 0.38199 0.15144
#
# Static dielectric constant tensor:
#      x y z
#    x 3.547760 0.000000 0.000000 
#    y 0.000000 4.506700 0.000000 
#    z 0.000000 0.000000 4.881890 
# 
# 
# High freq. dielectric constant tensor:
#      x y z
#    x 1.929710 0.000000 0.000000 
#    y 0.000000 1.970930 0.000000 
#    z 0.000000 0.000000 1.973270 
# 
# From -- ./inp_files/25455.got.cif
#   From: 2010.03.12/outbox.cif.g09.slc.cpg/sg22_13_cif.got.tgz:25455.got - 2010.04.14 02:24:06.
