data_PCOD8163631
_publ_section_title
;
Structure prediction by ZEFSAII (Michael W. Deem and Ramdas Pophale) SiO2 
 PCOD8163631
Probable space group: I 2 2 2
;
_chemical_formula_sum "Si O2"
_cell_formula_units_Z 56
_cell_length_a 19.727155
_cell_length_b 16.178085
_cell_length_c 8.718073
_cell_angle_alpha 90.000000
_cell_angle_beta 90.000000
_cell_angle_gamma 90.000000
_cell_volume 2782.351991
_symmetry_space_group_name_H-M "I 2 2 2"
_symmetry_group_IT_number 23
_symmetry_cell_setting 'orthorhombic'
loop_
_space_group_symop_operation_xyz
x,y,z
-x,-y,z
x,-y,-z
-x,y,-z
1/2+x,1/2+y,1/2+z
1/2-x,1/2-y,1/2+z
1/2+x,1/2-y,1/2-z
1/2-x,1/2+y,1/2-z
loop_
_atom_site_type_symbol
_atom_site_label
_atom_site_fract_x
_atom_site_fract_y
_atom_site_fract_z
Si Si1 0.185214 0.659842 0.068985
Si Si2 0.793172 0.070505 0.759292
Si Si3 0.295481 0.076507 0.732498
Si Si4 0.755525 0.319942 0.512355
Si Si5 0.438358 0.552071 0.151347
Si Si6 0.116389 0.500000 0.500000
Si Si7 0.000000 0.205173 0.500000
Si Si8 0.896643 0.669336 0.635154
O O1 0.257520 0.637631 0.147599
O O2 0.120918 0.656848 0.184032
O O3 0.167683 0.598242 0.927969
O O4 0.198070 0.750380 0.998240
O O5 0.771706 0.095943 0.931681
O O6 0.874122 0.064412 0.759227
O O7 0.768046 0.982019 0.700932
O O8 0.342724 0.026630 0.849278
O O9 0.267515 0.160530 0.808360
O O10 0.828010 0.295720 0.440985
O O11 0.500000 0.500000 0.232270
O O12 0.457950 0.646285 0.112606
O O13 0.418695 0.500000 0.000000
O O14 0.076953 0.417768 0.558692
O O15 0.045976 0.262533 0.609673
#
# Coordination Sequence:
#
# PCOD8163631 Si02
#       8
#     8   8   8   8   8   4   4   8
#     4  11  21  31  58  90 118 152 206 252 309 360
#     4  11  19  34  57  88 118 162 195 249 314 365
#     4  11  18  35  56  84 122 152 185 260 308 375
#     4  10  21  35  55  90 123 153 196 256 319 366
#     4   9  20  35  56  87 118 163 213 246 291 377
#     4  10  20  37  56  86 119 146 206 244 324 368
#     4  10  21  39  58  80 124 162 202 257 303 368
#     4  10  21  37  57  85 117 162 204 254 307 365
#
# _framework density 20.126857000000001
#
# number of rings (size 3 to 8) (size 9 to 14) (size 15 to 20)
#    0.000    1.857    4.286    3.857    0.000    4.857 
#    0.000    0.000    0.000   12.857    0.000    6.000 
#    0.000    0.000    0.000    0.000    0.000    0.000 
#
# Total GULP energy -346904.238384 kJ/mol
# GULP energy per Si atom -12389.437085 kJ/mol
# Density = 2.008105 g / cm^3
# Si number density = 20.126857 Si / 1000 Ang^3
#
#
#
# Elastic Constant Matrix: (Units=GPa)
#
#
# Indices 1 2 3 4 5 6 
#
# 1 84.9751 30.9737 42.2351 0.0000 0.0000 0.0000
# 2 30.9737 106.9908 43.9351 0.0000 0.0000 0.0000
# 3 42.2351 43.9351 105.7843 0.0000 0.0000 0.0000
# 4 0.0000 0.0000 0.0000 26.1620 0.0000 0.0000
# 5 0.0000 0.0000 0.0000 0.0000 17.8213 0.0000
# 6 0.0000 0.0000 0.0000 0.0000 0.0000 22.3372
#
#
#
# Elastic Compliance Matrix: (Units=1/GPa)
#
#
# Indices 1 2 3 4 5 6 
#
# 1 0.015133 -0.002291 -0.005091 0.000000 0.000000 0.000000
# 2 -0.002291 0.011615 -0.003910 0.000000 0.000000 0.000000
# 3 -0.005091 -0.003910 0.013109 0.000000 0.000000 0.000000
# 4 0.000000 0.000000 0.000000 0.038223 0.000000 0.000000
# 5 0.000000 0.000000 0.000000 0.000000 0.056112 0.000000
# 6 0.000000 0.000000 0.000000 0.000000 0.000000 0.044768
#
#
# Mechanical properties :
#
#
# Convention : Reuss Voigt Hill
#
# Bulk Modulus (GPa) = 57.88324 59.11534 58.49929
# Shear Modulus (GPa) = 24.11931 25.30451 24.71191
#
# Velocity S-wave (km/s) = 3.46550 3.54962 3.50781
# Velocity P-wave (km/s) = 6.69586 6.79962 6.74794
#
# Compressibility (1/GPa) = 0.01727616
#
# Stress axis : x y z
#
# Youngs Moduli (GPa) = 66.07932 86.09435 76.28082
#
# Poissons Ratio (x) = 0.19721 0.38833
# Poissons Ratio (y) = 0.15136 0.29822
# Poissons Ratio (z) = 0.33639 0.33659
#
# Static dielectric constant tensor:
#      x y z
#    x 3.286360 0.000000 0.000000 
#    y 0.000000 3.851170 0.000000 
#    z 0.000000 0.000000 3.615510 
# 
# 
# High freq. dielectric constant tensor:
#      x y z
#    x 1.743120 0.000000 0.000000 
#    y 0.000000 1.805480 0.000000 
#    z 0.000000 0.000000 1.776760 
# 
# From -- ./inp_files/12100.got.cif
#   From: 2010.03.12/outbox.cif.g09.slc.cpg/sg23_7_cif.got.tgz:12100.got - 2010.04.14 02:50:06.
