data_PCOD8163681
_publ_section_title
;
Structure prediction by ZEFSAII (Michael W. Deem and Ramdas Pophale) SiO2 
 PCOD8163681
Probable space group: I 2 2 2
;
_chemical_formula_sum "Si O2"
_cell_formula_units_Z 38
_cell_length_a 26.579578
_cell_length_b 11.405158
_cell_length_c 5.062438
_cell_angle_alpha 90.000000
_cell_angle_beta 90.000000
_cell_angle_gamma 90.000000
_cell_volume 1534.649156
_symmetry_space_group_name_H-M "I 2 2 2"
_symmetry_group_IT_number 23
_symmetry_cell_setting 'orthorhombic'
loop_
_space_group_symop_operation_xyz
x,y,z
-x,-y,z
x,-y,-z
-x,y,-z
1/2+x,1/2+y,1/2+z
1/2-x,1/2-y,1/2+z
1/2+x,1/2-y,1/2-z
1/2-x,1/2+y,1/2-z
loop_
_atom_site_type_symbol
_atom_site_label
_atom_site_fract_x
_atom_site_fract_y
_atom_site_fract_z
Si Si1 0.943130 0.801994 0.587917
Si Si2 0.081117 0.337089 0.108126
Si Si3 0.330401 0.000000 0.500000
Si Si4 0.000000 0.500000 0.000000
Si Si5 0.647058 0.571310 0.240729
Si Si6 0.781687 0.718162 0.799604
O O1 0.914692 0.767173 0.317040
O O2 0.913349 0.916413 0.694225
O O3 0.000000 0.831350 0.500000
O O4 0.936385 0.703407 0.814459
O O5 0.134257 0.403718 0.139855
O O6 0.036213 0.424507 0.193745
O O7 0.295763 0.078843 0.304062
O O8 0.659497 0.500000 0.500000
O O9 0.668489 0.703407 0.256261
O O10 0.672392 0.500000 0.000000
O O11 0.741104 0.740998 0.576492
#
# Coordination Sequence:
#
# PCOD8163681 Si02
#       6
#     8   8   4   2   8   8
#     4  12  24  47  72 110 150 203 253 308 370 450
#     4  11  24  41  72 108 154 189 246 306 387 442
#     4  11  28  51  76 114 152 192 251 318 387 454
#     4  10  20  38  64 110 146 202 216 310 370 456
#     4  12  28  52  77 107 154 207 258 315 379 451
#     4  12  30  51  81 115 150 197 256 322 392 457
#
# _framework density 24.76136
#
# number of rings (size 3 to 8) (size 9 to 14) (size 15 to 20)
#    0.000    0.421    4.211    2.526    7.368    6.316 
#    0.000    1.053    0.000    0.000    0.000    0.000 
#    0.000    0.000    0.000    0.000    0.000    0.000 
#
# Total GULP energy -235502.477426 kJ/mol
# GULP energy per Si atom -12394.867233 kJ/mol
# Density = 2.470500 g / cm^3
# Si number density = 24.761360 Si / 1000 Ang^3
#
#
#
# Elastic Constant Matrix: (Units=GPa)
#
#
# Indices 1 2 3 4 5 6 
#
# 1 105.7591 33.2376 20.7114 0.0000 0.0001 0.0002
# 2 33.2376 96.2649 44.7605 0.0001 0.0000 0.0000
# 3 20.7114 44.7605 118.9041 0.0008 0.0002 0.0001
# 4 0.0000 0.0001 0.0008 32.1594 0.0000 -0.0001
# 5 0.0001 0.0000 0.0002 0.0000 17.1941 0.0002
# 6 0.0002 0.0000 0.0001 -0.0001 0.0002 30.6413
#
#
#
# Elastic Compliance Matrix: (Units=1/GPa)
#
#
# Indices 1 2 3 4 5 6 
#
# 1 0.010638 -0.003408 -0.000570 0.000000 0.000000 0.000000
# 2 -0.003408 0.013684 -0.004558 0.000000 0.000000 0.000000
# 3 -0.000570 -0.004558 0.010225 0.000000 0.000000 0.000000
# 4 0.000000 0.000000 0.000000 0.031095 0.000000 0.000000
# 5 0.000000 0.000000 0.000000 0.000000 0.058160 0.000000
# 6 0.000000 0.000000 0.000000 0.000000 0.000000 0.032636
#
#
# Mechanical properties :
#
#
# Convention : Reuss Voigt Hill
#
# Bulk Modulus (GPa) = 57.22194 57.59409 57.40802
# Shear Modulus (GPa) = 27.88097 30.81355 29.34726
#
# Velocity S-wave (km/s) = 3.35921 3.53146 3.44641
# Velocity P-wave (km/s) = 6.18104 6.31969 6.25075
#
# Compressibility (1/GPa) = 0.01747581
#
# Stress axis : x y z
#
# Youngs Moduli (GPa) = 94.00141 73.07907 97.79861
#
# Poissons Ratio (x) = 0.24905 0.05576
# Poissons Ratio (y) = 0.32035 0.44572
# Poissons Ratio (z) = 0.05359 0.33306
#
# Static dielectric constant tensor:
#      x y z
#    x 4.582350 0.000000 0.000000 
#    y 0.000000 4.595780 0.000000 
#    z 0.000000 0.000000 4.577060 
# 
# 
# High freq. dielectric constant tensor:
#      x y z
#    x 1.999280 0.000000 0.000000 
#    y 0.000000 1.988470 0.000000 
#    z 0.000000 0.000000 1.975740 
# 
# From -- ./inp_files/4784.got.cif
#   From: 2010.03.12/outbox.cif.g09.slc.cpg/sg23_3_cif.got.tgz:4784.got - 2010.04.14 02:50:06.
