data_PCOD8163025
_publ_section_title
;
Structure prediction by ZEFSAII (Michael W. Deem and Ramdas Pophale) SiO2 
 PCOD8163025
Probable space group: F 2 2 2
;
_chemical_formula_sum "Si O2"
_cell_formula_units_Z 116
_cell_length_a 27.291898
_cell_length_b 9.374053
_cell_length_c 22.218773
_cell_angle_alpha 90.000000
_cell_angle_beta 90.000000
_cell_angle_gamma 90.000000
_cell_volume 5684.355306
_symmetry_space_group_name_H-M "F 2 2 2"
_symmetry_group_IT_number 22
_symmetry_cell_setting 'orthorhombic'
loop_
_space_group_symop_operation_xyz
x,y,z
-x,-y,z
x,-y,-z
-x,y,-z
x,1/2+y,1/2+z
-x,1/2-y,1/2+z
x,1/2-y,1/2-z
-x,1/2+y,1/2-z
1/2+x,y,1/2+z
1/2-x,-y,1/2+z
1/2+x,-y,1/2-z
1/2-x,y,1/2-z
1/2+x,1/2+y,z
1/2-x,1/2-y,z
1/2+x,1/2-y,-z
1/2-x,1/2+y,-z
loop_
_atom_site_type_symbol
_atom_site_label
_atom_site_fract_x
_atom_site_fract_y
_atom_site_fract_z
Si Si1 0.956101 0.408361 0.272980
Si Si2 0.152479 0.742501 0.065267
Si Si3 0.321801 0.529961 0.631594
Si Si4 0.860193 0.804944 0.071965
Si Si5 0.655996 0.081641 0.258784
Si Si6 0.500000 0.000000 0.500000
Si Si7 0.069576 0.051512 0.902453
Si Si8 0.210178 0.029929 0.883364
O O1 0.963370 0.250000 0.250000
O O2 0.901093 0.464098 0.260383
O O3 0.963440 0.424663 0.344194
O O4 0.000000 0.500000 0.241990
O O5 0.148699 0.584262 0.091466
O O6 0.114268 0.839187 0.102389
O O7 0.204614 0.814234 0.084573
O O8 0.139658 0.740107 0.995051
O O9 0.348178 0.680465 0.619450
O O10 0.322122 0.499676 0.702074
O O11 0.265246 0.525393 0.613618
O O12 0.817370 0.920034 0.073423
O O13 0.910925 0.887528 0.088526
O O14 0.662708 0.250000 0.250000
O O15 0.686740 0.029269 0.316364
O O16 0.534773 0.096608 0.457933
#
# Coordination Sequence:
#
# PCOD8163025 Si02
#       8
#    16  16  16  16  16   4  16  16
#     4  11  23  41  67  96 126 164 211 269 328 386
#     4  11  21  40  64  90 130 166 212 261 321 377
#     4  12  25  37  63  93 128 170 211 264 326 376
#     4  11  24  40  59  92 137 162 206 270 324 366
#     4  11  22  43  64  87 125 166 217 270 313 382
#     4  12  20  40  84  98 112 172 236 244 312 404
#     4  11  21  43  70  97 123 171 217 260 309 395
#     4  11  22  40  64  89 120 176 222 255 309 388
#
# _framework density 20.406887999999999
#
# number of rings (size 3 to 8) (size 9 to 14) (size 15 to 20)
#    0.000    0.828    6.207    3.724    0.000    5.517 
#    0.000    1.379    0.000    0.828    0.000    0.000 
#    0.000    0.000    0.000    0.000    0.000    0.000 
#
# Total GULP energy -359475.594235 kJ/mol
# GULP energy per Si atom -12395.710146 kJ/mol
# Density = 2.036044 g / cm^3
# Si number density = 20.406888 Si / 1000 Ang^3
#
#
#
# Elastic Constant Matrix: (Units=GPa)
#
#
# Indices 1 2 3 4 5 6 
#
# 1 87.2354 29.4397 6.2946 0.0000 0.0000 0.0000
# 2 29.4397 77.9202 16.7386 0.0000 0.0000 0.0000
# 3 6.2946 16.7386 85.5801 0.0000 0.0000 0.0000
# 4 0.0000 0.0000 0.0000 33.8946 0.0000 0.0000
# 5 0.0000 0.0000 0.0000 0.0000 35.1271 0.0000
# 6 0.0000 0.0000 0.0000 0.0000 0.0000 12.7453
#
#
#
# Elastic Compliance Matrix: (Units=1/GPa)
#
#
# Indices 1 2 3 4 5 6 
#
# 1 0.013138 -0.004965 0.000005 0.000000 0.000000 0.000000
# 2 -0.004965 0.015273 -0.002622 0.000000 0.000000 0.000000
# 3 0.000005 -0.002622 0.012197 0.000000 0.000000 0.000000
# 4 0.000000 0.000000 0.000000 0.029503 0.000000 0.000000
# 5 0.000000 0.000000 0.000000 0.000000 0.028468 0.000000
# 6 0.000000 0.000000 0.000000 0.000000 0.000000 0.078460
#
#
# Mechanical properties :
#
#
# Convention : Reuss Voigt Hill
#
# Bulk Modulus (GPa) = 39.30174 39.52017 39.41095
# Shear Modulus (GPa) = 24.91451 29.57091 27.24271
#
# Velocity S-wave (km/s) = 3.49791 3.81079 3.65770
# Velocity P-wave (km/s) = 5.96781 6.22663 6.09859
#
# Compressibility (1/GPa) = 0.02544416
#
# Stress axis : x y z
#
# Youngs Moduli (GPa) = 76.11252 65.47614 81.98437
#
# Poissons Ratio (x) = 0.32509 -0.00039
# Poissons Ratio (y) = 0.37790 0.21496
# Poissons Ratio (z) = -0.00036 0.17168
#
# Static dielectric constant tensor:
#      x y z
#    x 3.890140 0.000000 0.000000 
#    y 0.000000 1.401410 0.000000 
#    z 0.000000 0.000000 3.791280 
# 
# 
# High freq. dielectric constant tensor:
#      x y z
#    x 1.801920 0.000000 0.000000 
#    y 0.000000 1.779060 0.000000 
#    z 0.000000 0.000000 1.809350 
# 
# From -- ./inp_files/14121.got.cif
#   From: 2010.03.12/outbox.cif.g09.slc.cpg/sg22_8_cif.got.tgz:14121.got - 2010.04.14 02:24:06.
