data_PCOD8163298
_publ_section_title
;
Structure prediction by ZEFSAII (Michael W. Deem and Ramdas Pophale) SiO2 
 PCOD8163298
Probable space group: I 2 2 2
;
_chemical_formula_sum "Si O2"
_cell_formula_units_Z 56
_cell_length_a 12.015094
_cell_length_b 12.094663
_cell_length_c 20.014867
_cell_angle_alpha 90.000000
_cell_angle_beta 90.000000
_cell_angle_gamma 90.000000
_cell_volume 2908.530707
_symmetry_space_group_name_H-M "I 2 2 2"
_symmetry_group_IT_number 23
_symmetry_cell_setting 'orthorhombic'
loop_
_space_group_symop_operation_xyz
x,y,z
-x,-y,z
x,-y,-z
-x,y,-z
1/2+x,1/2+y,1/2+z
1/2-x,1/2-y,1/2+z
1/2+x,1/2-y,1/2-z
1/2-x,1/2+y,1/2-z
loop_
_atom_site_type_symbol
_atom_site_label
_atom_site_fract_x
_atom_site_fract_y
_atom_site_fract_z
Si Si1 0.934918 0.831462 0.561471
Si Si2 0.806705 0.404991 0.897641
Si Si3 0.158731 0.375833 0.489132
Si Si4 0.621707 0.274990 0.498893
Si Si5 0.041892 0.622111 0.778901
Si Si6 0.161092 0.346540 0.868618
Si Si7 0.884345 0.256491 0.646991
O O1 0.824280 0.894135 0.586041
O O2 0.909889 0.706894 0.536425
O O3 0.000000 0.893222 0.500000
O O4 0.018408 0.826722 0.623661
O O5 0.844479 0.370919 0.822775
O O6 0.841731 0.532753 0.903123
O O7 0.876854 0.330034 0.948870
O O8 0.115444 0.500000 0.500000
O O9 0.285844 0.367385 0.517293
O O10 0.145762 0.343435 0.411477
O O11 0.500000 0.329537 0.500000
O O12 0.652581 0.238700 0.572352
O O13 0.068741 0.681289 0.710577
O O14 0.000000 0.500000 0.761968
O O15 0.939201 0.678357 0.817823
O O16 0.278794 0.319860 0.832617
#
# Coordination Sequence:
#
# PCOD8163298 Si02
#       7
#     8   8   8   8   8   8   8
#     4   9  20  36  57  85 111 148 186 231 291 332
#     4  10  20  36  57  85 115 144 186 226 288 343
#     4   9  20  36  55  83 110 142 193 237 279 327
#     4  10  18  33  57  83 113 144 177 234 284 329
#     4  10  22  36  56  83 109 152 192 229 277 341
#     4  10  21  37  56  86 112 144 189 227 278 343
#     4  10  22  36  56  81 113 148 184 234 279 331
#
# _framework density 19.253708
#
# number of rings (size 3 to 8) (size 9 to 14) (size 15 to 20)
#    0.000    2.286    1.429    1.286    4.000    3.429 
#    0.000    3.571    0.000    0.000    0.000    0.000 
#    0.000    0.000    0.000    0.000    0.000    0.000 
#
# Total GULP energy -346965.907326 kJ/mol
# GULP energy per Si atom -12391.639547 kJ/mol
# Density = 1.920989 g / cm^3
# Si number density = 19.253708 Si / 1000 Ang^3
#
#
#
# Elastic Constant Matrix: (Units=GPa)
#
#
# Indices 1 2 3 4 5 6 
#
# 1 132.8887 7.8385 36.3627 0.0000 0.0000 0.0000
# 2 7.8385 41.0561 12.4196 0.0000 0.0000 0.0000
# 3 36.3627 12.4196 92.2501 0.0000 0.0000 0.0000
# 4 0.0000 0.0000 0.0000 22.8261 0.0000 0.0000
# 5 0.0000 0.0000 0.0000 0.0000 20.8000 0.0000
# 6 0.0000 0.0000 0.0000 0.0000 0.0000 12.2110
#
#
#
# Elastic Compliance Matrix: (Units=1/GPa)
#
#
# Indices 1 2 3 4 5 6 
#
# 1 0.008451 -0.000631 -0.003246 0.000000 0.000000 0.000000
# 2 -0.000631 0.025438 -0.003176 0.000000 0.000000 0.000000
# 3 -0.003246 -0.003176 0.012547 0.000000 0.000000 0.000000
# 4 0.000000 0.000000 0.000000 0.043809 0.000000 0.000000
# 5 0.000000 0.000000 0.000000 0.000000 0.048077 0.000000
# 6 0.000000 0.000000 0.000000 0.000000 0.000000 0.081893
#
#
# Mechanical properties :
#
#
# Convention : Reuss Voigt Hill
#
# Bulk Modulus (GPa) = 30.93169 42.15962 36.54565
# Shear Modulus (GPa) = 20.39995 25.13903 22.76949
#
# Velocity S-wave (km/s) = 3.25858 3.61733 3.44263
# Velocity P-wave (km/s) = 5.50073 6.27624 5.90124
#
# Compressibility (1/GPa) = 0.03232930
#
# Stress axis : x y z
#
# Youngs Moduli (GPa) = 118.33548 39.31105 79.69945
#
# Poissons Ratio (x) = 0.02482 0.25870
# Poissons Ratio (y) = 0.07473 0.25311
# Poissons Ratio (z) = 0.38412 0.12484
#
# Static dielectric constant tensor:
#      x y z
#    x 3.492900 0.000000 0.000000 
#    y 0.000000 3.863160 0.000000 
#    z 0.000000 0.000000 3.375580 
# 
# 
# High freq. dielectric constant tensor:
#      x y z
#    x 1.776850 0.000000 0.000000 
#    y 0.000000 1.721090 0.000000 
#    z 0.000000 0.000000 1.732890 
# 
# From -- ./inp_files/26705.got.cif
#   From: 2010.03.12/outbox.cif.g09.slc.cpg/sg23_14_cif.got.tgz:26705.got - 2010.04.14 02:50:06.
