data_PCOD8163619
_publ_section_title
;
Structure prediction by ZEFSAII (Michael W. Deem and Ramdas Pophale) SiO2 
 PCOD8163619
Probable space group: I 2 2 2
;
_chemical_formula_sum "Si O2"
_cell_formula_units_Z 48
_cell_length_a 18.880976
_cell_length_b 8.607321
_cell_length_c 13.782550
_cell_angle_alpha 90.000000
_cell_angle_beta 90.000000
_cell_angle_gamma 90.000000
_cell_volume 2239.865893
_symmetry_space_group_name_H-M "I 2 2 2"
_symmetry_group_IT_number 23
_symmetry_cell_setting 'orthorhombic'
loop_
_space_group_symop_operation_xyz
x,y,z
-x,-y,z
x,-y,-z
-x,y,-z
1/2+x,1/2+y,1/2+z
1/2-x,1/2-y,1/2+z
1/2+x,1/2-y,1/2-z
1/2-x,1/2+y,1/2-z
loop_
_atom_site_type_symbol
_atom_site_label
_atom_site_fract_x
_atom_site_fract_y
_atom_site_fract_z
Si Si1 0.226333 0.500000 0.000000
Si Si2 0.093083 0.883994 0.815005
Si Si3 0.947751 0.226529 0.200290
Si Si4 0.716816 0.509333 0.800909
Si Si5 0.331186 0.157009 0.182616
Si Si6 0.646432 0.294629 0.516199
Si Si7 0.229922 0.500000 0.500000
O O1 0.276932 0.556372 0.086783
O O2 0.176242 0.359794 0.035750
O O3 0.163439 0.865560 0.749753
O O4 0.111236 0.896652 0.929772
O O5 0.033423 0.748226 0.801663
O O6 0.062196 0.045989 0.777656
O O7 0.914104 0.335846 0.284779
O O8 0.909543 0.258662 0.097141
O O9 0.696759 0.329180 0.793871
O O10 0.792869 0.532641 0.751050
O O11 0.319958 0.101650 0.071510
O O12 0.715586 0.386579 0.559507
#
# Coordination Sequence:
#
# PCOD8163619 Si02
#       7
#     4   8   8   8   8   8   4
#     4  12  24  34  59  93 128 166 210 270 320 370
#     4  10  20  36  62  90 126 165 209 259 325 392
#     4  10  20  36  61  92 125 165 205 263 324 391
#     4  11  21  38  59  94 127 166 216 269 320 386
#     4  11  22  37  62  92 129 166 215 269 321 386
#     4  12  20  37  59  93 128 165 212 264 328 392
#     4  12  20  36  61  94 123 168 212 260 322 376
#
# _framework density 21.429853999999999
#
# number of rings (size 3 to 8) (size 9 to 14) (size 15 to 20)
#    0.000    1.000    6.667    1.500    0.000    1.333 
#    0.000    1.667    0.000    8.000    0.000    8.167 
#    0.000    0.000    0.000    0.000    0.000    0.000 
#
# Total GULP energy -297335.501100 kJ/mol
# GULP energy per Si atom -12388.979212 kJ/mol
# Density = 2.138108 g / cm^3
# Si number density = 21.429854 Si / 1000 Ang^3
#
#
#
# Elastic Constant Matrix: (Units=GPa)
#
#
# Indices 1 2 3 4 5 6 
#
# 1 112.3575 29.4926 53.6168 0.0000 0.0000 0.0000
# 2 29.4926 58.4259 18.9578 0.0000 0.0000 0.0000
# 3 53.6168 18.9578 110.0244 0.0000 0.0000 0.0000
# 4 0.0000 0.0000 0.0000 31.8946 0.0000 0.0000
# 5 0.0000 0.0000 0.0000 0.0000 28.7337 0.0000
# 6 0.0000 0.0000 0.0000 0.0000 0.0000 26.7029
#
#
#
# Elastic Compliance Matrix: (Units=1/GPa)
#
#
# Indices 1 2 3 4 5 6 
#
# 1 0.012692 -0.004660 -0.005382 0.000000 0.000000 0.000000
# 2 -0.004660 0.019841 -0.001148 0.000000 0.000000 0.000000
# 3 -0.005382 -0.001148 0.011909 0.000000 0.000000 0.000000
# 4 0.000000 0.000000 0.000000 0.031353 0.000000 0.000000
# 5 0.000000 0.000000 0.000000 0.000000 0.034802 0.000000
# 6 0.000000 0.000000 0.000000 0.000000 0.000000 0.037449
#
#
# Mechanical properties :
#
#
# Convention : Reuss Voigt Hill
#
# Bulk Modulus (GPa) = 45.32688 53.88247 49.60467
# Shear Modulus (GPa) = 28.12469 29.38227 28.75348
#
# Velocity S-wave (km/s) = 3.62665 3.70684 3.66696
# Velocity P-wave (km/s) = 6.22366 6.59690 6.41300
#
# Compressibility (1/GPa) = 0.02206197
#
# Stress axis : x y z
#
# Youngs Moduli (GPa) = 78.79190 50.40194 83.96793
#
# Poissons Ratio (x) = 0.23489 0.45190
# Poissons Ratio (y) = 0.36719 0.09636
# Poissons Ratio (z) = 0.42405 0.05784
#
# Static dielectric constant tensor:
#      x y z
#    x 4.400930 0.000000 0.000000 
#    y 0.000000 3.803910 0.000000 
#    z 0.000000 0.000000 3.679210 
# 
# 
# High freq. dielectric constant tensor:
#      x y z
#    x 1.826320 0.000000 0.000000 
#    y 0.000000 1.833060 0.000000 
#    z 0.000000 0.000000 1.823240 
# 
# From -- ./inp_files/10000.got.cif
#   From: 2010.03.12/outbox.cif.g09.slc.cpg/sg23_5_cif.got.tgz:10000.got - 2010.04.14 02:50:06.
