data_PCOD8163612
_publ_section_title
;
Structure prediction by ZEFSAII (Michael W. Deem and Ramdas Pophale) SiO2 
 PCOD8163612
Probable space group: I 2 2 2
;
_chemical_formula_sum "Si O2"
_cell_formula_units_Z 64
_cell_length_a 24.691891
_cell_length_b 13.649099
_cell_length_c 9.061965
_cell_angle_alpha 90.000000
_cell_angle_beta 90.000000
_cell_angle_gamma 90.000000
_cell_volume 3054.082155
_symmetry_space_group_name_H-M "I 2 2 2"
_symmetry_group_IT_number 23
_symmetry_cell_setting 'orthorhombic'
loop_
_space_group_symop_operation_xyz
x,y,z
-x,-y,z
x,-y,-z
-x,y,-z
1/2+x,1/2+y,1/2+z
1/2-x,1/2-y,1/2+z
1/2+x,1/2-y,1/2-z
1/2-x,1/2+y,1/2-z
loop_
_atom_site_type_symbol
_atom_site_label
_atom_site_fract_x
_atom_site_fract_y
_atom_site_fract_z
Si Si1 0.626817 0.192263 0.050003
Si Si2 0.653864 0.594821 0.565913
Si Si3 0.160851 0.908645 0.581368
Si Si4 0.755018 0.350251 0.591043
Si Si5 0.378155 0.187621 0.482963
Si Si6 0.566702 0.111465 0.783279
Si Si7 0.264189 0.853236 0.438910
Si Si8 0.445773 0.884390 0.281872
O O1 0.637786 0.306782 0.015488
O O2 0.682424 0.129243 0.049708
O O3 0.598731 0.187666 0.208958
O O4 0.582871 0.138907 0.948470
O O5 0.621013 0.500000 0.500000
O O6 0.657086 0.588432 0.742686
O O7 0.713151 0.577965 0.489742
O O8 0.626124 0.696228 0.516262
O O9 0.223657 0.921799 0.531129
O O10 0.130099 0.000000 0.500000
O O11 0.738097 0.248482 0.522447
O O12 0.746882 0.349393 0.767740
O O13 0.387493 0.169479 0.309664
O O14 0.327743 0.121237 0.542487
O O15 0.433255 0.137595 0.547033
O O16 0.506094 0.150204 0.755929
O O17 0.566862 0.995604 0.760685
#
# Coordination Sequence:
#
# PCOD8163612 Si02
#       8
#     8   8   8   8   8   8   8   8
#     4  11  22  41  65  92 129 165 207 257 314 375
#     4  11  24  40  64  93 131 168 210 255 308 378
#     4  11  24  40  64  93 131 168 210 255 308 378
#     4  10  20  36  59  88 128 164 207 251 298 363
#     4  11  22  41  65  92 129 165 207 257 314 375
#     4  11  26  36  72  91 121 163 208 266 316 385
#     4  10  20  36  59  88 128 164 207 251 298 363
#     4  11  22  48  58  95 123 159 212 262 326 365
#
# _framework density 20.955559999999998
#
# number of rings (size 3 to 8) (size 9 to 14) (size 15 to 20)
#    0.000    1.250    2.500    4.500   10.500    4.000 
#    0.000    0.000    0.000    4.500    0.000    0.000 
#    0.000    0.000    0.000    0.000    0.000    0.000 
#
# Total GULP energy -396464.819657 kJ/mol
# GULP energy per Si atom -12389.525614 kJ/mol
# Density = 2.090786 g / cm^3
# Si number density = 20.955560 Si / 1000 Ang^3
#
#
#
# Elastic Constant Matrix: (Units=GPa)
#
#
# Indices 1 2 3 4 5 6 
#
# 1 86.0656 19.1600 20.3395 0.0000 0.0000 0.0000
# 2 19.1600 101.2579 24.7561 0.0000 0.0000 0.0000
# 3 20.3395 24.7561 100.0418 0.0000 0.0000 0.0000
# 4 0.0000 0.0000 0.0000 36.1693 0.0000 0.0000
# 5 0.0000 0.0000 0.0000 0.0000 33.6182 0.0000
# 6 0.0000 0.0000 0.0000 0.0000 0.0000 19.4267
#
#
#
# Elastic Compliance Matrix: (Units=1/GPa)
#
#
# Indices 1 2 3 4 5 6 
#
# 1 0.012526 -0.001860 -0.002086 0.000000 0.000000 0.000000
# 2 -0.001860 0.010788 -0.002291 0.000000 0.000000 0.000000
# 3 -0.002086 -0.002291 0.010987 0.000000 0.000000 0.000000
# 4 0.000000 0.000000 0.000000 0.027648 0.000000 0.000000
# 5 0.000000 0.000000 0.000000 0.000000 0.029746 0.000000
# 6 0.000000 0.000000 0.000000 0.000000 0.000000 0.051476
#
#
# Mechanical properties :
#
#
# Convention : Reuss Voigt Hill
#
# Bulk Modulus (GPa) = 45.81820 46.20851 46.01335
# Shear Modulus (GPa) = 30.68967 32.71682 31.70324
#
# Velocity S-wave (km/s) = 3.83105 3.95555 3.89380
# Velocity P-wave (km/s) = 6.44059 6.55442 6.49775
#
# Compressibility (1/GPa) = 0.02182539
#
# Stress axis : x y z
#
# Youngs Moduli (GPa) = 79.83259 92.69596 91.01641
#
# Poissons Ratio (x) = 0.17243 0.18990
# Poissons Ratio (y) = 0.14850 0.20855
# Poissons Ratio (z) = 0.16656 0.21240
#
# Static dielectric constant tensor:
#      x y z
#    x 3.886960 0.000000 0.000000 
#    y 0.000000 3.723720 0.000000 
#    z 0.000000 0.000000 3.819680 
# 
# 
# High freq. dielectric constant tensor:
#      x y z
#    x 1.801920 0.000000 0.000000 
#    y 0.000000 1.822330 0.000000 
#    z 0.000000 0.000000 1.837740 
# 
# From -- ./inp_files/12730.got.cif
#   From: 2010.03.12/outbox.cif.g09.slc.cpg/sg23_7_cif.got.tgz:12730.got - 2010.04.14 02:50:06.
