data_PCOD8163208
_publ_section_title
;
Structure prediction by ZEFSAII (Michael W. Deem and Ramdas Pophale) SiO2 
 PCOD8163208
Probable space group: I 2 2 2
;
_chemical_formula_sum "Si O2"
_cell_formula_units_Z 48
_cell_length_a 8.589436
_cell_length_b 10.661483
_cell_length_c 23.198495
_cell_angle_alpha 90.000000
_cell_angle_beta 90.000000
_cell_angle_gamma 90.000000
_cell_volume 2124.428299
_symmetry_space_group_name_H-M "I 2 2 2"
_symmetry_group_IT_number 23
_symmetry_cell_setting 'orthorhombic'
loop_
_space_group_symop_operation_xyz
x,y,z
-x,-y,z
x,-y,-z
-x,y,-z
1/2+x,1/2+y,1/2+z
1/2-x,1/2-y,1/2+z
1/2+x,1/2-y,1/2-z
1/2-x,1/2+y,1/2-z
loop_
_atom_site_type_symbol
_atom_site_label
_atom_site_fract_x
_atom_site_fract_y
_atom_site_fract_z
Si Si1 0.422455 0.133252 0.689016
Si Si2 0.371035 0.239635 0.220916
Si Si3 0.722525 0.361794 0.525694
Si Si4 0.172566 0.975629 0.814347
Si Si5 0.414054 0.868953 0.131326
Si Si6 0.592686 0.296861 0.414747
O O1 0.519434 0.242645 0.722579
O O2 0.243244 0.138929 0.713686
O O3 0.426659 0.167764 0.621368
O O4 0.500000 0.000000 0.700465
O O5 0.268854 0.112757 0.229017
O O6 0.477458 0.232826 0.162935
O O7 0.743560 0.500000 0.500000
O O8 0.865885 0.321660 0.567163
O O9 0.704186 0.269816 0.470221
O O10 0.569473 0.354258 0.564784
O O11 0.171242 0.901474 0.875057
O O12 0.263122 0.106325 0.827336
O O13 0.000000 0.000000 0.789060
O O14 0.500000 0.000000 0.124700
#
# Coordination Sequence:
#
# PCOD8163208 Si02
#       6
#     8   8   8   8   8   8
#     4  11  25  47  66  93 138 178 230 286 346 419
#     4  10  25  39  65  95 127 178 225 281 350 410
#     4  11  19  34  61  98 143 178 221 282 337 383
#     4  10  16  33  59  94 134 165 212 269 340 405
#     4  10  20  34  57  98 141 172 214 274 349 401
#     4  10  20  33  59  96 130 181 226 264 332 406
#
# _framework density 22.594314000000001
#
# number of rings (size 3 to 8) (size 9 to 14) (size 15 to 20)
#    0.000    1.667    3.333    2.500    2.333    3.000 
#    0.000    1.667    0.000    0.000    0.000    0.000 
#   10.000    0.000    0.000    0.000    0.000    0.000 
#
# Total GULP energy -297416.386819 kJ/mol
# GULP energy per Si atom -12392.349451 kJ/mol
# Density = 2.254289 g / cm^3
# Si number density = 22.594314 Si / 1000 Ang^3
#
#
#
# Elastic Constant Matrix: (Units=GPa)
#
#
# Indices 1 2 3 4 5 6 
#
# 1 115.1194 24.4722 36.9479 0.0000 0.0000 0.0000
# 2 24.4722 56.7591 17.0208 0.0000 0.0000 0.0000
# 3 36.9479 17.0208 111.1434 0.0000 0.0000 0.0000
# 4 0.0000 0.0000 0.0000 20.6427 0.0000 0.0000
# 5 0.0000 0.0000 0.0000 0.0000 51.4411 0.0000
# 6 0.0000 0.0000 0.0000 0.0000 0.0000 32.7106
#
#
#
# Elastic Compliance Matrix: (Units=1/GPa)
#
#
# Indices 1 2 3 4 5 6 
#
# 1 0.010384 -0.003608 -0.002900 0.000000 0.000000 0.000000
# 2 -0.003608 0.019720 -0.001821 0.000000 0.000000 0.000000
# 3 -0.002900 -0.001821 0.010240 0.000000 0.000000 0.000000
# 4 0.000000 0.000000 0.000000 0.048443 0.000000 0.000000
# 5 0.000000 0.000000 0.000000 0.000000 0.019440 0.000000
# 6 0.000000 0.000000 0.000000 0.000000 0.000000 0.030571
#
#
# Mechanical properties :
#
#
# Convention : Reuss Voigt Hill
#
# Bulk Modulus (GPa) = 42.21496 48.87819 45.54657
# Shear Modulus (GPa) = 30.60912 34.59762 32.60337
#
# Velocity S-wave (km/s) = 3.68465 3.91737 3.80279
# Velocity P-wave (km/s) = 6.06850 6.49161 6.28362
#
# Compressibility (1/GPa) = 0.02368828
#
# Stress axis : x y z
#
# Youngs Moduli (GPa) = 96.30021 50.71051 97.65512
#
# Poissons Ratio (x) = 0.18295 0.28316
# Poissons Ratio (y) = 0.34742 0.17779
# Poissons Ratio (z) = 0.27923 0.09232
#
# Static dielectric constant tensor:
#      x y z
#    x 4.797470 0.000000 0.000000 
#    y 0.000000 3.480490 0.000000 
#    z 0.000000 0.000000 4.496630 
# 
# 
# High freq. dielectric constant tensor:
#      x y z
#    x 1.910990 0.000000 0.000000 
#    y 0.000000 1.822880 0.000000 
#    z 0.000000 0.000000 1.901250 
# 
# From -- ./inp_files/27974.got.cif
#   From: 2010.03.12/outbox.cif.g09.slc.cpg/sg23_14_cif.got.tgz:27974.got - 2010.04.14 02:50:06.
