data_PCOD8163172
_publ_section_title
;
Structure prediction by ZEFSAII (Michael W. Deem and Ramdas Pophale) SiO2 
 PCOD8163172
Probable space group: F 2 2 2
;
_chemical_formula_sum "Si O2"
_cell_formula_units_Z 104
_cell_length_a 12.451079
_cell_length_b 17.165308
_cell_length_c 25.647284
_cell_angle_alpha 90.000000
_cell_angle_beta 90.000000
_cell_angle_gamma 90.000000
_cell_volume 5481.506962
_symmetry_space_group_name_H-M "F 2 2 2"
_symmetry_group_IT_number 22
_symmetry_cell_setting 'orthorhombic'
loop_
_space_group_symop_operation_xyz
x,y,z
-x,-y,z
x,-y,-z
-x,y,-z
x,1/2+y,1/2+z
-x,1/2-y,1/2+z
x,1/2-y,1/2-z
-x,1/2+y,1/2-z
1/2+x,y,1/2+z
1/2-x,-y,1/2+z
1/2+x,-y,1/2-z
1/2-x,y,1/2-z
1/2+x,1/2+y,z
1/2-x,1/2-y,z
1/2+x,1/2-y,-z
1/2-x,1/2+y,-z
loop_
_atom_site_type_symbol
_atom_site_label
_atom_site_fract_x
_atom_site_fract_y
_atom_site_fract_z
Si Si1 0.370843 0.159770 0.187988
Si Si2 0.709122 0.076814 0.529605
Si Si3 0.429471 0.922771 0.914133
Si Si4 0.500000 0.196738 0.000000
Si Si5 0.122037 0.339316 0.305721
Si Si6 0.015052 0.409018 0.399663
Si Si7 0.834666 0.305933 0.448647
O O1 0.431417 0.106642 0.145685
O O2 0.245629 0.139041 0.185519
O O3 0.393499 0.250183 0.176401
O O4 0.413344 0.143560 0.246339
O O5 0.809306 0.057591 0.566783
O O6 0.611729 0.115196 0.562185
O O7 0.739426 0.138782 0.485034
O O8 0.668208 0.000000 0.500000
O O9 0.478390 0.855555 0.949489
O O10 0.500000 0.000000 0.918991
O O11 0.401336 0.252220 0.987495
O O12 0.046183 0.393343 0.340163
O O13 0.000000 0.500000 0.407309
O O14 0.908390 0.358714 0.411275
O O15 0.750000 0.250000 0.417121
#
# Coordination Sequence:
#
# PCOD8163172 Si02
#       7
#    16  16  16   8  16  16  16
#     4   9  19  38  64  89 118 149 198 260 320 362
#     4  12  23  40  57  84 130 166 211 255 310 375
#     4  12  25  38  58  87 126 166 197 250 320 388
#     4  12  23  38  57  88 114 160 208 242 309 374
#     4   9  19  38  64  92 113 148 204 263 306 374
#     4  12  23  38  63  90 121 170 215 256 316 376
#     4  12  25  38  59  88 126 165 214 265 303 373
#
# _framework density 18.972884000000001
#
# number of rings (size 3 to 8) (size 9 to 14) (size 15 to 20)
#    0.000    0.923    6.154    3.000    0.000    0.615 
#    0.000    0.000    0.000    0.000    0.000    1.077 
#    0.000    0.000    0.000    0.000    0.000    0.000 
#
# Total GULP energy -322343.441239 kJ/mol
# GULP energy per Si atom -12397.824663 kJ/mol
# Density = 1.892970 g / cm^3
# Si number density = 18.972884 Si / 1000 Ang^3
#
#
#
# Elastic Constant Matrix: (Units=GPa)
#
#
# Indices 1 2 3 4 5 6 
#
# 1 84.5942 42.1387 35.2433 0.0000 0.0000 0.0000
# 2 42.1387 99.0291 45.6500 0.0000 0.0000 0.0000
# 3 35.2433 45.6500 109.6452 0.0000 0.0000 0.0000
# 4 0.0000 0.0000 0.0000 31.5301 0.0000 0.0000
# 5 0.0000 0.0000 0.0000 0.0000 26.9063 0.0000
# 6 0.0000 0.0000 0.0000 0.0000 0.0000 37.3547
#
#
#
# Elastic Compliance Matrix: (Units=1/GPa)
#
#
# Indices 1 2 3 4 5 6 
#
# 1 0.015664 -0.005376 -0.002797 0.000000 0.000000 0.000000
# 2 -0.005376 0.014342 -0.004243 0.000000 0.000000 0.000000
# 3 -0.002797 -0.004243 0.011786 0.000000 0.000000 0.000000
# 4 0.000000 0.000000 0.000000 0.031716 0.000000 0.000000
# 5 0.000000 0.000000 0.000000 0.000000 0.037166 0.000000
# 6 0.000000 0.000000 0.000000 0.000000 0.000000 0.026770
#
#
# Mechanical properties :
#
#
# Convention : Reuss Voigt Hill
#
# Bulk Modulus (GPa) = 58.96207 59.92583 59.44395
# Shear Modulus (GPa) = 29.77451 30.50732 30.14092
#
# Velocity S-wave (km/s) = 3.96576 4.01427 3.99009
# Velocity P-wave (km/s) = 7.21901 7.28967 7.25443
#
# Compressibility (1/GPa) = 0.01696006
#
# Stress axis : x y z
#
# Youngs Moduli (GPa) = 63.83928 69.72706 84.84820
#
# Poissons Ratio (x) = 0.37487 0.23729
# Poissons Ratio (y) = 0.34322 0.36001
# Poissons Ratio (z) = 0.17853 0.29585
#
# Static dielectric constant tensor:
#      x y z
#    x 3.411210 0.000000 0.000000 
#    y 0.000000 3.534050 0.000000 
#    z 0.000000 0.000000 3.420460 
# 
# 
# High freq. dielectric constant tensor:
#      x y z
#    x 1.727710 0.000000 0.000000 
#    y 0.000000 1.745940 0.000000 
#    z 0.000000 0.000000 1.726740 
# 
# From -- ./inp_files/52696.got.cif
#   From: 2010.03.12/outbox.cif.g09.slc.cpg/sg22_27_cif.got.tgz:52696.got - 2010.04.14 02:24:06.
