data_PCOD8163044
_publ_section_title
;
Structure prediction by ZEFSAII (Michael W. Deem and Ramdas Pophale) SiO2 
 PCOD8163044
Probable space group: F 2 2 2
;
_chemical_formula_sum "Si O2"
_cell_formula_units_Z 80
_cell_length_a 11.989846
_cell_length_b 14.972967
_cell_length_c 22.913116
_cell_angle_alpha 90.000000
_cell_angle_beta 90.000000
_cell_angle_gamma 90.000000
_cell_volume 4113.444350
_symmetry_space_group_name_H-M "F 2 2 2"
_symmetry_group_IT_number 22
_symmetry_cell_setting 'orthorhombic'
loop_
_space_group_symop_operation_xyz
x,y,z
-x,-y,z
x,-y,-z
-x,y,-z
x,1/2+y,1/2+z
-x,1/2-y,1/2+z
x,1/2-y,1/2-z
-x,1/2+y,1/2-z
1/2+x,y,1/2+z
1/2-x,-y,1/2+z
1/2+x,-y,1/2-z
1/2-x,y,1/2-z
1/2+x,1/2+y,z
1/2-x,1/2-y,z
1/2+x,1/2-y,-z
1/2-x,1/2+y,-z
loop_
_atom_site_type_symbol
_atom_site_label
_atom_site_fract_x
_atom_site_fract_y
_atom_site_fract_z
Si Si1 0.870631 0.099719 0.435272
Si Si2 0.245669 0.149253 0.829574
Si Si3 0.413221 0.750000 0.750000
Si Si4 0.375291 0.390703 0.430970
Si Si5 0.067531 0.590285 0.251671
Si Si6 0.250000 0.750000 0.851096
O O1 0.775607 0.149381 0.397846
O O2 0.849518 0.129416 0.501437
O O3 0.995273 0.130233 0.416514
O O4 0.853803 0.995228 0.422368
O O5 0.250000 0.250000 0.805328
O O6 0.122077 0.111102 0.815391
O O7 0.334402 0.086318 0.796079
O O8 0.485292 0.666699 0.729578
O O9 0.345426 0.715981 0.806868
O O10 0.293122 0.331833 0.390984
O O11 0.000000 0.500000 0.254398
#
# Coordination Sequence:
#
# PCOD8163044 Si02
#       6
#    16  16   8  16  16   8
#     4   9  20  38  64  85 119 155 206 242 297 351
#     4  11  22  39  63  87 117 157 204 249 293 361
#     4  11  24  41  54  94 126 157 198 257 300 366
#     4   9  20  39  58  92 119 156 197 251 291 361
#     4  11  24  40  61  85 122 160 202 244 306 358
#     4  11  24  34  62  86 128 151 198 248 314 345
#
# _framework density 19.448422999999998
#
# number of rings (size 3 to 8) (size 9 to 14) (size 15 to 20)
#    0.000    1.800    2.000    3.000    9.800    1.600 
#    0.000    0.000    0.000    0.000    0.000    0.000 
#    0.000    0.000    0.000    0.000    0.000    0.000 
#
# Total GULP energy -247894.396681 kJ/mol
# GULP energy per Si atom -12394.719834 kJ/mol
# Density = 1.940416 g / cm^3
# Si number density = 19.448423 Si / 1000 Ang^3
#
#
#
# Elastic Constant Matrix: (Units=GPa)
#
#
# Indices 1 2 3 4 5 6 
#
# 1 96.6613 52.8502 51.1433 0.0000 0.0000 0.0000
# 2 52.8502 104.5315 38.1875 0.0000 0.0000 0.0000
# 3 51.1433 38.1875 115.4236 0.0000 0.0000 0.0000
# 4 0.0000 0.0000 0.0000 23.6237 0.0000 0.0000
# 5 0.0000 0.0000 0.0000 0.0000 59.6309 0.0000
# 6 0.0000 0.0000 0.0000 0.0000 0.0000 41.3526
#
#
#
# Elastic Compliance Matrix: (Units=1/GPa)
#
#
# Indices 1 2 3 4 5 6 
#
# 1 0.016680 -0.006521 -0.005233 0.000000 0.000000 0.000000
# 2 -0.006521 0.013431 -0.001554 0.000000 0.000000 0.000000
# 3 -0.005233 -0.001554 0.011497 0.000000 0.000000 0.000000
# 4 0.000000 0.000000 0.000000 0.042330 0.000000 0.000000
# 5 0.000000 0.000000 0.000000 0.000000 0.016770 0.000000
# 6 0.000000 0.000000 0.000000 0.000000 0.000000 0.024182
#
#
# Mechanical properties :
#
#
# Convention : Reuss Voigt Hill
#
# Bulk Modulus (GPa) = 66.70857 66.77537 66.74197
# Shear Modulus (GPa) = 31.94790 36.55046 34.24918
#
# Velocity S-wave (km/s) = 4.05742 4.33985 4.20101
# Velocity P-wave (km/s) = 7.50499 7.71502 7.61073
#
# Compressibility (1/GPa) = 0.01499058
#
# Stress axis : x y z
#
# Youngs Moduli (GPa) = 59.95249 74.45218 86.98157
#
# Poissons Ratio (x) = 0.48553 0.45519
# Poissons Ratio (y) = 0.39098 0.13518
# Poissons Ratio (z) = 0.31374 0.11571
#
# Static dielectric constant tensor:
#      x y z
#    x 3.707390 0.000000 0.000000 
#    y 0.000000 3.145620 0.000000 
#    z 0.000000 0.000000 3.650780 
# 
# 
# High freq. dielectric constant tensor:
#      x y z
#    x 1.752610 0.000000 0.000000 
#    y 0.000000 1.745470 0.000000 
#    z 0.000000 0.000000 1.763270 
# 
# From -- ./inp_files/23567.got.cif
#   From: 2010.03.12/outbox.cif.g09.slc.cpg/sg22_12_cif.got.tgz:23567.got - 2010.04.14 02:24:06.
