data_PCOD8163886
_publ_section_title
;
Structure prediction by ZEFSAII (Michael W. Deem and Ramdas Pophale) SiO2 
 PCOD8163886
Probable space group: I 2 2 2
;
_chemical_formula_sum "Si O2"
_cell_formula_units_Z 64
_cell_length_a 9.252019
_cell_length_b 11.930521
_cell_length_c 28.626238
_cell_angle_alpha 90.000000
_cell_angle_beta 90.000000
_cell_angle_gamma 90.000000
_cell_volume 3159.804427
_symmetry_space_group_name_H-M "I 2 2 2"
_symmetry_group_IT_number 23
_symmetry_cell_setting 'orthorhombic'
loop_
_space_group_symop_operation_xyz
x,y,z
-x,-y,z
x,-y,-z
-x,y,-z
1/2+x,1/2+y,1/2+z
1/2-x,1/2-y,1/2+z
1/2+x,1/2-y,1/2-z
1/2-x,1/2+y,1/2-z
loop_
_atom_site_type_symbol
_atom_site_label
_atom_site_fract_x
_atom_site_fract_y
_atom_site_fract_z
Si Si1 0.644884 0.558859 0.226398
Si Si2 0.064294 0.215878 0.810417
Si Si3 0.889490 0.593374 0.744174
Si Si4 0.830604 0.507847 0.948623
Si Si5 0.819015 0.736534 0.071728
Si Si6 0.829802 0.630222 0.490928
Si Si7 0.242593 0.262488 0.670606
Si Si8 0.842374 0.749649 0.912679
O O1 0.500000 0.500000 0.207661
O O2 0.632945 0.629960 0.274048
O O3 0.737672 0.452579 0.239777
O O4 0.720524 0.632598 0.185860
O O5 0.053030 0.338935 0.788428
O O6 0.161428 0.219542 0.857586
O O7 0.898998 0.184637 0.818864
O O8 0.878541 0.668936 0.697953
O O9 0.000000 0.500000 0.729128
O O10 0.783264 0.395407 0.922130
O O11 0.786736 0.621818 0.921401
O O12 0.000000 0.500000 0.954820
O O13 0.758078 0.500000 0.000000
O O14 0.728539 0.784401 0.115414
O O15 0.990920 0.761595 0.071056
O O16 0.759090 0.790156 0.025093
O O17 0.793212 0.500000 0.500000
O O18 0.768173 0.665838 0.439689
O O19 0.000000 0.652047 0.500000
#
# Coordination Sequence:
#
# PCOD8163886 Si02
#       8
#     8   8   8   8   8   8   8   8
#     4  11  22  40  61  85 130 168 205 260 320 376
#     4  10  22  38  62  94 122 158 219 263 305 387
#     4  11  22  39  63  87 126 171 206 254 323 378
#     4   9  16  31  61  91 119 144 189 257 315 362
#     4  10  21  40  66  93 120 157 214 259 309 380
#     4  11  25  46  61  86 129 169 204 258 318 383
#     4  10  22  39  60  96 121 160 216 264 312 379
#     4  10  21  39  67  94 117 160 213 260 316 371
#
# _framework density 20.254418999999999
#
# number of rings (size 3 to 8) (size 9 to 14) (size 15 to 20)
#    0.000    1.750    3.750    0.375    1.750    2.500 
#    6.750    1.250    0.000    0.000    0.000    0.000 
#    0.000    0.000    0.000    0.000    0.000    0.000 
#
# Total GULP energy -396538.056508 kJ/mol
# GULP energy per Si atom -12391.814266 kJ/mol
# Density = 2.020832 g / cm^3
# Si number density = 20.254419 Si / 1000 Ang^3
#
#
#
# Elastic Constant Matrix: (Units=GPa)
#
#
# Indices 1 2 3 4 5 6 
#
# 1 62.1406 15.9189 24.3188 0.0000 0.0000 0.0000
# 2 15.9189 82.5401 17.4343 0.0000 0.0000 0.0000
# 3 24.3188 17.4343 107.6678 0.0000 0.0000 0.0000
# 4 0.0000 0.0000 0.0000 23.4534 0.0000 0.0000
# 5 0.0000 0.0000 0.0000 0.0000 23.1145 0.0000
# 6 0.0000 0.0000 0.0000 0.0000 0.0000 30.9964
#
#
#
# Elastic Compliance Matrix: (Units=1/GPa)
#
#
# Indices 1 2 3 4 5 6 
#
# 1 0.018233 -0.002740 -0.003674 0.000000 0.000000 0.000000
# 2 -0.002740 0.012956 -0.001479 0.000000 0.000000 0.000000
# 3 -0.003674 -0.001479 0.010357 0.000000 0.000000 0.000000
# 4 0.000000 0.000000 0.000000 0.042638 0.000000 0.000000
# 5 0.000000 0.000000 0.000000 0.000000 0.043263 0.000000
# 6 0.000000 0.000000 0.000000 0.000000 0.000000 0.032262
#
#
# Mechanical properties :
#
#
# Convention : Reuss Voigt Hill
#
# Bulk Modulus (GPa) = 38.82202 40.85473 39.83838
# Shear Modulus (GPa) = 27.16180 28.49129 27.82654
#
# Velocity S-wave (km/s) = 3.66598 3.75463 3.71057
# Velocity P-wave (km/s) = 6.09328 6.24587 6.17004
#
# Compressibility (1/GPa) = 0.02575857
#
# Stress axis : x y z
#
# Youngs Moduli (GPa) = 54.84701 77.18302 96.55057
#
# Poissons Ratio (x) = 0.21150 0.35477
# Poissons Ratio (y) = 0.15029 0.14280
# Poissons Ratio (z) = 0.20153 0.11416
#
# Static dielectric constant tensor:
#      x y z
#    x 3.279760 0.000000 0.000000 
#    y 0.000000 3.838450 0.000000 
#    z 0.000000 0.000000 3.801290 
# 
# 
# High freq. dielectric constant tensor:
#      x y z
#    x 1.771350 0.000000 0.000000 
#    y 0.000000 1.797050 0.000000 
#    z 0.000000 0.000000 1.792610 
# 
# From -- ./inp_files/14977.got.cif
#   From: 2010.03.12/outbox.cif.g09.slc.cpg/sg23_8_cif.got.tgz:14977.got - 2010.04.14 02:50:06.
