data_PCOD8163188
_publ_section_title
;
Structure prediction by ZEFSAII (Michael W. Deem and Ramdas Pophale) SiO2 
 PCOD8163188
Probable space group: I 2 2 2
;
_chemical_formula_sum "Si O2"
_cell_formula_units_Z 44
_cell_length_a 7.640389
_cell_length_b 16.530309
_cell_length_c 16.058126
_cell_angle_alpha 90.000000
_cell_angle_beta 90.000000
_cell_angle_gamma 90.000000
_cell_volume 2028.109054
_symmetry_space_group_name_H-M "I 2 2 2"
_symmetry_group_IT_number 23
_symmetry_cell_setting 'orthorhombic'
loop_
_space_group_symop_operation_xyz
x,y,z
-x,-y,z
x,-y,-z
-x,y,-z
1/2+x,1/2+y,1/2+z
1/2-x,1/2-y,1/2+z
1/2+x,1/2-y,1/2-z
1/2-x,1/2+y,1/2-z
loop_
_atom_site_type_symbol
_atom_site_label
_atom_site_fract_x
_atom_site_fract_y
_atom_site_fract_z
Si Si1 0.500000 0.751691 0.500000
Si Si2 0.500000 0.000000 0.000000
Si Si3 0.000000 0.500000 0.767903
Si Si4 0.851144 0.211187 0.568772
Si Si5 0.861454 0.068801 0.695221
Si Si6 0.000000 0.000000 0.000000
Si Si7 0.057286 0.622213 0.628445
Si Si8 0.845075 0.874241 0.118747
O O1 0.334059 0.806925 0.523879
O O2 0.542602 0.699719 0.582850
O O3 0.380417 0.941771 0.057998
O O4 0.836055 0.534690 0.819684
O O5 0.081357 0.574846 0.715129
O O6 0.898090 0.140156 0.631077
O O7 0.000000 0.219844 0.500000
O O8 0.830375 0.295963 0.620291
O O9 0.897843 0.103403 0.787217
O O10 0.000000 0.000000 0.673885
O O11 0.128216 0.950137 0.940727
O O12 0.857532 0.648884 0.614942
#
# Coordination Sequence:
#
# PCOD8163188 Si02
#       8
#     4   2   4   8   8   2   8   8
#     4  11  24  41  68 107 139 180 230 294 363 428
#     4  10  14  28  64  90 132 170 210 276 346 410
#     4   9  24  43  68 107 134 183 232 292 363 424
#     4  12  26  46  68 103 145 192 241 292 353 423
#     4  11  26  47  70 100 144 192 241 293 351 424
#     4  10  18  32  68 110 146 170 226 282 356 432
#     4  10  19  37  65 101 140 177 224 286 363 422
#     4  10  20  37  66 106 141 179 221 288 364 423
#
# _framework density 21.695084999999999
#
# number of rings (size 3 to 8) (size 9 to 14) (size 15 to 20)
#    0.000    1.455    3.636    0.545    2.545    7.636 
#    0.000    0.000    0.000    0.000    0.000    0.000 
#    0.000    0.000    0.000    0.000    0.000    0.000 
#
# Total GULP energy -272738.309868 kJ/mol
# GULP energy per Si atom -12397.195903 kJ/mol
# Density = 2.164571 g / cm^3
# Si number density = 21.695085 Si / 1000 Ang^3
#
#
#
# Elastic Constant Matrix: (Units=GPa)
#
#
# Indices 1 2 3 4 5 6 
#
# 1 80.2817 28.1933 18.5520 0.0000 0.0000 0.0000
# 2 28.1933 118.0882 62.3062 0.0000 0.0000 0.0000
# 3 18.5520 62.3062 73.3185 0.0000 0.0000 0.0000
# 4 0.0000 0.0000 0.0000 47.6605 0.0000 0.0000
# 5 0.0000 0.0000 0.0000 0.0000 19.2114 0.0000
# 6 0.0000 0.0000 0.0000 0.0000 0.0000 18.8270
#
#
#
# Elastic Compliance Matrix: (Units=1/GPa)
#
#
# Indices 1 2 3 4 5 6 
#
# 1 0.013658 -0.002606 -0.001242 0.000000 0.000000 0.000000
# 2 -0.002606 0.015849 -0.012809 0.000000 0.000000 0.000000
# 3 -0.001242 -0.012809 0.024838 0.000000 0.000000 0.000000
# 4 0.000000 0.000000 0.000000 0.020982 0.000000 0.000000
# 5 0.000000 0.000000 0.000000 0.000000 0.052052 0.000000
# 6 0.000000 0.000000 0.000000 0.000000 0.000000 0.053115
#
#
# Mechanical properties :
#
#
# Convention : Reuss Voigt Hill
#
# Bulk Modulus (GPa) = 47.54514 54.42129 50.98321
# Shear Modulus (GPa) = 22.64310 27.98223 25.31266
#
# Velocity S-wave (km/s) = 3.23414 3.59527 3.41947
# Velocity P-wave (km/s) = 5.99240 6.50951 6.25630
#
# Compressibility (1/GPa) = 0.02103264
#
# Stress axis : x y z
#
# Youngs Moduli (GPa) = 73.21644 63.09692 40.26046
#
# Poissons Ratio (x) = 0.16442 0.04999
# Poissons Ratio (y) = 0.19078 0.51569
# Poissons Ratio (z) = 0.09090 0.80820
#
# Static dielectric constant tensor:
#      x y z
#    x 3.678200 0.000000 0.000000 
#    y 0.000000 3.752520 0.000000 
#    z 0.000000 0.000000 3.720890 
# 
# 
# High freq. dielectric constant tensor:
#      x y z
#    x 1.863290 0.000000 0.000000 
#    y 0.000000 1.835630 0.000000 
#    z 0.000000 0.000000 1.828250 
# 
# From -- ./inp_files/23719.got.cif
#   From: 2010.03.12/outbox.cif.g09.slc.cpg/sg23_12_cif.got.tgz:23719.got - 2010.04.14 02:50:06.
