data_PCOD8163243
_publ_section_title
;
Structure prediction by ZEFSAII (Michael W. Deem and Ramdas Pophale) SiO2 
 PCOD8163243
Probable space group: I 2 2 2
;
_chemical_formula_sum "Si O2"
_cell_formula_units_Z 64
_cell_length_a 18.210076
_cell_length_b 23.174395
_cell_length_c 8.694090
_cell_angle_alpha 90.000000
_cell_angle_beta 90.000000
_cell_angle_gamma 90.000000
_cell_volume 3668.971135
_symmetry_space_group_name_H-M "I 2 2 2"
_symmetry_group_IT_number 23
_symmetry_cell_setting 'orthorhombic'
loop_
_space_group_symop_operation_xyz
x,y,z
-x,-y,z
x,-y,-z
-x,y,-z
1/2+x,1/2+y,1/2+z
1/2-x,1/2-y,1/2+z
1/2+x,1/2-y,1/2-z
1/2-x,1/2+y,1/2-z
loop_
_atom_site_type_symbol
_atom_site_label
_atom_site_fract_x
_atom_site_fract_y
_atom_site_fract_z
Si Si1 0.428562 0.583284 0.089039
Si Si2 0.559510 0.298183 0.229827
Si Si3 0.150417 0.120166 0.699835
Si Si4 0.684101 0.737134 0.566986
Si Si5 0.093391 0.245396 0.789789
Si Si6 0.280562 0.173131 0.824812
Si Si7 0.419174 0.804868 0.010388
Si Si8 0.585475 0.508872 0.333596
O O1 0.462814 0.637376 0.180765
O O2 0.389775 0.536023 0.199936
O O3 0.500000 0.556572 0.000000
O O4 0.362356 0.606062 0.980011
O O5 0.630497 0.305152 0.337788
O O6 0.492731 0.266845 0.318615
O O7 0.576269 0.259722 0.080178
O O8 0.129319 0.184887 0.742212
O O9 0.236194 0.117343 0.758219
O O10 0.102315 0.074259 0.791311
O O11 0.632242 0.769779 0.442753
O O12 0.720474 0.782111 0.683076
O O13 0.745648 0.700632 0.479033
O O14 0.108541 0.294773 0.663098
O O15 0.363433 0.157317 0.882872
O O16 0.500000 0.834484 0.000000
O O17 0.500000 0.500000 0.352676
O O18 0.623967 0.500000 0.500000
#
# Coordination Sequence:
#
# PCOD8163243 Si02
#       8
#     8   8   8   8   8   8   8   8
#     4  12  20  35  54  68  98 141 189 219 263 307
#     4  10  18  30  50  75  97 135 181 216 253 306
#     4  11  21  34  50  69  99 141 176 224 259 314
#     4  10  21  29  47  66 103 133 168 219 257 308
#     4  10  17  31  49  73  99 128 180 212 262 303
#     4  10  21  34  46  71 100 133 178 213 272 317
#     4   9  17  33  53  72  98 132 168 215 259 321
#     4  11  24  36  50  71  99 135 186 233 262 289
#
# _framework density 17.443581999999999
#
# number of rings (size 3 to 8) (size 9 to 14) (size 15 to 20)
#    0.000    1.625    3.750    2.625    5.250    0.000 
#    0.000    0.000    0.000    0.000    0.000    0.000 
#    0.000    0.500    0.000    2.625    0.000    0.000 
#
# Total GULP energy -396475.866679 kJ/mol
# GULP energy per Si atom -12389.870834 kJ/mol
# Density = 1.740388 g / cm^3
# Si number density = 17.443582 Si / 1000 Ang^3
#
#
#
# Elastic Constant Matrix: (Units=GPa)
#
#
# Indices 1 2 3 4 5 6 
#
# 1 93.1195 23.1946 36.8263 0.0000 0.0000 0.0000
# 2 23.1946 34.0120 16.9355 0.0000 0.0000 0.0000
# 3 36.8263 16.9355 96.1344 0.0000 0.0000 0.0000
# 4 0.0000 0.0000 0.0000 13.2631 0.0000 0.0000
# 5 0.0000 0.0000 0.0000 0.0000 38.0418 0.0000
# 6 0.0000 0.0000 0.0000 0.0000 0.0000 20.8174
#
#
#
# Elastic Compliance Matrix: (Units=1/GPa)
#
#
# Indices 1 2 3 4 5 6 
#
# 1 0.014282 -0.007690 -0.004116 0.000000 0.000000 0.000000
# 2 -0.007690 0.036369 -0.003461 0.000000 0.000000 0.000000
# 3 -0.004116 -0.003461 0.012589 0.000000 0.000000 0.000000
# 4 0.000000 0.000000 0.000000 0.075397 0.000000 0.000000
# 5 0.000000 0.000000 0.000000 0.000000 0.026287 0.000000
# 6 0.000000 0.000000 0.000000 0.000000 0.000000 0.048037
#
#
# Mechanical properties :
#
#
# Convention : Reuss Voigt Hill
#
# Bulk Modulus (GPa) = 30.57655 41.90874 36.24265
# Shear Modulus (GPa) = 19.65422 24.17840 21.91631
#
# Velocity S-wave (km/s) = 3.36032 3.72706 3.54843
# Velocity P-wave (km/s) = 5.71162 6.52678 6.13276
#
# Compressibility (1/GPa) = 0.03270480
#
# Stress axis : x y z
#
# Youngs Moduli (GPa) = 70.01663 27.49582 79.43630
#
# Poissons Ratio (x) = 0.21145 0.32699
# Poissons Ratio (y) = 0.53844 0.27494
# Poissons Ratio (z) = 0.28822 0.09517
#
# Static dielectric constant tensor:
#      x y z
#    x 3.574180 0.000000 0.000000 
#    y 0.000000 2.794560 0.000000 
#    z 0.000000 0.000000 3.725870 
# 
# 
# High freq. dielectric constant tensor:
#      x y z
#    x 1.665030 0.000000 0.000000 
#    y 0.000000 1.606000 0.000000 
#    z 0.000000 0.000000 1.697650 
# 
# From -- ./inp_files/11484.got.cif
#   From: 2010.03.12/outbox.cif.g09.slc.cpg/sg23_6_cif.got.tgz:11484.got - 2010.04.14 02:50:06.
