data_PCOD8163195
_publ_section_title
;
Structure prediction by ZEFSAII (Michael W. Deem and Ramdas Pophale) SiO2 
 PCOD8163195
Probable space group: I 2 2 2
;
_chemical_formula_sum "Si O2"
_cell_formula_units_Z 56
_cell_length_a 18.842232
_cell_length_b 19.202202
_cell_length_c 8.797559
_cell_angle_alpha 90.000000
_cell_angle_beta 90.000000
_cell_angle_gamma 90.000000
_cell_volume 3183.065452
_symmetry_space_group_name_H-M "I 2 2 2"
_symmetry_group_IT_number 23
_symmetry_cell_setting 'orthorhombic'
loop_
_space_group_symop_operation_xyz
x,y,z
-x,-y,z
x,-y,-z
-x,y,-z
1/2+x,1/2+y,1/2+z
1/2-x,1/2-y,1/2+z
1/2+x,1/2-y,1/2-z
1/2-x,1/2+y,1/2-z
loop_
_atom_site_type_symbol
_atom_site_label
_atom_site_fract_x
_atom_site_fract_y
_atom_site_fract_z
Si Si1 0.985305 0.717878 0.677268
Si Si2 0.275425 0.855149 0.166072
Si Si3 0.151797 0.242097 0.822006
Si Si4 0.748864 0.353618 0.314084
Si Si5 0.198340 0.491840 0.667065
Si Si6 0.626480 0.254824 0.330938
Si Si7 0.038367 0.562847 0.336676
O O1 0.913597 0.761022 0.706052
O O2 0.972995 0.638579 0.739483
O O3 0.000000 0.718317 0.500000
O O4 0.047275 0.757529 0.766771
O O5 0.195311 0.829887 0.202973
O O6 0.333362 0.806721 0.244389
O O7 0.292613 0.931402 0.239458
O O8 0.283867 0.851073 0.983422
O O9 0.204605 0.305470 0.793049
O O10 0.122269 0.256533 0.989597
O O11 0.753147 0.433064 0.250503
O O12 0.667563 0.327998 0.305669
O O13 0.230640 0.500000 0.500000
O O14 0.119909 0.459347 0.654819
O O15 0.000000 0.500000 0.242621
O O16 0.000000 0.566590 0.500000
#
# Coordination Sequence:
#
# PCOD8163195 Si02
#       7
#     8   8   8   8   8   8   8
#     4  11  21  32  53  74  99 136 177 211 255 305
#     4   9  19  32  53  76  98 135 177 209 251 303
#     4  10  19  34  49  73 106 134 168 214 256 305
#     4   9  18  33  52  73  99 135 175 211 247 305
#     4  10  16  29  51  75 102 130 173 214 244 291
#     4  10  20  32  49  74 105 135 167 210 263 301
#     4  10  17  25  44  76 102 126 158 204 245 294
#
# _framework density 17.593104
#
# number of rings (size 3 to 8) (size 9 to 14) (size 15 to 20)
#    0.000    2.143    2.857    2.143    4.000    1.143 
#    0.000    0.714    0.000    1.714    0.000    6.000 
#    0.000    0.000    0.000    0.000    0.000    0.000 
#
# Total GULP energy -346894.243528 kJ/mol
# GULP energy per Si atom -12389.080126 kJ/mol
# Density = 1.755306 g / cm^3
# Si number density = 17.593104 Si / 1000 Ang^3
#
#
#
# Elastic Constant Matrix: (Units=GPa)
#
#
# Indices 1 2 3 4 5 6 
#
# 1 93.7448 44.6824 15.4410 0.0000 0.0000 0.0000
# 2 44.6824 106.3601 10.0254 0.0000 0.0000 0.0000
# 3 15.4410 10.0254 34.2043 0.0000 0.0000 0.0000
# 4 0.0000 0.0000 0.0000 16.4694 0.0000 0.0000
# 5 0.0000 0.0000 0.0000 0.0000 28.7918 0.0000
# 6 0.0000 0.0000 0.0000 0.0000 0.0000 28.7331
#
#
#
# Elastic Compliance Matrix: (Units=1/GPa)
#
#
# Indices 1 2 3 4 5 6 
#
# 1 0.014048 -0.005455 -0.004743 0.000000 0.000000 0.000000
# 2 -0.005455 0.011787 -0.000992 0.000000 0.000000 0.000000
# 3 -0.004743 -0.000992 0.031668 0.000000 0.000000 0.000000
# 4 0.000000 0.000000 0.000000 0.060719 0.000000 0.000000
# 5 0.000000 0.000000 0.000000 0.000000 0.034732 0.000000
# 6 0.000000 0.000000 0.000000 0.000000 0.000000 0.034803
#
#
# Mechanical properties :
#
#
# Convention : Reuss Voigt Hill
#
# Bulk Modulus (GPa) = 28.47119 41.62297 35.04708
# Shear Modulus (GPa) = 22.53815 25.74288 24.14051
#
# Velocity S-wave (km/s) = 3.58310 3.82938 3.70828
# Velocity P-wave (km/s) = 5.77377 6.57740 6.18864
#
# Compressibility (1/GPa) = 0.03512323
#
# Stress axis : x y z
#
# Youngs Moduli (GPa) = 71.18216 84.83832 31.57742
#
# Poissons Ratio (x) = 0.46277 0.14978
# Poissons Ratio (y) = 0.38828 0.03134
# Poissons Ratio (z) = 0.33763 0.08419
#
# Static dielectric constant tensor:
#      x y z
#    x 3.315250 0.000000 0.000000 
#    y 0.000000 3.756720 0.000000 
#    z 0.000000 0.000000 3.043780 
# 
# 
# High freq. dielectric constant tensor:
#      x y z
#    x 1.676900 0.000000 0.000000 
#    y 0.000000 1.676340 0.000000 
#    z 0.000000 0.000000 1.651330 
# 
# From -- ./inp_files/11346.got.cif
#   From: 2010.03.12/outbox.cif.g09.slc.cpg/sg23_6_cif.got.tgz:11346.got - 2010.04.14 02:50:06.
