data_PCOD8163810
_publ_section_title
;
Structure prediction by ZEFSAII (Michael W. Deem and Ramdas Pophale) SiO2 
 PCOD8163810
Probable space group: I 2 2 2
;
_chemical_formula_sum "Si O2"
_cell_formula_units_Z 48
_cell_length_a 30.875398
_cell_length_b 8.141461
_cell_length_c 8.937037
_cell_angle_alpha 90.000000
_cell_angle_beta 90.000000
_cell_angle_gamma 90.000000
_cell_volume 2246.510575
_symmetry_space_group_name_H-M "I 2 2 2"
_symmetry_group_IT_number 23
_symmetry_cell_setting 'orthorhombic'
loop_
_space_group_symop_operation_xyz
x,y,z
-x,-y,z
x,-y,-z
-x,y,-z
1/2+x,1/2+y,1/2+z
1/2-x,1/2-y,1/2+z
1/2+x,1/2-y,1/2-z
1/2-x,1/2+y,1/2-z
loop_
_atom_site_type_symbol
_atom_site_label
_atom_site_fract_x
_atom_site_fract_y
_atom_site_fract_z
Si Si1 0.337066 0.559394 0.169063
Si Si2 0.809456 0.580177 0.841467
Si Si3 0.608887 0.733840 0.208632
Si Si4 0.449748 0.025603 0.328797
Si Si5 0.740091 0.577313 0.341475
Si Si6 0.887812 0.351783 0.599497
O O1 0.374271 0.447196 0.248899
O O2 0.293653 0.541696 0.260314
O O3 0.350529 0.750002 0.184780
O O4 0.327834 0.500000 0.000000
O O5 0.853907 0.629589 0.755082
O O6 0.784918 0.436421 0.750032
O O7 0.777560 0.737452 0.854955
O O8 0.821970 0.500000 0.000000
O O9 0.565195 0.786507 0.295440
O O10 0.595668 0.730008 0.032427
O O11 0.425121 0.903043 0.215168
O O12 0.500000 0.000000 0.298067
O O13 0.437296 0.000000 0.500000
O O14 0.750137 0.500000 0.500000
O O15 0.868649 0.500000 0.500000
#
# Coordination Sequence:
#
# PCOD8163810 Si02
#       6
#     8   8   8   8   8   8
#     4   9  19  38  58  83 117 151 191 238 288 341
#     4  11  23  40  58  82 116 154 196 241 291 345
#     4   9  20  37  59  84 111 147 190 236 291 344
#     4  10  21  37  57  83 114 149 190 234 284 346
#     4  11  24  37  56  84 115 154 197 243 289 341
#     4   9  19  34  59  85 109 147 187 231 282 337
#
# _framework density 21.36647
#
# number of rings (size 3 to 8) (size 9 to 14) (size 15 to 20)
#    0.000    2.167    0.000    2.000    0.000   15.667 
#    0.000    0.833    0.000    7.000    0.000    0.000 
#    0.000    0.000    0.000    0.000    0.000    0.000 
#
# Total GULP energy -297314.916226 kJ/mol
# GULP energy per Si atom -12388.121509 kJ/mol
# Density = 2.131784 g / cm^3
# Si number density = 21.366470 Si / 1000 Ang^3
#
#
#
# Elastic Constant Matrix: (Units=GPa)
#
#
# Indices 1 2 3 4 5 6 
#
# 1 91.5700 48.8917 55.2560 0.0000 0.0000 0.0000
# 2 48.8917 74.5505 26.1709 0.0000 0.0000 0.0000
# 3 55.2560 26.1709 132.9521 0.0000 0.0000 0.0000
# 4 0.0000 0.0000 0.0000 26.6288 0.0000 0.0000
# 5 0.0000 0.0000 0.0000 0.0000 32.6242 0.0000
# 6 0.0000 0.0000 0.0000 0.0000 0.0000 26.5882
#
#
#
# Elastic Compliance Matrix: (Units=1/GPa)
#
#
# Indices 1 2 3 4 5 6 
#
# 1 0.020929 -0.011464 -0.006441 0.000000 0.000000 0.000000
# 2 -0.011464 0.020689 0.000692 0.000000 0.000000 0.000000
# 3 -0.006441 0.000692 0.010062 0.000000 0.000000 0.000000
# 4 0.000000 0.000000 0.000000 0.037553 0.000000 0.000000
# 5 0.000000 0.000000 0.000000 0.000000 0.030652 0.000000
# 6 0.000000 0.000000 0.000000 0.000000 0.000000 0.037611
#
#
# Mechanical properties :
#
#
# Convention : Reuss Voigt Hill
#
# Bulk Modulus (GPa) = 57.96057 62.18996 60.07527
# Shear Modulus (GPa) = 25.29412 28.41849 26.85631
#
# Velocity S-wave (km/s) = 3.44441 3.65094 3.54918
# Velocity P-wave (km/s) = 6.55777 6.85143 6.70621
#
# Compressibility (1/GPa) = 0.01725311
#
# Stress axis : x y z
#
# Youngs Moduli (GPa) = 47.78158 48.33441 99.37992
#
# Poissons Ratio (x) = 0.55411 0.64015
# Poissons Ratio (y) = 0.54777 -0.06877
# Poissons Ratio (z) = 0.30778 -0.03345
#
# Static dielectric constant tensor:
#      x y z
#    x 3.636050 0.000000 0.000000 
#    y 0.000000 4.209620 0.000000 
#    z 0.000000 0.000000 4.131010 
# 
# 
# High freq. dielectric constant tensor:
#      x y z
#    x 1.815480 0.000000 0.000000 
#    y 0.000000 1.839270 0.000000 
#    z 0.000000 0.000000 1.851590 
# 
# From -- ./inp_files/13347.got.cif
#   From: 2010.03.12/outbox.cif.g09.slc.cpg/sg23_7_cif.got.tgz:13347.got - 2010.04.14 02:50:06.
