data_PCOD8163816
_publ_section_title
;
Structure prediction by ZEFSAII (Michael W. Deem and Ramdas Pophale) SiO2 
 PCOD8163816
Probable space group: I 2 2 2
;
_chemical_formula_sum "Si O2"
_cell_formula_units_Z 64
_cell_length_a 9.281627
_cell_length_b 14.085569
_cell_length_c 23.620227
_cell_angle_alpha 90.000000
_cell_angle_beta 90.000000
_cell_angle_gamma 90.000000
_cell_volume 3088.037559
_symmetry_space_group_name_H-M "I 2 2 2"
_symmetry_group_IT_number 23
_symmetry_cell_setting 'orthorhombic'
loop_
_space_group_symop_operation_xyz
x,y,z
-x,-y,z
x,-y,-z
-x,y,-z
1/2+x,1/2+y,1/2+z
1/2-x,1/2-y,1/2+z
1/2+x,1/2-y,1/2-z
1/2-x,1/2+y,1/2-z
loop_
_atom_site_type_symbol
_atom_site_label
_atom_site_fract_x
_atom_site_fract_y
_atom_site_fract_z
Si Si1 0.165656 0.275095 0.435416
Si Si2 0.334343 0.775095 0.935417
Si Si3 0.831573 0.391633 0.112006
Si Si4 0.837174 0.887149 0.155956
Si Si5 0.162826 0.887150 0.155956
Si Si6 0.340481 0.886873 0.261354
Si Si7 0.840481 0.386872 0.238647
Si Si8 0.168426 0.391634 0.112005
O O1 0.179072 0.309407 0.500000
O O2 0.238394 0.171747 0.430315
O O3 0.246564 0.351835 0.397228
O O4 0.999999 0.268588 0.416437
O O5 0.253434 0.851834 0.897228
O O6 0.261605 0.671746 0.930315
O O7 0.800170 0.352139 0.175472
O O8 0.780698 0.500000 0.104955
O O9 1.000000 0.382424 0.097616
O O10 0.772282 0.847338 0.215159
O O11 0.000000 0.848875 0.151089
O O12 0.831607 1.000000 0.155565
O O13 0.227717 0.847339 0.215159
O O14 0.499999 0.851037 0.244557
O O15 0.300170 0.852140 0.324529
O O16 0.339681 0.000000 0.262681
#
# Coordination Sequence:
#
# PCOD8163816 Si02
#       8
#     8   8   8   8   8   8   8   8
#     4  11  25  41  56  78 109 148 193 234 274 326
#     4  11  25  41  56  78 109 148 193 234 274 326
#     4   9  19  37  61  87 114 146 183 225 275 327
#     4  10  21  37  59  86 113 143 181 227 279 331
#     4  10  21  37  59  86 113 143 181 227 279 331
#     4   8  15  31  56  85 115 144 176 217 269 331
#     4   8  15  31  56  85 115 144 176 217 269 331
#     4   9  19  37  61  87 114 146 183 225 275 327
#
# _framework density 20.725135000000002
#
# number of rings (size 3 to 8) (size 9 to 14) (size 15 to 20)
#    0.000    2.500    0.000    3.000    0.000    7.000 
#    0.000    7.500    0.000    0.000    0.000    0.000 
#    0.000    0.000    0.000    0.000    0.000    0.000 
#
# Total GULP energy -396832.506512 kJ/mol
# GULP energy per Si atom -12401.015829 kJ/mol
# Density = 2.067796 g / cm^3
# Si number density = 20.725135 Si / 1000 Ang^3
#
#
#
# Elastic Constant Matrix: (Units=GPa)
#
#
# Indices 1 2 3 4 5 6 
#
# 1 125.3013 14.6337 51.5240 0.0000 0.0000 0.0000
# 2 14.6337 13.9617 -0.7777 0.0000 0.0000 0.0000
# 3 51.5240 -0.7777 82.7554 0.0000 0.0000 0.0000
# 4 0.0000 0.0000 0.0000 33.0205 0.0000 0.0000
# 5 0.0000 0.0000 0.0000 0.0000 34.9297 0.0000
# 6 0.0000 0.0000 0.0000 0.0000 0.0000 29.9237
#
#
#
# Elastic Compliance Matrix: (Units=1/GPa)
#
#
# Indices 1 2 3 4 5 6 
#
# 1 0.013013 -0.014099 -0.008235 0.000000 0.000000 0.000000
# 2 -0.014099 0.086936 0.009595 0.000000 0.000000 0.000000
# 3 -0.008235 0.009595 0.017301 0.000000 0.000000 0.000000
# 4 0.000000 0.000000 0.000000 0.030284 0.000000 0.000000
# 5 0.000000 0.000000 0.000000 0.000000 0.028629 0.000000
# 6 0.000000 0.000000 0.000000 0.000000 0.000000 0.033418
#
#
# Mechanical properties :
#
#
# Convention : Reuss Voigt Hill
#
# Bulk Modulus (GPa) = 10.89639 39.19762 25.04700
# Shear Modulus (GPa) = 18.82176 30.01734 24.41955
#
# Velocity S-wave (km/s) = 3.01684 3.80985 3.43630
# Velocity P-wave (km/s) = 4.17182 6.18930 5.27786
#
# Compressibility (1/GPa) = 0.09177355
#
# Stress axis : x y z
#
# Youngs Moduli (GPa) = 76.84363 11.50271 57.80022
#
# Poissons Ratio (x) = 0.16217 0.47597
# Poissons Ratio (y) = 1.08338 -0.55458
# Poissons Ratio (z) = 0.63279 -0.11037
#
# Static dielectric constant tensor:
#      x y z
#    x 3.859960 0.000000 0.000000 
#    y 0.000000 3.543790 0.000000 
#    z 0.000000 0.000000 3.731850 
# 
# 
# High freq. dielectric constant tensor:
#      x y z
#    x 1.811220 0.000000 0.000000 
#    y 0.000000 1.810420 0.000000 
#    z 0.000000 0.000000 1.806840 
# 
# From -- ./inp_files/28080.got.cif
#   From: 2010.03.12/outbox.cif.g09.slc.cpg/sg23_15_cif.got.tgz:28080.got - 2010.04.14 02:50:06.
