data_PCOD8163308
_publ_section_title
;
Structure prediction by ZEFSAII (Michael W. Deem and Ramdas Pophale) SiO2 
 PCOD8163308
Probable space group: I 2 2 2
;
_chemical_formula_sum "Si O2"
_cell_formula_units_Z 58
_cell_length_a 17.680790
_cell_length_b 15.171722
_cell_length_c 10.748813
_cell_angle_alpha 90.000000
_cell_angle_beta 90.000000
_cell_angle_gamma 90.000000
_cell_volume 2883.347919
_symmetry_space_group_name_H-M "I 2 2 2"
_symmetry_group_IT_number 23
_symmetry_cell_setting 'orthorhombic'
loop_
_space_group_symop_operation_xyz
x,y,z
-x,-y,z
x,-y,-z
-x,y,-z
1/2+x,1/2+y,1/2+z
1/2-x,1/2-y,1/2+z
1/2+x,1/2-y,1/2-z
1/2-x,1/2+y,1/2-z
loop_
_atom_site_type_symbol
_atom_site_label
_atom_site_fract_x
_atom_site_fract_y
_atom_site_fract_z
Si Si1 0.125168 0.468598 0.799571
Si Si2 0.156968 0.643520 0.658027
Si Si3 0.664889 0.316294 0.285004
Si Si4 0.000000 0.500000 0.000000
Si Si5 0.204693 0.025630 0.367157
Si Si6 0.669634 0.640917 0.272826
Si Si7 0.668434 0.812364 0.124579
Si Si8 0.912960 0.095383 0.997004
O O1 0.115795 0.554489 0.708057
O O2 0.204596 0.484027 0.868051
O O3 0.127846 0.381113 0.716623
O O4 0.058163 0.452547 0.902395
O O5 0.128772 0.723811 0.743529
O O6 0.246551 0.649458 0.673865
O O7 0.138829 0.662246 0.512958
O O8 0.680900 0.374763 0.162756
O O9 0.740769 0.316803 0.368676
O O10 0.600167 0.356934 0.367778
O O11 0.173032 0.000000 0.500000
O O12 0.162223 0.958555 0.275646
O O13 0.647872 0.712886 0.167413
O O14 0.613178 0.655272 0.387511
O O15 0.000000 0.078211 0.000000
O O16 0.870639 0.000000 0.000000
#
# Coordination Sequence:
#
# PCOD8163308 Si02
#       8
#     8   8   8   2   8   8   8   8
#     4  10  23  38  62  81 119 164 199 250 310 348
#     4  10  20  37  61  91 117 153 211 250 301 354
#     4  10  20  34  60  91 122 154 193 256 299 346
#     4  12  24  48  58  88 128 158 214 254 308 396
#     4  10  18  34  60  91 115 149 195 252 306 352
#     4  10  20  34  60  91 122 154 193 256 299 346
#     4  10  20  37  61  91 117 153 211 250 301 354
#     4  11  22  39  61  89 125 161 200 232 306 379
#
# _framework density 20.115504999999999
#
# number of rings (size 3 to 8) (size 9 to 14) (size 15 to 20)
#    0.000    1.793    3.448    1.241    0.000    1.103 
#    4.966    1.379    0.000    3.310    0.000    0.000 
#    0.000    0.000    0.000    0.000    0.000    0.000 
#
# Total GULP energy -359303.516629 kJ/mol
# GULP energy per Si atom -12389.776435 kJ/mol
# Density = 2.006972 g / cm^3
# Si number density = 20.115505 Si / 1000 Ang^3
#
#
#
# Elastic Constant Matrix: (Units=GPa)
#
#
# Indices 1 2 3 4 5 6 
#
# 1 47.2384 19.1735 28.4250 0.0000 0.0000 0.0000
# 2 19.1735 98.0888 17.6524 0.0000 0.0000 0.0000
# 3 28.4250 17.6524 105.4441 0.0000 0.0000 0.0000
# 4 0.0000 0.0000 0.0000 4.3315 0.0000 0.0000
# 5 0.0000 0.0000 0.0000 0.0000 25.8705 0.0000
# 6 0.0000 0.0000 0.0000 0.0000 0.0000 10.2038
#
#
#
# Elastic Compliance Matrix: (Units=1/GPa)
#
#
# Indices 1 2 3 4 5 6 
#
# 1 0.026744 -0.004052 -0.006531 0.000000 0.000000 0.000000
# 2 -0.004052 0.011126 -0.000770 0.000000 0.000000 0.000000
# 3 -0.006531 -0.000770 0.011373 0.000000 0.000000 0.000000
# 4 0.000000 0.000000 0.000000 0.230867 0.000000 0.000000
# 5 0.000000 0.000000 0.000000 0.000000 0.038654 0.000000
# 6 0.000000 0.000000 0.000000 0.000000 0.000000 0.098003
#
#
# Mechanical properties :
#
#
# Convention : Reuss Voigt Hill
#
# Bulk Modulus (GPa) = 37.68505 42.36368 40.02436
# Shear Modulus (GPa) = 11.15276 20.44917 15.80097
#
# Velocity S-wave (km/s) = 2.35720 3.19186 2.80574
# Velocity P-wave (km/s) = 5.11698 5.88981 5.51695
#
# Compressibility (1/GPa) = 0.02653572
#
# Stress axis : x y z
#
# Youngs Moduli (GPa) = 37.39155 89.88322 87.92569
#
# Poissons Ratio (x) = 0.36423 0.57425
# Poissons Ratio (y) = 0.15152 0.06771
# Poissons Ratio (z) = 0.24421 0.06922
#
# Static dielectric constant tensor:
#      x y z
#    x 3.253120 0.000000 0.000000 
#    y 0.000000 3.962580 0.000000 
#    z 0.000000 0.000000 3.652450 
# 
# 
# High freq. dielectric constant tensor:
#      x y z
#    x 1.742050 0.000000 0.000000 
#    y 0.000000 1.792010 0.000000 
#    z 0.000000 0.000000 1.795210 
# 
# From -- ./inp_files/17556.got.cif
#   From: 2010.03.12/outbox.cif.g09.slc.cpg/sg23_9_cif.got.tgz:17556.got - 2010.04.14 02:50:06.
