data_PCOD8163611
_publ_section_title
;
Structure prediction by ZEFSAII (Michael W. Deem and Ramdas Pophale) SiO2 
 PCOD8163611
Probable space group: I 2 2 2
;
_chemical_formula_sum "Si O2"
_cell_formula_units_Z 32
_cell_length_a 9.106218
_cell_length_b 8.686563
_cell_length_c 17.531302
_cell_angle_alpha 90.000000
_cell_angle_beta 90.000000
_cell_angle_gamma 90.000000
_cell_volume 1386.756429
_symmetry_space_group_name_H-M "I 2 2 2"
_symmetry_group_IT_number 23
_symmetry_cell_setting 'orthorhombic'
loop_
_space_group_symop_operation_xyz
x,y,z
-x,-y,z
x,-y,-z
-x,y,-z
1/2+x,1/2+y,1/2+z
1/2-x,1/2-y,1/2+z
1/2+x,1/2-y,1/2-z
1/2-x,1/2+y,1/2-z
loop_
_atom_site_type_symbol
_atom_site_label
_atom_site_fract_x
_atom_site_fract_y
_atom_site_fract_z
Si Si1 0.251613 0.282684 0.800709
Si Si2 0.500000 0.000000 0.348628
Si Si3 0.333493 0.018502 0.909981
Si Si4 0.000000 0.000000 0.346716
Si Si5 0.250719 0.197570 0.634427
O O1 0.101364 0.382341 0.799798
O O2 0.264107 0.175974 0.877099
O O3 0.391443 0.396092 0.795987
O O4 0.252494 0.173673 0.726676
O O5 0.609189 0.105456 0.399881
O O6 0.500000 0.000000 0.880340
O O7 0.236192 0.876868 0.880719
O O8 0.326034 0.000000 0.000000
O O9 0.101774 0.884239 0.397862
#
# Coordination Sequence:
#
# PCOD8163611 Si02
#       5
#     8   4   8   4   8
#     4  11  22  39  65  95 135 170 222 265 327 390
#     4  10  24  38  59  98 123 174 214 272 324 378
#     4  11  24  44  69  99 132 174 224 274 325 387
#     4  10  20  36  59  88 125 170 216 272 304 382
#     4  11  22  39  65  95 135 170 222 265 327 390
#
# _framework density 23.075429
#
# number of rings (size 3 to 8) (size 9 to 14) (size 15 to 20)
#    0.000    1.250    2.500    4.500    3.500    1.000 
#    0.000   10.000    0.000    0.000    0.000    0.000 
#    0.000    0.000    0.000    0.000    0.000    0.000 
#
# Total GULP energy -198245.986994 kJ/mol
# GULP energy per Si atom -12390.374187 kJ/mol
# Density = 2.302291 g / cm^3
# Si number density = 23.075429 Si / 1000 Ang^3
#
#
#
# Elastic Constant Matrix: (Units=GPa)
#
#
# Indices 1 2 3 4 5 6 
#
# 1 164.0166 72.3295 16.7164 0.0000 0.0000 0.0000
# 2 72.3295 164.5920 33.2406 0.0000 0.0000 0.0000
# 3 16.7164 33.2406 61.6630 0.0000 0.0000 0.0000
# 4 0.0000 0.0000 0.0000 25.7726 0.0000 0.0000
# 5 0.0000 0.0000 0.0000 0.0000 13.2057 0.0000
# 6 0.0000 0.0000 0.0000 0.0000 0.0000 47.0733
#
#
#
# Elastic Compliance Matrix: (Units=1/GPa)
#
#
# Indices 1 2 3 4 5 6 
#
# 1 0.007567 -0.003267 -0.000290 0.000000 0.000000 0.000000
# 2 -0.003267 0.008228 -0.003550 0.000000 0.000000 0.000000
# 3 -0.000290 -0.003550 0.018210 0.000000 0.000000 0.000000
# 4 0.000000 0.000000 0.000000 0.038801 0.000000 0.000000
# 5 0.000000 0.000000 0.000000 0.000000 0.075725 0.000000
# 6 0.000000 0.000000 0.000000 0.000000 0.000000 0.021243
#
#
# Mechanical properties :
#
#
# Convention : Reuss Voigt Hill
#
# Bulk Modulus (GPa) = 50.52879 70.53830 60.53355
# Shear Modulus (GPa) = 26.23504 35.07600 30.65552
#
# Velocity S-wave (km/s) = 3.37549 3.90302 3.64880
# Velocity P-wave (km/s) = 6.09399 7.13767 6.63638
#
# Compressibility (1/GPa) = 0.01979070
#
# Stress axis : x y z
#
# Youngs Moduli (GPa) = 132.15066 121.53461 54.91613
#
# Poissons Ratio (x) = 0.39702 0.01595
# Poissons Ratio (y) = 0.43170 0.19495
# Poissons Ratio (z) = 0.03838 0.43144
#
# Static dielectric constant tensor:
#      x y z
#    x 4.512390 0.000000 0.000000 
#    y 0.000000 4.400890 0.000000 
#    z 0.000000 0.000000 3.538300 
# 
# 
# High freq. dielectric constant tensor:
#      x y z
#    x 1.925480 0.000000 0.000000 
#    y 0.000000 1.946660 0.000000 
#    z 0.000000 0.000000 1.842200 
# 
# From -- ./inp_files/6633.got.cif
#   From: 2010.03.12/outbox.cif.g09.slc.cpg/sg23_4_cif.got.tgz:6633.got - 2010.04.14 02:50:06.
