data_PCOD8163049
_publ_section_title
;
Structure prediction by ZEFSAII (Michael W. Deem and Ramdas Pophale) SiO2 
 PCOD8163049
Probable space group: F 2 2 2
;
_chemical_formula_sum "Si O2"
_cell_formula_units_Z 80
_cell_length_a 12.924260
_cell_length_b 24.829565
_cell_length_c 12.087370
_cell_angle_alpha 90.000000
_cell_angle_beta 90.000000
_cell_angle_gamma 90.000000
_cell_volume 3878.882406
_symmetry_space_group_name_H-M "F 2 2 2"
_symmetry_group_IT_number 22
_symmetry_cell_setting 'orthorhombic'
loop_
_space_group_symop_operation_xyz
x,y,z
-x,-y,z
x,-y,-z
-x,y,-z
x,1/2+y,1/2+z
-x,1/2-y,1/2+z
x,1/2-y,1/2-z
-x,1/2+y,1/2-z
1/2+x,y,1/2+z
1/2-x,-y,1/2+z
1/2+x,-y,1/2-z
1/2-x,y,1/2-z
1/2+x,1/2+y,z
1/2-x,1/2-y,z
1/2+x,1/2-y,-z
1/2-x,1/2+y,-z
loop_
_atom_site_type_symbol
_atom_site_label
_atom_site_fract_x
_atom_site_fract_y
_atom_site_fract_z
Si Si1 0.283781 0.370949 0.372072
Si Si2 0.616830 0.333041 0.029969
Si Si3 0.138781 0.860666 0.274960
Si Si4 0.975713 0.938345 0.375786
Si Si5 0.619338 0.714385 0.513760
O O1 0.250000 0.355556 0.250000
O O2 0.189692 0.376009 0.462545
O O3 0.353414 0.425358 0.361324
O O4 0.356551 0.322157 0.408445
O O5 0.611346 0.332348 0.161482
O O6 0.500000 0.344957 0.000000
O O7 0.668520 0.274579 0.002657
O O8 0.250000 0.889052 0.250000
O O9 0.149484 0.816572 0.372816
O O10 0.050656 0.904427 0.297402
O O11 0.000000 0.921618 0.500000
O O12 0.000000 0.000000 0.349788
O O13 0.500000 0.727492 0.500000
#
# Coordination Sequence:
#
# PCOD8163049 Si02
#       5
#    16  16  16  16  16
#     4  12  23  42  64  92 137 175 223 283 331 402
#     4  11  25  37  61  98 137 174 215 269 342 394
#     4  12  21  40  64  90 130 166 220 282 325 399
#     4  11  23  44  71  95 123 175 234 280 339 406
#     4  11  22  40  61  94 129 181 223 259 324 417
#
# _framework density 20.624497999999999
#
# number of rings (size 3 to 8) (size 9 to 14) (size 15 to 20)
#    0.000    0.600    6.000    2.400    0.000    3.200 
#    0.000    0.000    0.000    4.200    0.000    0.000 
#    0.000    0.000    0.000    0.000    0.000    0.000 
#
# Total GULP energy -247834.212579 kJ/mol
# GULP energy per Si atom -12391.710629 kJ/mol
# Density = 2.057756 g / cm^3
# Si number density = 20.624498 Si / 1000 Ang^3
#
#
#
# Elastic Constant Matrix: (Units=GPa)
#
#
# Indices 1 2 3 4 5 6 
#
# 1 116.6080 55.0936 25.1005 0.0000 0.0000 0.0000
# 2 55.0936 99.8424 40.3307 0.0000 0.0000 0.0000
# 3 25.1005 40.3307 126.5161 0.0000 0.0000 0.0000
# 4 0.0000 0.0000 0.0000 7.6716 0.0000 0.0000
# 5 0.0000 0.0000 0.0000 0.0000 43.2248 0.0000
# 6 0.0000 0.0000 0.0000 0.0000 0.0000 27.1856
#
#
#
# Elastic Compliance Matrix: (Units=1/GPa)
#
#
# Indices 1 2 3 4 5 6 
#
# 1 0.011610 -0.006285 -0.000300 0.000000 0.000000 0.000000
# 2 -0.006285 0.014899 -0.003502 0.000000 0.000000 0.000000
# 3 -0.000300 -0.003502 0.009080 0.000000 0.000000 0.000000
# 4 0.000000 0.000000 0.000000 0.130350 0.000000 0.000000
# 5 0.000000 0.000000 0.000000 0.000000 0.023135 0.000000
# 6 0.000000 0.000000 0.000000 0.000000 0.000000 0.036784
#
#
# Mechanical properties :
#
#
# Convention : Reuss Voigt Hill
#
# Bulk Modulus (GPa) = 64.87687 64.89067 64.88377
# Shear Modulus (GPa) = 19.90675 30.44584 25.17630
#
# Velocity S-wave (km/s) = 3.11014 3.84630 3.49764
# Velocity P-wave (km/s) = 6.66497 7.15937 6.91659
#
# Compressibility (1/GPa) = 0.01541381
#
# Stress axis : x y z
#
# Youngs Moduli (GPa) = 86.13359 67.11925 110.13079
#
# Poissons Ratio (x) = 0.42187 0.03301
# Poissons Ratio (y) = 0.54138 0.38573
# Poissons Ratio (z) = 0.02582 0.23508
#
# Static dielectric constant tensor:
#      x y z
#    x 4.812100 0.000000 0.000000 
#    y 0.000000 3.472890 0.000000 
#    z 0.000000 0.000000 3.860680 
# 
# 
# High freq. dielectric constant tensor:
#      x y z
#    x 1.841040 0.000000 0.000000 
#    y 0.000000 1.771710 0.000000 
#    z 0.000000 0.000000 1.814080 
# 
# From -- ./inp_files/19855.got.cif
#   From: 2010.03.12/outbox.cif.g09.slc.cpg/sg22_10_cif.got.tgz:19855.got - 2010.04.14 02:24:06.
