data_PCOD8163676
_publ_section_title
;
Structure prediction by ZEFSAII (Michael W. Deem and Ramdas Pophale) SiO2 
 PCOD8163676
Probable space group: I 2 2 2
;
_chemical_formula_sum "Si O2"
_cell_formula_units_Z 60
_cell_length_a 11.353222
_cell_length_b 21.723680
_cell_length_c 11.819604
_cell_angle_alpha 90.000000
_cell_angle_beta 90.000000
_cell_angle_gamma 90.000000
_cell_volume 2915.113396
_symmetry_space_group_name_H-M "I 2 2 2"
_symmetry_group_IT_number 23
_symmetry_cell_setting 'orthorhombic'
loop_
_space_group_symop_operation_xyz
x,y,z
-x,-y,z
x,-y,-z
-x,y,-z
1/2+x,1/2+y,1/2+z
1/2-x,1/2-y,1/2+z
1/2+x,1/2-y,1/2-z
1/2-x,1/2+y,1/2-z
loop_
_atom_site_type_symbol
_atom_site_label
_atom_site_fract_x
_atom_site_fract_y
_atom_site_fract_z
Si Si1 0.255255 0.806155 0.548519
Si Si2 0.971353 0.711761 0.783575
Si Si3 0.386470 0.329198 0.744324
Si Si4 0.405753 0.110445 0.597693
Si Si5 0.500000 0.000000 0.728092
Si Si6 0.937290 0.941089 0.118242
Si Si7 0.826427 0.687211 0.583091
Si Si8 0.662436 0.052546 0.915785
O O1 0.365052 0.792068 0.628556
O O2 0.142132 0.827203 0.621887
O O3 0.284424 0.860823 0.457115
O O4 0.223512 0.739358 0.498001
O O5 0.936882 0.714589 0.651439
O O6 0.042645 0.773009 0.807677
O O7 0.060116 0.655280 0.799844
O O8 0.461019 0.389391 0.712694
O O9 0.264887 0.333983 0.678045
O O10 0.500000 0.113865 0.500000
O O11 0.410034 0.041287 0.649663
O O12 0.586495 0.044432 0.800071
O O13 0.800586 0.957516 0.103700
O O14 0.000000 0.000000 0.170644
O O15 0.000000 0.922338 0.000000
O O16 0.860100 0.620675 0.527586
O O17 0.615384 0.000000 0.000000
#
# Coordination Sequence:
#
# PCOD8163676 Si02
#       8
#     8   8   8   8   4   8   8   8
#     4  10  22  39  62  94 130 162 213 261 321 384
#     4  10  20  38  62  91 122 165 210 254 318 378
#     4  10  22  36  64  96 122 162 213 269 307 375
#     4  10  21  40  64  89 123 169 210 254 316 392
#     4  12  24  42  64  96 132 170 212 268 332 386
#     4  10  21  41  65  89 124 168 219 261 311 386
#     4  10  21  39  62  90 129 161 208 268 316 381
#     4  11  23  40  62  95 130 166 213 268 328 385
#
# _framework density 20.58239
#
# number of rings (size 3 to 8) (size 9 to 14) (size 15 to 20)
#    0.000    1.733    4.000    0.400    5.600    1.600 
#    4.800    0.000    0.000    0.000    0.000    0.000 
#    0.000    0.000    0.000    0.000    0.000    0.000 
#
# Total GULP energy -371659.485782 kJ/mol
# GULP energy per Si atom -12388.649526 kJ/mol
# Density = 2.053554 g / cm^3
# Si number density = 20.582390 Si / 1000 Ang^3
#
#
#
# Elastic Constant Matrix: (Units=GPa)
#
#
# Indices 1 2 3 4 5 6 
#
# 1 62.1244 28.0195 27.6178 0.0000 0.0000 0.0000
# 2 28.0195 170.3168 59.5160 0.0001 -0.0003 -0.0003
# 3 27.6178 59.5160 79.3098 0.0001 0.0000 -0.0001
# 4 0.0000 0.0001 0.0001 26.9408 0.0000 -0.0001
# 5 0.0000 -0.0003 0.0000 0.0000 8.7236 0.0001
# 6 0.0000 -0.0003 -0.0001 -0.0001 0.0001 12.5716
#
#
#
# Elastic Compliance Matrix: (Units=1/GPa)
#
#
# Indices 1 2 3 4 5 6 
#
# 1 0.019200 -0.001115 -0.005849 0.000000 0.000000 0.000000
# 2 -0.001115 0.008023 -0.005633 0.000000 0.000000 0.000000
# 3 -0.005849 -0.005633 0.018873 0.000000 0.000000 0.000000
# 4 0.000000 0.000000 0.000000 0.037118 0.000000 0.000000
# 5 0.000000 0.000000 0.000000 0.000000 0.114632 -0.000001
# 6 0.000000 0.000000 0.000000 0.000000 -0.000001 0.079544
#
#
# Mechanical properties :
#
#
# Convention : Reuss Voigt Hill
#
# Bulk Modulus (GPa) = 47.84189 60.22860 54.03525
# Shear Modulus (GPa) = 16.15246 22.75372 19.45309
#
# Velocity S-wave (km/s) = 2.80442 3.32851 3.07764
# Velocity P-wave (km/s) = 5.81213 6.64061 6.24013
#
# Compressibility (1/GPa) = 0.02090218
#
# Stress axis : x y z
#
# Youngs Moduli (GPa) = 52.08368 124.64128 52.98711
#
# Poissons Ratio (x) = 0.13892 0.30995
# Poissons Ratio (y) = 0.05805 0.29845
# Poissons Ratio (z) = 0.30466 0.70205
#
# Static dielectric constant tensor:
#      x y z
#    x 3.704530 0.000000 0.000000 
#    y 0.000000 4.052410 0.000000 
#    z 0.000000 0.000000 3.819790 
# 
# 
# High freq. dielectric constant tensor:
#      x y z
#    x 1.791670 0.000000 0.000000 
#    y 0.000000 1.816640 0.000000 
#    z 0.000000 0.000000 1.791930 
# 
# From -- ./inp_files/15978.got.cif
#   From: 2010.03.12/outbox.cif.g09.slc.cpg/sg23_8_cif.got.tgz:15978.got - 2010.04.14 02:50:06.
