data_PCOD8163421
_publ_section_title
;
Structure prediction by ZEFSAII (Michael W. Deem and Ramdas Pophale) SiO2 
 PCOD8163421
Probable space group: I 2 2 2
;
_chemical_formula_sum "Si O2"
_cell_formula_units_Z 64
_cell_length_a 18.623645
_cell_length_b 10.664206
_cell_length_c 18.746517
_cell_angle_alpha 90.000000
_cell_angle_beta 90.000000
_cell_angle_gamma 90.000000
_cell_volume 3723.178006
_symmetry_space_group_name_H-M "I 2 2 2"
_symmetry_group_IT_number 23
_symmetry_cell_setting 'orthorhombic'
loop_
_space_group_symop_operation_xyz
x,y,z
-x,-y,z
x,-y,-z
-x,y,-z
1/2+x,1/2+y,1/2+z
1/2-x,1/2-y,1/2+z
1/2+x,1/2-y,1/2-z
1/2-x,1/2+y,1/2-z
loop_
_atom_site_type_symbol
_atom_site_label
_atom_site_fract_x
_atom_site_fract_y
_atom_site_fract_z
Si Si1 0.558579 0.791730 0.060295
Si Si2 0.751203 0.258890 0.855745
Si Si3 0.198343 0.142396 0.509732
Si Si4 0.643390 0.342350 0.254288
Si Si5 0.654342 0.367335 0.732314
Si Si6 0.269095 0.229167 0.867909
Si Si7 0.326080 0.023056 0.081593
Si Si8 0.490859 0.353112 0.199208
O O1 0.591338 0.926656 0.084268
O O2 0.522577 0.719055 0.125576
O O3 0.500000 0.814176 0.000000
O O4 0.625464 0.716187 0.027151
O O5 0.828846 0.246610 0.818543
O O6 0.696127 0.325067 0.802496
O O7 0.724989 0.121575 0.879008
O O8 0.755238 0.346482 0.925444
O O9 0.239458 0.199366 0.442184
O O10 0.175616 0.000000 0.500000
O O11 0.654069 0.484409 0.277958
O O12 0.692142 0.324252 0.184969
O O13 0.562338 0.303084 0.237152
O O14 0.689801 0.305740 0.661927
O O15 0.572083 0.325070 0.743962
O O16 0.319439 0.106409 0.875351
O O17 0.300657 0.000000 0.000000
O O18 0.500000 0.500000 0.180358
#
# Coordination Sequence:
#
# PCOD8163421 Si02
#       8
#     8   8   8   8   8   8   8   8
#     4  11  23  34  52  77 117 153 178 216 275 334
#     4  10  19  35  54  77 104 143 178 228 268 314
#     4  11  22  36  55  81 109 139 186 228 269 323
#     4  10  21  34  55  79 108 139 187 228 269 327
#     4  10  19  36  56  77 107 143 183 229 276 321
#     4  11  21  34  57  82 103 149 189 227 276 328
#     4  11  20  37  51  76 111 141 186 222 270 327
#     4  10  21  35  52  81 111 145 178 224 278 323
#
# _framework density 17.189616000000001
#
# number of rings (size 3 to 8) (size 9 to 14) (size 15 to 20)
#    0.000    1.500    6.250    1.500    3.500    0.250 
#    0.000    0.000    0.000    0.750    0.000    4.375 
#    0.000    0.000    0.000    0.000    0.000    0.000 
#
# Total GULP energy -396697.699028 kJ/mol
# GULP energy per Si atom -12396.803095 kJ/mol
# Density = 1.715049 g / cm^3
# Si number density = 17.189616 Si / 1000 Ang^3
#
#
#
# Elastic Constant Matrix: (Units=GPa)
#
#
# Indices 1 2 3 4 5 6 
#
# 1 116.2527 19.6914 60.0618 0.0000 0.0000 0.0000
# 2 19.6914 31.8427 11.0856 0.0000 0.0000 0.0000
# 3 60.0618 11.0856 98.6309 0.0000 0.0000 0.0000
# 4 0.0000 0.0000 0.0000 29.1102 0.0000 0.0000
# 5 0.0000 0.0000 0.0000 0.0000 25.3841 0.0000
# 6 0.0000 0.0000 0.0000 0.0000 0.0000 17.8715
#
#
#
# Elastic Compliance Matrix: (Units=1/GPa)
#
#
# Indices 1 2 3 4 5 6 
#
# 1 0.013476 -0.005700 -0.007566 0.000000 0.000000 0.000000
# 2 -0.005700 0.035094 -0.000473 0.000000 0.000000 0.000000
# 3 -0.007566 -0.000473 0.014799 0.000000 0.000000 0.000000
# 4 0.000000 0.000000 0.000000 0.034352 0.000000 0.000000
# 5 0.000000 0.000000 0.000000 0.000000 0.039395 0.000000
# 6 0.000000 0.000000 0.000000 0.000000 0.000000 0.055955
#
#
# Mechanical properties :
#
#
# Convention : Reuss Voigt Hill
#
# Bulk Modulus (GPa) = 27.86183 47.60044 37.73114
# Shear Modulus (GPa) = 21.50413 24.86565 23.18489
#
# Velocity S-wave (km/s) = 3.54078 3.80748 3.67655
# Velocity P-wave (km/s) = 5.74107 6.86154 6.32616
#
# Compressibility (1/GPa) = 0.03589139
#
# Stress axis : x y z
#
# Youngs Moduli (GPa) = 74.20449 28.49493 67.57078
#
# Poissons Ratio (x) = 0.16241 0.51123
# Poissons Ratio (y) = 0.42295 0.03199
# Poissons Ratio (z) = 0.56142 0.01349
#
# Static dielectric constant tensor:
#      x y z
#    x 3.244550 0.000000 0.000000 
#    y 0.000000 3.364190 0.000000 
#    z 0.000000 0.000000 3.373920 
# 
# 
# High freq. dielectric constant tensor:
#      x y z
#    x 1.643550 0.000000 0.000000 
#    y 0.000000 1.671070 0.000000 
#    z 0.000000 0.000000 1.662790 
# 
# From -- ./inp_files/17661.got.cif
#   From: 2010.03.12/outbox.cif.g09.slc.cpg/sg23_9_cif.got.tgz:17661.got - 2010.04.14 02:50:06.
