data_PCOD8163345
_publ_section_title
;
Structure prediction by ZEFSAII (Michael W. Deem and Ramdas Pophale) SiO2 
 PCOD8163345
Probable space group: I 2 2 2
;
_chemical_formula_sum "Si O2"
_cell_formula_units_Z 40
_cell_length_a 5.012569
_cell_length_b 15.667586
_cell_length_c 24.906730
_cell_angle_alpha 90.000000
_cell_angle_beta 90.000000
_cell_angle_gamma 90.000000
_cell_volume 1956.046451
_symmetry_space_group_name_H-M "I 2 2 2"
_symmetry_group_IT_number 23
_symmetry_cell_setting 'orthorhombic'
loop_
_space_group_symop_operation_xyz
x,y,z
-x,-y,z
x,-y,-z
-x,y,-z
1/2+x,1/2+y,1/2+z
1/2-x,1/2-y,1/2+z
1/2+x,1/2-y,1/2-z
1/2-x,1/2+y,1/2-z
loop_
_atom_site_type_symbol
_atom_site_label
_atom_site_fract_x
_atom_site_fract_y
_atom_site_fract_z
Si Si1 0.903939 0.749378 0.625670
Si Si2 0.265094 0.052649 0.436394
Si Si3 0.386001 0.760696 0.554850
Si Si4 0.404449 0.802503 0.763214
Si Si5 0.348343 0.415761 0.821423
O O1 0.623493 0.764479 0.597261
O O2 0.874258 0.678343 0.672792
O O3 0.131431 0.715835 0.583701
O O4 0.968661 0.838342 0.656075
O O5 0.267281 0.146935 0.461830
O O6 0.325069 0.057805 0.372780
O O7 0.500000 0.000000 0.463784
O O8 0.000000 0.000000 0.450125
O O9 0.500000 0.716483 0.500000
O O10 0.708388 0.775754 0.751945
O O11 0.336182 0.885758 0.728063
O O12 0.500000 0.500000 0.800380
#
# Coordination Sequence:
#
# PCOD8163345 Si02
#       5
#     8   8   8   8   8
#     4  10  20  34  49  69  98 129 167 212 254 298
#     4  10  19  31  44  63  93 124 158 201 245 288
#     4  11  21  34  49  65  89 128 175 217 251 288
#     4  10  19  32  50  71  98 134 168 202 255 310
#     4   9  18  31  50  72  98 131 166 199 244 302
#
# _framework density 20.449413
#
# number of rings (size 3 to 8) (size 9 to 14) (size 15 to 20)
#    0.000    2.000    0.000    7.800    0.000    3.600 
#    0.000    4.000    0.000    0.000    0.000    0.000 
#    0.000    0.800    0.000   13.200    0.000    7.600 
#
# Total GULP energy -247763.411632 kJ/mol
# GULP energy per Si atom -12388.170582 kJ/mol
# Density = 2.040287 g / cm^3
# Si number density = 20.449413 Si / 1000 Ang^3
#
#
#
# Elastic Constant Matrix: (Units=GPa)
#
#
# Indices 1 2 3 4 5 6 
#
# 1 100.8027 -0.1113 18.9344 0.0000 0.0000 0.0000
# 2 -0.1113 25.7622 25.0801 0.0000 0.0000 0.0000
# 3 18.9344 25.0801 130.0010 0.0000 0.0000 0.0000
# 4 0.0000 0.0000 0.0000 32.9031 0.0000 0.0000
# 5 0.0000 0.0000 0.0000 0.0000 49.3998 0.0000
# 6 0.0000 0.0000 0.0000 0.0000 0.0000 18.4498
#
#
#
# Elastic Compliance Matrix: (Units=1/GPa)
#
#
# Indices 1 2 3 4 5 6 
#
# 1 0.010270 0.001848 -0.001852 0.000000 0.000000 0.000000
# 2 0.001848 0.048125 -0.009554 0.000000 0.000000 0.000000
# 3 -0.001852 -0.009554 0.009805 0.000000 0.000000 0.000000
# 4 0.000000 0.000000 0.000000 0.030392 0.000000 0.000000
# 5 0.000000 0.000000 0.000000 0.000000 0.020243 0.000000
# 6 0.000000 0.000000 0.000000 0.000000 0.000000 0.054201
#
#
# Mechanical properties :
#
#
# Convention : Reuss Voigt Hill
#
# Bulk Modulus (GPa) = 20.37314 38.26359 29.31836
# Shear Modulus (GPa) = 23.97910 34.32805 29.15358
#
# Velocity S-wave (km/s) = 3.42805 4.10162 3.77987
# Velocity P-wave (km/s) = 5.06488 6.41740 5.78083
#
# Compressibility (1/GPa) = 0.04908423
#
# Stress axis : x y z
#
# Youngs Moduli (GPa) = 97.36779 20.77913 101.98743
#
# Poissons Ratio (x) = -0.03839 0.18891
# Poissons Ratio (y) = -0.17990 0.97434
# Poissons Ratio (z) = 0.18035 0.19851
#
# Static dielectric constant tensor:
#      x y z
#    x 3.767190 0.000000 0.000000 
#    y 0.000000 3.339020 0.000000 
#    z 0.000000 0.000000 4.270980 
# 
# 
# High freq. dielectric constant tensor:
#      x y z
#    x 1.816330 0.000000 0.000000 
#    y 0.000000 1.709590 0.000000 
#    z 0.000000 0.000000 1.824240 
# 
# From -- ./inp_files/27589.got.cif
#   From: 2010.03.12/outbox.cif.g09.slc.cpg/sg23_14_cif.got.tgz:27589.got - 2010.04.14 02:50:06.
