data_PCOD8163561
_publ_section_title
;
Structure prediction by ZEFSAII (Michael W. Deem and Ramdas Pophale) SiO2 
 PCOD8163561
Probable space group: I 2 2 2
;
_chemical_formula_sum "Si O2"
_cell_formula_units_Z 48
_cell_length_a 9.211976
_cell_length_b 7.544103
_cell_length_c 36.808497
_cell_angle_alpha 90.000000
_cell_angle_beta 90.000000
_cell_angle_gamma 90.000000
_cell_volume 2558.046833
_symmetry_space_group_name_H-M "I 2 2 2"
_symmetry_group_IT_number 23
_symmetry_cell_setting 'orthorhombic'
loop_
_space_group_symop_operation_xyz
x,y,z
-x,-y,z
x,-y,-z
-x,y,-z
1/2+x,1/2+y,1/2+z
1/2-x,1/2-y,1/2+z
1/2+x,1/2-y,1/2-z
1/2-x,1/2+y,1/2-z
loop_
_atom_site_type_symbol
_atom_site_label
_atom_site_fract_x
_atom_site_fract_y
_atom_site_fract_z
Si Si1 0.659823 0.946810 0.372468
Si Si2 0.100532 0.835220 0.178920
Si Si3 0.828188 0.997571 0.444955
Si Si4 0.834179 0.474701 0.276687
Si Si5 0.330125 0.131432 0.701414
Si Si6 0.672181 0.203021 0.999143
O O1 0.657021 0.741520 0.359640
O O2 0.500000 0.000000 0.385876
O O3 0.770526 0.984500 0.404423
O O4 0.715625 0.055196 0.337443
O O5 0.236862 0.875357 0.204236
O O6 0.999559 0.691063 0.199825
O O7 0.000000 0.000000 0.169310
O O8 0.776761 0.183396 0.463686
O O9 0.774382 0.821654 0.466608
O O10 0.000000 0.000000 0.443876
O O11 0.781574 0.286486 0.290342
O O12 0.813254 0.488519 0.233405
O O13 0.000000 0.500000 0.288783
O O14 0.500000 0.188398 0.000000
O O15 0.736942 0.000000 0.000000
#
# Coordination Sequence:
#
# PCOD8163561 Si02
#       6
#     8   8   8   8   8   8
#     4  10  20  37  54  73 108 150 172 212 274 336
#     4   9  20  37  53  72 104 145 183 217 278 339
#     4   9  18  33  57  84 110 140 181 223 267 317
#     4  11  20  33  54  78  98 134 190 241 268 315
#     4  10  20  35  53  72 104 144 179 219 281 331
#     4   8  15  33  57  82 110 145 176 214 270 325
#
# _framework density 18.764315
#
# number of rings (size 3 to 8) (size 9 to 14) (size 15 to 20)
#    0.000    2.500    0.000    4.500    0.000    1.333 
#    9.000    5.833    0.000    1.000    0.000    0.000 
#    0.000    0.000    0.000    0.000    0.000    0.000 
#
# Total GULP energy -297435.129463 kJ/mol
# GULP energy per Si atom -12393.130394 kJ/mol
# Density = 1.872161 g / cm^3
# Si number density = 18.764315 Si / 1000 Ang^3
#
#
#
# Elastic Constant Matrix: (Units=GPa)
#
#
# Indices 1 2 3 4 5 6 
#
# 1 64.2252 29.5225 50.0367 0.0000 0.0000 0.0000
# 2 29.5225 129.3001 71.3267 0.0000 0.0000 0.0000
# 3 50.0367 71.3267 144.5549 0.0000 0.0000 0.0000
# 4 0.0000 0.0000 0.0000 23.4998 0.0000 0.0000
# 5 0.0000 0.0000 0.0000 0.0000 31.1235 0.0000
# 6 0.0000 0.0000 0.0000 0.0000 0.0000 18.2941
#
#
#
# Elastic Compliance Matrix: (Units=1/GPa)
#
#
# Indices 1 2 3 4 5 6 
#
# 1 0.021433 -0.001101 -0.006876 0.000000 0.000000 0.000000
# 2 -0.001101 0.010683 -0.004890 0.000000 0.000000 0.000000
# 3 -0.006876 -0.004890 0.011711 0.000000 0.000000 0.000000
# 4 0.000000 0.000000 0.000000 0.042554 0.000000 0.000000
# 5 0.000000 0.000000 0.000000 0.000000 0.032130 0.000000
# 6 0.000000 0.000000 0.000000 0.000000 0.000000 0.054662
#
#
# Mechanical properties :
#
#
# Convention : Reuss Voigt Hill
#
# Bulk Modulus (GPa) = 55.26936 71.09465 63.18200
# Shear Modulus (GPa) = 24.39774 27.06309 25.73042
#
# Velocity S-wave (km/s) = 3.60977 3.80183 3.70705
# Velocity P-wave (km/s) = 6.84780 7.56587 7.21577
#
# Compressibility (1/GPa) = 0.01809321
#
# Stress axis : x y z
#
# Youngs Moduli (GPa) = 46.65712 93.60786 85.39222
#
# Poissons Ratio (x) = 0.10304 0.58713
# Poissons Ratio (y) = 0.05136 0.41758
# Poissons Ratio (z) = 0.32080 0.45775
#
# Static dielectric constant tensor:
#      x y z
#    x 3.223590 0.000000 0.000000 
#    y 0.000000 3.984010 0.000000 
#    z 0.000000 0.000000 3.317030 
# 
# 
# High freq. dielectric constant tensor:
#      x y z
#    x 1.706550 0.000000 0.000000 
#    y 0.000000 1.745570 0.000000 
#    z 0.000000 0.000000 1.716820 
# 
# From -- ./inp_files/30226.got.cif
#   From: 2010.03.12/outbox.cif.g09.slc.cpg/sg23_16_cif.got.tgz:30226.got - 2010.04.14 02:50:06.
