data_PCOD8163116
_publ_section_title
;
Structure prediction by ZEFSAII (Michael W. Deem and Ramdas Pophale) SiO2 
 PCOD8163116
Probable space group: F 2 2 2
;
_chemical_formula_sum "Si O2"
_cell_formula_units_Z 68
_cell_length_a 9.137030
_cell_length_b 21.527786
_cell_length_c 16.109472
_cell_angle_alpha 90.000000
_cell_angle_beta 90.000000
_cell_angle_gamma 90.000000
_cell_volume 3168.733570
_symmetry_space_group_name_H-M "F 2 2 2"
_symmetry_group_IT_number 22
_symmetry_cell_setting 'orthorhombic'
loop_
_space_group_symop_operation_xyz
x,y,z
-x,-y,z
x,-y,-z
-x,y,-z
x,1/2+y,1/2+z
-x,1/2-y,1/2+z
x,1/2-y,1/2-z
-x,1/2+y,1/2-z
1/2+x,y,1/2+z
1/2-x,-y,1/2+z
1/2+x,-y,1/2-z
1/2-x,y,1/2-z
1/2+x,1/2+y,z
1/2-x,1/2-y,z
1/2+x,1/2-y,-z
1/2-x,1/2+y,-z
loop_
_atom_site_type_symbol
_atom_site_label
_atom_site_fract_x
_atom_site_fract_y
_atom_site_fract_z
Si Si1 0.796322 0.816592 0.065544
Si Si2 0.205726 0.043581 0.658250
Si Si3 0.750000 0.250000 0.250000
Si Si4 0.112978 0.661355 0.383588
Si Si5 0.582256 0.425933 0.585801
O O1 0.750000 0.750000 0.101440
O O2 0.660404 0.860434 0.085164
O O3 0.937919 0.842948 0.112421
O O4 0.823193 0.809378 0.967493
O O5 0.250000 0.023722 0.750000
O O6 0.324744 0.091667 0.623258
O O7 0.043443 0.074984 0.657206
O O8 0.199452 0.981029 0.602564
O O9 0.848145 0.295036 0.306230
O O10 0.500000 0.438880 0.500000
#
# Coordination Sequence:
#
# PCOD8163116 Si02
#       5
#    16  16   4  16  16
#     4  11  26  43  70 109 137 182 239 298 347 426
#     4  11  24  44  71 102 139 190 232 290 361 417
#     4  12  24  48  70 104 148 190 228 288 376 424
#     4  11  25  42  72 104 139 186 234 294 351 425
#     4  11  25  46  74 100 140 189 240 292 352 426
#
# _framework density 21.459676000000002
#
# number of rings (size 3 to 8) (size 9 to 14) (size 15 to 20)
#    0.000    0.941    4.706    1.412    6.588    4.706 
#    0.000    5.294    0.000    0.000    0.000    0.000 
#    0.000    0.000    0.000    0.000    0.000    0.000 
#
# Total GULP energy -210806.606924 kJ/mol
# GULP energy per Si atom -12400.388643 kJ/mol
# Density = 2.141083 g / cm^3
# Si number density = 21.459676 Si / 1000 Ang^3
#
#
#
# Elastic Constant Matrix: (Units=GPa)
#
#
# Indices 1 2 3 4 5 6 
#
# 1 122.8946 79.8838 58.1421 0.0000 0.0000 0.0000
# 2 79.8838 170.3028 47.8060 0.0000 0.0000 0.0000
# 3 58.1421 47.8060 109.4177 0.0000 0.0000 0.0000
# 4 0.0000 0.0000 0.0000 21.1679 0.0000 0.0000
# 5 0.0000 0.0000 0.0000 0.0000 35.4320 0.0000
# 6 0.0000 0.0000 0.0000 0.0000 0.0000 41.0393
#
#
#
# Elastic Compliance Matrix: (Units=1/GPa)
#
#
# Indices 1 2 3 4 5 6 
#
# 1 0.013863 -0.005055 -0.005158 0.000000 0.000000 0.000000
# 2 -0.005055 0.008536 -0.001043 0.000000 0.000000 0.000000
# 3 -0.005158 -0.001043 0.012336 0.000000 0.000000 0.000000
# 4 0.000000 0.000000 0.000000 0.047241 0.000000 0.000000
# 5 0.000000 0.000000 0.000000 0.000000 0.028223 0.000000
# 6 0.000000 0.000000 0.000000 0.000000 0.000000 0.024367
#
#
# Mechanical properties :
#
#
# Convention : Reuss Voigt Hill
#
# Bulk Modulus (GPa) = 81.81655 86.03099 83.92377
# Shear Modulus (GPa) = 31.02645 33.98006 32.50326
#
# Velocity S-wave (km/s) = 3.80650 3.98356 3.89603
# Velocity P-wave (km/s) = 7.58470 7.83166 7.70917
#
# Compressibility (1/GPa) = 0.01222247
#
# Stress axis : x y z
#
# Youngs Moduli (GPa) = 72.13418 117.15300 81.06351
#
# Poissons Ratio (x) = 0.59219 0.41813
# Poissons Ratio (y) = 0.36463 0.08458
# Poissons Ratio (z) = 0.37207 0.12224
#
# Static dielectric constant tensor:
#      x y z
#    x 4.159390 0.000000 0.000000 
#    y 0.000000 3.874140 0.000000 
#    z 0.000000 0.000000 3.946110 
# 
# 
# High freq. dielectric constant tensor:
#      x y z
#    x 1.842380 0.000000 0.000000 
#    y 0.000000 1.853100 0.000000 
#    z 0.000000 0.000000 1.836580 
# 
# From -- ./inp_files/34859.got.cif
#   From: 2010.03.12/outbox.cif.g09.slc.cpg/sg22_18_cif.got.tgz:34859.got - 2010.04.14 02:24:06.
