data_PCOD8163196
_publ_section_title
;
Structure prediction by ZEFSAII (Michael W. Deem and Ramdas Pophale) SiO2 
 PCOD8163196
Probable space group: I 2 2 2
;
_chemical_formula_sum "Si O2"
_cell_formula_units_Z 48
_cell_length_a 5.184729
_cell_length_b 27.991974
_cell_length_c 16.648979
_cell_angle_alpha 90.000000
_cell_angle_beta 90.000000
_cell_angle_gamma 90.000000
_cell_volume 2416.279631
_symmetry_space_group_name_H-M "I 2 2 2"
_symmetry_group_IT_number 23
_symmetry_cell_setting 'orthorhombic'
loop_
_space_group_symop_operation_xyz
x,y,z
-x,-y,z
x,-y,-z
-x,y,-z
1/2+x,1/2+y,1/2+z
1/2-x,1/2-y,1/2+z
1/2+x,1/2-y,1/2-z
1/2-x,1/2+y,1/2-z
loop_
_atom_site_type_symbol
_atom_site_label
_atom_site_fract_x
_atom_site_fract_y
_atom_site_fract_z
Si Si1 0.353571 0.806770 0.206429
Si Si2 0.746345 0.626963 0.948332
Si Si3 0.001760 0.053488 0.904498
Si Si4 0.846883 0.196783 0.692548
Si Si5 0.246399 0.520959 0.090538
Si Si6 0.004630 0.609461 0.595094
O O1 0.570292 0.816252 0.272204
O O2 0.366565 0.752878 0.173879
O O3 0.428357 0.838919 0.130681
O O4 0.077269 0.818853 0.247006
O O5 0.649221 0.669418 0.891388
O O6 0.793335 0.577713 0.901396
O O7 0.500000 0.614199 0.000000
O O8 0.000000 0.641721 0.000000
O O9 0.762729 0.086049 0.873831
O O10 0.268661 0.075292 0.874281
O O11 0.000000 0.000000 0.868924
O O12 0.000000 0.051473 0.000000
O O13 0.500000 0.500000 0.134621
O O14 0.000000 0.500000 0.137265
O O15 0.246903 0.500000 0.000000
O O16 0.000000 0.615904 0.500000
#
# Coordination Sequence:
#
# PCOD8163196 Si02
#       6
#     8   8   8   8   8   8
#     4  10  21  42  58  76 113 154 193 225 293 361
#     4  12  21  34  58  89 113 138 196 244 278 329
#     4   9  17  30  50  84 114 138 176 220 276 338
#     4  10  23  39  59  79 109 158 189 231 290 349
#     4  10  16  30  50  79 111 148 171 221 284 344
#     4  10  19  32  58  86 107 144 186 236 282 327
#
# _framework density 19.865251000000001
#
# number of rings (size 3 to 8) (size 9 to 14) (size 15 to 20)
#    0.000    1.833    3.333    2.500    0.000    2.667 
#    0.000    2.500    0.000   10.000    0.000    0.000 
#    0.000    0.000    0.000    0.000    0.000    0.000 
#
# Total GULP energy -297449.520565 kJ/mol
# GULP energy per Si atom -12393.730024 kJ/mol
# Density = 1.982004 g / cm^3
# Si number density = 19.865251 Si / 1000 Ang^3
#
#
#
# Elastic Constant Matrix: (Units=GPa)
#
#
# Indices 1 2 3 4 5 6 
#
# 1 159.4306 49.8546 23.6195 0.0000 0.0000 0.0000
# 2 49.8546 122.4876 44.9575 0.0000 0.0000 0.0000
# 3 23.6195 44.9575 33.7962 0.0001 0.0000 -0.0001
# 4 0.0000 0.0000 0.0001 8.4267 0.0000 0.0000
# 5 0.0000 0.0000 0.0000 0.0000 15.8877 0.0000
# 6 0.0000 0.0000 -0.0001 0.0000 0.0000 49.8111
#
#
#
# Elastic Compliance Matrix: (Units=1/GPa)
#
#
# Indices 1 2 3 4 5 6 
#
# 1 0.007273 -0.002139 -0.002237 0.000000 0.000000 0.000000
# 2 -0.002139 0.016582 -0.020564 0.000000 0.000000 0.000000
# 3 -0.002237 -0.020564 0.058508 -0.000001 0.000000 0.000000
# 4 0.000000 0.000000 -0.000001 0.118671 0.000000 0.000000
# 5 0.000000 0.000000 0.000000 0.000000 0.062942 0.000000
# 6 0.000000 0.000000 0.000000 0.000000 0.000000 0.020076
#
#
# Mechanical properties :
#
#
# Convention : Reuss Voigt Hill
#
# Bulk Modulus (GPa) = 30.78577 61.39752 46.09165
# Shear Modulus (GPa) = 14.50284 27.97726 21.24005
#
# Velocity S-wave (km/s) = 2.70490 3.75687 3.27342
# Velocity P-wave (km/s) = 5.02854 7.05641 6.12695
#
# Compressibility (1/GPa) = 0.03248254
#
# Stress axis : x y z
#
# Youngs Moduli (GPa) = 137.50183 60.30499 17.09165
#
# Poissons Ratio (x) = 0.12898 0.03824
# Poissons Ratio (y) = 0.29410 0.35147
# Poissons Ratio (z) = 0.30766 1.24011
#
# Static dielectric constant tensor:
#      x y z
#    x 5.154910 0.000000 0.000000 
#    y 0.000000 3.758670 0.000000 
#    z 0.000000 0.000000 3.018430 
# 
# 
# High freq. dielectric constant tensor:
#      x y z
#    x 1.806650 0.000000 0.000000 
#    y 0.000000 1.784040 0.000000 
#    z 0.000000 0.000000 1.720320 
# 
# From -- ./inp_files/19241.got.cif
#   From: 2010.03.12/outbox.cif.g09.slc.cpg/sg23_10_cif.got.tgz:19241.got - 2010.04.14 02:50:06.
