data_PCOD8163687
_publ_section_title
;
Structure prediction by ZEFSAII (Michael W. Deem and Ramdas Pophale) SiO2 
 PCOD8163687
Probable space group: I 2 2 2
;
_chemical_formula_sum "Si O2"
_cell_formula_units_Z 52
_cell_length_a 10.004475
_cell_length_b 28.927230
_cell_length_c 8.953516
_cell_angle_alpha 90.000000
_cell_angle_beta 90.000000
_cell_angle_gamma 90.000000
_cell_volume 2591.163193
_symmetry_space_group_name_H-M "I 2 2 2"
_symmetry_group_IT_number 23
_symmetry_cell_setting 'orthorhombic'
loop_
_space_group_symop_operation_xyz
x,y,z
-x,-y,z
x,-y,-z
-x,y,-z
1/2+x,1/2+y,1/2+z
1/2-x,1/2-y,1/2+z
1/2+x,1/2-y,1/2-z
1/2-x,1/2+y,1/2-z
loop_
_atom_site_type_symbol
_atom_site_label
_atom_site_fract_x
_atom_site_fract_y
_atom_site_fract_z
Si Si1 0.747219 0.794140 0.655039
Si Si2 0.008997 0.147022 0.672268
Si Si3 0.505249 0.856936 0.676666
Si Si4 0.500000 0.500000 0.500000
Si Si5 0.500000 0.500000 0.000000
Si Si6 0.356571 0.444466 0.256140
Si Si7 0.454556 0.050116 0.827206
Si Si8 0.751869 0.301903 0.193896
O O1 0.897407 0.808392 0.697225
O O2 0.646349 0.833253 0.719490
O O3 0.714293 0.744298 0.719518
O O4 0.735965 0.789665 0.478666
O O5 0.072767 0.105145 0.763326
O O6 0.000000 0.132240 0.500000
O O7 0.862165 0.160178 0.730281
O O8 0.500000 0.862883 0.500000
O O9 0.474101 0.907079 0.746372
O O10 0.391913 0.823497 0.744865
O O11 0.402633 0.470183 0.401797
O O12 0.400444 0.469785 0.102875
O O13 0.198651 0.441858 0.280071
O O14 0.500000 0.000000 0.763566
O O15 0.500000 0.052699 0.000000
#
# Coordination Sequence:
#
# PCOD8163687 Si02
#       8
#     8   8   8   2   2   8   8   8
#     4  10  20  40  58  89 123 163 209 268 322 388
#     4  10  20  38  66  89 123 169 216 271 324 384
#     4  10  22  39  62  90 126 164 213 270 315 387
#     4  10  24  38  62  94 132 162 200 276 332 394
#     4  10  24  38  78  94 124 174 228 284 328 398
#     4  11  22  44  64  97 130 169 220 273 336 399
#     4  11  25  43  64  91 132 175 215 268 333 405
#     4  10  22  36  62  90 124 162 213 262 331 389
#
# _framework density 20.068207999999998
#
# number of rings (size 3 to 8) (size 9 to 14) (size 15 to 20)
#    0.000    1.692    2.308    1.846    0.000    6.462 
#    2.769    0.000    0.000    0.000    0.000    0.000 
#    0.000    0.000    0.000    0.000    0.000    0.000 
#
# Total GULP energy -322294.212465 kJ/mol
# GULP energy per Si atom -12395.931249 kJ/mol
# Density = 2.002253 g / cm^3
# Si number density = 20.068208 Si / 1000 Ang^3
#
#
#
# Elastic Constant Matrix: (Units=GPa)
#
#
# Indices 1 2 3 4 5 6 
#
# 1 107.9915 39.8226 38.4149 -0.0141 -0.0113 -0.0133
# 2 39.8226 148.6908 49.4004 -0.0020 -0.0023 0.0001
# 3 38.4149 49.4004 63.5892 -0.0521 -0.0524 -0.0407
# 4 -0.0141 -0.0020 -0.0521 32.9089 -0.0185 -0.0163
# 5 -0.0113 -0.0023 -0.0524 -0.0185 20.0058 -0.0200
# 6 -0.0133 0.0001 -0.0407 -0.0163 -0.0200 28.9115
#
#
#
# Elastic Compliance Matrix: (Units=1/GPa)
#
#
# Indices 1 2 3 4 5 6 
#
# 1 0.011922 -0.001078 -0.006364 -0.000005 -0.000010 -0.000003
# 2 -0.001078 0.009163 -0.006467 -0.000010 -0.000016 -0.000010
# 3 -0.006364 -0.006467 0.024594 0.000036 0.000060 0.000032
# 4 -0.000005 -0.000010 0.000036 0.030387 0.000028 0.000017
# 5 -0.000010 -0.000016 0.000060 0.000028 0.049986 0.000035
# 6 -0.000003 -0.000010 0.000032 0.000017 0.000035 0.034588
#
#
# Mechanical properties :
#
#
# Convention : Reuss Voigt Hill
#
# Bulk Modulus (GPa) = 55.99076 63.94969 59.97022
# Shear Modulus (GPa) = 25.71862 29.20749 27.46305
#
# Velocity S-wave (km/s) = 3.58377 3.81912 3.70332
# Velocity P-wave (km/s) = 6.71456 7.16819 6.94508
#
# Compressibility (1/GPa) = 0.01786009
#
# Stress axis : x y z
#
# Youngs Moduli (GPa) = 83.88181 109.13849 40.65952
#
# Poissons Ratio (x) = 0.11770 0.25876
# Poissons Ratio (y) = 0.09046 0.26293
# Poissons Ratio (z) = 0.53384 0.70577
#
# Static dielectric constant tensor:
#      x y z
#    x 3.908670 -0.000010 0.000010 
#    y -0.000010 3.726870 0.000000 
#    z 0.000010 0.000000 3.487560 
# 
# 
# High freq. dielectric constant tensor:
#      x y z
#    x 1.796740 0.000000 0.000000 
#    y 0.000000 1.796690 0.000000 
#    z 0.000000 0.000000 1.765890 
# 
# From -- ./inp_files/8845.got.cif
#   From: 2010.03.12/outbox.cif.g09.slc.cpg/sg23_5_cif.got.tgz:8845.got - 2010.04.14 02:50:06.
