data_PCOD8163847
_publ_section_title
;
Structure prediction by ZEFSAII (Michael W. Deem and Ramdas Pophale) SiO2 
 PCOD8163847
Probable space group: I 2 2 2
;
_chemical_formula_sum "Si O2"
_cell_formula_units_Z 64
_cell_length_a 9.327517
_cell_length_b 28.677428
_cell_length_c 11.943778
_cell_angle_alpha 90.000000
_cell_angle_beta 90.000000
_cell_angle_gamma 90.000000
_cell_volume 3194.831589
_symmetry_space_group_name_H-M "I 2 2 2"
_symmetry_group_IT_number 23
_symmetry_cell_setting 'orthorhombic'
loop_
_space_group_symop_operation_xyz
x,y,z
-x,-y,z
x,-y,-z
-x,y,-z
1/2+x,1/2+y,1/2+z
1/2-x,1/2-y,1/2+z
1/2+x,1/2-y,1/2-z
1/2-x,1/2+y,1/2-z
loop_
_atom_site_type_symbol
_atom_site_label
_atom_site_fract_x
_atom_site_fract_y
_atom_site_fract_z
Si Si1 0.667815 0.945101 0.490632
Si Si2 0.353045 0.762737 0.053221
Si Si3 0.167677 0.008348 0.123082
Si Si4 0.348314 0.411083 0.778845
Si Si5 0.252459 0.170599 0.769181
Si Si6 0.181220 0.072737 0.714951
Si Si7 0.061930 0.808390 0.738812
Si Si8 0.110040 0.730587 0.905498
O O1 0.500000 0.932501 0.500000
O O2 0.739466 0.923653 0.379134
O O3 0.747159 0.922209 0.594698
O O4 0.693589 0.000000 0.500000
O O5 0.271578 0.806478 0.108814
O O6 0.366992 0.721922 0.142981
O O7 0.500000 0.780999 0.000000
O O8 0.265812 0.739841 0.953762
O O9 0.201047 0.060562 0.167562
O O10 0.229843 0.972856 0.216252
O O11 0.000000 0.000000 0.110952
O O12 0.238408 0.000000 0.000000
O O13 0.510616 0.426608 0.806957
O O14 0.345718 0.356045 0.750797
O O15 0.247994 0.115212 0.787101
O O16 0.378713 0.189728 0.687763
O O17 0.102408 0.182384 0.708942
O O18 0.059770 0.779745 0.854285
O O19 0.000000 0.713512 0.000000
#
# Coordination Sequence:
#
# PCOD8163847 Si02
#       8
#     8   8   8   8   8   8   8   8
#     4  11  23  39  60  86 127 160 194 250 310 369
#     4  11  22  39  60  82 123 163 199 251 306 360
#     4   9  18  35  60  91 120 152 196 258 305 353
#     4  10  21  38  63  92 117 159 207 250 308 363
#     4  10  22  38  59  91 118 156 207 252 303 366
#     4  10  21  38  63  90 121 154 209 255 300 368
#     4  10  22  38  59  91 118 155 207 253 298 369
#     4  11  22  39  61  83 120 164 200 249 307 364
#
# _framework density 20.032354000000002
#
# number of rings (size 3 to 8) (size 9 to 14) (size 15 to 20)
#    0.000    1.750    3.750    0.375    1.750    2.000 
#    4.500    0.000    0.000    0.750    0.000    0.000 
#    0.000    0.000    0.000    0.000    0.000    0.000 
#
# Total GULP energy -396703.040388 kJ/mol
# GULP energy per Si atom -12396.970012 kJ/mol
# Density = 1.998676 g / cm^3
# Si number density = 20.032354 Si / 1000 Ang^3
#
#
#
# Elastic Constant Matrix: (Units=GPa)
#
#
# Indices 1 2 3 4 5 6 
#
# 1 68.4625 24.4926 19.0651 0.0002 0.0000 0.0000
# 2 24.4926 112.3891 29.3961 0.0006 0.0001 -0.0001
# 3 19.0651 29.3961 93.9744 0.0024 0.0004 -0.0001
# 4 0.0002 0.0006 0.0024 19.1544 -0.0001 -0.0002
# 5 0.0000 0.0001 0.0004 -0.0001 27.1931 0.0003
# 6 0.0000 -0.0001 -0.0001 -0.0002 0.0003 20.2274
#
#
#
# Elastic Compliance Matrix: (Units=1/GPa)
#
#
# Indices 1 2 3 4 5 6 
#
# 1 0.016322 -0.002931 -0.002395 0.000000 0.000000 0.000000
# 2 -0.002931 0.010217 -0.002601 0.000000 0.000000 0.000000
# 3 -0.002395 -0.002601 0.011941 -0.000001 0.000000 0.000000
# 4 0.000000 0.000000 -0.000001 0.052207 0.000000 0.000000
# 5 0.000000 0.000000 0.000000 0.000000 0.036774 -0.000001
# 6 0.000000 0.000000 0.000000 0.000000 -0.000001 0.049438
#
#
# Mechanical properties :
#
#
# Convention : Reuss Voigt Hill
#
# Bulk Modulus (GPa) = 44.19663 46.74819 45.47241
# Shear Modulus (GPa) = 24.96335 26.77313 25.86824
#
# Velocity S-wave (km/s) = 3.53392 3.65978 3.59740
# Velocity P-wave (km/s) = 6.22591 6.42227 6.32485
#
# Compressibility (1/GPa) = 0.02262616
#
# Stress axis : x y z
#
# Youngs Moduli (GPa) = 61.26776 97.87876 83.74714
#
# Poissons Ratio (x) = 0.28685 0.20054
# Poissons Ratio (y) = 0.17955 0.21785
# Poissons Ratio (z) = 0.14671 0.25462
#
# Static dielectric constant tensor:
#      x y z
#    x 3.516660 0.000000 0.000000 
#    y 0.000000 3.806590 0.000000 
#    z 0.000000 0.000000 3.751120 
# 
# 
# High freq. dielectric constant tensor:
#      x y z
#    x 1.762910 0.000000 0.000000 
#    y 0.000000 1.783790 0.000000 
#    z 0.000000 0.000000 1.783400 
# 
# From -- ./inp_files/14991.got.cif
#   From: 2010.03.12/outbox.cif.g09.slc.cpg/sg23_8_cif.got.tgz:14991.got - 2010.04.14 02:50:06.
