data_PCOD8163097
_publ_section_title
;
Structure prediction by ZEFSAII (Michael W. Deem and Ramdas Pophale) SiO2 
 PCOD8163097
Probable space group: F 2 2 2
;
_chemical_formula_sum "Si O2"
_cell_formula_units_Z 112
_cell_length_a 15.227131
_cell_length_b 29.352613
_cell_length_c 11.400176
_cell_angle_alpha 90.000000
_cell_angle_beta 90.000000
_cell_angle_gamma 90.000000
_cell_volume 5095.378014
_symmetry_space_group_name_H-M "F 2 2 2"
_symmetry_group_IT_number 22
_symmetry_cell_setting 'orthorhombic'
loop_
_space_group_symop_operation_xyz
x,y,z
-x,-y,z
x,-y,-z
-x,y,-z
x,1/2+y,1/2+z
-x,1/2-y,1/2+z
x,1/2-y,1/2-z
-x,1/2+y,1/2-z
1/2+x,y,1/2+z
1/2-x,-y,1/2+z
1/2+x,-y,1/2-z
1/2-x,y,1/2-z
1/2+x,1/2+y,z
1/2-x,1/2-y,z
1/2+x,1/2-y,-z
1/2-x,1/2+y,-z
loop_
_atom_site_type_symbol
_atom_site_label
_atom_site_fract_x
_atom_site_fract_y
_atom_site_fract_z
Si Si1 0.353692 0.801444 0.751043
Si Si2 0.595713 0.483245 0.188107
Si Si3 0.164145 0.057734 0.031458
Si Si4 0.401252 0.146498 0.019056
Si Si5 0.357334 0.953958 0.057705
Si Si6 0.752744 0.301498 0.387942
Si Si7 0.100085 0.152656 0.025268
O O1 0.387857 0.750000 0.750000
O O2 0.250000 0.803389 0.750000
O O3 0.382411 0.837121 0.849869
O O4 0.401000 0.813986 0.632381
O O5 0.500000 0.500000 0.223600
O O6 0.652970 0.527247 0.148337
O O7 0.633987 0.456583 0.300846
O O8 0.592151 0.450963 0.072606
O O9 0.155402 0.109338 0.070013
O O10 0.255392 0.046941 0.970609
O O11 0.500000 0.163908 0.000000
O O12 0.399820 0.091630 0.998576
O O13 0.331131 0.170473 0.933671
O O14 0.399207 0.000000 0.000000
O O15 0.750000 0.300233 0.250000
O O16 0.750000 0.250000 0.440311
O O17 0.845828 0.324695 0.418976
O O18 0.000000 0.139929 0.000000
#
# Coordination Sequence:
#
# PCOD8163097 Si02
#       7
#    16  16  16  16  16  16  16
#     4  11  24  48  76 104 142 188 243 310 366 431
#     4  11  25  43  69 101 141 184 240 299 351 416
#     4  11  23  46  71 101 135 187 245 298 357 424
#     4  12  29  48  74 110 151 193 248 302 372 445
#     4  12  27  45  71 102 146 195 241 295 364 429
#     4  11  26  49  74 105 149 193 237 300 376 455
#     4  12  26  44  76 108 141 184 242 300 371 440
#
# _framework density 21.980703999999999
#
# number of rings (size 3 to 8) (size 9 to 14) (size 15 to 20)
#    0.000    0.571    4.286    3.000    8.000    2.286 
#    0.000    0.000    0.000    0.000    0.000    0.000 
#    0.000    0.000    0.000    0.000    0.000    0.000 
#
# Total GULP energy -347017.409408 kJ/mol
# GULP energy per Si atom -12393.478907 kJ/mol
# Density = 2.193068 g / cm^3
# Si number density = 21.980704 Si / 1000 Ang^3
#
#
#
# Elastic Constant Matrix: (Units=GPa)
#
#
# Indices 1 2 3 4 5 6 
#
# 1 113.3410 28.8201 24.3523 0.0000 0.0000 0.0000
# 2 28.8201 148.5835 41.7427 0.0000 0.0000 0.0000
# 3 24.3523 41.7427 110.2952 0.0000 0.0000 0.0000
# 4 0.0000 0.0000 0.0000 40.9188 0.0000 0.0000
# 5 0.0000 0.0000 0.0000 0.0000 16.4415 0.0000
# 6 0.0000 0.0000 0.0000 0.0000 0.0000 20.1603
#
#
#
# Elastic Compliance Matrix: (Units=1/GPa)
#
#
# Indices 1 2 3 4 5 6 
#
# 1 0.009517 -0.001405 -0.001570 0.000000 0.000000 0.000000
# 2 -0.001405 0.007738 -0.002618 0.000000 0.000000 0.000000
# 3 -0.001570 -0.002618 0.010404 0.000000 0.000000 0.000000
# 4 0.000000 0.000000 0.000000 0.024439 0.000000 0.000000
# 5 0.000000 0.000000 0.000000 0.000000 0.060822 0.000000
# 6 0.000000 0.000000 0.000000 0.000000 0.000000 0.049602
#
#
# Mechanical properties :
#
#
# Convention : Reuss Voigt Hill
#
# Bulk Modulus (GPa) = 60.70300 62.44997 61.57648
# Shear Modulus (GPa) = 27.90178 33.99111 30.94644
#
# Velocity S-wave (km/s) = 3.56670 3.93670 3.75626
# Velocity P-wave (km/s) = 6.68118 7.00974 6.84743
#
# Compressibility (1/GPa) = 0.01647365
#
# Stress axis : x y z
#
# Youngs Moduli (GPa) = 105.07002 129.22587 96.11576
#
# Poissons Ratio (x) = 0.18158 0.15086
# Poissons Ratio (y) = 0.14763 0.25168
# Poissons Ratio (z) = 0.16492 0.33837
#
# Static dielectric constant tensor:
#      x y z
#    x 3.454530 0.000000 0.000000 
#    y 0.000000 4.481390 0.000000 
#    z 0.000000 0.000000 4.046760 
# 
# 
# High freq. dielectric constant tensor:
#      x y z
#    x 1.868110 0.000000 0.000000 
#    y 0.000000 1.882110 0.000000 
#    z 0.000000 0.000000 1.865430 
# 
# From -- ./inp_files/20319.got.cif
#   From: 2010.03.12/outbox.cif.g09.slc.cpg/sg22_11_cif.got.tgz:20319.got - 2010.04.14 02:24:06.
