data_PCOD8163603
_publ_section_title
;
Structure prediction by ZEFSAII (Michael W. Deem and Ramdas Pophale) SiO2 
 PCOD8163603
Probable space group: I 2 2 2
;
_chemical_formula_sum "Si O2"
_cell_formula_units_Z 52
_cell_length_a 8.911027
_cell_length_b 25.225577
_cell_length_c 12.564564
_cell_angle_alpha 90.000000
_cell_angle_beta 90.000000
_cell_angle_gamma 90.000000
_cell_volume 2824.335542
_symmetry_space_group_name_H-M "I 2 2 2"
_symmetry_group_IT_number 23
_symmetry_cell_setting 'orthorhombic'
loop_
_space_group_symop_operation_xyz
x,y,z
-x,-y,z
x,-y,-z
-x,y,-z
1/2+x,1/2+y,1/2+z
1/2-x,1/2-y,1/2+z
1/2+x,1/2-y,1/2-z
1/2-x,1/2+y,1/2-z
loop_
_atom_site_type_symbol
_atom_site_label
_atom_site_fract_x
_atom_site_fract_y
_atom_site_fract_z
Si Si1 0.060386 0.142876 0.225299
Si Si2 0.747603 0.742888 0.976850
Si Si3 0.430964 0.443970 0.890253
Si Si4 0.124521 0.664480 0.182183
Si Si5 0.538521 0.745157 0.168809
Si Si6 0.926830 0.447344 0.114065
Si Si7 0.000000 0.828085 0.000000
O O1 0.013019 0.091991 0.293340
O O2 0.233523 0.154129 0.244171
O O3 0.961425 0.192190 0.262493
O O4 0.034523 0.133550 0.099747
O O5 0.689702 0.739330 0.098263
O O6 0.827960 0.688661 0.934176
O O7 0.606870 0.753951 0.902084
O O8 0.859363 0.791748 0.970165
O O9 0.500000 0.500000 0.865597
O O10 0.252335 0.450411 0.897606
O O11 0.500000 0.420334 0.000000
O O12 0.034316 0.608792 0.171045
O O13 0.029116 0.706836 0.247531
O O14 0.000000 0.500000 0.172271
O O15 0.000000 0.445265 0.000000
#
# Coordination Sequence:
#
# PCOD8163603 Si02
#       7
#     8   8   8   8   8   8   4
#     4  10  22  34  57  83 117 150 187 237 282 344
#     4  10  22  34  55  80 118 152 183 240 275 353
#     4  10  21  40  60  83 113 146 187 237 295 343
#     4  10  20  36  56  83 115 153 185 236 287 345
#     4  10  20  38  53  85 115 151 195 220 296 340
#     4  10  21  37  54  84 112 147 187 235 289 340
#     4  12  20  38  51  84 117 148 194 226 284 334
#
# _framework density 18.411408999999999
#
# number of rings (size 3 to 8) (size 9 to 14) (size 15 to 20)
#    0.000    1.846    3.077    1.846    7.538    0.000 
#    5.538    0.385    0.000    0.000    0.000    2.154 
#    0.000    0.000    0.000    0.000    0.000    0.000 
#
# Total GULP energy -322222.599905 kJ/mol
# GULP energy per Si atom -12393.176919 kJ/mol
# Density = 1.836950 g / cm^3
# Si number density = 18.411409 Si / 1000 Ang^3
#
#
#
# Elastic Constant Matrix: (Units=GPa)
#
#
# Indices 1 2 3 4 5 6 
#
# 1 50.1984 31.2513 28.2296 0.0000 0.0000 0.0000
# 2 31.2513 131.6456 71.2898 0.0002 0.0000 0.0000
# 3 28.2296 71.2898 119.0719 0.0001 -0.0004 -0.0001
# 4 0.0000 0.0002 0.0001 28.8598 -0.0001 0.0000
# 5 0.0000 0.0000 -0.0004 -0.0001 13.1643 -0.0002
# 6 0.0000 0.0000 -0.0001 0.0000 -0.0002 21.5856
#
#
#
# Elastic Compliance Matrix: (Units=1/GPa)
#
#
# Indices 1 2 3 4 5 6 
#
# 1 0.024277 -0.003916 -0.003411 0.000000 0.000000 0.000000
# 2 -0.003916 0.011872 -0.006180 0.000000 0.000000 0.000000
# 3 -0.003411 -0.006180 0.012907 0.000000 0.000000 0.000000
# 4 0.000000 0.000000 0.000000 0.034650 0.000000 0.000000
# 5 0.000000 0.000000 0.000000 0.000000 0.075963 0.000001
# 6 0.000000 0.000000 0.000000 0.000000 0.000001 0.046327
#
#
# Mechanical properties :
#
#
# Convention : Reuss Voigt Hill
#
# Bulk Modulus (GPa) = 45.36631 62.49523 53.93077
# Shear Modulus (GPa) = 20.80236 24.06496 22.43366
#
# Velocity S-wave (km/s) = 3.36499 3.61926 3.49444
# Velocity P-wave (km/s) = 6.30804 7.17515 6.75552
#
# Compressibility (1/GPa) = 0.02204279
#
# Stress axis : x y z
#
# Youngs Moduli (GPa) = 41.19102 84.23043 77.47836
#
# Poissons Ratio (x) = 0.32984 0.26429
# Poissons Ratio (y) = 0.16130 0.47879
# Poissons Ratio (z) = 0.14051 0.52051
#
# Static dielectric constant tensor:
#      x y z
#    x 2.770200 0.000000 0.000000 
#    y 0.000000 3.869100 0.000000 
#    z 0.000000 0.000000 3.571690 
# 
# 
# High freq. dielectric constant tensor:
#      x y z
#    x 1.718570 0.000000 0.000000 
#    y 0.000000 1.706000 0.000000 
#    z 0.000000 0.000000 1.705710 
# 
# From -- ./inp_files/13009.got.cif
#   From: 2010.03.12/outbox.cif.g09.slc.cpg/sg23_7_cif.got.tgz:13009.got - 2010.04.14 02:50:06.
