data_PCOD8163253
_publ_section_title
;
Structure prediction by ZEFSAII (Michael W. Deem and Ramdas Pophale) SiO2 
 PCOD8163253
Probable space group: I 2 2 2
;
_chemical_formula_sum "Si O2"
_cell_formula_units_Z 40
_cell_length_a 15.240227
_cell_length_b 14.849643
_cell_length_c 8.704066
_cell_angle_alpha 90.000000
_cell_angle_beta 90.000000
_cell_angle_gamma 90.000000
_cell_volume 1969.833977
_symmetry_space_group_name_H-M "I 2 2 2"
_symmetry_group_IT_number 23
_symmetry_cell_setting 'orthorhombic'
loop_
_space_group_symop_operation_xyz
x,y,z
-x,-y,z
x,-y,-z
-x,y,-z
1/2+x,1/2+y,1/2+z
1/2-x,1/2-y,1/2+z
1/2+x,1/2-y,1/2-z
1/2-x,1/2+y,1/2-z
loop_
_atom_site_type_symbol
_atom_site_label
_atom_site_fract_x
_atom_site_fract_y
_atom_site_fract_z
Si Si1 0.008558 0.749965 0.169247
Si Si2 0.170582 0.198288 0.319322
Si Si3 0.077721 0.450499 0.836077
Si Si4 0.823471 0.183884 0.317346
Si Si5 0.267259 0.510591 0.181667
O O1 0.051193 0.652460 0.146275
O O2 0.075940 0.807724 0.267689
O O3 0.914823 0.749899 0.255886
O O4 0.000000 0.793125 0.000000
O O5 0.178254 0.199844 0.501863
O O6 0.258421 0.244560 0.257792
O O7 0.168567 0.092714 0.268132
O O8 0.170914 0.462833 0.752741
O O9 0.000000 0.500000 0.739743
O O10 0.084423 0.500000 0.000000
O O11 0.796668 0.085383 0.253411
O O12 0.265297 0.500000 0.000000
#
# Coordination Sequence:
#
# PCOD8163253 Si02
#       5
#     8   8   8   8   8
#     4  12  23  39  65  97 129 168 211 267 317 379
#     4  11  23  41  65  94 131 167 218 266 318 383
#     4  10  17  33  63  93 115 158 228 251 297 377
#     4  11  23  42  65  95 127 170 218 263 321 379
#     4   9  20  38  63  88 123 174 216 253 308 399
#
# _framework density 20.306279
#
# number of rings (size 3 to 8) (size 9 to 14) (size 15 to 20)
#    0.000    1.400    4.000    3.000    2.800    0.800 
#    0.000    8.000    0.000    1.200    0.000    0.000 
#    0.000    0.000    0.000    0.000    0.000    0.000 
#
# Total GULP energy -247848.772623 kJ/mol
# GULP energy per Si atom -12392.438631 kJ/mol
# Density = 2.026006 g / cm^3
# Si number density = 20.306279 Si / 1000 Ang^3
#
#
#
# Elastic Constant Matrix: (Units=GPa)
#
#
# Indices 1 2 3 4 5 6 
#
# 1 115.4335 26.2784 29.0092 0.0000 0.0000 0.0000
# 2 26.2784 117.0261 31.1769 0.0000 0.0000 0.0000
# 3 29.0092 31.1769 77.3103 0.0000 0.0000 0.0000
# 4 0.0000 0.0000 0.0000 19.1606 0.0000 0.0000
# 5 0.0000 0.0000 0.0000 0.0000 28.6196 0.0000
# 6 0.0000 0.0000 0.0000 0.0000 0.0000 37.1493
#
#
#
# Elastic Compliance Matrix: (Units=1/GPa)
#
#
# Indices 1 2 3 4 5 6 
#
# 1 0.009755 -0.001362 -0.003111 0.000000 0.000000 0.000000
# 2 -0.001362 0.009764 -0.003426 0.000000 0.000000 0.000000
# 3 -0.003111 -0.003426 0.015484 0.000000 0.000000 0.000000
# 4 0.000000 0.000000 0.000000 0.052190 0.000000 0.000000
# 5 0.000000 0.000000 0.000000 0.000000 0.034941 0.000000
# 6 0.000000 0.000000 0.000000 0.000000 0.000000 0.026918
#
#
# Mechanical properties :
#
#
# Convention : Reuss Voigt Hill
#
# Bulk Modulus (GPa) = 52.07243 53.63321 52.85282
# Shear Modulus (GPa) = 29.19666 31.87294 30.53480
#
# Velocity S-wave (km/s) = 3.79597 3.96613 3.88198
# Velocity P-wave (km/s) = 6.70162 6.88789 6.79539
#
# Compressibility (1/GPa) = 0.01920402
#
# Stress axis : x y z
#
# Youngs Moduli (GPa) = 102.51330 102.42008 64.58236
#
# Poissons Ratio (x) = 0.13946 0.20093
# Poissons Ratio (y) = 0.13958 0.22129
# Poissons Ratio (z) = 0.31894 0.35094
#
# Static dielectric constant tensor:
#      x y z
#    x 4.228220 0.000000 0.000000 
#    y 0.000000 3.972440 0.000000 
#    z 0.000000 0.000000 3.381050 
# 
# 
# High freq. dielectric constant tensor:
#      x y z
#    x 1.811090 0.000000 0.000000 
#    y 0.000000 1.804090 0.000000 
#    z 0.000000 0.000000 1.756370 
# 
# From -- ./inp_files/9567.got.cif
#   From: 2010.03.12/outbox.cif.g09.slc.cpg/sg23_5_cif.got.tgz:9567.got - 2010.04.14 02:50:06.
