data_PCOD8163586
_publ_section_title
;
Structure prediction by ZEFSAII (Michael W. Deem and Ramdas Pophale) SiO2 
 PCOD8163586
Probable space group: I 2 2 2
;
_chemical_formula_sum "Si O2"
_cell_formula_units_Z 48
_cell_length_a 8.625008
_cell_length_b 18.867976
_cell_length_c 13.721324
_cell_angle_alpha 90.000000
_cell_angle_beta 90.000000
_cell_angle_gamma 90.000000
_cell_volume 2232.959474
_symmetry_space_group_name_H-M "I 2 2 2"
_symmetry_group_IT_number 23
_symmetry_cell_setting 'orthorhombic'
loop_
_space_group_symop_operation_xyz
x,y,z
-x,-y,z
x,-y,-z
-x,y,-z
1/2+x,1/2+y,1/2+z
1/2-x,1/2-y,1/2+z
1/2+x,1/2-y,1/2-z
1/2-x,1/2+y,1/2-z
loop_
_atom_site_type_symbol
_atom_site_label
_atom_site_fract_x
_atom_site_fract_y
_atom_site_fract_z
Si Si1 0.000000 0.500000 0.696318
Si Si2 0.000000 0.317013 0.000000
Si Si3 0.163697 0.385112 0.825875
Si Si4 0.966450 0.866967 0.243221
Si Si5 0.265758 0.110743 0.859583
Si Si6 0.702591 0.687461 0.557031
Si Si7 0.971009 0.284882 0.316248
O O1 0.067050 0.442725 0.768716
O O2 0.129452 0.539236 0.628568
O O3 0.122401 0.264813 0.051872
O O4 0.902456 0.371885 0.066573
O O5 0.346642 0.407213 0.817110
O O6 0.140381 0.309770 0.771717
O O7 0.880254 0.856511 0.140973
O O8 0.126730 0.907481 0.217058
O O9 0.004618 0.797122 0.302951
O O10 0.365677 0.174640 0.814750
O O11 0.192028 0.139100 0.960375
O O12 0.883350 0.699953 0.581507
#
# Coordination Sequence:
#
# PCOD8163586 Si02
#       7
#     4   4   8   8   8   8   8
#     4  10  26  45  61  86 132 194 224 269 343 410
#     4  12  20  39  70 102 135 162 234 298 356 404
#     4  10  23  39  62  92 126 180 224 272 342 414
#     4  11  20  37  65  98 131 170 220 288 359 406
#     4  11  21  39  62  90 137 179 228 276 333 435
#     4  11  20  35  62 104 132 168 216 286 358 407
#     4  10  20  35  60  95 134 165 207 278 363 405
#
# _framework density 21.496134999999999
#
# number of rings (size 3 to 8) (size 9 to 14) (size 15 to 20)
#    0.000    1.333    3.333    3.500    2.333    1.000 
#    0.000   15.000    0.000    8.000    4.333    0.000 
#    0.000    0.000    0.000    0.000    0.000    0.000 
#
# Total GULP energy -297368.571660 kJ/mol
# GULP energy per Si atom -12390.357153 kJ/mol
# Density = 2.144721 g / cm^3
# Si number density = 21.496135 Si / 1000 Ang^3
#
#
#
# Elastic Constant Matrix: (Units=GPa)
#
#
# Indices 1 2 3 4 5 6 
#
# 1 146.5907 20.6515 47.7666 0.0000 0.0000 0.0000
# 2 20.6515 53.4064 18.0520 0.0000 0.0000 0.0000
# 3 47.7666 18.0520 73.2149 0.0000 0.0000 0.0000
# 4 0.0000 0.0000 0.0000 16.6433 0.0000 0.0000
# 5 0.0000 0.0000 0.0000 0.0000 40.3718 0.0000
# 6 0.0000 0.0000 0.0000 0.0000 0.0000 16.7394
#
#
#
# Elastic Compliance Matrix: (Units=1/GPa)
#
#
# Indices 1 2 3 4 5 6 
#
# 1 0.008786 -0.001593 -0.005339 0.000000 0.000000 0.000000
# 2 -0.001593 0.020715 -0.004069 0.000000 0.000000 0.000000
# 3 -0.005339 -0.004069 0.018145 0.000000 0.000000 0.000000
# 4 0.000000 0.000000 0.000000 0.060084 0.000000 0.000000
# 5 0.000000 0.000000 0.000000 0.000000 0.024770 0.000000
# 6 0.000000 0.000000 0.000000 0.000000 0.000000 0.059739
#
#
# Mechanical properties :
#
#
# Convention : Reuss Voigt Hill
#
# Bulk Modulus (GPa) = 38.99359 49.57247 44.28303
# Shear Modulus (GPa) = 22.44273 27.20035 24.82154
#
# Velocity S-wave (km/s) = 3.23466 3.56105 3.40177
# Velocity P-wave (km/s) = 5.66832 6.32608 6.00621
#
# Compressibility (1/GPa) = 0.02564524
#
# Stress axis : x y z
#
# Youngs Moduli (GPa) = 113.81838 48.27325 55.11131
#
# Poissons Ratio (x) = 0.07688 0.29426
# Poissons Ratio (y) = 0.18127 0.22422
# Poissons Ratio (z) = 0.60772 0.19640
#
# Static dielectric constant tensor:
#      x y z
#    x 4.634960 0.000000 0.000000 
#    y 0.000000 3.699660 0.000000 
#    z 0.000000 0.000000 3.780000 
# 
# 
# High freq. dielectric constant tensor:
#      x y z
#    x 1.870500 0.000000 0.000000 
#    y 0.000000 1.810780 0.000000 
#    z 0.000000 0.000000 1.823740 
# 
# From -- ./inp_files/20022.got.cif
#   From: 2010.03.12/outbox.cif.g09.slc.cpg/sg23_11_cif.got.tgz:20022.got - 2010.04.14 02:50:06.
