data_PCOD8163322
_publ_section_title
;
Structure prediction by ZEFSAII (Michael W. Deem and Ramdas Pophale) SiO2 
 PCOD8163322
Probable space group: I 2 2 2
;
_chemical_formula_sum "Si O2"
_cell_formula_units_Z 46
_cell_length_a 10.433876
_cell_length_b 9.414826
_cell_length_c 22.219258
_cell_angle_alpha 90.000000
_cell_angle_beta 90.000000
_cell_angle_gamma 90.000000
_cell_volume 2182.667194
_symmetry_space_group_name_H-M "I 2 2 2"
_symmetry_group_IT_number 23
_symmetry_cell_setting 'orthorhombic'
loop_
_space_group_symop_operation_xyz
x,y,z
-x,-y,z
x,-y,-z
-x,y,-z
1/2+x,1/2+y,1/2+z
1/2-x,1/2-y,1/2+z
1/2+x,1/2-y,1/2-z
1/2-x,1/2+y,1/2-z
loop_
_atom_site_type_symbol
_atom_site_label
_atom_site_fract_x
_atom_site_fract_y
_atom_site_fract_z
Si Si1 0.295813 0.327938 0.319293
Si Si2 0.351408 0.035163 0.262881
Si Si3 0.142533 0.543538 0.889224
Si Si4 0.799602 0.194078 0.563693
Si Si5 0.500000 0.500000 0.386065
Si Si6 0.000000 0.000000 0.500000
Si Si7 0.868163 0.803760 0.031837
O O1 0.327008 0.205506 0.270002
O O2 0.231768 0.467957 0.291009
O O3 0.197361 0.268970 0.370702
O O4 0.434239 0.375066 0.347167
O O5 0.500000 0.000000 0.249867
O O6 0.293298 0.962810 0.323260
O O7 0.192849 0.428191 0.936248
O O8 0.167479 0.696069 0.915519
O O9 0.000000 0.500000 0.874399
O O10 0.927128 0.109832 0.544318
O O11 0.751702 0.309267 0.514164
O O12 0.387475 0.549788 0.432065
O O13 0.000000 0.756342 0.000000
#
# Coordination Sequence:
#
# PCOD8163322 Si02
#       7
#     8   8   8   8   4   2   8
#     4  11  26  46  71 100 135 179 233 286 344 405
#     4  10  24  46  67  98 136 181 233 276 341 407
#     4  10  18  36  67  96 125 167 219 280 326 388
#     4  11  23  40  65 101 133 176 226 266 339 409
#     4  12  25  40  71 106 133 166 227 296 356 396
#     4  12  24  44  64  98 146 188 220 256 326 444
#     4  12  20  35  68 103 132 160 211 287 350 388
#
# _framework density 21.075132
#
# number of rings (size 3 to 8) (size 9 to 14) (size 15 to 20)
#    0.000    1.043    5.217    2.348    4.870    0.000 
#    9.391    0.000    0.000    0.000    0.000    0.000 
#    0.000    0.000    0.000    0.000    0.000    0.000 
#
# Total GULP energy -284965.719325 kJ/mol
# GULP energy per Si atom -12389.813884 kJ/mol
# Density = 2.102716 g / cm^3
# Si number density = 21.075132 Si / 1000 Ang^3
#
#
#
# Elastic Constant Matrix: (Units=GPa)
#
#
# Indices 1 2 3 4 5 6 
#
# 1 74.9232 35.5042 40.5892 0.0000 0.0000 0.0000
# 2 35.5042 114.7949 50.4196 0.0000 0.0000 0.0000
# 3 40.5892 50.4196 92.4946 0.0000 0.0000 0.0000
# 4 0.0000 0.0000 0.0000 47.6924 0.0000 0.0000
# 5 0.0000 0.0000 0.0000 0.0000 35.6455 0.0000
# 6 0.0000 0.0000 0.0000 0.0000 0.0000 33.7996
#
#
#
# Elastic Compliance Matrix: (Units=1/GPa)
#
#
# Indices 1 2 3 4 5 6 
#
# 1 0.018162 -0.002783 -0.006453 0.000000 0.000000 0.000000
# 2 -0.002783 0.011880 -0.005255 0.000000 0.000000 0.000000
# 3 -0.006453 -0.005255 0.016507 0.000000 0.000000 0.000000
# 4 0.000000 0.000000 0.000000 0.020968 0.000000 0.000000
# 5 0.000000 0.000000 0.000000 0.000000 0.028054 0.000000
# 6 0.000000 0.000000 0.000000 0.000000 0.000000 0.029586
#
#
# Mechanical properties :
#
#
# Convention : Reuss Voigt Hill
#
# Bulk Modulus (GPa) = 56.92104 59.47097 58.19600
# Shear Modulus (GPa) = 31.25133 33.80747 32.52940
#
# Velocity S-wave (km/s) = 3.85496 4.00952 3.93300
# Velocity P-wave (km/s) = 6.84701 7.05087 6.94969
#
# Compressibility (1/GPa) = 0.01756820
#
# Stress axis : x y z
#
# Youngs Moduli (GPa) = 55.06149 84.17671 60.57882
#
# Poissons Ratio (x) = 0.23426 0.39090
# Poissons Ratio (y) = 0.15323 0.31831
# Poissons Ratio (z) = 0.35530 0.44231
#
# Static dielectric constant tensor:
#      x y z
#    x 3.492130 0.000000 0.000000 
#    y 0.000000 3.765860 0.000000 
#    z 0.000000 0.000000 4.092360 
# 
# 
# High freq. dielectric constant tensor:
#      x y z
#    x 1.785300 0.000000 0.000000 
#    y 0.000000 1.832340 0.000000 
#    z 0.000000 0.000000 1.836450 
# 
# From -- ./inp_files/8703.got.cif
#   From: 2010.03.12/outbox.cif.g09.slc.cpg/sg23_5_cif.got.tgz:8703.got - 2010.04.14 02:50:06.
