data_PCOD8163132
_publ_section_title
;
Structure prediction by ZEFSAII (Michael W. Deem and Ramdas Pophale) SiO2 
 PCOD8163132
Probable space group: F 2 2 2
;
_chemical_formula_sum "Si O2"
_cell_formula_units_Z 60
_cell_length_a 10.802405
_cell_length_b 21.988867
_cell_length_c 10.783243
_cell_angle_alpha 90.000000
_cell_angle_beta 90.000000
_cell_angle_gamma 90.000000
_cell_volume 2561.372251
_symmetry_space_group_name_H-M "F 2 2 2"
_symmetry_group_IT_number 22
_symmetry_cell_setting 'orthorhombic'
loop_
_space_group_symop_operation_xyz
x,y,z
-x,-y,z
x,-y,-z
-x,y,-z
x,1/2+y,1/2+z
-x,1/2-y,1/2+z
x,1/2-y,1/2-z
-x,1/2+y,1/2-z
1/2+x,y,1/2+z
1/2-x,-y,1/2+z
1/2+x,-y,1/2-z
1/2-x,y,1/2-z
1/2+x,1/2+y,z
1/2-x,1/2-y,z
1/2+x,1/2-y,-z
1/2-x,1/2+y,-z
loop_
_atom_site_type_symbol
_atom_site_label
_atom_site_fract_x
_atom_site_fract_y
_atom_site_fract_z
Si Si1 0.727799 0.449700 0.894516
Si Si2 0.500000 0.882541 0.500000
Si Si3 0.614711 0.179514 0.285541
Si Si4 0.415543 0.843591 0.888790
Si Si5 0.750000 0.750000 0.250000
O O1 0.750000 0.471326 0.750000
O O2 0.588074 0.424033 0.912127
O O3 0.830635 0.399664 0.926071
O O4 0.750409 0.500000 0.000000
O O5 0.407520 0.836619 0.428534
O O6 0.596522 0.250000 0.250000
O O7 0.750000 0.156526 0.250000
O O8 0.512788 0.137948 0.217482
O O9 0.331402 0.789129 0.842201
O O10 0.500000 0.819072 0.000000
#
# Coordination Sequence:
#
# PCOD8163132 Si02
#       5
#    16   8  16  16   4
#     4  12  28  55  85 114 159 219 278 345 408 478
#     4  12  25  54  80 112 162 212 275 326 416 474
#     4  11  25  44  76 121 162 207 258 322 405 487
#     4  12  26  47  78 119 157 211 262 330 403 485
#     4  12  24  52  78 114 168 200 264 316 418 472
#
# _framework density 23.424942999999999
#
# number of rings (size 3 to 8) (size 9 to 14) (size 15 to 20)
#    0.000    0.267    5.333    2.000    1.867    5.867 
#    4.800    0.000    0.000    0.000    0.000    0.000 
#    0.000    0.000    0.000    0.000    0.000    0.000 
#
# Total GULP energy -185886.401881 kJ/mol
# GULP energy per Si atom -12392.426792 kJ/mol
# Density = 2.337163 g / cm^3
# Si number density = 23.424943 Si / 1000 Ang^3
#
#
#
# Elastic Constant Matrix: (Units=GPa)
#
#
# Indices 1 2 3 4 5 6 
#
# 1 189.6862 72.0626 76.2977 0.0000 0.0000 0.0000
# 2 72.0626 131.1250 77.9299 0.0000 0.0000 0.0000
# 3 76.2977 77.9299 176.4193 0.0000 0.0000 0.0000
# 4 0.0000 0.0000 0.0000 48.6362 0.0000 0.0000
# 5 0.0000 0.0000 0.0000 0.0000 58.0934 0.0000
# 6 0.0000 0.0000 0.0000 0.0000 0.0000 92.8187
#
#
#
# Elastic Compliance Matrix: (Units=1/GPa)
#
#
# Indices 1 2 3 4 5 6 
#
# 1 0.007069 -0.002804 -0.001818 0.000000 0.000000 0.000000
# 2 -0.002804 0.011453 -0.003847 0.000000 0.000000 0.000000
# 3 -0.001818 -0.003847 0.008154 0.000000 0.000000 0.000000
# 4 0.000000 0.000000 0.000000 0.020561 0.000000 0.000000
# 5 0.000000 0.000000 0.000000 0.000000 0.017214 0.000000
# 6 0.000000 0.000000 0.000000 0.000000 0.000000 0.010774
#
#
# Mechanical properties :
#
#
# Convention : Reuss Voigt Hill
#
# Bulk Modulus (GPa) = 102.69240 105.53452 104.11346
# Shear Modulus (GPa) = 52.40648 57.97234 55.18941
#
# Velocity S-wave (km/s) = 4.73504 4.98015 4.85914
# Velocity P-wave (km/s) = 8.59234 8.84416 8.71916
#
# Compressibility (1/GPa) = 0.00973782
#
# Stress axis : x y z
#
# Youngs Moduli (GPa) = 141.47250 87.31004 122.64021
#
# Poissons Ratio (x) = 0.24481 0.22301
# Poissons Ratio (y) = 0.39668 0.47176
# Poissons Ratio (z) = 0.25725 0.33585
#
# Static dielectric constant tensor:
#      x y z
#    x 5.672380 0.000000 0.000000 
#    y 0.000000 4.174290 0.000000 
#    z 0.000000 0.000000 4.052580 
# 
# 
# High freq. dielectric constant tensor:
#      x y z
#    x 1.957310 0.000000 0.000000 
#    y 0.000000 1.901830 0.000000 
#    z 0.000000 0.000000 1.944150 
# 
# From -- ./inp_files/17781.got.cif
#   From: 2010.03.12/outbox.cif.g09.slc.cpg/sg22_9_cif.got.tgz:17781.got - 2010.04.14 02:24:06.
