data_PCOD8163936
_publ_section_title
;
Structure prediction by ZEFSAII (Michael W. Deem and Ramdas Pophale) SiO2 
 PCOD8163936
Probable space group: I 2 2 2
;
_chemical_formula_sum "Si O2"
_cell_formula_units_Z 48
_cell_length_a 8.774154
_cell_length_b 29.293637
_cell_length_c 8.727404
_cell_angle_alpha 90.000000
_cell_angle_beta 90.000000
_cell_angle_gamma 90.000000
_cell_volume 2243.177440
_symmetry_space_group_name_H-M "I 2 2 2"
_symmetry_group_IT_number 23
_symmetry_cell_setting 'orthorhombic'
loop_
_space_group_symop_operation_xyz
x,y,z
-x,-y,z
x,-y,-z
-x,y,-z
1/2+x,1/2+y,1/2+z
1/2-x,1/2-y,1/2+z
1/2+x,1/2-y,1/2-z
1/2-x,1/2+y,1/2-z
loop_
_atom_site_type_symbol
_atom_site_label
_atom_site_fract_x
_atom_site_fract_y
_atom_site_fract_z
Si Si1 0.076290 0.715935 0.839242
Si Si2 0.433917 0.044291 0.328773
Si Si3 0.564812 0.135822 0.838380
Si Si4 0.362727 0.527631 0.341743
Si Si5 0.918290 0.868448 0.146758
Si Si6 0.063103 0.203130 0.664356
O O1 0.257724 0.712139 0.842688
O O2 0.020661 0.680837 0.712298
O O3 0.020938 0.766013 0.791611
O O4 0.000000 0.702268 0.000000
O O5 0.500000 0.042802 0.500000
O O6 0.482453 0.093290 0.267108
O O7 0.255887 0.035676 0.296483
O O8 0.500000 0.000000 0.239378
O O9 0.743295 0.147142 0.840298
O O10 0.500000 0.120539 0.000000
O O11 0.500000 0.500000 0.264608
O O12 0.311847 0.500000 0.500000
O O13 0.426685 0.577561 0.378791
O O14 0.014699 0.849066 0.292739
O O15 0.000000 0.845613 0.000000
O O16 0.000000 0.216471 0.500000
#
# Coordination Sequence:
#
# PCOD8163936 Si02
#       6
#     8   8   8   8   8   8
#     4  12  25  46  70  98 140 179 230 287 347 417
#     4  10  24  41  63  97 139 178 229 288 350 416
#     4  11  24  40  67  99 133 183 226 283 344 414
#     4  10  21  41  71 100 133 182 235 296 353 419
#     4  11  22  41  66 102 132 173 232 282 347 416
#     4  12  26  44  69  99 137 183 227 284 348 419
#
# _framework density 21.398219999999998
#
# number of rings (size 3 to 8) (size 9 to 14) (size 15 to 20)
#    0.000    1.000    1.667    5.500    4.667    2.667 
#    0.000    5.000    0.000    0.000    0.000    0.000 
#    0.000    0.000    0.000    0.000    0.000    0.000 
#
# Total GULP energy -297340.062196 kJ/mol
# GULP energy per Si atom -12389.169258 kJ/mol
# Density = 2.134952 g / cm^3
# Si number density = 21.398220 Si / 1000 Ang^3
#
#
#
# Elastic Constant Matrix: (Units=GPa)
#
#
# Indices 1 2 3 4 5 6 
#
# 1 166.7220 49.5773 63.2282 -0.0052 -0.0004 0.0007
# 2 49.5773 109.1638 38.7047 -0.0076 0.0020 0.0054
# 3 63.2282 38.7047 107.6867 -0.0331 0.0014 0.0509
# 4 -0.0052 -0.0076 -0.0331 53.4749 0.0012 0.0045
# 5 -0.0004 0.0020 0.0014 0.0012 34.5358 -0.0046
# 6 0.0007 0.0054 0.0509 0.0045 -0.0046 -46.1456
#
#
#
# Elastic Compliance Matrix: (Units=1/GPa)
#
#
# Indices 1 2 3 4 5 6 
#
# 1 0.008195 -0.002310 -0.003981 -0.000002 0.000000 -0.000005
# 2 -0.002310 0.011150 -0.002651 0.000000 -0.000001 -0.000002
# 3 -0.003981 -0.002651 0.012577 0.000007 0.000000 0.000014
# 4 -0.000002 0.000000 0.000007 0.018700 -0.000001 0.000002
# 5 0.000000 -0.000001 0.000000 -0.000001 0.028955 -0.000003
# 6 -0.000005 -0.000002 0.000014 0.000002 -0.000003 -0.021671
#
#
# Mechanical properties :
#
#
# Convention : Reuss Voigt Hill
#
# Bulk Modulus (GPa) = 71.24409 76.28812 73.76611
# Shear Modulus (GPa) = 62.13495 23.84383 42.98939
#
# Velocity S-wave (km/s) = 5.39449 3.34172 4.48707
# Velocity P-wave (km/s) = 8.49513 7.11467 7.83536
#
# Compressibility (1/GPa) = 0.01403625
#
# Stress axis : x y z
#
# Youngs Moduli (GPa) = 122.02795 89.68905 79.51258
#
# Poissons Ratio (x) = 0.20719 0.31656
# Poissons Ratio (y) = 0.28190 0.21079
# Poissons Ratio (z) = 0.48583 0.23776
#
# Static dielectric constant tensor:
#      x y z
#    x 4.152950 -0.000010 -0.000010 
#    y -0.000010 4.088530 0.000000 
#    z -0.000010 0.000000 3.729270 
# 
# 
# High freq. dielectric constant tensor:
#      x y z
#    x 1.849320 0.000000 0.000000 
#    y 0.000000 1.861100 0.000000 
#    z 0.000000 0.000000 1.832340 
# 
# From -- ./inp_files/7384.got.cif
#   From: 2010.03.12/outbox.cif.g09.slc.cpg/sg23_4_cif.got.tgz:7384.got - 2010.04.14 02:50:06.
