data_PCOD8163111
_publ_section_title
;
Structure prediction by ZEFSAII (Michael W. Deem and Ramdas Pophale) SiO2 
 PCOD8163111
Probable space group: F 2 2 2
;
_chemical_formula_sum "Si O2"
_cell_formula_units_Z 116
_cell_length_a 16.324546
_cell_length_b 17.657323
_cell_length_c 18.745952
_cell_angle_alpha 90.000000
_cell_angle_beta 90.000000
_cell_angle_gamma 90.000000
_cell_volume 5403.479077
_symmetry_space_group_name_H-M "F 2 2 2"
_symmetry_group_IT_number 22
_symmetry_cell_setting 'orthorhombic'
loop_
_space_group_symop_operation_xyz
x,y,z
-x,-y,z
x,-y,-z
-x,y,-z
x,1/2+y,1/2+z
-x,1/2-y,1/2+z
x,1/2-y,1/2-z
-x,1/2+y,1/2-z
1/2+x,y,1/2+z
1/2-x,-y,1/2+z
1/2+x,-y,1/2-z
1/2-x,y,1/2-z
1/2+x,1/2+y,z
1/2-x,1/2-y,z
1/2+x,1/2-y,-z
1/2-x,1/2+y,-z
loop_
_atom_site_type_symbol
_atom_site_label
_atom_site_fract_x
_atom_site_fract_y
_atom_site_fract_z
Si Si1 0.015029 0.085261 0.083981
Si Si2 0.448429 0.182494 0.070883
Si Si3 0.840225 0.317817 0.623457
Si Si4 0.375861 0.840030 0.330628
Si Si5 0.598669 0.169745 0.167695
Si Si6 0.750000 0.250000 0.750000
Si Si7 0.706066 0.093350 0.939704
Si Si8 0.270718 0.569011 0.399140
O O1 0.105859 0.106088 0.112026
O O2 0.952957 0.143099 0.120220
O O3 0.000000 0.000000 0.109951
O O4 0.000000 0.092591 0.000000
O O5 0.389018 0.252837 0.082968
O O6 0.505498 0.172678 0.140125
O O7 0.391669 0.108371 0.059679
O O8 0.500000 0.198283 0.000000
O O9 0.815016 0.299879 0.704774
O O10 0.751523 0.332023 0.588584
O O11 0.400881 0.856633 0.249417
O O12 0.355817 0.751017 0.340758
O O13 0.300011 0.893035 0.351747
O O14 0.643924 0.107372 0.120918
O O15 0.723411 0.021535 0.887672
O O16 0.743984 0.080335 0.017418
#
# Coordination Sequence:
#
# PCOD8163111 Si02
#       8
#    16  16  16  16  16   4  16  16
#     4  11  24  43  71 105 137 178 229 298 351 413
#     4  12  24  44  73 104 136 184 239 287 350 408
#     4  12  25  45  70 100 139 184 234 285 349 417
#     4  11  24  43  69 101 137 181 231 290 344 412
#     4  11  25  43  69 101 140 180 231 289 347 411
#     4  12  28  44  72  96 144 194 232 288 336 432
#     4  11  25  45  70 102 140 181 229 292 346 414
#     4  11  24  45  69 101 136 181 229 286 349 414
#
# _framework density 21.467649000000002
#
# number of rings (size 3 to 8) (size 9 to 14) (size 15 to 20)
#    0.000    0.690    4.138    2.897    3.862    4.966 
#    7.448    0.000    0.000    0.000    0.000    0.000 
#    0.000    0.000    0.000    0.000    0.000    0.000 
#
# Total GULP energy -359613.498402 kJ/mol
# GULP energy per Si atom -12400.465462 kJ/mol
# Density = 2.141879 g / cm^3
# Si number density = 21.467649 Si / 1000 Ang^3
#
#
#
# Elastic Constant Matrix: (Units=GPa)
#
#
# Indices 1 2 3 4 5 6 
#
# 1 131.6590 59.8105 52.9342 0.0000 0.0000 0.0000
# 2 59.8105 101.7701 67.5756 0.0000 0.0000 0.0000
# 3 52.9342 67.5756 122.3924 0.0000 0.0000 0.0000
# 4 0.0000 0.0000 0.0000 32.2441 0.0000 0.0000
# 5 0.0000 0.0000 0.0000 0.0000 46.9449 0.0000
# 6 0.0000 0.0000 0.0000 0.0000 0.0000 20.0835
#
#
#
# Elastic Compliance Matrix: (Units=1/GPa)
#
#
# Indices 1 2 3 4 5 6 
#
# 1 0.010610 -0.005034 -0.001809 0.000000 0.000000 0.000000
# 2 -0.005034 0.017902 -0.007707 0.000000 0.000000 0.000000
# 3 -0.001809 -0.007707 0.013208 0.000000 0.000000 0.000000
# 4 0.000000 0.000000 0.000000 0.031013 0.000000 0.000000
# 5 0.000000 0.000000 0.000000 0.000000 0.021302 0.000000
# 6 0.000000 0.000000 0.000000 0.000000 0.000000 0.049792
#
#
# Mechanical properties :
#
#
# Convention : Reuss Voigt Hill
#
# Bulk Modulus (GPa) = 79.24282 79.60689 79.42486
# Shear Modulus (GPa) = 28.22729 31.55457 29.89093
#
# Velocity S-wave (km/s) = 3.63006 3.83804 3.73550
# Velocity P-wave (km/s) = 7.38665 7.53681 7.46211
#
# Compressibility (1/GPa) = 0.01261944
#
# Stress axis : x y z
#
# Youngs Moduli (GPa) = 94.25390 55.85993 75.71114
#
# Poissons Ratio (x) = 0.28120 0.13698
# Poissons Ratio (y) = 0.47447 0.58350
# Poissons Ratio (z) = 0.17053 0.43051
#
# Static dielectric constant tensor:
#      x y z
#    x 4.182190 0.000000 0.000000 
#    y 0.000000 4.096640 0.000000 
#    z 0.000000 0.000000 3.881610 
# 
# 
# High freq. dielectric constant tensor:
#      x y z
#    x 1.855280 0.000000 0.000000 
#    y 0.000000 1.849010 0.000000 
#    z 0.000000 0.000000 1.840740 
# 
# From -- ./inp_files/38164.got.cif
#   From: 2010.03.12/outbox.cif.g09.slc.cpg/sg22_20_cif.got.tgz:38164.got - 2010.04.14 02:24:06.
