data_PCOD8163380
_publ_section_title
;
Structure prediction by ZEFSAII (Michael W. Deem and Ramdas Pophale) SiO2 
 PCOD8163380
Probable space group: I 2 2 2
;
_chemical_formula_sum "Si O2"
_cell_formula_units_Z 58
_cell_length_a 5.041225
_cell_length_b 30.448634
_cell_length_c 21.494789
_cell_angle_alpha 90.000000
_cell_angle_beta 90.000000
_cell_angle_gamma 90.000000
_cell_volume 3299.416041
_symmetry_space_group_name_H-M "I 2 2 2"
_symmetry_group_IT_number 23
_symmetry_cell_setting 'orthorhombic'
loop_
_space_group_symop_operation_xyz
x,y,z
-x,-y,z
x,-y,-z
-x,y,-z
1/2+x,1/2+y,1/2+z
1/2-x,1/2-y,1/2+z
1/2+x,1/2-y,1/2-z
1/2-x,1/2+y,1/2-z
loop_
_atom_site_type_symbol
_atom_site_label
_atom_site_fract_x
_atom_site_fract_y
_atom_site_fract_z
Si Si1 0.500000 0.000000 0.500000
Si Si2 0.150548 0.565578 0.905941
Si Si3 0.627742 0.046323 0.267067
Si Si4 0.634209 0.756385 0.831005
Si Si5 0.634026 0.380863 0.105405
Si Si6 0.372592 0.696896 0.283517
Si Si7 0.254238 0.710476 0.043572
Si Si8 0.379308 0.397816 0.754204
O O1 0.306103 0.971191 0.457494
O O2 0.207708 0.542990 0.839453
O O3 0.352757 0.604742 0.924144
O O4 0.849127 0.581771 0.907359
O O5 0.411354 0.082455 0.252582
O O6 0.899619 0.064972 0.234622
O O7 0.500000 0.000000 0.243590
O O8 0.659199 0.712752 0.788215
O O9 0.342427 0.778188 0.826888
O O10 0.718586 0.745798 0.901433
O O11 0.834587 0.792508 0.806173
O O12 0.744791 0.336943 0.075394
O O13 0.565753 0.376965 0.178215
O O14 0.361496 0.644173 0.291146
O O15 0.500000 0.717357 0.000000
O O16 0.000000 0.717700 0.000000
#
# Coordination Sequence:
#
# PCOD8163380 Si02
#       8
#     2   8   8   8   8   8   8   8
#     4  12  24  38  48  62  84 122 188 214 288 302
#     4  10  23  34  49  61  87 121 165 223 264 312
#     4  10  19  34  47  71  96 129 161 210 264 321
#     4  10  21  35  53  78 104 129 169 219 269 309
#     4  10  22  38  48  69  92 122 168 217 267 313
#     4  10  19  35  56  77 100 128 171 225 268 306
#     4  12  24  37  54  74 104 139 171 207 266 332
#     4  10  19  33  56  71  97 126 172 212 270 315
#
# _framework density 17.578866999999999
#
# number of rings (size 3 to 8) (size 9 to 14) (size 15 to 20)
#    0.000    1.655    2.069    2.897    2.897    1.103 
#    0.000    0.000    0.000    0.000    0.000    0.000 
#    0.000    0.000    0.000    0.000    0.000  144.828 
#
# Total GULP energy -359437.241923 kJ/mol
# GULP energy per Si atom -12394.387653 kJ/mol
# Density = 1.753886 g / cm^3
# Si number density = 17.578867 Si / 1000 Ang^3
#
#
#
# Elastic Constant Matrix: (Units=GPa)
#
#
# Indices 1 2 3 4 5 6 
#
# 1 83.3994 7.5843 4.4156 0.0000 0.0000 0.0000
# 2 7.5843 78.5952 14.9860 0.0000 0.0000 0.0000
# 3 4.4156 14.9860 35.4942 0.0000 0.0000 0.0000
# 4 0.0000 0.0000 0.0000 24.9706 0.0000 0.0000
# 5 0.0000 0.0000 0.0000 0.0000 14.5778 0.0000
# 6 0.0000 0.0000 0.0000 0.0000 0.0000 21.1880
#
#
#
# Elastic Compliance Matrix: (Units=1/GPa)
#
#
# Indices 1 2 3 4 5 6 
#
# 1 0.012136 -0.000961 -0.001104 0.000000 0.000000 0.000000
# 2 -0.000961 0.013913 -0.005755 0.000000 0.000000 0.000000
# 3 -0.001104 -0.005755 0.030741 0.000000 0.000000 0.000000
# 4 0.000000 0.000000 0.000000 0.040047 0.000000 0.000000
# 5 0.000000 0.000000 0.000000 0.000000 0.068597 0.000000
# 6 0.000000 0.000000 0.000000 0.000000 0.000000 0.047196
#
#
# Mechanical properties :
#
#
# Convention : Reuss Voigt Hill
#
# Bulk Modulus (GPa) = 24.30067 27.94005 26.12036
# Shear Modulus (GPa) = 20.66220 23.51415 22.08817
#
# Velocity S-wave (km/s) = 3.43213 3.66134 3.54859
# Velocity P-wave (km/s) = 5.43690 5.81399 5.62860
#
# Compressibility (1/GPa) = 0.04115113
#
# Stress axis : x y z
#
# Youngs Moduli (GPa) = 82.39731 71.87306 32.53009
#
# Poissons Ratio (x) = 0.06904 0.03592
# Poissons Ratio (y) = 0.07915 0.18721
# Poissons Ratio (z) = 0.09098 0.41362
#
# Static dielectric constant tensor:
#      x y z
#    x 3.389000 0.000000 0.000000 
#    y 0.000000 3.196810 0.000000 
#    z 0.000000 0.000000 2.904790 
# 
# 
# High freq. dielectric constant tensor:
#      x y z
#    x 1.701280 0.000000 0.000000 
#    y 0.000000 1.673040 0.000000 
#    z 0.000000 0.000000 1.621960 
# 
# From -- ./inp_files/23279.got.cif
#   From: 2010.03.12/outbox.cif.g09.slc.cpg/sg23_12_cif.got.tgz:23279.got - 2010.04.14 02:50:06.
