data_PCOD8163674
_publ_section_title
;
Structure prediction by ZEFSAII (Michael W. Deem and Ramdas Pophale) SiO2 
 PCOD8163674
Probable space group: I 2 2 2
;
_chemical_formula_sum "Si O2"
_cell_formula_units_Z 40
_cell_length_a 15.162529
_cell_length_b 6.277396
_cell_length_c 17.056952
_cell_angle_alpha 90.000000
_cell_angle_beta 90.000000
_cell_angle_gamma 90.000000
_cell_volume 1623.501141
_symmetry_space_group_name_H-M "I 2 2 2"
_symmetry_group_IT_number 23
_symmetry_cell_setting 'orthorhombic'
loop_
_space_group_symop_operation_xyz
x,y,z
-x,-y,z
x,-y,-z
-x,y,-z
1/2+x,1/2+y,1/2+z
1/2-x,1/2-y,1/2+z
1/2+x,1/2-y,1/2-z
1/2-x,1/2+y,1/2-z
loop_
_atom_site_type_symbol
_atom_site_label
_atom_site_fract_x
_atom_site_fract_y
_atom_site_fract_z
Si Si1 0.426874 0.775162 0.292223
Si Si2 0.780318 0.333368 0.681858
Si Si3 0.183722 0.847078 0.928966
Si Si4 0.659620 0.442351 0.920623
Si Si5 0.107648 0.201202 0.735130
O O1 0.361984 0.921717 0.237001
O O2 0.399503 0.767600 0.384637
O O3 0.530721 0.839543 0.279821
O O4 0.411142 0.541137 0.258513
O O5 0.738872 0.524016 0.634546
O O6 0.705719 0.230889 0.737731
O O7 0.814759 0.154830 0.624191
O O8 0.252126 0.668557 0.956758
O O9 0.150574 0.000000 0.000000
O O10 0.604218 0.290502 0.860797
O O11 0.604403 0.500000 0.000000
#
# Coordination Sequence:
#
# PCOD8163674 Si02
#       5
#     8   8   8   8   8
#     4   9  19  37  62  92 118 162 214 245 300 365
#     4  10  20  38  62  88 120 164 210 252 300 360
#     4  11  21  37  63  91 124 161 199 255 313 358
#     4  11  21  37  63  91 124 161 199 255 313 358
#     4   9  19  37  62  92 118 162 214 245 300 365
#
# _framework density 24.638110000000001
#
# number of rings (size 3 to 8) (size 9 to 14) (size 15 to 20)
#    0.000    2.000    4.000    0.000    0.000    0.000 
#    0.000   20.000    0.000    2.400    0.000    0.000 
#    0.000    0.000    0.000    0.000    0.000    0.000 
#
# Total GULP energy -247845.699346 kJ/mol
# GULP energy per Si atom -12392.284967 kJ/mol
# Density = 2.458203 g / cm^3
# Si number density = 24.638110 Si / 1000 Ang^3
#
#
#
# Elastic Constant Matrix: (Units=GPa)
#
#
# Indices 1 2 3 4 5 6 
#
# 1 137.4678 8.2843 40.1178 0.0000 0.0000 0.0000
# 2 8.2843 22.7596 4.3658 0.0000 0.0000 0.0000
# 3 40.1178 4.3658 155.9164 0.0000 0.0000 0.0000
# 4 0.0000 0.0000 0.0000 40.5297 0.0000 0.0000
# 5 0.0000 0.0000 0.0000 0.0000 22.1874 0.0000
# 6 0.0000 0.0000 0.0000 0.0000 0.0000 28.8773
#
#
#
# Elastic Compliance Matrix: (Units=1/GPa)
#
#
# Indices 1 2 3 4 5 6 
#
# 1 0.008008 -0.002533 -0.001989 0.000000 0.000000 0.000000
# 2 -0.002533 0.044976 -0.000608 0.000000 0.000000 0.000000
# 3 -0.001989 -0.000608 0.006943 0.000000 0.000000 0.000000
# 4 0.000000 0.000000 0.000000 0.024673 0.000000 0.000000
# 5 0.000000 0.000000 0.000000 0.000000 0.045071 0.000000
# 6 0.000000 0.000000 0.000000 0.000000 0.000000 0.034629
#
#
# Mechanical properties :
#
#
# Convention : Reuss Voigt Hill
#
# Bulk Modulus (GPa) = 20.13447 46.85327 33.49387
# Shear Modulus (GPa) = 26.16223 35.87728 31.01975
#
# Velocity S-wave (km/s) = 3.26215 3.82012 3.55211
# Velocity P-wave (km/s) = 4.73061 6.20610 5.51789
#
# Compressibility (1/GPa) = 0.04966607
#
# Stress axis : x y z
#
# Youngs Moduli (GPa) = 124.88017 22.23403 144.03817
#
# Poissons Ratio (x) = 0.05632 0.28656
# Poissons Ratio (y) = 0.31633 0.08752
# Poissons Ratio (z) = 0.24845 0.01351
#
# Static dielectric constant tensor:
#      x y z
#    x 5.631940 0.000000 0.000000 
#    y 0.000000 4.956390 0.000000 
#    z 0.000000 0.000000 4.703370 
# 
# 
# High freq. dielectric constant tensor:
#      x y z
#    x 1.960130 0.000000 0.000000 
#    y 0.000000 2.021230 0.000000 
#    z 0.000000 0.000000 1.974430 
# 
# From -- ./inp_files/9769.got.cif
#   From: 2010.03.12/outbox.cif.g09.slc.cpg/sg23_5_cif.got.tgz:9769.got - 2010.04.14 02:50:06.
