data_PCOD8163737
_publ_section_title
;
Structure prediction by ZEFSAII (Michael W. Deem and Ramdas Pophale) SiO2 
 PCOD8163737
Probable space group: I 2 2 2
;
_chemical_formula_sum "Si O2"
_cell_formula_units_Z 42
_cell_length_a 14.447903
_cell_length_b 10.399094
_cell_length_c 12.649855
_cell_angle_alpha 90.000000
_cell_angle_beta 90.000000
_cell_angle_gamma 90.000000
_cell_volume 1900.578747
_symmetry_space_group_name_H-M "I 2 2 2"
_symmetry_group_IT_number 23
_symmetry_cell_setting 'orthorhombic'
loop_
_space_group_symop_operation_xyz
x,y,z
-x,-y,z
x,-y,-z
-x,y,-z
1/2+x,1/2+y,1/2+z
1/2-x,1/2-y,1/2+z
1/2+x,1/2-y,1/2-z
1/2-x,1/2+y,1/2-z
loop_
_atom_site_type_symbol
_atom_site_label
_atom_site_fract_x
_atom_site_fract_y
_atom_site_fract_z
Si Si1 0.500000 0.500000 0.000000
Si Si2 0.173771 0.845388 0.912065
Si Si3 0.986516 0.801380 0.668213
Si Si4 0.373625 0.064741 0.102983
Si Si5 0.829914 0.685762 0.282802
Si Si6 0.633396 0.626811 0.356929
O O1 0.446854 0.403876 0.081569
O O2 0.282070 0.862829 0.939432
O O3 0.160209 0.717817 0.841916
O O4 0.144665 0.973298 0.848044
O O5 0.116613 0.832138 0.021204
O O6 0.947454 0.661354 0.648371
O O7 0.956122 0.840977 0.786517
O O8 0.098306 0.784826 0.659136
O O9 0.354832 0.962264 0.196214
O O10 0.418108 0.000000 0.000000
O O11 0.723103 0.707411 0.316165
#
# Coordination Sequence:
#
# PCOD8163737 Si02
#       6
#     2   8   8   8   8   8
#     4  12  28  40  66 106 132 166 216 282 348 378
#     4  10  20  41  67  92 128 170 225 264 333 398
#     4  12  25  42  65  98 137 165 218 276 328 401
#     4  11  21  41  67  94 126 175 219 273 329 393
#     4  11  22  39  65  97 127 172 222 270 327 392
#     4  10  22  41  65  93 129 176 215 272 330 392
#
# _framework density 22.098533
#
# number of rings (size 3 to 8) (size 9 to 14) (size 15 to 20)
#    0.000    1.143    5.714    2.857    0.000    1.524 
#    0.000    2.857    0.000    2.286    0.000    0.000 
#    0.000    0.000    0.000    0.000    0.000    0.000 
#
# Total GULP energy -260234.684537 kJ/mol
# GULP energy per Si atom -12392.127835 kJ/mol
# Density = 2.204824 g / cm^3
# Si number density = 22.098533 Si / 1000 Ang^3
#
#
#
# Elastic Constant Matrix: (Units=GPa)
#
#
# Indices 1 2 3 4 5 6 
#
# 1 70.5193 20.3919 13.8590 0.0000 0.0000 0.0000
# 2 20.3919 93.7941 66.4656 0.0000 0.0000 0.0000
# 3 13.8590 66.4656 151.6591 0.0000 0.0000 0.0000
# 4 0.0000 0.0000 0.0000 46.7217 0.0000 0.0000
# 5 0.0000 0.0000 0.0000 0.0000 22.7404 0.0000
# 6 0.0000 0.0000 0.0000 0.0000 0.0000 21.0981
#
#
#
# Elastic Compliance Matrix: (Units=1/GPa)
#
#
# Indices 1 2 3 4 5 6 
#
# 1 0.015133 -0.003351 0.000086 0.000000 0.000000 0.000000
# 2 -0.003351 0.016206 -0.006796 0.000000 0.000000 0.000000
# 3 0.000086 -0.006796 0.009564 0.000000 0.000000 0.000000
# 4 0.000000 0.000000 0.000000 0.021403 0.000000 0.000000
# 5 0.000000 0.000000 0.000000 0.000000 0.043975 0.000000
# 6 0.000000 0.000000 0.000000 0.000000 0.000000 0.047398
#
#
# Mechanical properties :
#
#
# Convention : Reuss Voigt Hill
#
# Bulk Modulus (GPa) = 48.12195 57.48949 52.80572
# Shear Modulus (GPa) = 27.66583 32.46244 30.06413
#
# Velocity S-wave (km/s) = 3.54210 3.83689 3.69244
# Velocity P-wave (km/s) = 6.20903 6.76022 6.49048
#
# Compressibility (1/GPa) = 0.02078054
#
# Stress axis : x y z
#
# Youngs Moduli (GPa) = 66.08249 61.70479 104.55407
#
# Poissons Ratio (x) = 0.20675 -0.00895
# Poissons Ratio (y) = 0.22142 0.71058
# Poissons Ratio (z) = -0.00566 0.41936
#
# Static dielectric constant tensor:
#      x y z
#    x 4.055970 0.000000 0.000000 
#    y 0.000000 3.953590 0.000000 
#    z 0.000000 0.000000 4.009060 
# 
# 
# High freq. dielectric constant tensor:
#      x y z
#    x 1.864900 0.000000 0.000000 
#    y 0.000000 1.855970 0.000000 
#    z 0.000000 0.000000 1.869630 
# 
# From -- ./inp_files/17351.got.cif
#   From: 2010.03.12/outbox.cif.g09.slc.cpg/sg23_9_cif.got.tgz:17351.got - 2010.04.14 02:50:06.
