data_PCOD8163988
_publ_section_title
;
Structure prediction by ZEFSAII (Michael W. Deem and Ramdas Pophale) SiO2 
 PCOD8163988
Probable space group: I 2 2 2
;
_chemical_formula_sum "Si O2"
_cell_formula_units_Z 48
_cell_length_a 5.056939
_cell_length_b 22.942679
_cell_length_c 18.107405
_cell_angle_alpha 90.000000
_cell_angle_beta 90.000000
_cell_angle_gamma 90.000000
_cell_volume 2100.816206
_symmetry_space_group_name_H-M "I 2 2 2"
_symmetry_group_IT_number 23
_symmetry_cell_setting 'orthorhombic'
loop_
_space_group_symop_operation_xyz
x,y,z
-x,-y,z
x,-y,-z
-x,y,-z
1/2+x,1/2+y,1/2+z
1/2-x,1/2-y,1/2+z
1/2+x,1/2-y,1/2-z
1/2-x,1/2+y,1/2-z
loop_
_atom_site_type_symbol
_atom_site_label
_atom_site_fract_x
_atom_site_fract_y
_atom_site_fract_z
Si Si1 0.945951 0.399944 0.820870
Si Si2 0.938328 0.121607 0.582105
Si Si3 0.038186 0.275823 0.781140
Si Si4 0.740040 0.125893 0.048286
Si Si5 0.680716 0.242993 0.567656
Si Si6 0.267125 0.962730 0.178415
O O1 0.693938 0.389053 0.870202
O O2 0.876283 0.449073 0.760990
O O3 0.193301 0.411921 0.876819
O O4 0.011286 0.344504 0.769419
O O5 0.892682 0.191289 0.577984
O O6 0.000000 0.096481 0.500000
O O7 0.345725 0.259802 0.771116
O O8 0.973691 0.257328 0.864744
O O9 0.678756 0.194242 0.062502
O O10 0.778977 0.093523 0.126597
O O11 0.500000 0.099780 0.000000
O O12 0.000000 0.117559 0.000000
O O13 0.500000 0.226146 0.500000
O O14 0.500000 0.000000 0.139965
O O15 0.000000 0.000000 0.185182
#
# Coordination Sequence:
#
# PCOD8163988 Si02
#       6
#     8   8   8   8   8   8
#     4  11  24  40  63  94 125 166 213 261 320 382
#     4  11  21  39  66  99 135 168 200 244 311 396
#     4  11  22  36  58  89 128 168 207 251 304 379
#     4  11  25  42  65  95 130 171 217 267 319 381
#     4  10  22  38  61  96 137 172 202 242 306 383
#     4  12  27  47  69  90 122 168 224 286 334 372
#
# _framework density 22.848261999999998
#
# number of rings (size 3 to 8) (size 9 to 14) (size 15 to 20)
#    0.000    1.000    0.000    8.000    0.000   11.333 
#    0.000    0.000    0.000    7.500    0.000    0.000 
#    0.000    0.000    0.000    0.000    0.000    0.000 
#
# Total GULP energy -297502.206073 kJ/mol
# GULP energy per Si atom -12395.925253 kJ/mol
# Density = 2.279626 g / cm^3
# Si number density = 22.848262 Si / 1000 Ang^3
#
#
#
# Elastic Constant Matrix: (Units=GPa)
#
#
# Indices 1 2 3 4 5 6 
#
# 1 132.6651 21.3668 35.3259 0.0000 0.0000 0.0000
# 2 21.3668 54.0461 31.5368 0.0000 0.0000 0.0000
# 3 35.3259 31.5368 121.2265 0.0000 0.0000 0.0000
# 4 0.0000 0.0000 0.0000 20.0126 0.0000 0.0000
# 5 0.0000 0.0000 0.0000 0.0000 47.9170 0.0000
# 6 0.0000 0.0000 0.0000 0.0000 0.0000 24.6195
#
#
#
# Elastic Compliance Matrix: (Units=1/GPa)
#
#
# Indices 1 2 3 4 5 6 
#
# 1 0.008394 -0.002230 -0.001866 0.000000 0.000000 0.000000
# 2 -0.002230 0.022406 -0.005179 0.000000 0.000000 0.000000
# 3 -0.001866 -0.005179 0.010140 0.000000 0.000000 0.000000
# 4 0.000000 0.000000 0.000000 0.049969 0.000000 0.000000
# 5 0.000000 0.000000 0.000000 0.000000 0.020869 0.000000
# 6 0.000000 0.000000 0.000000 0.000000 0.000000 0.040618
#
#
# Mechanical properties :
#
#
# Convention : Reuss Voigt Hill
#
# Bulk Modulus (GPa) = 44.66152 53.82185 49.24168
# Shear Modulus (GPa) = 28.02539 33.15702 30.59120
#
# Velocity S-wave (km/s) = 3.50607 3.81357 3.66305
# Velocity P-wave (km/s) = 5.99829 6.55732 6.28402
#
# Compressibility (1/GPa) = 0.02239064
#
# Stress axis : x y z
#
# Youngs Moduli (GPa) = 119.13651 44.63019 98.61801
#
# Poissons Ratio (x) = 0.09951 0.18402
# Poissons Ratio (y) = 0.26563 0.51077
# Poissons Ratio (z) = 0.22230 0.23115
#
# Static dielectric constant tensor:
#      x y z
#    x 3.934620 0.000000 0.000000 
#    y 0.000000 4.095640 0.000000 
#    z 0.000000 0.000000 4.354350 
# 
# 
# High freq. dielectric constant tensor:
#      x y z
#    x 1.913260 0.000000 0.000000 
#    y 0.000000 1.880060 0.000000 
#    z 0.000000 0.000000 1.921720 
# 
# From -- ./inp_files/23185.got.cif
#   From: 2010.03.12/outbox.cif.g09.slc.cpg/sg23_12_cif.got.tgz:23185.got - 2010.04.14 02:50:06.
