data_PCOD8163797
_publ_section_title
;
Structure prediction by ZEFSAII (Michael W. Deem and Ramdas Pophale) SiO2 
 PCOD8163797
Probable space group: I 2 2 2
;
_chemical_formula_sum "Si O2"
_cell_formula_units_Z 44
_cell_length_a 5.424583
_cell_length_b 14.063815
_cell_length_c 27.213529
_cell_angle_alpha 90.000000
_cell_angle_beta 90.000000
_cell_angle_gamma 90.000000
_cell_volume 2076.129156
_symmetry_space_group_name_H-M "I 2 2 2"
_symmetry_group_IT_number 23
_symmetry_cell_setting 'orthorhombic'
loop_
_space_group_symop_operation_xyz
x,y,z
-x,-y,z
x,-y,-z
-x,y,-z
1/2+x,1/2+y,1/2+z
1/2-x,1/2-y,1/2+z
1/2+x,1/2-y,1/2-z
1/2-x,1/2+y,1/2-z
loop_
_atom_site_type_symbol
_atom_site_label
_atom_site_fract_x
_atom_site_fract_y
_atom_site_fract_z
Si Si1 0.285102 0.345430 0.283186
Si Si2 0.491456 0.607524 0.082369
Si Si3 0.500000 0.000000 0.160452
Si Si4 0.170517 0.154149 0.136623
Si Si5 0.017785 0.183641 0.681775
Si Si6 0.495084 0.783220 0.444567
O O1 0.082482 0.417695 0.302479
O O2 0.530789 0.367068 0.312826
O O3 0.314768 0.361016 0.224762
O O4 0.215485 0.234355 0.292128
O O5 0.500000 0.500000 0.062722
O O6 0.453923 0.603171 0.141948
O O7 0.748139 0.655199 0.064908
O O8 0.247104 0.657918 0.061587
O O9 0.698891 0.947973 0.124763
O O10 0.361667 0.237412 0.146805
O O11 0.999693 0.190410 0.091552
O O12 0.500000 0.744290 0.500000
#
# Coordination Sequence:
#
# PCOD8163797 Si02
#       6
#     8   8   4   8   8   8
#     4  11  19  39  60  88 127 167 214 259 314 393
#     4  11  24  42  64 100 135 166 214 273 320 387
#     4  10  24  36  62  95 120 168 217 272 322 380
#     4  10  21  40  61  89 125 164 215 266 321 389
#     4  10  21  36  61  89 126 173 209 250 319 381
#     4  11  24  44  70  95 124 174 217 267 336 397
#
# _framework density 21.193287999999999
#
# number of rings (size 3 to 8) (size 9 to 14) (size 15 to 20)
#    0.000    1.455    3.636    1.636    0.000    3.636 
#    6.545    0.000    0.000    3.273    0.000    0.000 
#    0.000    0.000    0.000    0.000    0.000    0.000 
#
# Total GULP energy -272586.378450 kJ/mol
# GULP energy per Si atom -12390.289930 kJ/mol
# Density = 2.114505 g / cm^3
# Si number density = 21.193288 Si / 1000 Ang^3
#
#
#
# Elastic Constant Matrix: (Units=GPa)
#
#
# Indices 1 2 3 4 5 6 
#
# 1 98.6717 19.5531 11.7027 0.0000 0.0000 0.0000
# 2 19.5531 80.0482 21.1041 0.0000 0.0000 0.0000
# 3 11.7027 21.1041 126.2387 0.0000 0.0000 0.0000
# 4 0.0000 0.0000 0.0000 13.4162 0.0000 0.0000
# 5 0.0000 0.0000 0.0000 0.0000 21.6360 0.0000
# 6 0.0000 0.0000 0.0000 0.0000 0.0000 32.3920
#
#
#
# Elastic Compliance Matrix: (Units=1/GPa)
#
#
# Indices 1 2 3 4 5 6 
#
# 1 0.010691 -0.002458 -0.000580 0.000000 0.000000 0.000000
# 2 -0.002458 0.013634 -0.002051 0.000000 0.000000 0.000000
# 3 -0.000580 -0.002051 0.008318 0.000000 0.000000 0.000000
# 4 0.000000 0.000000 0.000000 0.074537 0.000000 0.000000
# 5 0.000000 0.000000 0.000000 0.000000 0.046219 0.000000
# 6 0.000000 0.000000 0.000000 0.000000 0.000000 0.030872
#
#
# Mechanical properties :
#
#
# Convention : Reuss Voigt Hill
#
# Bulk Modulus (GPa) = 44.51777 45.51984 45.01881
# Shear Modulus (GPa) = 24.76013 30.32876 27.54444
#
# Velocity S-wave (km/s) = 3.42175 3.78703 3.60902
# Velocity P-wave (km/s) = 6.05495 6.37552 6.21730
#
# Compressibility (1/GPa) = 0.02246294
#
# Stress axis : x y z
#
# Youngs Moduli (GPa) = 93.54021 73.34706 120.21817
#
# Poissons Ratio (x) = 0.18032 0.06973
# Poissons Ratio (y) = 0.22996 0.24661
# Poissons Ratio (z) = 0.05426 0.15046
#
# Static dielectric constant tensor:
#      x y z
#    x 3.933210 0.000000 0.000000 
#    y 0.000000 4.158240 0.000000 
#    z 0.000000 0.000000 3.957570 
# 
# 
# High freq. dielectric constant tensor:
#      x y z
#    x 1.837260 0.000000 0.000000 
#    y 0.000000 1.816370 0.000000 
#    z 0.000000 0.000000 1.822670 
# 
# From -- ./inp_files/22674.got.cif
#   From: 2010.03.12/outbox.cif.g09.slc.cpg/sg23_12_cif.got.tgz:22674.got - 2010.04.14 02:50:06.
