data_PCOD8163440
_publ_section_title
;
Structure prediction by ZEFSAII (Michael W. Deem and Ramdas Pophale) SiO2 
 PCOD8163440
Probable space group: I 2 2 2
;
_chemical_formula_sum "Si O2"
_cell_formula_units_Z 32
_cell_length_a 17.510508
_cell_length_b 4.839891
_cell_length_c 18.712604
_cell_angle_alpha 90.000000
_cell_angle_beta 90.000000
_cell_angle_gamma 90.000000
_cell_volume 1585.873542
_symmetry_space_group_name_H-M "I 2 2 2"
_symmetry_group_IT_number 23
_symmetry_cell_setting 'orthorhombic'
loop_
_space_group_symop_operation_xyz
x,y,z
-x,-y,z
x,-y,-z
-x,y,-z
1/2+x,1/2+y,1/2+z
1/2-x,1/2-y,1/2+z
1/2+x,1/2-y,1/2-z
1/2-x,1/2+y,1/2-z
loop_
_atom_site_type_symbol
_atom_site_label
_atom_site_fract_x
_atom_site_fract_y
_atom_site_fract_z
Si Si1 0.292554 0.822750 0.279185
Si Si2 0.764210 0.023143 0.579626
Si Si3 0.449820 0.229515 0.790407
Si Si4 0.866645 0.478278 0.419842
O O1 0.230788 0.577323 0.272238
O O2 0.297409 0.932862 0.360790
O O3 0.374183 0.702383 0.254976
O O4 0.840811 0.839058 0.591488
O O5 0.728655 0.000000 0.500000
O O6 0.789959 0.337642 0.590818
O O7 0.500000 0.500000 0.803711
O O8 0.430752 0.079310 0.865427
O O9 0.500000 0.000000 0.747886
O O10 0.899711 0.500000 0.500000
#
# Coordination Sequence:
#
# PCOD8163440 Si02
#       4
#     8   8   8   8
#     4  12  21  38  63  87 115 161 206 252 299 356
#     4  10  19  35  60  88 112 148 202 258 295 346
#     4  12  24  37  56  86 127 161 199 246 305 362
#     4  10  20  36  56  82 118 156 198 237 294 360
#
# _framework density 20.178153999999999
#
# number of rings (size 3 to 8) (size 9 to 14) (size 15 to 20)
#    0.000    1.000    5.000    3.000    0.000    0.500 
#    0.000    1.250    0.000    0.750    0.000    1.750 
#    0.000    0.000    0.000    0.000    0.000    0.000 
#
# Total GULP energy -198362.062600 kJ/mol
# GULP energy per Si atom -12397.628913 kJ/mol
# Density = 2.013223 g / cm^3
# Si number density = 20.178154 Si / 1000 Ang^3
#
#
#
# Elastic Constant Matrix: (Units=GPa)
#
#
# Indices 1 2 3 4 5 6 
#
# 1 81.0787 16.0057 47.0046 0.0000 0.0000 0.0000
# 2 16.0057 84.5969 21.4743 0.0000 0.0000 0.0000
# 3 47.0046 21.4743 129.5828 0.0000 0.0000 0.0000
# 4 0.0000 0.0000 0.0000 27.4283 0.0000 0.0000
# 5 0.0000 0.0000 0.0000 0.0000 12.8960 0.0000
# 6 0.0000 0.0000 0.0000 0.0000 0.0000 36.6643
#
#
#
# Elastic Compliance Matrix: (Units=1/GPa)
#
#
# Indices 1 2 3 4 5 6 
#
# 1 0.015824 -0.001604 -0.005474 0.000000 0.000000 0.000000
# 2 -0.001604 0.012503 -0.001490 0.000000 0.000000 0.000000
# 3 -0.005474 -0.001490 0.009950 0.000000 0.000000 0.000000
# 4 0.000000 0.000000 0.000000 0.036459 0.000000 0.000000
# 5 0.000000 0.000000 0.000000 0.000000 0.077544 0.000000
# 6 0.000000 0.000000 0.000000 0.000000 0.000000 0.027274
#
#
# Mechanical properties :
#
#
# Convention : Reuss Voigt Hill
#
# Bulk Modulus (GPa) = 47.30505 51.58084 49.44294
# Shear Modulus (GPa) = 24.54157 29.44931 26.99544
#
# Velocity S-wave (km/s) = 3.49125 3.82444 3.66164
# Velocity P-wave (km/s) = 6.30447 6.71714 6.51408
#
# Compressibility (1/GPa) = 0.02113939
#
# Stress axis : x y z
#
# Youngs Moduli (GPa) = 63.19532 79.98391 100.50613
#
# Poissons Ratio (x) = 0.12832 0.55018
# Poissons Ratio (y) = 0.10139 0.14975
# Poissons Ratio (z) = 0.34594 0.11917
#
# Static dielectric constant tensor:
#      x y z
#    x 3.232720 0.000000 0.000000 
#    y 0.000000 3.885800 0.000000 
#    z 0.000000 0.000000 3.742500 
# 
# 
# High freq. dielectric constant tensor:
#      x y z
#    x 1.739920 0.000000 0.000000 
#    y 0.000000 1.816420 0.000000 
#    z 0.000000 0.000000 1.784910 
# 
# From -- ./inp_files/3190.got.cif
#   From: 2010.03.12/outbox.cif.g09.slc.cpg/sg23_2_cif.got.tgz:3190.got - 2010.04.14 02:50:06.
