data_PCOD8163827
_publ_section_title
;
Structure prediction by ZEFSAII (Michael W. Deem and Ramdas Pophale) SiO2 
 PCOD8163827
Probable space group: I 2 2 2
;
_chemical_formula_sum "Si O2"
_cell_formula_units_Z 34
_cell_length_a 17.806186
_cell_length_b 5.174091
_cell_length_c 16.156928
_cell_angle_alpha 90.000000
_cell_angle_beta 90.000000
_cell_angle_gamma 90.000000
_cell_volume 1488.551134
_symmetry_space_group_name_H-M "I 2 2 2"
_symmetry_group_IT_number 23
_symmetry_cell_setting 'orthorhombic'
loop_
_space_group_symop_operation_xyz
x,y,z
-x,-y,z
x,-y,-z
-x,y,-z
1/2+x,1/2+y,1/2+z
1/2-x,1/2-y,1/2+z
1/2+x,1/2-y,1/2-z
1/2-x,1/2+y,1/2-z
loop_
_atom_site_type_symbol
_atom_site_label
_atom_site_fract_x
_atom_site_fract_y
_atom_site_fract_z
Si Si1 0.734261 0.469817 0.596285
Si Si2 0.618885 0.663009 0.919387
Si Si3 0.846817 0.522804 0.098450
Si Si4 0.000000 0.500000 0.500000
Si Si5 0.000000 0.000000 0.701301
Si Si6 0.000000 0.500000 0.188270
O O1 0.719263 0.500000 0.500000
O O2 0.819041 0.368192 0.612488
O O3 0.710769 0.751623 0.632515
O O4 0.681496 0.249236 0.635767
O O5 0.580556 0.489760 0.848349
O O6 0.649436 0.500000 0.000000
O O7 0.547126 0.826208 0.940516
O O8 0.930321 0.568486 0.129343
O O9 0.846054 0.500000 0.000000
O O10 0.988986 0.748413 0.756018
#
# Coordination Sequence:
#
# PCOD8163827 Si02
#       6
#     8   8   8   2   4   4
#     4  10  21  37  68 101 130 160 215 282 342 391
#     4  12  23  40  66 101 138 177 224 277 328 411
#     4  10  22  43  70  99 124 171 222 284 342 390
#     4  12  20  36  68  96 140 172 226 262 330 378
#     4  12  27  42  65 100 138 188 224 276 333 396
#     4  12  26  46  67  95 138 176 236 282 330 406
#
# _framework density 22.841004000000002
#
# number of rings (size 3 to 8) (size 9 to 14) (size 15 to 20)
#    0.000    0.941    3.529    4.588    0.000    0.000 
#    0.000    9.412    0.000    0.000    0.000    0.000 
#    0.000    0.000    0.000    0.000    0.000    0.000 
#
# Total GULP energy -210604.646570 kJ/mol
# GULP energy per Si atom -12388.508622 kJ/mol
# Density = 2.278902 g / cm^3
# Si number density = 22.841004 Si / 1000 Ang^3
#
#
#
# Elastic Constant Matrix: (Units=GPa)
#
#
# Indices 1 2 3 4 5 6 
#
# 1 167.5383 63.1318 40.6896 0.0000 0.0000 0.0000
# 2 63.1318 174.1652 45.3437 0.0000 0.0000 0.0000
# 3 40.6896 45.3437 45.0617 0.0000 0.0000 0.0000
# 4 0.0000 0.0000 0.0000 36.0327 0.0000 0.0000
# 5 0.0000 0.0000 0.0000 0.0000 83.4051 0.0000
# 6 0.0000 0.0000 0.0000 0.0000 0.0000 48.6013
#
#
#
# Elastic Compliance Matrix: (Units=1/GPa)
#
#
# Indices 1 2 3 4 5 6 
#
# 1 0.007876 -0.001360 -0.005744 0.000000 0.000000 0.000000
# 2 -0.001360 0.008014 -0.006837 0.000000 0.000000 0.000000
# 3 -0.005744 -0.006837 0.034258 0.000000 0.000000 0.000000
# 4 0.000000 0.000000 0.000000 0.027753 0.000000 0.000000
# 5 0.000000 0.000000 0.000000 0.000000 0.011990 0.000000
# 6 0.000000 0.000000 0.000000 0.000000 0.000000 0.020576
#
#
# Mechanical properties :
#
#
# Convention : Reuss Voigt Hill
#
# Bulk Modulus (GPa) = 44.90771 76.12171 60.51471
# Shear Modulus (GPa) = 34.30064 49.44784 41.87424
#
# Velocity S-wave (km/s) = 3.87940 4.65787 4.28634
# Velocity P-wave (km/s) = 6.30635 7.89473 7.14481
#
# Compressibility (1/GPa) = 0.02226789
#
# Stress axis : x y z
#
# Youngs Moduli (GPa) = 126.96669 124.77405 29.19017
#
# Poissons Ratio (x) = 0.16964 0.16766
# Poissons Ratio (y) = 0.17262 0.19957
# Poissons Ratio (z) = 0.72928 0.85308
#
# Static dielectric constant tensor:
#      x y z
#    x 4.117440 0.000000 0.000000 
#    y 0.000000 4.289380 0.000000 
#    z 0.000000 0.000000 3.956700 
# 
# 
# High freq. dielectric constant tensor:
#      x y z
#    x 1.908610 0.000000 0.000000 
#    y 0.000000 1.928980 0.000000 
#    z 0.000000 0.000000 1.863510 
# 
# From -- ./inp_files/24576.got.cif
#   From: 2010.03.12/outbox.cif.g09.slc.cpg/sg23_13_cif.got.tgz:24576.got - 2010.04.14 02:50:06.
