data_PCOD8163056
_publ_section_title
;
Structure prediction by ZEFSAII (Michael W. Deem and Ramdas Pophale) SiO2 
 PCOD8163056
Probable space group: F 2 2 2
;
_chemical_formula_sum "Si O2"
_cell_formula_units_Z 68
_cell_length_a 16.537389
_cell_length_b 21.576976
_cell_length_c 8.131097
_cell_angle_alpha 90.000000
_cell_angle_beta 90.000000
_cell_angle_gamma 90.000000
_cell_volume 2901.393693
_symmetry_space_group_name_H-M "F 2 2 2"
_symmetry_group_IT_number 22
_symmetry_cell_setting 'orthorhombic'
loop_
_space_group_symop_operation_xyz
x,y,z
-x,-y,z
x,-y,-z
-x,y,-z
x,1/2+y,1/2+z
-x,1/2-y,1/2+z
x,1/2-y,1/2-z
-x,1/2+y,1/2-z
1/2+x,y,1/2+z
1/2-x,-y,1/2+z
1/2+x,-y,1/2-z
1/2-x,y,1/2-z
1/2+x,1/2+y,z
1/2-x,1/2-y,z
1/2+x,1/2-y,-z
1/2-x,1/2+y,-z
loop_
_atom_site_type_symbol
_atom_site_label
_atom_site_fract_x
_atom_site_fract_y
_atom_site_fract_z
Si Si1 0.626361 0.899295 0.091731
Si Si2 0.284048 0.561745 0.068372
Si Si3 0.413983 0.779870 0.069686
Si Si4 0.000000 0.500000 0.000000
Si Si5 0.594012 0.154049 0.553809
O O1 0.613300 0.865031 0.262216
O O2 0.713855 0.929194 0.068518
O O3 0.628746 0.846902 0.945140
O O4 0.558751 0.953390 0.097847
O O5 0.250000 0.553879 0.250000
O O6 0.328330 0.500000 0.000000
O O7 0.351842 0.614715 0.072172
O O8 0.417737 0.750000 0.250000
O O9 0.500000 0.798240 0.000000
O O10 0.376387 0.725408 0.957421
O O11 0.500000 0.148115 0.500000
#
# Coordination Sequence:
#
# PCOD8163056 Si02
#       5
#    16  16  16   4  16
#     4  12  25  46  73 103 146 184 242 289 356 420
#     4  12  27  46  68 102 147 189 234 293 354 419
#     4  11  22  41  70 103 142 183 235 294 353 418
#     4  12  28  40  74 108 138 192 228 288 348 424
#     4  11  26  45  73 106 138 186 238 290 354 420
#
# _framework density 23.437011999999999
#
# number of rings (size 3 to 8) (size 9 to 14) (size 15 to 20)
#    0.000    0.471    2.353    7.059    3.294    1.412 
#    0.000    4.706    0.000    0.000    0.000    0.000 
#    0.000    0.000    0.000    0.000    0.000    0.000 
#
# Total GULP energy -210609.377120 kJ/mol
# GULP energy per Si atom -12388.786889 kJ/mol
# Density = 2.338367 g / cm^3
# Si number density = 23.437012 Si / 1000 Ang^3
#
#
#
# Elastic Constant Matrix: (Units=GPa)
#
#
# Indices 1 2 3 4 5 6 
#
# 1 83.5662 32.4594 6.8405 0.0000 0.0000 0.0000
# 2 32.4594 155.6591 25.7437 0.0000 0.0000 0.0000
# 3 6.8405 25.7437 123.3664 -0.0001 -0.0001 -0.0002
# 4 0.0000 0.0000 -0.0001 42.6891 0.0000 0.0000
# 5 0.0000 0.0000 -0.0001 0.0000 30.4568 0.0001
# 6 0.0000 0.0000 -0.0002 0.0000 0.0001 4.3965
#
#
#
# Elastic Compliance Matrix: (Units=1/GPa)
#
#
# Indices 1 2 3 4 5 6 
#
# 1 0.013024 -0.002689 -0.000161 0.000000 0.000000 0.000000
# 2 -0.002689 0.007209 -0.001355 0.000000 0.000000 0.000000
# 3 -0.000161 -0.001355 0.008398 0.000000 0.000000 0.000000
# 4 0.000000 0.000000 0.000000 0.023425 0.000000 0.000000
# 5 0.000000 0.000000 0.000000 0.000000 0.032833 -0.000001
# 6 0.000000 0.000000 0.000000 0.000000 -0.000001 0.227452
#
#
# Mechanical properties :
#
#
# Convention : Reuss Voigt Hill
#
# Bulk Modulus (GPa) = 49.45576 54.74208 52.09892
# Shear Modulus (GPa) = 15.26752 35.34502 25.30627
#
# Velocity S-wave (km/s) = 2.55508 3.88762 3.28953
# Velocity P-wave (km/s) = 5.46369 6.59994 6.05851
#
# Compressibility (1/GPa) = 0.02022009
#
# Stress axis : x y z
#
# Youngs Moduli (GPa) = 76.77926 138.71084 119.08054
#
# Poissons Ratio (x) = 0.37304 0.01917
# Poissons Ratio (y) = 0.20648 0.16139
# Poissons Ratio (z) = 0.01236 0.18799
#
# Static dielectric constant tensor:
#      x y z
#    x 4.175120 0.000000 0.000000 
#    y 0.000000 4.992900 0.000000 
#    z 0.000000 0.000000 4.104110 
# 
# 
# High freq. dielectric constant tensor:
#      x y z
#    x 1.910660 0.000000 0.000000 
#    y 0.000000 1.963020 0.000000 
#    z 0.000000 0.000000 1.930480 
# 
# From -- ./inp_files/11238.got.cif
#   From: 2010.03.12/outbox.cif.g09.slc.cpg/sg22_6_cif.got.tgz:11238.got - 2010.04.14 02:24:06.
