data_PCOD8163675
_publ_section_title
;
Structure prediction by ZEFSAII (Michael W. Deem and Ramdas Pophale) SiO2 
 PCOD8163675
Probable space group: I 2 2 2
;
_chemical_formula_sum "Si O2"
_cell_formula_units_Z 56
_cell_length_a 14.240496
_cell_length_b 13.118312
_cell_length_c 14.141631
_cell_angle_alpha 90.000000
_cell_angle_beta 90.000000
_cell_angle_gamma 90.000000
_cell_volume 2641.816041
_symmetry_space_group_name_H-M "I 2 2 2"
_symmetry_group_IT_number 23
_symmetry_cell_setting 'orthorhombic'
loop_
_space_group_symop_operation_xyz
x,y,z
-x,-y,z
x,-y,-z
-x,y,-z
1/2+x,1/2+y,1/2+z
1/2-x,1/2-y,1/2+z
1/2+x,1/2-y,1/2-z
1/2-x,1/2+y,1/2-z
loop_
_atom_site_type_symbol
_atom_site_label
_atom_site_fract_x
_atom_site_fract_y
_atom_site_fract_z
Si Si1 0.923268 0.079091 0.645827
Si Si2 0.163521 0.408633 0.429586
Si Si3 0.704453 0.151080 0.344490
Si Si4 0.729435 0.488961 0.274751
Si Si5 0.959481 0.702247 0.283774
Si Si6 0.766443 0.193842 0.544421
Si Si7 0.669258 0.204441 0.742070
O O1 0.970822 0.185842 0.672306
O O2 0.844455 0.107237 0.567264
O O3 0.877802 0.025009 0.739117
O O4 0.000000 0.000000 0.603985
O O5 0.133402 0.500000 0.500000
O O6 0.256093 0.442558 0.368962
O O7 0.076521 0.381761 0.359633
O O8 0.187708 0.303389 0.483699
O O9 0.706804 0.033373 0.312026
O O10 0.613454 0.208683 0.303395
O O11 0.704005 0.156962 0.457101
O O12 0.802034 0.192416 0.296894
O O13 0.771377 0.379221 0.298864
O O14 0.061061 0.672438 0.246064
O O15 0.699655 0.211457 0.633432
#
# Coordination Sequence:
#
# PCOD8163675 Si02
#       7
#     8   8   8   8   8   8   8
#     4  10  20  38  64  92 126 164 225 265 331 398
#     4  10  20  38  64  92 126 164 225 265 331 398
#     4  11  21  41  63  89 133 168 219 272 328 399
#     4  10  20  38  62  88 120 174 200 272 332 372
#     4  10  22  40  63  96 128 176 211 277 341 382
#     4  10  22  40  63  96 128 176 211 277 341 382
#     4  11  21  41  63  89 133 168 219 272 328 399
#
# _framework density 21.197538999999999
#
# number of rings (size 3 to 8) (size 9 to 14) (size 15 to 20)
#    0.000    1.714    5.714    1.714    0.000    5.143 
#    0.000   14.286    0.000    7.286    0.000    0.000 
#    0.000    0.000    0.000    0.000    0.000    0.000 
#
# Total GULP energy -347018.366442 kJ/mol
# GULP energy per Si atom -12393.513087 kJ/mol
# Density = 2.114929 g / cm^3
# Si number density = 21.197539 Si / 1000 Ang^3
#
#
#
# Elastic Constant Matrix: (Units=GPa)
#
#
# Indices 1 2 3 4 5 6 
#
# 1 99.6353 22.3070 22.7507 0.0000 0.0000 0.0000
# 2 22.3070 87.9891 22.2386 0.0000 0.0000 0.0000
# 3 22.7507 22.2386 81.6224 0.0000 0.0000 0.0000
# 4 0.0000 0.0000 0.0000 30.0661 0.0000 0.0000
# 5 0.0000 0.0000 0.0000 0.0000 12.4631 0.0000
# 6 0.0000 0.0000 0.0000 0.0000 0.0000 30.5502
#
#
#
# Elastic Compliance Matrix: (Units=1/GPa)
#
#
# Indices 1 2 3 4 5 6 
#
# 1 0.011095 -0.002181 -0.002498 0.000000 0.000000 0.000000
# 2 -0.002181 0.012634 -0.002834 0.000000 0.000000 0.000000
# 3 -0.002498 -0.002834 0.013720 0.000000 0.000000 0.000000
# 4 0.000000 0.000000 0.000000 0.033260 0.000000 0.000000
# 5 0.000000 0.000000 0.000000 0.000000 0.080237 0.000000
# 6 0.000000 0.000000 0.000000 0.000000 0.000000 0.032733
#
#
# Mechanical properties :
#
#
# Convention : Reuss Voigt Hill
#
# Bulk Modulus (GPa) = 44.59931 44.87104 44.73518
# Shear Modulus (GPa) = 24.25045 28.07926 26.16486
#
# Velocity S-wave (km/s) = 3.38601 3.64352 3.51712
# Velocity P-wave (km/s) = 6.03094 6.23813 6.13541
#
# Compressibility (1/GPa) = 0.02242187
#
# Stress axis : x y z
#
# Youngs Moduli (GPa) = 90.12683 79.14875 72.88567
#
# Poissons Ratio (x) = 0.17266 0.18209
# Poissons Ratio (y) = 0.19661 0.20658
# Poissons Ratio (z) = 0.22516 0.22433
#
# Static dielectric constant tensor:
#      x y z
#    x 3.602510 0.000000 0.000000 
#    y 0.000000 4.111020 0.000000 
#    z 0.000000 0.000000 3.615020 
# 
# 
# High freq. dielectric constant tensor:
#      x y z
#    x 1.803290 0.000000 0.000000 
#    y 0.000000 1.855240 0.000000 
#    z 0.000000 0.000000 1.813380 
# 
# From -- ./inp_files/21583.got.cif
#   From: 2010.03.12/outbox.cif.g09.slc.cpg/sg23_11_cif.got.tgz:21583.got - 2010.04.14 02:50:06.
