data_PCOD8163651
_publ_section_title
;
Structure prediction by ZEFSAII (Michael W. Deem and Ramdas Pophale) SiO2 
 PCOD8163651
Probable space group: I 2 2 2
;
_chemical_formula_sum "Si O2"
_cell_formula_units_Z 60
_cell_length_a 11.324077
_cell_length_b 12.703225
_cell_length_c 21.112724
_cell_angle_alpha 90.000000
_cell_angle_beta 90.000000
_cell_angle_gamma 90.000000
_cell_volume 3037.113865
_symmetry_space_group_name_H-M "I 2 2 2"
_symmetry_group_IT_number 23
_symmetry_cell_setting 'orthorhombic'
loop_
_space_group_symop_operation_xyz
x,y,z
-x,-y,z
x,-y,-z
-x,y,-z
1/2+x,1/2+y,1/2+z
1/2-x,1/2-y,1/2+z
1/2+x,1/2-y,1/2-z
1/2-x,1/2+y,1/2-z
loop_
_atom_site_type_symbol
_atom_site_label
_atom_site_fract_x
_atom_site_fract_y
_atom_site_fract_z
Si Si1 0.957439 0.273957 0.067381
Si Si2 0.000000 0.500000 0.882352
Si Si3 0.687709 0.166532 0.823343
Si Si4 0.499226 0.874966 0.926206
Si Si5 0.157671 0.867187 0.250224
Si Si6 0.226413 0.735279 0.633081
Si Si7 0.789344 0.559066 0.797462
Si Si8 0.952590 0.112252 0.834328
O O1 0.992505 0.396335 0.074426
O O2 0.818249 0.249372 0.074969
O O3 0.026621 0.208437 0.119141
O O4 0.000000 0.232933 0.000000
O O5 0.882211 0.495847 0.840051
O O6 0.619471 0.157449 0.889479
O O7 0.693282 0.289644 0.806921
O O8 0.632853 0.109063 0.760822
O O9 0.813216 0.108964 0.826669
O O10 0.605346 0.811945 0.893389
O O11 0.500000 0.000000 0.919041
O O12 0.500000 0.842112 0.000000
O O13 0.228955 0.847019 0.185309
O O14 0.018479 0.862593 0.232448
O O15 0.186628 0.982960 0.274015
O O16 0.217360 0.849915 0.665390
O O17 0.000000 0.000000 0.861224
#
# Coordination Sequence:
#
# PCOD8163651 Si02
#       8
#     8   4   8   8   8   8   8   8
#     4  10  22  40  66  88 125 171 207 272 312 372
#     4  10  21  38  62 100 123 156 226 254 318 390
#     4  11  24  37  65  90 122 171 206 262 323 385
#     4  11  26  44  64  87 121 171 220 261 310 391
#     4  10  21  37  63  92 127 160 199 263 325 388
#     4   9  22  40  61  96 125 157 216 260 315 377
#     4  10  20  37  63  96 127 161 196 268 327 381
#     4  11  23  40  57  97 131 157 216 260 323 387
#
# _framework density 19.755597999999999
#
# number of rings (size 3 to 8) (size 9 to 14) (size 15 to 20)
#    0.000    1.733    1.333    2.600   10.267    0.267 
#    0.000    0.000    0.000    0.800    0.000    0.000 
#    0.000    0.000    0.000    0.000    0.000    0.000 
#
# Total GULP energy -371807.635215 kJ/mol
# GULP energy per Si atom -12393.587840 kJ/mol
# Density = 1.971063 g / cm^3
# Si number density = 19.755598 Si / 1000 Ang^3
#
#
#
# Elastic Constant Matrix: (Units=GPa)
#
#
# Indices 1 2 3 4 5 6 
#
# 1 130.6166 46.0003 59.1336 0.0000 0.0000 0.0000
# 2 46.0003 111.5851 40.0812 0.0000 0.0000 0.0000
# 3 59.1336 40.0812 112.4434 0.0000 0.0000 0.0000
# 4 0.0000 0.0000 0.0000 3.6541 0.0000 0.0000
# 5 0.0000 0.0000 0.0000 0.0000 22.3553 0.0000
# 6 0.0000 0.0000 0.0000 0.0000 0.0000 28.6021
#
#
#
# Elastic Compliance Matrix: (Units=1/GPa)
#
#
# Indices 1 2 3 4 5 6 
#
# 1 0.010737 -0.002750 -0.004666 0.000000 0.000000 0.000000
# 2 -0.002750 0.010982 -0.002468 0.000000 0.000000 0.000000
# 3 -0.004666 -0.002468 0.012227 0.000000 0.000000 0.000000
# 4 0.000000 0.000000 0.000000 0.273664 0.000000 0.000000
# 5 0.000000 0.000000 0.000000 0.000000 0.044732 0.000000
# 6 0.000000 0.000000 0.000000 0.000000 0.000000 0.034962
#
#
# Mechanical properties :
#
#
# Convention : Reuss Voigt Hill
#
# Bulk Modulus (GPa) = 70.53769 71.67505 71.10637
# Shear Modulus (GPa) = 12.14181 24.88431 18.51306
#
# Velocity S-wave (km/s) = 2.48180 3.55295 3.06454
# Velocity P-wave (km/s) = 6.63288 7.29321 6.97087
#
# Compressibility (1/GPa) = 0.01417682
#
# Stress axis : x y z
#
# Youngs Moduli (GPa) = 93.13497 91.05689 81.78488
#
# Poissons Ratio (x) = 0.25042 0.38163
# Poissons Ratio (y) = 0.25614 0.20187
# Poissons Ratio (z) = 0.43459 0.22476
#
# Static dielectric constant tensor:
#      x y z
#    x 3.624170 0.000000 0.000000 
#    y 0.000000 3.727450 0.000000 
#    z 0.000000 0.000000 3.544780 
# 
# 
# High freq. dielectric constant tensor:
#      x y z
#    x 1.762640 0.000000 0.000000 
#    y 0.000000 1.787400 0.000000 
#    z 0.000000 0.000000 1.757870 
# 
# From -- ./inp_files/26758.got.cif
#   From: 2010.03.12/outbox.cif.g09.slc.cpg/sg23_14_cif.got.tgz:26758.got - 2010.04.14 02:50:06.
