data_PCOD8163932
_publ_section_title
;
Structure prediction by ZEFSAII (Michael W. Deem and Ramdas Pophale) SiO2 
 PCOD8163932
Probable space group: I 2 2 2
;
_chemical_formula_sum "Si O2"
_cell_formula_units_Z 26
_cell_length_a 15.800811
_cell_length_b 8.350621
_cell_length_c 9.705310
_cell_angle_alpha 90.000000
_cell_angle_beta 90.000000
_cell_angle_gamma 90.000000
_cell_volume 1280.582503
_symmetry_space_group_name_H-M "I 2 2 2"
_symmetry_group_IT_number 23
_symmetry_cell_setting 'orthorhombic'
loop_
_space_group_symop_operation_xyz
x,y,z
-x,-y,z
x,-y,-z
-x,y,-z
1/2+x,1/2+y,1/2+z
1/2-x,1/2-y,1/2+z
1/2+x,1/2-y,1/2-z
1/2-x,1/2+y,1/2-z
loop_
_atom_site_type_symbol
_atom_site_label
_atom_site_fract_x
_atom_site_fract_y
_atom_site_fract_z
Si Si1 0.139563 0.650667 0.697914
Si Si2 0.500000 0.000000 0.000000
Si Si3 0.597162 0.325029 0.479209
Si Si4 0.783212 0.610391 0.873254
O O1 0.061033 0.609138 0.596637
O O2 0.107639 0.741156 0.832663
O O3 0.193974 0.491114 0.736383
O O4 0.202824 0.774792 0.629234
O O5 0.640766 0.500000 0.500000
O O6 0.500000 0.347792 0.500000
O O7 0.632665 0.211715 0.598266
O O8 0.759444 0.500000 0.000000
#
# Coordination Sequence:
#
# PCOD8163932 Si02
#       4
#     8   2   8   8
#     4  11  24  43  65  99 134 178 217 281 334 405
#     4  12  28  40  68 104 150 164 218 282 360 384
#     4  10  21  41  66  95 125 171 224 273 323 398
#     4  10  23  40  69  91 127 177 228 268 326 402
#
# _framework density 20.303260999999999
#
# number of rings (size 3 to 8) (size 9 to 14) (size 15 to 20)
#    0.000    1.538    0.000    3.692   10.769    4.308 
#   11.077    0.000    0.000    0.000    0.000    0.000 
#    0.000    0.000    0.000    0.000    0.000    0.000 
#
# Total GULP energy -161093.089275 kJ/mol
# GULP energy per Si atom -12391.776098 kJ/mol
# Density = 2.025705 g / cm^3
# Si number density = 20.303261 Si / 1000 Ang^3
#
#
#
# Elastic Constant Matrix: (Units=GPa)
#
#
# Indices 1 2 3 4 5 6 
#
# 1 115.1048 67.9422 41.1839 0.0000 0.0000 0.0000
# 2 67.9422 154.4041 48.9445 0.0000 0.0000 0.0000
# 3 41.1839 48.9445 58.6639 0.0000 0.0000 0.0000
# 4 0.0000 0.0000 0.0000 24.9078 0.0000 0.0000
# 5 0.0000 0.0000 0.0000 0.0000 11.0503 0.0000
# 6 0.0000 0.0000 0.0000 0.0000 0.0000 42.8957
#
#
#
# Elastic Compliance Matrix: (Units=1/GPa)
#
#
# Indices 1 2 3 4 5 6 
#
# 1 0.013113 -0.003877 -0.005971 0.000000 0.000000 0.000000
# 2 -0.003877 0.009952 -0.005581 0.000000 0.000000 0.000000
# 3 -0.005971 -0.005581 0.025894 0.000000 0.000000 0.000000
# 4 0.000000 0.000000 0.000000 0.040148 0.000000 0.000000
# 5 0.000000 0.000000 0.000000 0.000000 0.090496 0.000000
# 6 0.000000 0.000000 0.000000 0.000000 0.000000 0.023312
#
#
# Mechanical properties :
#
#
# Convention : Reuss Voigt Hill
#
# Bulk Modulus (GPa) = 55.24618 71.59044 63.41831
# Shear Modulus (GPa) = 20.85022 27.11090 23.98056
#
# Velocity S-wave (km/s) = 3.20807 3.65814 3.44047
# Velocity P-wave (km/s) = 6.40249 7.29244 6.86191
#
# Compressibility (1/GPa) = 0.01810080
#
# Stress axis : x y z
#
# Youngs Moduli (GPa) = 76.26246 100.48491 38.61895
#
# Poissons Ratio (x) = 0.38961 0.23058
# Poissons Ratio (y) = 0.29569 0.21553
# Poissons Ratio (z) = 0.45533 0.56080
#
# Static dielectric constant tensor:
#      x y z
#    x 3.686400 0.000000 0.000000 
#    y 0.000000 4.550280 0.000000 
#    z 0.000000 0.000000 3.381600 
# 
# 
# High freq. dielectric constant tensor:
#      x y z
#    x 1.798220 0.000000 0.000000 
#    y 0.000000 1.816890 0.000000 
#    z 0.000000 0.000000 1.790400 
# 
# From -- ./inp_files/15102.got.cif
#   From: 2010.03.12/outbox.cif.g09.slc.cpg/sg23_8_cif.got.tgz:15102.got - 2010.04.14 02:50:06.
