data_PCOD8163023
_publ_section_title
;
Structure prediction by ZEFSAII (Michael W. Deem and Ramdas Pophale) SiO2 
 PCOD8163023
Probable space group: F 2 2 2
;
_chemical_formula_sum "Si O2"
_cell_formula_units_Z 100
_cell_length_a 17.036191
_cell_length_b 14.299607
_cell_length_c 20.087928
_cell_angle_alpha 90.000000
_cell_angle_beta 90.000000
_cell_angle_gamma 90.000000
_cell_volume 4893.636935
_symmetry_space_group_name_H-M "F 2 2 2"
_symmetry_group_IT_number 22
_symmetry_cell_setting 'orthorhombic'
loop_
_space_group_symop_operation_xyz
x,y,z
-x,-y,z
x,-y,-z
-x,y,-z
x,1/2+y,1/2+z
-x,1/2-y,1/2+z
x,1/2-y,1/2-z
-x,1/2+y,1/2-z
1/2+x,y,1/2+z
1/2-x,-y,1/2+z
1/2+x,-y,1/2-z
1/2-x,y,1/2-z
1/2+x,1/2+y,z
1/2-x,1/2-y,z
1/2+x,1/2-y,-z
1/2-x,1/2+y,-z
loop_
_atom_site_type_symbol
_atom_site_label
_atom_site_fract_x
_atom_site_fract_y
_atom_site_fract_z
Si Si1 0.183873 0.950214 0.437186
Si Si2 0.356535 0.937205 0.413433
Si Si3 0.500000 0.500000 0.000000
Si Si4 0.612584 0.253927 0.450596
Si Si5 0.581706 0.444466 0.661310
Si Si6 0.075249 0.064175 0.185737
Si Si7 0.939721 0.750901 0.095628
O O1 0.276251 0.970951 0.447004
O O2 0.169285 0.840703 0.441137
O O3 0.140801 0.000000 0.500000
O O4 0.150160 0.990123 0.367957
O O5 0.439550 0.941054 0.454927
O O6 0.349408 0.826128 0.403578
O O7 0.357974 0.000305 0.347611
O O8 0.609331 0.223532 0.528974
O O9 0.527438 0.277176 0.423022
O O10 0.500000 0.500000 0.650351
O O11 0.597742 0.420564 0.738158
O O12 0.591900 0.344255 0.627060
O O13 0.065277 0.162512 0.147089
O O14 0.000000 0.000000 0.178974
#
# Coordination Sequence:
#
# PCOD8163023 Si02
#       7
#    16  16   4  16  16  16  16
#     4  12  25  42  65  95 134 178 215 275 334 398
#     4  12  23  42  66  97 132 167 222 275 337 389
#     4  12  20  40  68  96 124 168 214 276 328 384
#     4  11  22  38  66 100 131 169 216 277 335 390
#     4  11  24  43  66  93 133 180 222 263 323 403
#     4  11  23  41  67  94 128 177 223 268 322 390
#     4  11  21  39  69  97 129 170 224 271 326 393
#
# _framework density 20.434698999999998
#
# number of rings (size 3 to 8) (size 9 to 14) (size 15 to 20)
#    0.000    0.640    6.400    2.880    0.000    0.960 
#    0.000    1.600    0.000    3.840    0.000    0.000 
#    0.000    0.000    0.000    0.000    0.000    0.000 
#
# Total GULP energy -309741.163498 kJ/mol
# GULP energy per Si atom -12389.646540 kJ/mol
# Density = 2.038819 g / cm^3
# Si number density = 20.434699 Si / 1000 Ang^3
#
#
#
# Elastic Constant Matrix: (Units=GPa)
#
#
# Indices 1 2 3 4 5 6 
#
# 1 100.1209 29.6134 39.9918 0.0000 0.0000 0.0000
# 2 29.6134 115.2106 39.9144 0.0000 0.0000 0.0000
# 3 39.9918 39.9144 97.2235 0.0000 0.0000 0.0000
# 4 0.0000 0.0000 0.0000 34.6758 0.0000 0.0000
# 5 0.0000 0.0000 0.0000 0.0000 -128.0046 0.0000
# 6 0.0000 0.0000 0.0000 0.0000 0.0000 14.4924
#
#
#
# Elastic Compliance Matrix: (Units=1/GPa)
#
#
# Indices 1 2 3 4 5 6 
#
# 1 0.012209 -0.001630 -0.004353 0.000000 0.000000 0.000000
# 2 -0.001630 0.010337 -0.003573 0.000000 0.000000 0.000000
# 3 -0.004353 -0.003573 0.013543 0.000000 0.000000 0.000000
# 4 0.000000 0.000000 0.000000 0.028839 0.000000 0.000000
# 5 0.000000 0.000000 0.000000 0.000000 -0.007812 0.000000
# 6 0.000000 0.000000 0.000000 0.000000 0.000000 0.069001
#
#
# Mechanical properties :
#
#
# Convention : Reuss Voigt Hill
#
# Bulk Modulus (GPa) = 58.90508 59.06601 58.98555
# Shear Modulus (GPa) = 33.13744 -2.23159 15.45292
#
# Velocity S-wave (km/s) = 4.03131 -1.04615 2.75291
# Velocity P-wave (km/s) = 7.11036 5.24483 6.24762
#
# Compressibility (1/GPa) = 0.01697646
#
# Stress axis : x y z
#
# Youngs Moduli (GPa) = 81.90885 96.74313 73.83929
#
# Poissons Ratio (x) = 0.15770 0.32140
# Poissons Ratio (y) = 0.13352 0.26384
# Poissons Ratio (z) = 0.35652 0.34567
#
# Static dielectric constant tensor:
#      x y z
#    x 3.570320 0.000000 0.000000 
#    y 0.000000 4.099740 0.000000 
#    z 0.000000 0.000000 4.022110 
# 
# 
# High freq. dielectric constant tensor:
#      x y z
#    x 1.785390 0.000000 0.000000 
#    y 0.000000 1.818840 0.000000 
#    z 0.000000 0.000000 1.791050 
# 
# From -- ./inp_files/44265.got.cif
#   From: 2010.03.12/outbox.cif.g09.slc.cpg/sg22_23_cif.got.tgz:44265.got - 2010.04.14 02:24:06.
