data_PCOD8163748
_publ_section_title
;
Structure prediction by ZEFSAII (Michael W. Deem and Ramdas Pophale) SiO2 
 PCOD8163748
Probable space group: I 2 2 2
;
_chemical_formula_sum "Si O2"
_cell_formula_units_Z 34
_cell_length_a 13.435971
_cell_length_b 8.978652
_cell_length_c 11.530926
_cell_angle_alpha 90.000000
_cell_angle_beta 90.000000
_cell_angle_gamma 90.000000
_cell_volume 1391.055258
_symmetry_space_group_name_H-M "I 2 2 2"
_symmetry_group_IT_number 23
_symmetry_cell_setting 'orthorhombic'
loop_
_space_group_symop_operation_xyz
x,y,z
-x,-y,z
x,-y,-z
-x,y,-z
1/2+x,1/2+y,1/2+z
1/2-x,1/2-y,1/2+z
1/2+x,1/2-y,1/2-z
1/2-x,1/2+y,1/2-z
loop_
_atom_site_type_symbol
_atom_site_label
_atom_site_fract_x
_atom_site_fract_y
_atom_site_fract_z
Si Si1 0.500000 0.500000 0.500000
Si Si2 0.859899 0.721956 0.211739
Si Si3 0.658202 0.702176 0.452642
Si Si4 0.163060 0.500000 0.500000
Si Si5 0.265870 0.461150 0.870261
Si Si6 0.500000 0.000000 0.821181
O O1 0.570514 0.593731 0.409018
O O2 0.764921 0.606860 0.203842
O O3 0.842486 0.860580 0.298238
O O4 0.961210 0.638566 0.246567
O O5 0.876928 0.785158 0.085303
O O6 0.769519 0.631830 0.447202
O O7 0.664627 0.861292 0.388877
O O8 0.092435 0.561941 0.397960
O O9 0.307667 0.500000 0.000000
#
# Coordination Sequence:
#
# PCOD8163748 Si02
#       6
#     2   8   8   4   8   4
#     4  10  24  38  66  98 138 174 230 290 348 414
#     4  11  23  41  70 100 137 181 236 291 355 425
#     4  10  22  43  64  97 139 184 226 291 352 421
#     4  10  20  42  66  90 140 182 228 284 358 412
#     4  10  23  44  68  99 137 182 233 288 360 428
#     4  11  22  36  67 102 130 180 235 286 345 430
#
# _framework density 24.441875
#
# number of rings (size 3 to 8) (size 9 to 14) (size 15 to 20)
#    0.000    1.647    2.353    1.412    6.588    0.000 
#    0.000    0.000    0.000    7.059    0.000    0.000 
#    0.000    0.000    0.000    0.000    0.000    0.000 
#
# Total GULP energy -210657.957727 kJ/mol
# GULP energy per Si atom -12391.644572 kJ/mol
# Density = 2.438624 g / cm^3
# Si number density = 24.441875 Si / 1000 Ang^3
#
#
#
# Elastic Constant Matrix: (Units=GPa)
#
#
# Indices 1 2 3 4 5 6 
#
# 1 116.1369 22.6802 17.5961 0.0000 0.0000 0.0000
# 2 22.6802 96.6602 20.6614 0.0000 0.0000 0.0000
# 3 17.5961 20.6614 91.8086 0.0000 0.0000 0.0000
# 4 0.0000 0.0000 0.0000 32.9206 0.0000 0.0000
# 5 0.0000 0.0000 0.0000 0.0000 18.3573 0.0000
# 6 0.0000 0.0000 0.0000 0.0000 0.0000 49.8081
#
#
#
# Elastic Compliance Matrix: (Units=1/GPa)
#
#
# Indices 1 2 3 4 5 6 
#
# 1 0.009178 -0.001867 -0.001339 0.000000 0.000000 0.000000
# 2 -0.001867 0.011248 -0.002174 0.000000 0.000000 0.000000
# 3 -0.001339 -0.002174 0.011638 0.000000 0.000000 0.000000
# 4 0.000000 0.000000 0.000000 0.030376 0.000000 0.000000
# 5 0.000000 0.000000 0.000000 0.000000 0.054474 0.000000
# 6 0.000000 0.000000 0.000000 0.000000 0.000000 0.020077
#
#
# Mechanical properties :
#
#
# Convention : Reuss Voigt Hill
#
# Bulk Modulus (GPa) = 46.93752 47.38679 47.16216
# Shear Modulus (GPa) = 32.28877 36.46174 34.37525
#
# Velocity S-wave (km/s) = 3.63856 3.86654 3.75428
# Velocity P-wave (km/s) = 6.07434 6.27400 6.17498
#
# Compressibility (1/GPa) = 0.02130492
#
# Stress axis : x y z
#
# Youngs Moduli (GPa) = 108.95569 88.90264 85.92563
#
# Poissons Ratio (x) = 0.16601 0.11504
# Poissons Ratio (y) = 0.20346 0.18676
# Poissons Ratio (z) = 0.14587 0.19323
#
# Static dielectric constant tensor:
#      x y z
#    x 4.157910 0.000000 0.000000 
#    y 0.000000 4.667950 0.000000 
#    z 0.000000 0.000000 4.436050 
# 
# 
# High freq. dielectric constant tensor:
#      x y z
#    x 1.947990 0.000000 0.000000 
#    y 0.000000 1.980280 0.000000 
#    z 0.000000 0.000000 1.972370 
# 
# From -- ./inp_files/16374.got.cif
#   From: 2010.03.12/outbox.cif.g09.slc.cpg/sg23_9_cif.got.tgz:16374.got - 2010.04.14 02:50:06.
