data_PCOD8163688
_publ_section_title
;
Structure prediction by ZEFSAII (Michael W. Deem and Ramdas Pophale) SiO2 
 PCOD8163688
Probable space group: I 2 2 2
;
_chemical_formula_sum "Si O2"
_cell_formula_units_Z 32
_cell_length_a 8.748867
_cell_length_b 15.151219
_cell_length_c 9.328316
_cell_angle_alpha 90.000000
_cell_angle_beta 90.000000
_cell_angle_gamma 90.000000
_cell_volume 1236.524255
_symmetry_space_group_name_H-M "I 2 2 2"
_symmetry_group_IT_number 23
_symmetry_cell_setting 'orthorhombic'
loop_
_space_group_symop_operation_xyz
x,y,z
-x,-y,z
x,-y,-z
-x,y,-z
1/2+x,1/2+y,1/2+z
1/2-x,1/2-y,1/2+z
1/2+x,1/2-y,1/2-z
1/2-x,1/2+y,1/2-z
loop_
_atom_site_type_symbol
_atom_site_label
_atom_site_fract_x
_atom_site_fract_y
_atom_site_fract_z
Si Si1 0.277873 0.035613 0.653952
Si Si2 0.131279 0.673763 0.641635
Si Si3 0.209048 0.917535 0.901963
Si Si4 0.553685 0.672035 0.245399
O O1 0.401790 0.100956 0.731761
O O2 0.113205 0.087406 0.651651
O O3 0.330956 0.000000 0.500000
O O4 0.267740 0.948080 0.748491
O O5 0.146765 0.630691 0.481616
O O6 0.301506 0.713047 0.670595
O O7 0.011936 0.753407 0.640064
O O8 0.065380 0.854576 0.869933
O O9 0.154691 0.000000 0.000000
#
# Coordination Sequence:
#
# PCOD8163688 Si02
#       4
#     8   8   8   8
#     4   9  21  38  68  96 127 168 233 272 312 397
#     4   9  22  38  65  94 133 171 218 273 336 392
#     4  10  20  38  66  94 119 183 234 260 312 419
#     4  10  21  37  65  94 131 169 218 275 325 392
#
# _framework density 25.878990000000002
#
# number of rings (size 3 to 8) (size 9 to 14) (size 15 to 20)
#    1.500    1.000    0.000    1.500    3.500    4.000 
#    4.500    0.000    0.000   12.000    0.000    0.000 
#    0.000    0.000    0.000    0.000    0.000    0.000 
#
# Total GULP energy -198211.661160 kJ/mol
# GULP energy per Si atom -12388.228822 kJ/mol
# Density = 2.582009 g / cm^3
# Si number density = 25.878990 Si / 1000 Ang^3
#
#
#
# Elastic Constant Matrix: (Units=GPa)
#
#
# Indices 1 2 3 4 5 6 
#
# 1 33.2179 38.4248 28.2707 0.0002 -0.0001 -0.0001
# 2 38.4248 125.2686 69.9085 0.0003 -0.0002 -0.0002
# 3 28.2707 69.9085 184.0772 0.0003 -0.0001 -0.0002
# 4 0.0002 0.0003 0.0003 40.0297 -0.0002 -0.0002
# 5 -0.0001 -0.0002 -0.0001 -0.0002 18.1461 0.0001
# 6 -0.0001 -0.0002 -0.0002 -0.0002 0.0001 35.0017
#
#
#
# Elastic Compliance Matrix: (Units=1/GPa)
#
#
# Indices 1 2 3 4 5 6 
#
# 1 0.047371 -0.013286 -0.002229 0.000000 0.000000 0.000000
# 2 -0.013286 0.013856 -0.003222 0.000000 0.000000 0.000000
# 3 -0.002229 -0.003222 0.006998 0.000000 0.000000 0.000000
# 4 0.000000 0.000000 0.000000 0.024981 0.000000 0.000000
# 5 0.000000 0.000000 0.000000 0.000000 0.055108 0.000000
# 6 0.000000 0.000000 0.000000 0.000000 0.000000 0.028570
#
#
# Mechanical properties :
#
#
# Convention : Reuss Voigt Hill
#
# Bulk Modulus (GPa) = 32.51991 68.41909 50.46950
# Shear Modulus (GPa) = 22.26080 32.36613 27.31346
#
# Velocity S-wave (km/s) = 2.93608 3.54032 3.25226
# Velocity P-wave (km/s) = 4.90790 6.57323 5.80064
#
# Compressibility (1/GPa) = 0.03075039
#
# Stress axis : x y z
#
# Youngs Moduli (GPa) = 21.11018 72.16963 142.88867
#
# Poissons Ratio (x) = 0.95886 0.31855
# Poissons Ratio (y) = 0.28048 0.46036
# Poissons Ratio (z) = 0.04706 0.23252
#
# Static dielectric constant tensor:
#      x y z
#    x 4.401200 0.000000 0.000000 
#    y 0.000000 4.680230 0.000000 
#    z 0.000000 0.000000 4.523230 
# 
# 
# High freq. dielectric constant tensor:
#      x y z
#    x 2.028840 0.000000 0.000000 
#    y 0.000000 2.020240 0.000000 
#    z 0.000000 0.000000 2.030180 
# 
# From -- ./inp_files/7931.got.cif
#   From: 2010.03.12/outbox.cif.g09.slc.cpg/sg23_4_cif.got.tgz:7931.got - 2010.04.14 02:50:06.
