data_PCOD8163876
_publ_section_title
;
Structure prediction by ZEFSAII (Michael W. Deem and Ramdas Pophale) SiO2 
 PCOD8163876
Probable space group: I 2 2 2
;
_chemical_formula_sum "Si O2"
_cell_formula_units_Z 48
_cell_length_a 16.368386
_cell_length_b 7.946434
_cell_length_c 18.294057
_cell_angle_alpha 90.000000
_cell_angle_beta 90.000000
_cell_angle_gamma 90.000000
_cell_volume 2379.513465
_symmetry_space_group_name_H-M "I 2 2 2"
_symmetry_group_IT_number 23
_symmetry_cell_setting 'orthorhombic'
loop_
_space_group_symop_operation_xyz
x,y,z
-x,-y,z
x,-y,-z
-x,y,-z
1/2+x,1/2+y,1/2+z
1/2-x,1/2-y,1/2+z
1/2+x,1/2-y,1/2-z
1/2-x,1/2+y,1/2-z
loop_
_atom_site_type_symbol
_atom_site_label
_atom_site_fract_x
_atom_site_fract_y
_atom_site_fract_z
Si Si1 0.831039 0.687401 0.840859
Si Si2 0.910231 1.000000 0.085521
Si Si3 0.000000 0.801541 0.415648
Si Si4 0.655943 0.807805 0.175277
Si Si5 0.655943 0.192194 0.175277
Si Si6 0.331039 0.812600 0.340859
O O1 0.866545 0.723626 0.759952
O O2 0.732562 0.690649 0.844074
O O3 0.858039 0.500001 0.866604
O O4 0.864902 0.829217 0.893514
O O5 0.864903 0.829215 0.106486
O O6 0.000000 0.000000 0.121638
O O7 0.916948 0.000000 0.000000
O O8 0.079890 0.731335 0.376220
O O9 0.000000 0.741553 0.500000
O O10 0.920110 0.731334 0.376220
O O11 0.000000 0.000000 0.409832
O O12 0.732562 0.690648 0.155926
O O13 0.683301 1.000000 0.163776
O O14 0.633455 0.223625 0.259952
#
# Coordination Sequence:
#
# PCOD8163876 Si02
#       6
#     8   8   8   8   8   8
#     4  10  22  41  67  96 124 164 215 263 312 370
#     4  11  26  44  64  93 125 167 211 259 328 378
#     4  11  25  39  57  93 135 174 211 255 318 384
#     4  10  21  39  64  94 126 167 215 258 308 375
#     4  10  21  39  64  94 126 167 215 258 308 375
#     4  10  22  41  67  96 124 164 215 263 312 370
#
# _framework density 20.172190000000001
#
# number of rings (size 3 to 8) (size 9 to 14) (size 15 to 20)
#    0.000    1.667    1.667    1.500    7.000    4.000 
#    0.000    1.667    0.000    0.000    0.000    0.000 
#    0.000    0.000    0.000    0.000    0.000    0.000 
#
# Total GULP energy -297609.704835 kJ/mol
# GULP energy per Si atom -12400.404368 kJ/mol
# Density = 2.012628 g / cm^3
# Si number density = 20.172190 Si / 1000 Ang^3
#
#
#
# Elastic Constant Matrix: (Units=GPa)
#
#
# Indices 1 2 3 4 5 6 
#
# 1 92.1414 34.4610 54.2526 0.0000 0.0000 0.0000
# 2 34.4610 125.7054 37.9570 0.0000 0.0000 0.0000
# 3 54.2526 37.9570 92.1735 0.0000 0.0000 0.0000
# 4 0.0000 0.0000 0.0000 25.2696 0.0000 0.0000
# 5 0.0000 0.0000 0.0000 0.0000 31.8801 0.0000
# 6 0.0000 0.0000 0.0000 0.0000 0.0000 28.4339
#
#
#
# Elastic Compliance Matrix: (Units=1/GPa)
#
#
# Indices 1 2 3 4 5 6 
#
# 1 0.016985 -0.001870 -0.009227 0.000000 0.000000 0.000000
# 2 -0.001870 0.009291 -0.002725 0.000000 0.000000 0.000000
# 3 -0.009227 -0.002725 0.017402 0.000000 0.000000 0.000000
# 4 0.000000 0.000000 0.000000 0.039573 0.000000 0.000000
# 5 0.000000 0.000000 0.000000 0.000000 0.031368 0.000000
# 6 0.000000 0.000000 0.000000 0.000000 0.000000 0.035169
#
#
# Mechanical properties :
#
#
# Convention : Reuss Voigt Hill
#
# Bulk Modulus (GPa) = 62.37045 62.59573 62.48309
# Shear Modulus (GPa) = 27.35560 29.34006 28.34783
#
# Velocity S-wave (km/s) = 3.68653 3.81790 3.75279
# Velocity P-wave (km/s) = 7.00762 7.10867 7.05833
#
# Compressibility (1/GPa) = 0.01603323
#
# Stress axis : x y z
#
# Youngs Moduli (GPa) = 58.87429 107.63508 57.46325
#
# Poissons Ratio (x) = 0.20130 0.53023
# Poissons Ratio (y) = 0.11010 0.15659
# Poissons Ratio (z) = 0.54325 0.29332
#
# Static dielectric constant tensor:
#      x y z
#    x 3.817810 0.000000 0.000000 
#    y 0.000000 3.845990 0.000000 
#    z 0.000000 0.000000 3.607440 
# 
# 
# High freq. dielectric constant tensor:
#      x y z
#    x 1.787520 0.000000 0.000000 
#    y 0.000000 1.806940 0.000000 
#    z 0.000000 0.000000 1.776100 
# 
# From -- ./inp_files/24722.got.cif
#   From: 2010.03.12/outbox.cif.g09.slc.cpg/sg23_13_cif.got.tgz:24722.got - 2010.04.14 02:50:06.
