data_PCOD8163186
_publ_section_title
;
Structure prediction by ZEFSAII (Michael W. Deem and Ramdas Pophale) SiO2 
 PCOD8163186
Probable space group: F 2 2 2
;
_chemical_formula_sum "Si O2"
_cell_formula_units_Z 80
_cell_length_a 29.327808
_cell_length_b 17.514443
_cell_length_c 9.787759
_cell_angle_alpha 90.000000
_cell_angle_beta 90.000000
_cell_angle_gamma 90.000000
_cell_volume 5027.582456
_symmetry_space_group_name_H-M "F 2 2 2"
_symmetry_group_IT_number 22
_symmetry_cell_setting 'orthorhombic'
loop_
_space_group_symop_operation_xyz
x,y,z
-x,-y,z
x,-y,-z
-x,y,-z
x,1/2+y,1/2+z
-x,1/2-y,1/2+z
x,1/2-y,1/2-z
-x,1/2+y,1/2-z
1/2+x,y,1/2+z
1/2-x,-y,1/2+z
1/2+x,-y,1/2-z
1/2-x,y,1/2-z
1/2+x,1/2+y,z
1/2-x,1/2-y,z
1/2+x,1/2-y,-z
1/2-x,1/2+y,-z
loop_
_atom_site_type_symbol
_atom_site_label
_atom_site_fract_x
_atom_site_fract_y
_atom_site_fract_z
Si Si1 0.379451 0.317838 0.849717
Si Si2 0.552438 0.090078 0.500000
Si Si3 0.707853 0.088335 0.659052
Si Si4 0.120549 0.682162 0.650283
Si Si5 0.207853 0.411665 0.659052
O O1 0.393321 0.250000 0.750000
O O2 0.335975 0.363764 0.792878
O O3 0.422613 0.375599 0.864948
O O4 0.367672 0.283726 1.000000
O O5 0.500000 0.115025 0.500000
O O6 0.577387 0.124401 0.635052
O O7 0.558593 0.000000 0.500000
O O8 0.750000 0.117230 0.750000
O O9 0.664025 0.136236 0.707122
O O10 0.719283 0.101464 0.500000
O O11 0.697178 0.000000 0.688506
O O12 0.106679 0.750000 0.750000
O O13 0.250000 0.382770 0.750000
#
# Coordination Sequence:
#
# PCOD8163186 Si02
#       5
#    16  16  16  16  16
#     4   9  19  32  49  75 104 129 162 208 254 293
#     4   9  18  34  58  77  93 131 175 206 247 304
#     4   9  17  30  48  69  96 135 174 204 239 290
#     4   9  19  32  49  75 104 129 162 208 254 293
#     4   9  17  30  48  69  96 135 174 204 239 290
#
# _framework density 15.912221000000001
#
# number of rings (size 3 to 8) (size 9 to 14) (size 15 to 20)
#    1.200    1.800    0.000    1.200    0.000    3.200 
#    0.000    4.000    0.000    3.600    0.000    2.800 
#    0.000    0.000    0.000    0.000    0.000    0.000 
#
# Total GULP energy -247847.219454 kJ/mol
# GULP energy per Si atom -12392.360973 kJ/mol
# Density = 1.587600 g / cm^3
# Si number density = 15.912221 Si / 1000 Ang^3
#
#
#
# Elastic Constant Matrix: (Units=GPa)
#
#
# Indices 1 2 3 4 5 6 
#
# 1 149.9007 68.0543 44.1230 0.0000 0.0000 0.0000
# 2 68.0543 87.2023 43.2327 0.0000 0.0000 0.0000
# 3 44.1230 43.2327 48.3307 0.0000 0.0000 0.0000
# 4 0.0000 0.0000 0.0000 32.7116 0.0000 0.0000
# 5 0.0000 0.0000 0.0000 0.0000 22.5754 0.0000
# 6 0.0000 0.0000 0.0000 0.0000 0.0000 18.0199
#
#
#
# Elastic Compliance Matrix: (Units=1/GPa)
#
#
# Indices 1 2 3 4 5 6 
#
# 1 0.010778 -0.006349 -0.004161 0.000000 0.000000 0.000000
# 2 -0.006349 0.024345 -0.015981 0.000000 0.000000 0.000000
# 3 -0.004161 -0.015981 0.038785 0.000000 0.000000 0.000000
# 4 0.000000 0.000000 0.000000 0.030570 0.000000 0.000000
# 5 0.000000 0.000000 0.000000 0.000000 0.044296 0.000000
# 6 0.000000 0.000000 0.000000 0.000000 0.000000 0.055494
#
#
# Mechanical properties :
#
#
# Convention : Reuss Voigt Hill
#
# Bulk Modulus (GPa) = 47.78576 66.25044 57.01810
# Shear Modulus (GPa) = 18.92320 23.32964 21.12642
#
# Velocity S-wave (km/s) = 3.45225 3.83318 3.64769
# Velocity P-wave (km/s) = 6.78136 7.83048 7.32472
#
# Compressibility (1/GPa) = 0.02092674
#
# Stress axis : x y z
#
# Youngs Moduli (GPa) = 92.78142 41.07565 25.78314
#
# Poissons Ratio (x) = 0.26077 0.10728
# Poissons Ratio (y) = 0.58903 0.41205
# Poissons Ratio (z) = 0.38604 0.65645
#
# Static dielectric constant tensor:
#      x y z
#    x 3.030310 0.000000 0.000000 
#    y 0.000000 2.851110 0.000000 
#    z 0.000000 0.000000 2.804920 
# 
# 
# High freq. dielectric constant tensor:
#      x y z
#    x 1.612740 0.000000 0.000000 
#    y 0.000000 1.606980 0.000000 
#    z 0.000000 0.000000 1.586760 
# 
# From -- ./inp_files/25308.got.cif
#   From: 2010.03.12/outbox.cif.g09.slc.cpg/sg22_13_cif.got.tgz:25308.got - 2010.04.14 02:24:06.
