data_PCOD8163402
_publ_section_title
;
Structure prediction by ZEFSAII (Michael W. Deem and Ramdas Pophale) SiO2 
 PCOD8163402
Probable space group: I 2 2 2
;
_chemical_formula_sum "Si O2"
_cell_formula_units_Z 56
_cell_length_a 20.190709
_cell_length_b 9.641231
_cell_length_c 15.309464
_cell_angle_alpha 90.000000
_cell_angle_beta 90.000000
_cell_angle_gamma 90.000000
_cell_volume 2980.190623
_symmetry_space_group_name_H-M "I 2 2 2"
_symmetry_group_IT_number 23
_symmetry_cell_setting 'orthorhombic'
loop_
_space_group_symop_operation_xyz
x,y,z
-x,-y,z
x,-y,-z
-x,y,-z
1/2+x,1/2+y,1/2+z
1/2-x,1/2-y,1/2+z
1/2+x,1/2-y,1/2-z
1/2-x,1/2+y,1/2-z
loop_
_atom_site_type_symbol
_atom_site_label
_atom_site_fract_x
_atom_site_fract_y
_atom_site_fract_z
Si Si1 0.923433 0.160192 0.826841
Si Si2 0.852008 0.834115 0.001183
Si Si3 0.506567 0.851449 0.098593
Si Si4 0.110708 0.147617 0.361111
Si Si5 0.122146 0.832462 0.350703
Si Si6 0.777540 0.158318 0.496254
Si Si7 0.428448 0.661033 0.666576
O O1 0.875675 0.178090 0.742012
O O2 0.997912 0.225873 0.814446
O O3 0.935992 0.001092 0.847891
O O4 0.885480 0.223752 0.910062
O O5 0.897533 0.777771 0.922015
O O6 0.780683 0.765964 0.989879
O O7 0.842756 0.000000 0.000000
O O8 0.453780 0.735828 0.121739
O O9 0.578516 0.789127 0.110810
O O10 0.500000 0.000000 0.150284
O O11 0.500000 0.892018 0.000000
O O12 0.170217 0.189089 0.425428
O O13 0.093018 0.985099 0.373512
O O14 0.192554 0.816793 0.399040
O O15 0.122957 0.809614 0.246052
O O16 0.751980 0.000000 0.500000
#
# Coordination Sequence:
#
# PCOD8163402 Si02
#       7
#     8   8   8   8   8   8   8
#     4   9  17  32  58  85 104 131 182 233 266 309
#     4  10  21  36  55  79 108 143 181 225 272 310
#     4  11  21  31  49  82 117 140 166 217 281 324
#     4  10  19  34  57  80 104 142 185 218 257 319
#     4  10  19  34  57  80 104 142 185 218 257 319
#     4  10  22  36  52  77 109 145 184 217 258 323
#     4   9  17  32  58  85 104 131 182 233 266 309
#
# _framework density 18.790745999999999
#
# number of rings (size 3 to 8) (size 9 to 14) (size 15 to 20)
#    0.000    2.143    2.857    0.857    0.000    4.571 
#    0.000    1.429    0.000    0.857    0.000    0.000 
#    0.000    0.000    0.000    0.000    0.000    0.000 
#
# Total GULP energy -346893.310964 kJ/mol
# GULP energy per Si atom -12389.046820 kJ/mol
# Density = 1.874798 g / cm^3
# Si number density = 18.790746 Si / 1000 Ang^3
#
#
#
# Elastic Constant Matrix: (Units=GPa)
#
#
# Indices 1 2 3 4 5 6 
#
# 1 77.4320 21.3948 40.4241 0.0000 0.0000 0.0000
# 2 21.3948 51.8243 10.6501 0.0000 0.0000 0.0000
# 3 40.4241 10.6501 132.6854 0.0000 0.0000 0.0000
# 4 0.0000 0.0000 0.0000 15.6817 0.0000 0.0000
# 5 0.0000 0.0000 0.0000 0.0000 22.1391 0.0000
# 6 0.0000 0.0000 0.0000 0.0000 0.0000 33.3662
#
#
#
# Elastic Compliance Matrix: (Units=1/GPa)
#
#
# Indices 1 2 3 4 5 6 
#
# 1 0.017049 -0.006071 -0.004707 0.000000 0.000000 0.000000
# 2 -0.006071 0.021782 0.000101 0.000000 0.000000 0.000000
# 3 -0.004707 0.000101 0.008963 0.000000 0.000000 0.000000
# 4 0.000000 0.000000 0.000000 0.063769 0.000000 0.000000
# 5 0.000000 0.000000 0.000000 0.000000 0.045169 0.000000
# 6 0.000000 0.000000 0.000000 0.000000 0.000000 0.029970
#
#
# Mechanical properties :
#
#
# Convention : Reuss Voigt Hill
#
# Bulk Modulus (GPa) = 37.82188 45.20886 41.51537
# Shear Modulus (GPa) = 23.05548 26.86893 24.96220
#
# Velocity S-wave (km/s) = 3.50660 3.78551 3.64872
# Velocity P-wave (km/s) = 6.04703 6.57405 6.31604
#
# Compressibility (1/GPa) = 0.02643972
#
# Stress axis : x y z
#
# Youngs Moduli (GPa) = 58.65312 45.91047 111.57574
#
# Poissons Ratio (x) = 0.27873 0.52518
# Poissons Ratio (y) = 0.35610 -0.01131
# Poissons Ratio (z) = 0.27608 -0.00465
#
# Static dielectric constant tensor:
#      x y z
#    x 3.307840 0.000000 0.000000 
#    y 0.000000 3.229030 0.000000 
#    z 0.000000 0.000000 3.800150 
# 
# 
# High freq. dielectric constant tensor:
#      x y z
#    x 1.708300 0.000000 0.000000 
#    y 0.000000 1.701460 0.000000 
#    z 0.000000 0.000000 1.745000 
# 
# From -- ./inp_files/22387.got.cif
#   From: 2010.03.12/outbox.cif.g09.slc.cpg/sg23_12_cif.got.tgz:22387.got - 2010.04.14 02:50:06.
