data_PCOD8163799
_publ_section_title
;
Structure prediction by ZEFSAII (Michael W. Deem and Ramdas Pophale) SiO2 
 PCOD8163799
Probable space group: I 2 2 2
;
_chemical_formula_sum "Si O2"
_cell_formula_units_Z 32
_cell_length_a 17.220944
_cell_length_b 18.889230
_cell_length_c 4.913636
_cell_angle_alpha 90.000000
_cell_angle_beta 90.000000
_cell_angle_gamma 90.000000
_cell_volume 1598.358482
_symmetry_space_group_name_H-M "I 2 2 2"
_symmetry_group_IT_number 23
_symmetry_cell_setting 'orthorhombic'
loop_
_space_group_symop_operation_xyz
x,y,z
-x,-y,z
x,-y,-z
-x,y,-z
1/2+x,1/2+y,1/2+z
1/2-x,1/2-y,1/2+z
1/2+x,1/2-y,1/2-z
1/2-x,1/2+y,1/2-z
loop_
_atom_site_type_symbol
_atom_site_label
_atom_site_fract_x
_atom_site_fract_y
_atom_site_fract_z
Si Si1 0.000000 0.742711 0.500000
Si Si2 0.161260 0.201414 0.561470
Si Si3 0.247192 0.155299 0.063827
Si Si4 0.130372 0.453465 0.747913
Si Si5 0.000000 0.352668 0.000000
O O1 0.931019 0.793125 0.607422
O O2 0.032457 0.695310 0.751947
O O3 0.176890 0.166625 0.271764
O O4 0.192601 0.280767 0.589009
O O5 0.205206 0.150568 0.773771
O O6 0.294629 0.084355 0.121258
O O7 0.093644 0.500000 0.500000
O O8 0.067494 0.399815 0.870296
O O9 0.159506 0.500000 0.000000
#
# Coordination Sequence:
#
# PCOD8163799 Si02
#       5
#     4   8   8   8   4
#     4  12  22  38  63  96 121 162 190 254 314 370
#     4  10  21  36  62  83 120 153 198 249 310 351
#     4  10  21  39  57  85 115 163 200 249 291 352
#     4  12  25  41  59  85 124 173 209 239 286 356
#     4  12  25  38  58  88 130 164 205 234 286 370
#
# _framework density 20.020541000000001
#
# number of rings (size 3 to 8) (size 9 to 14) (size 15 to 20)
#    0.000    1.000    2.500    4.875    7.000    1.000 
#    0.000    0.000    0.000    0.000    0.000   13.125 
#    0.000    0.000    0.000    0.000    0.000    0.000 
#
# Total GULP energy -198417.244362 kJ/mol
# GULP energy per Si atom -12401.077773 kJ/mol
# Density = 1.997497 g / cm^3
# Si number density = 20.020541 Si / 1000 Ang^3
#
#
#
# Elastic Constant Matrix: (Units=GPa)
#
#
# Indices 1 2 3 4 5 6 
#
# 1 123.2448 29.7384 20.8273 0.0000 0.0000 0.0000
# 2 29.7384 43.0214 12.6345 0.0000 0.0000 0.0000
# 3 20.8273 12.6345 93.7387 0.0000 0.0000 0.0000
# 4 0.0000 0.0000 0.0000 25.8552 0.0000 0.0000
# 5 0.0000 0.0000 0.0000 0.0000 29.3656 0.0000
# 6 0.0000 0.0000 0.0000 0.0000 0.0000 11.5802
#
#
#
# Elastic Compliance Matrix: (Units=1/GPa)
#
#
# Indices 1 2 3 4 5 6 
#
# 1 0.009895 -0.006449 -0.001329 0.000000 0.000000 0.000000
# 2 -0.006449 0.028406 -0.002396 0.000000 0.000000 0.000000
# 3 -0.001329 -0.002396 0.011286 0.000000 0.000000 0.000000
# 4 0.000000 0.000000 0.000000 0.038677 0.000000 0.000000
# 5 0.000000 0.000000 0.000000 0.000000 0.034053 0.000000
# 6 0.000000 0.000000 0.000000 0.000000 0.000000 0.086354
#
#
# Mechanical properties :
#
#
# Convention : Reuss Voigt Hill
#
# Bulk Modulus (GPa) = 34.20169 42.93391 38.56780
# Shear Modulus (GPa) = 20.94100 26.48054 23.71077
#
# Velocity S-wave (km/s) = 3.23766 3.64080 3.44513
# Velocity P-wave (km/s) = 5.57647 6.25822 5.92716
#
# Compressibility (1/GPa) = 0.02923832
#
# Stress axis : x y z
#
# Youngs Moduli (GPa) = 101.06362 35.20395 88.60399
#
# Poissons Ratio (x) = 0.22704 0.11777
# Poissons Ratio (y) = 0.65180 0.21227
# Poissons Ratio (z) = 0.13433 0.08434
#
# Static dielectric constant tensor:
#      x y z
#    x 3.444530 0.000000 0.000000 
#    y 0.000000 3.499790 0.000000 
#    z 0.000000 0.000000 4.068800 
# 
# 
# High freq. dielectric constant tensor:
#      x y z
#    x 1.768210 0.000000 0.000000 
#    y 0.000000 1.744820 0.000000 
#    z 0.000000 0.000000 1.810240 
# 
# From -- ./inp_files/2202.got.cif
#   From: 2010.03.12/outbox.cif.g09.slc.cpg/sg23_2_cif.got.tgz:2202.got - 2010.04.14 02:50:06.
