data_PCOD8163722
_publ_section_title
;
Structure prediction by ZEFSAII (Michael W. Deem and Ramdas Pophale) SiO2 
 PCOD8163722
Probable space group: I 2 2 2
;
_chemical_formula_sum "Si O2"
_cell_formula_units_Z 64
_cell_length_a 31.042753
_cell_length_b 11.055685
_cell_length_c 9.727842
_cell_angle_alpha 90.000000
_cell_angle_beta 90.000000
_cell_angle_gamma 90.000000
_cell_volume 3338.584661
_symmetry_space_group_name_H-M "I 2 2 2"
_symmetry_group_IT_number 23
_symmetry_cell_setting 'orthorhombic'
loop_
_space_group_symop_operation_xyz
x,y,z
-x,-y,z
x,-y,-z
-x,y,-z
1/2+x,1/2+y,1/2+z
1/2-x,1/2-y,1/2+z
1/2+x,1/2-y,1/2-z
1/2-x,1/2+y,1/2-z
loop_
_atom_site_type_symbol
_atom_site_label
_atom_site_fract_x
_atom_site_fract_y
_atom_site_fract_z
Si Si1 0.575355 0.212040 0.342121
Si Si2 0.700707 0.638326 0.993396
Si Si3 0.995980 0.870884 0.839093
Si Si4 0.449281 0.002387 0.162772
Si Si5 0.841668 0.871236 0.204048
Si Si6 0.337478 0.641294 0.721157
Si Si7 0.266872 0.639153 0.510270
Si Si8 0.581901 0.786455 0.344996
O O1 0.534026 0.284926 0.287897
O O2 0.618252 0.289750 0.335295
O O3 0.570470 0.166445 0.500716
O O4 0.577554 0.103341 0.235456
O O5 0.672614 0.654031 0.858293
O O6 0.733403 0.750933 0.003343
O O7 0.721354 0.500000 0.000000
O O8 0.666760 0.653437 0.115977
O O9 0.948935 0.823186 0.802138
O O10 0.000000 0.000000 0.763885
O O11 0.000000 0.887585 0.000000
O O12 0.426623 0.117656 0.227090
O O13 0.500000 0.000000 0.199804
O O14 0.441755 0.000000 0.000000
O O15 0.856022 0.009771 0.180271
O O16 0.801677 0.839193 0.107872
O O17 0.289811 0.655803 0.657366
O O18 0.368829 0.743425 0.661387
O O19 0.247508 0.500000 0.500000
#
# Coordination Sequence:
#
# PCOD8163722 Si02
#       8
#     8   8   8   8   8   8   8   8
#     4  11  21  38  62  88 119 156 204 245 297 358
#     4  10  22  40  60  85 124 165 203 250 315 380
#     4   9  18  31  57  90 116 147 192 245 290 347
#     4  11  25  43  61  83 125 169 199 245 303 361
#     4  10  21  38  61  89 123 158 198 254 308 360
#     4  10  21  38  61  89 123 158 198 254 308 360
#     4  10  20  40  64  87 118 159 205 256 313 368
#     4  11  21  38  62  88 119 156 204 245 297 358
#
# _framework density 19.169799999999999
#
# number of rings (size 3 to 8) (size 9 to 14) (size 15 to 20)
#    0.000    1.750    2.500    1.875    1.750    1.500 
#    4.500    0.000    0.000    0.750    0.000    0.000 
#    0.000    0.000    0.000    0.000    0.000    0.000 
#
# Total GULP energy -396633.577139 kJ/mol
# GULP energy per Si atom -12394.799286 kJ/mol
# Density = 1.912617 g / cm^3
# Si number density = 19.169800 Si / 1000 Ang^3
#
#
#
# Elastic Constant Matrix: (Units=GPa)
#
#
# Indices 1 2 3 4 5 6 
#
# 1 62.4236 37.7481 14.5587 0.0000 0.0000 0.0000
# 2 37.7481 100.1687 22.8649 0.0000 0.0000 0.0000
# 3 14.5587 22.8649 100.1842 0.0000 0.0000 0.0000
# 4 0.0000 0.0000 0.0000 24.2996 0.0000 0.0000
# 5 0.0000 0.0000 0.0000 0.0000 20.7056 0.0000
# 6 0.0000 0.0000 0.0000 0.0000 0.0000 33.8339
#
#
#
# Elastic Compliance Matrix: (Units=1/GPa)
#
#
# Indices 1 2 3 4 5 6 
#
# 1 0.020909 -0.007581 -0.001308 0.000000 0.000000 0.000000
# 2 -0.007581 0.013280 -0.001929 0.000000 0.000000 0.000000
# 3 -0.001308 -0.001929 0.010612 0.000000 0.000000 0.000000
# 4 0.000000 0.000000 0.000000 0.041153 0.000000 0.000000
# 5 0.000000 0.000000 0.000000 0.000000 0.048296 0.000000
# 6 0.000000 0.000000 0.000000 0.000000 0.000000 0.029556
#
#
# Mechanical properties :
#
#
# Convention : Reuss Voigt Hill
#
# Bulk Modulus (GPa) = 43.16959 45.90221 44.53590
# Shear Modulus (GPa) = 25.88465 28.27481 27.07973
#
# Velocity S-wave (km/s) = 3.67861 3.84470 3.76257
# Velocity P-wave (km/s) = 6.37270 6.61105 6.49297
#
# Compressibility (1/GPa) = 0.02316445
#
# Stress axis : x y z
#
# Youngs Moduli (GPa) = 47.82665 75.29941 94.23238
#
# Poissons Ratio (x) = 0.57083 0.12329
# Poissons Ratio (y) = 0.36256 0.18180
# Poissons Ratio (z) = 0.06257 0.14528
#
# Static dielectric constant tensor:
#      x y z
#    x 3.345200 0.000000 0.000000 
#    y 0.000000 4.503830 0.000000 
#    z 0.000000 0.000000 3.557140 
# 
# 
# High freq. dielectric constant tensor:
#      x y z
#    x 1.730930 0.000000 0.000000 
#    y 0.000000 1.752060 0.000000 
#    z 0.000000 0.000000 1.749020 
# 
# From -- ./inp_files/13492.got.cif
#   From: 2010.03.12/outbox.cif.g09.slc.cpg/sg23_7_cif.got.tgz:13492.got - 2010.04.14 02:50:06.
