data_PCOD8163084
_publ_section_title
;
Structure prediction by ZEFSAII (Michael W. Deem and Ramdas Pophale) SiO2 
 PCOD8163084
Probable space group: F 2 2 2
;
_chemical_formula_sum "Si O2"
_cell_formula_units_Z 88
_cell_length_a 12.656609
_cell_length_b 26.828025
_cell_length_c 12.450026
_cell_angle_alpha 90.000000
_cell_angle_beta 90.000000
_cell_angle_gamma 90.000000
_cell_volume 4227.429021
_symmetry_space_group_name_H-M "F 2 2 2"
_symmetry_group_IT_number 22
_symmetry_cell_setting 'orthorhombic'
loop_
_space_group_symop_operation_xyz
x,y,z
-x,-y,z
x,-y,-z
-x,y,-z
x,1/2+y,1/2+z
-x,1/2-y,1/2+z
x,1/2-y,1/2-z
-x,1/2+y,1/2-z
1/2+x,y,1/2+z
1/2-x,-y,1/2+z
1/2+x,-y,1/2-z
1/2-x,y,1/2-z
1/2+x,1/2+y,z
1/2-x,1/2-y,z
1/2+x,1/2-y,-z
1/2-x,1/2+y,-z
loop_
_atom_site_type_symbol
_atom_site_label
_atom_site_fract_x
_atom_site_fract_y
_atom_site_fract_z
Si Si1 0.279957 0.570709 0.586450
Si Si2 0.430693 0.129978 0.398012
Si Si3 0.314111 0.958957 0.148011
Si Si4 0.502893 0.392452 0.669347
Si Si5 0.000000 0.183853 0.500000
Si Si6 0.871959 0.741244 0.367678
O O1 0.170455 0.594822 0.624403
O O2 0.299616 0.517977 0.643303
O O3 0.269007 0.566296 0.458763
O O4 0.378259 0.604255 0.622942
O O5 0.500000 0.112177 0.500000
O O6 0.501932 0.124798 0.292212
O O7 0.395404 0.186653 0.414159
O O8 0.250000 0.937636 0.250000
O O9 0.437862 0.944148 0.158326
O O10 0.449031 0.350053 0.594959
O O11 0.091276 0.218549 0.453706
O O12 0.925432 0.750000 0.250000
O O13 0.750000 0.750000 0.353855
#
# Coordination Sequence:
#
# PCOD8163084 Si02
#       6
#    16  16  16  16   8  16
#     4  11  24  42  67  98 129 177 228 273 339 411
#     4  12  25  43  67  98 137 179 223 285 348 404
#     4  11  23  42  64  97 136 172 221 282 342 403
#     4  12  23  41  69  95 134 175 226 279 335 406
#     4  12  22  42  65 102 126 167 226 274 328 396
#     4  11  24  41  67  96 134 175 225 276 332 404
#
# _framework density 20.816434000000001
#
# number of rings (size 3 to 8) (size 9 to 14) (size 15 to 20)
#    0.000    0.545    4.545    4.364    2.545    1.455 
#    0.000    5.455    0.000    1.091    0.000    0.000 
#    0.000    0.000    0.000    0.000    0.000    0.000 
#
# Total GULP energy -272830.682399 kJ/mol
# GULP energy per Si atom -12401.394654 kJ/mol
# Density = 2.076905 g / cm^3
# Si number density = 20.816434 Si / 1000 Ang^3
#
#
#
# Elastic Constant Matrix: (Units=GPa)
#
#
# Indices 1 2 3 4 5 6 
#
# 1 98.6616 50.0019 42.0871 0.0000 0.0000 0.0000
# 2 50.0019 127.3447 46.2240 0.0000 0.0000 0.0000
# 3 42.0871 46.2240 162.9245 0.0000 0.0000 0.0000
# 4 0.0000 0.0000 0.0000 28.6065 0.0000 0.0000
# 5 0.0000 0.0000 0.0000 0.0000 25.3559 0.0000
# 6 0.0000 0.0000 0.0000 0.0000 0.0000 38.7353
#
#
#
# Elastic Compliance Matrix: (Units=1/GPa)
#
#
# Indices 1 2 3 4 5 6 
#
# 1 0.013314 -0.004436 -0.002181 0.000000 0.000000 0.000000
# 2 -0.004436 0.010232 -0.001757 0.000000 0.000000 0.000000
# 3 -0.002181 -0.001757 0.007200 0.000000 0.000000 0.000000
# 4 0.000000 0.000000 0.000000 0.034957 0.000000 0.000000
# 5 0.000000 0.000000 0.000000 0.000000 0.039439 0.000000
# 6 0.000000 0.000000 0.000000 0.000000 0.000000 0.025816
#
#
# Mechanical properties :
#
#
# Convention : Reuss Voigt Hill
#
# Bulk Modulus (GPa) = 71.43826 73.95076 72.69451
# Shear Modulus (GPa) = 32.81436 35.24739 34.03087
#
# Velocity S-wave (km/s) = 3.97466 4.11937 4.04766
# Velocity P-wave (km/s) = 7.44692 7.63072 7.53938
#
# Compressibility (1/GPa) = 0.01399810
#
# Stress axis : x y z
#
# Youngs Moduli (GPa) = 75.10772 97.72890 138.89546
#
# Poissons Ratio (x) = 0.43355 0.30289
# Poissons Ratio (y) = 0.33320 0.24405
# Poissons Ratio (z) = 0.16379 0.17172
#
# Static dielectric constant tensor:
#      x y z
#    x 3.553800 0.000000 0.000000 
#    y 0.000000 3.797230 0.000000 
#    z 0.000000 0.000000 4.180380 
# 
# 
# High freq. dielectric constant tensor:
#      x y z
#    x 1.795760 0.000000 0.000000 
#    y 0.000000 1.819280 0.000000 
#    z 0.000000 0.000000 1.837120 
# 
# From -- ./inp_files/18407.got.cif
#   From: 2010.03.12/outbox.cif.g09.slc.cpg/sg22_10_cif.got.tgz:18407.got - 2010.04.14 02:24:06.
