data_PCOD8163330
_publ_section_title
;
Structure prediction by ZEFSAII (Michael W. Deem and Ramdas Pophale) SiO2 
 PCOD8163330
Probable space group: I 2 2 2
;
_chemical_formula_sum "Si O2"
_cell_formula_units_Z 48
_cell_length_a 13.937468
_cell_length_b 6.680467
_cell_length_c 23.210796
_cell_angle_alpha 90.000000
_cell_angle_beta 90.000000
_cell_angle_gamma 90.000000
_cell_volume 2161.129247
_symmetry_space_group_name_H-M "I 2 2 2"
_symmetry_group_IT_number 23
_symmetry_cell_setting 'orthorhombic'
loop_
_space_group_symop_operation_xyz
x,y,z
-x,-y,z
x,-y,-z
-x,y,-z
1/2+x,1/2+y,1/2+z
1/2-x,1/2-y,1/2+z
1/2+x,1/2-y,1/2-z
1/2-x,1/2+y,1/2-z
loop_
_atom_site_type_symbol
_atom_site_label
_atom_site_fract_x
_atom_site_fract_y
_atom_site_fract_z
Si Si1 0.730306 0.328287 0.829232
Si Si2 0.271344 0.624656 0.554358
Si Si3 0.902764 0.220873 0.903285
Si Si4 0.368841 0.000000 0.500000
Si Si5 0.148803 0.828103 0.729850
Si Si6 0.105115 0.530499 0.638083
Si Si7 0.500000 0.500000 0.686857
O O1 0.816300 0.340530 0.874216
O O2 0.764648 0.262039 0.766042
O O3 0.689924 0.550236 0.824032
O O4 0.645071 0.188962 0.850368
O O5 0.232428 0.500000 0.500000
O O6 0.363294 0.501156 0.579787
O O7 0.181627 0.644678 0.597684
O O8 0.302439 0.848248 0.536487
O O9 0.934622 0.359050 0.957618
O O10 0.990248 0.191598 0.857232
O O11 0.089617 0.650245 0.698832
O O12 0.091016 0.983536 0.771224
O O13 0.000000 0.500000 0.609533
#
# Coordination Sequence:
#
# PCOD8163330 Si02
#       7
#     8   8   8   4   8   8   4
#     4  10  20  36  58  85 118 162 201 243 294 361
#     4   9  20  39  62  86 118 153 206 258 303 361
#     4   9  20  38  59  87 121 155 203 256 306 360
#     4  10  18  40  69  87 104 164 214 244 308 377
#     4  11  20  37  58  84 123 162 204 239 296 373
#     4  11  22  36  58  90 122 160 197 250 307 365
#     4  10  22  38  55  88 132 157 190 264 306 350
#
# _framework density 22.210609999999999
#
# number of rings (size 3 to 8) (size 9 to 14) (size 15 to 20)
#    0.000    2.000    1.667    2.000    0.000    0.333 
#    0.000    7.083    0.000    9.000    0.000    0.000 
#    0.000    0.000    0.000    0.000    0.000    0.000 
#
# Total GULP energy -297335.922661 kJ/mol
# GULP energy per Si atom -12388.996778 kJ/mol
# Density = 2.216006 g / cm^3
# Si number density = 22.210610 Si / 1000 Ang^3
#
#
#
# Elastic Constant Matrix: (Units=GPa)
#
#
# Indices 1 2 3 4 5 6 
#
# 1 38.9484 7.2676 0.6412 0.0000 0.0000 0.0000
# 2 7.2676 69.9745 20.2988 0.0000 0.0000 0.0000
# 3 0.6412 20.2988 78.8591 0.0000 0.0000 0.0000
# 4 0.0000 0.0000 0.0000 43.8740 0.0000 0.0000
# 5 0.0000 0.0000 0.0000 0.0000 23.9025 0.0000
# 6 0.0000 0.0000 0.0000 0.0000 0.0000 17.1371
#
#
#
# Elastic Compliance Matrix: (Units=1/GPa)
#
#
# Indices 1 2 3 4 5 6 
#
# 1 0.026203 -0.002874 0.000527 0.000000 0.000000 0.000000
# 2 -0.002874 0.015759 -0.004033 0.000000 0.000000 0.000000
# 3 0.000527 -0.004033 0.013715 0.000000 0.000000 0.000000
# 4 0.000000 0.000000 0.000000 0.022793 0.000000 0.000000
# 5 0.000000 0.000000 0.000000 0.000000 0.041837 0.000000
# 6 0.000000 0.000000 0.000000 0.000000 0.000000 0.058353
#
#
# Mechanical properties :
#
#
# Convention : Reuss Voigt Hill
#
# Bulk Modulus (GPa) = 23.30158 27.13301 25.21729
# Shear Modulus (GPa) = 24.30427 27.62103 25.96265
#
# Velocity S-wave (km/s) = 3.31155 3.53029 3.42267
# Velocity P-wave (km/s) = 5.01356 5.37215 5.19595
#
# Compressibility (1/GPa) = 0.04291554
#
# Stress axis : x y z
#
# Youngs Moduli (GPa) = 38.16407 63.45416 72.91432
#
# Poissons Ratio (x) = 0.18238 -0.03841
# Poissons Ratio (y) = 0.10969 0.29408
# Poissons Ratio (z) = -0.02010 0.25592
#
# Static dielectric constant tensor:
#      x y z
#    x 3.685910 0.000000 0.000000 
#    y 0.000000 3.959930 0.000000 
#    z 0.000000 0.000000 4.220380 
# 
# 
# High freq. dielectric constant tensor:
#      x y z
#    x 1.851320 0.000000 0.000000 
#    y 0.000000 1.874440 0.000000 
#    z 0.000000 0.000000 1.884820 
# 
# From -- ./inp_files/22713.got.cif
#   From: 2010.03.12/outbox.cif.g09.slc.cpg/sg23_12_cif.got.tgz:22713.got - 2010.04.14 02:50:06.
