data_PCOD8163332
_publ_section_title
;
Structure prediction by ZEFSAII (Michael W. Deem and Ramdas Pophale) SiO2 
 PCOD8163332
Probable space group: I 2 2 2
;
_chemical_formula_sum "Si O2"
_cell_formula_units_Z 64
_cell_length_a 13.988319
_cell_length_b 11.633582
_cell_length_c 16.371937
_cell_angle_alpha 90.000000
_cell_angle_beta 90.000000
_cell_angle_gamma 90.000000
_cell_volume 2664.274989
_symmetry_space_group_name_H-M "I 2 2 2"
_symmetry_group_IT_number 23
_symmetry_cell_setting 'orthorhombic'
loop_
_space_group_symop_operation_xyz
x,y,z
-x,-y,z
x,-y,-z
-x,y,-z
1/2+x,1/2+y,1/2+z
1/2-x,1/2-y,1/2+z
1/2+x,1/2-y,1/2-z
1/2-x,1/2+y,1/2-z
loop_
_atom_site_type_symbol
_atom_site_label
_atom_site_fract_x
_atom_site_fract_y
_atom_site_fract_z
Si Si1 0.924346 0.652813 0.440395
Si Si2 0.374955 0.486326 0.761160
Si Si3 0.741709 0.869455 0.380942
Si Si4 0.436372 0.296896 0.160235
Si Si5 0.948775 0.383580 0.200905
Si Si6 0.272305 0.276259 0.043721
Si Si7 0.389346 0.732490 0.339534
Si Si8 0.290848 0.135903 0.806712
O O1 0.836342 0.681325 0.499301
O O2 0.878400 0.583712 0.363611
O O3 0.000000 0.586377 0.500000
O O4 0.977627 0.767750 0.402945
O O5 0.336278 0.426327 0.843214
O O6 0.454238 0.585338 0.786691
O O7 0.416170 0.391283 0.698481
O O8 0.284518 0.538332 0.713059
O O9 0.644898 0.926473 0.347552
O O10 0.745834 0.877515 0.479687
O O11 0.737762 0.734744 0.357898
O O12 0.420315 0.187026 0.218003
O O13 0.335844 0.327346 0.117192
O O14 0.012556 0.301405 0.142042
O O15 0.000000 0.500000 0.228479
O O16 0.174977 0.220684 0.079391
O O17 0.334514 0.810607 0.274244
#
# Coordination Sequence:
#
# PCOD8163332 Si02
#       8
#     8   8   8   8   8   8   8   8
#     4   9  20  38  68 100 145 185 231 300 358 430
#     4  11  22  41  75 104 140 194 242 293 368 443
#     4  10  23  41  65 100 142 190 233 296 357 448
#     4  11  21  42  73 104 143 180 234 305 355 431
#     4  12  25  44  73 103 138 181 248 302 346 431
#     4  10  22  44  66  97 150 182 231 287 372 432
#     4  11  23  41  69  99 137 193 240 289 355 438
#     4  10  18  41  64  97 142 183 238 280 357 437
#
# _framework density 24.021545
#
# number of rings (size 3 to 8) (size 9 to 14) (size 15 to 20)
#    0.000    1.500    3.750    1.500    0.000    1.500 
#    0.000    3.125    5.500    0.000    6.500    0.000 
#    0.000    0.000    0.000    0.000    0.000    0.000 
#
# Total GULP energy -396509.532865 kJ/mol
# GULP energy per Si atom -12390.922902 kJ/mol
# Density = 2.396687 g / cm^3
# Si number density = 24.021545 Si / 1000 Ang^3
#
#
#
# Elastic Constant Matrix: (Units=GPa)
#
#
# Indices 1 2 3 4 5 6 
#
# 1 53.0463 5.2134 35.5754 0.0000 0.0000 0.0000
# 2 5.2134 102.2004 24.0346 0.0000 0.0000 0.0000
# 3 35.5754 24.0346 112.7230 0.0000 0.0000 0.0000
# 4 0.0000 0.0000 0.0000 5.7340 0.0000 0.0000
# 5 0.0000 0.0000 0.0000 0.0000 49.7208 0.0000
# 6 0.0000 0.0000 0.0000 0.0000 0.0000 27.0274
#
#
#
# Elastic Compliance Matrix: (Units=1/GPa)
#
#
# Indices 1 2 3 4 5 6 
#
# 1 0.023946 0.000585 -0.007682 0.000000 0.000000 0.000000
# 2 0.000585 0.010316 -0.002384 0.000000 0.000000 0.000000
# 3 -0.007682 -0.002384 0.011804 0.000000 0.000000 0.000000
# 4 0.000000 0.000000 0.000000 0.174399 0.000000 0.000000
# 5 0.000000 0.000000 0.000000 0.000000 0.020112 0.000000
# 6 0.000000 0.000000 0.000000 0.000000 0.000000 0.037000
#
#
# Mechanical properties :
#
#
# Convention : Reuss Voigt Hill
#
# Bulk Modulus (GPa) = 36.89580 44.17959 40.53770
# Shear Modulus (GPa) = 16.36270 30.03952 23.20111
#
# Velocity S-wave (km/s) = 2.61275 3.54011 3.11118
# Velocity P-wave (km/s) = 4.94922 5.92802 5.46059
#
# Compressibility (1/GPa) = 0.02710335
#
# Stress axis : x y z
#
# Youngs Moduli (GPa) = 41.76075 96.94126 84.71626
#
# Poissons Ratio (x) = -0.05672 0.65080
# Poissons Ratio (y) = -0.02443 0.20197
# Poissons Ratio (z) = 0.32081 0.23112
#
# Static dielectric constant tensor:
#      x y z
#    x 4.702530 0.000000 0.000000 
#    y 0.000000 4.106900 0.000000 
#    z 0.000000 0.000000 4.716390 
# 
# 
# High freq. dielectric constant tensor:
#      x y z
#    x 1.967660 0.000000 0.000000 
#    y 0.000000 1.934980 0.000000 
#    z 0.000000 0.000000 1.942990 
# 
# From -- ./inp_files/24858.got.cif
#   From: 2010.03.12/outbox.cif.g09.slc.cpg/sg23_13_cif.got.tgz:24858.got - 2010.04.14 02:50:06.
