data_PCOD8163790
_publ_section_title
;
Structure prediction by ZEFSAII (Michael W. Deem and Ramdas Pophale) SiO2 
 PCOD8163790
Probable space group: I 2 2 2
;
_chemical_formula_sum "Si O2"
_cell_formula_units_Z 58
_cell_length_a 14.546720
_cell_length_b 16.746666
_cell_length_c 11.516137
_cell_angle_alpha 90.000000
_cell_angle_beta 90.000000
_cell_angle_gamma 90.000000
_cell_volume 2805.435324
_symmetry_space_group_name_H-M "I 2 2 2"
_symmetry_group_IT_number 23
_symmetry_cell_setting 'orthorhombic'
loop_
_space_group_symop_operation_xyz
x,y,z
-x,-y,z
x,-y,-z
-x,y,-z
1/2+x,1/2+y,1/2+z
1/2-x,1/2-y,1/2+z
1/2+x,1/2-y,1/2-z
1/2-x,1/2+y,1/2-z
loop_
_atom_site_type_symbol
_atom_site_label
_atom_site_fract_x
_atom_site_fract_y
_atom_site_fract_z
Si Si1 0.102739 0.835587 0.534640
Si Si2 0.886313 0.381907 0.160732
Si Si3 0.636508 0.789887 0.779258
Si Si4 0.502853 0.906299 0.870866
Si Si5 0.292928 0.529754 0.124631
Si Si6 0.000000 0.500000 0.000000
Si Si7 0.526365 0.279655 0.626260
Si Si8 0.172996 0.861895 0.285653
O O1 0.142123 0.761915 0.605466
O O2 0.112965 0.919514 0.605577
O O3 0.159586 0.839080 0.417810
O O4 0.000000 0.819624 0.500000
O O5 0.917596 0.375384 0.295032
O O6 0.779738 0.404582 0.169604
O O7 0.906887 0.296202 0.103264
O O8 0.938577 0.447954 0.085760
O O9 0.595237 0.877206 0.807380
O O10 0.569885 0.744827 0.687480
O O11 0.740175 0.806570 0.742692
O O12 0.500000 0.000000 0.876657
O O13 0.500000 0.869092 0.000000
O O14 0.307721 0.457918 0.217157
O O15 0.256213 0.500000 0.000000
O O16 0.500000 0.316442 0.500000
O O17 0.584711 0.343028 0.703767
#
# Coordination Sequence:
#
# PCOD8163790 Si02
#       8
#     8   8   8   8   8   2   8   8
#     4  11  23  46  68 101 126 178 233 287 335 392
#     4  11  21  36  62  99 132 171 211 281 340 403
#     4  11  24  41  67  94 136 175 219 276 341 410
#     4  10  21  36  58  91 132 176 210 258 331 412
#     4  10  23  38  67  98 131 167 229 279 335 389
#     4  12  20  32  62  96 138 160 210 274 352 400
#     4  11  25  41  65 100 136 175 220 275 350 411
#     4  11  25  42  66  99 134 177 226 284 339 406
#
# _framework density 20.674153
#
# number of rings (size 3 to 8) (size 9 to 14) (size 15 to 20)
#    0.000    1.241    3.448    2.069    9.655    2.483 
#    0.000    0.000    0.000    1.655    0.000    0.000 
#    0.000    0.000    0.000    0.000    0.000    0.000 
#
# Total GULP energy -359432.813712 kJ/mol
# GULP energy per Si atom -12394.234956 kJ/mol
# Density = 2.062710 g / cm^3
# Si number density = 20.674153 Si / 1000 Ang^3
#
#
#
# Elastic Constant Matrix: (Units=GPa)
#
#
# Indices 1 2 3 4 5 6 
#
# 1 91.2931 36.5059 36.8666 0.0000 0.0000 0.0000
# 2 36.5059 88.7893 32.9726 0.0000 0.0000 0.0000
# 3 36.8666 32.9726 104.7276 0.0000 0.0000 0.0000
# 4 0.0000 0.0000 0.0000 33.4993 0.0000 0.0000
# 5 0.0000 0.0000 0.0000 0.0000 -119.1261 0.0000
# 6 0.0000 0.0000 0.0000 0.0000 0.0000 36.3612
#
#
#
# Elastic Compliance Matrix: (Units=1/GPa)
#
#
# Indices 1 2 3 4 5 6 
#
# 1 0.014203 -0.004510 -0.003580 0.000000 0.000000 0.000000
# 2 -0.004510 0.014186 -0.002879 0.000000 0.000000 0.000000
# 3 -0.003580 -0.002879 0.011715 0.000000 0.000000 0.000000
# 4 0.000000 0.000000 0.000000 0.029851 0.000000 0.000000
# 5 0.000000 0.000000 0.000000 0.000000 -0.008394 0.000000
# 6 0.000000 0.000000 0.000000 0.000000 0.000000 0.027502
#
#
# Mechanical properties :
#
#
# Convention : Reuss Voigt Hill
#
# Bulk Modulus (GPa) = 55.04560 55.27780 55.16170
# Shear Modulus (GPa) = 42.71486 2.04455 22.37971
#
# Velocity S-wave (km/s) = 4.55037 0.99553 3.29370
# Velocity P-wave (km/s) = 7.36824 5.30256 6.41904
#
# Compressibility (1/GPa) = 0.01816676
#
# Stress axis : x y z
#
# Youngs Moduli (GPa) = 70.40850 70.49213 85.36016
#
# Poissons Ratio (x) = 0.31793 0.30557
# Poissons Ratio (y) = 0.31755 0.24572
# Poissons Ratio (z) = 0.25205 0.20292
#
# Static dielectric constant tensor:
#      x y z
#    x 3.751160 0.000000 0.000000 
#    y 0.000000 8.730550 0.000000 
#    z 0.000000 0.000000 3.983460 
# 
# 
# High freq. dielectric constant tensor:
#      x y z
#    x 1.805370 0.000000 0.000000 
#    y 0.000000 1.808740 0.000000 
#    z 0.000000 0.000000 1.806380 
# 
# From -- ./inp_files/16949.got.cif
#   From: 2010.03.12/outbox.cif.g09.slc.cpg/sg23_9_cif.got.tgz:16949.got - 2010.04.14 02:50:06.
