data_PCOD8163637
_publ_section_title
;
Structure prediction by ZEFSAII (Michael W. Deem and Ramdas Pophale) SiO2 
 PCOD8163637
Probable space group: I 2 2 2
;
_chemical_formula_sum "Si O2"
_cell_formula_units_Z 58
_cell_length_a 16.407577
_cell_length_b 15.218469
_cell_length_c 11.443579
_cell_angle_alpha 90.000000
_cell_angle_beta 90.000000
_cell_angle_gamma 90.000000
_cell_volume 2857.441100
_symmetry_space_group_name_H-M "I 2 2 2"
_symmetry_group_IT_number 23
_symmetry_cell_setting 'orthorhombic'
loop_
_space_group_symop_operation_xyz
x,y,z
-x,-y,z
x,-y,-z
-x,y,-z
1/2+x,1/2+y,1/2+z
1/2-x,1/2-y,1/2+z
1/2+x,1/2-y,1/2-z
1/2-x,1/2+y,1/2-z
loop_
_atom_site_type_symbol
_atom_site_label
_atom_site_fract_x
_atom_site_fract_y
_atom_site_fract_z
Si Si1 0.382775 0.783285 0.766384
Si Si2 0.641743 0.805810 0.752071
Si Si3 0.798539 0.868614 0.850501
Si Si4 0.500000 0.500000 0.500000
Si Si5 0.389696 0.540791 0.296917
Si Si6 0.003377 0.602981 0.129846
Si Si7 0.270829 0.666385 0.387916
Si Si8 0.970767 0.171782 0.632004
O O1 0.325350 0.729956 0.678884
O O2 0.414815 0.866670 0.694897
O O3 0.326489 0.819482 0.872833
O O4 0.453468 0.717723 0.805348
O O5 0.706162 0.875268 0.804382
O O6 0.571128 0.866287 0.706375
O O7 0.680896 0.755957 0.640524
O O8 0.606603 0.737734 0.850964
O O9 0.861637 0.938498 0.791560
O O10 0.793967 0.876331 0.989012
O O11 0.443259 0.559017 0.414603
O O12 0.305179 0.594219 0.297088
O O13 0.446437 0.576787 0.189885
O O14 0.000000 0.500000 0.122277
O O15 0.000000 0.644219 0.000000
O O16 0.000000 0.155176 0.500000
#
# Coordination Sequence:
#
# PCOD8163637 Si02
#       8
#     8   8   8   2   8   8   8   8
#     4  10  22  37  63  87 120 167 211 253 325 378
#     4   9  21  36  61  89 121 162 211 255 322 377
#     4  11  20  38  59  90 125 158 204 263 316 386
#     4  12  20  40  54  92 128 154 206 254 308 360
#     4  11  23  36  63  92 125 165 208 265 315 378
#     4  10  21  39  61  87 120 161 212 271 312 378
#     4  10  20  37  58  90 121 162 203 263 314 379
#     4  10  21  41  62  90 127 165 210 260 316 394
#
# _framework density 20.297881
#
# number of rings (size 3 to 8) (size 9 to 14) (size 15 to 20)
#    0.000    1.793    1.379    2.483    1.931    0.000 
#    3.724    3.103    0.000    2.483    0.000    0.000 
#    0.000    0.000    0.000    0.000    0.000    0.000 
#
# Total GULP energy -359325.946031 kJ/mol
# GULP energy per Si atom -12390.549863 kJ/mol
# Density = 2.025168 g / cm^3
# Si number density = 20.297881 Si / 1000 Ang^3
#
#
#
# Elastic Constant Matrix: (Units=GPa)
#
#
# Indices 1 2 3 4 5 6 
#
# 1 113.5621 40.0438 38.1824 0.0000 0.0000 0.0000
# 2 40.0438 80.2383 40.3710 0.0000 0.0000 0.0000
# 3 38.1824 40.3710 114.2555 0.0000 0.0000 0.0000
# 4 0.0000 0.0000 0.0000 27.7472 0.0000 0.0000
# 5 0.0000 0.0000 0.0000 0.0000 23.8584 0.0000
# 6 0.0000 0.0000 0.0000 0.0000 0.0000 41.8589
#
#
#
# Elastic Compliance Matrix: (Units=1/GPa)
#
#
# Indices 1 2 3 4 5 6 
#
# 1 0.011097 -0.004466 -0.002130 0.000000 0.000000 0.000000
# 2 -0.004466 0.016955 -0.004498 0.000000 0.000000 0.000000
# 3 -0.002130 -0.004498 0.011054 0.000000 0.000000 0.000000
# 4 0.000000 0.000000 0.000000 0.036040 0.000000 0.000000
# 5 0.000000 0.000000 0.000000 0.000000 0.041914 0.000000
# 6 0.000000 0.000000 0.000000 0.000000 0.000000 0.023890
#
#
# Mechanical properties :
#
#
# Convention : Reuss Voigt Hill
#
# Bulk Modulus (GPa) = 59.11599 60.58337 59.84968
# Shear Modulus (GPa) = 29.62482 31.32348 30.47415
#
# Velocity S-wave (km/s) = 3.82449 3.93261 3.87892
# Velocity P-wave (km/s) = 6.97780 7.10862 7.04351
#
# Compressibility (1/GPa) = 0.01691590
#
# Stress axis : x y z
#
# Youngs Moduli (GPa) = 90.11558 58.97938 90.46751
#
# Poissons Ratio (x) = 0.26341 0.19273
# Poissons Ratio (y) = 0.40247 0.40696
# Poissons Ratio (z) = 0.19198 0.26531
#
# Static dielectric constant tensor:
#      x y z
#    x 3.998070 0.000000 0.000000 
#    y 0.000000 3.629720 0.000000 
#    z 0.000000 0.000000 3.588640 
# 
# 
# High freq. dielectric constant tensor:
#      x y z
#    x 1.811780 0.000000 0.000000 
#    y 0.000000 1.783270 0.000000 
#    z 0.000000 0.000000 1.775330 
# 
# From -- ./inp_files/17561.got.cif
#   From: 2010.03.12/outbox.cif.g09.slc.cpg/sg23_9_cif.got.tgz:17561.got - 2010.04.14 02:50:06.
