data_PCOD8163636
_publ_section_title
;
Structure prediction by ZEFSAII (Michael W. Deem and Ramdas Pophale) SiO2 
 PCOD8163636
Probable space group: I 2 2 2
;
_chemical_formula_sum "Si O2"
_cell_formula_units_Z 64
_cell_length_a 9.215838
_cell_length_b 15.140156
_cell_length_c 23.123919
_cell_angle_alpha 90.000000
_cell_angle_beta 90.000000
_cell_angle_gamma 90.000000
_cell_volume 3226.462497
_symmetry_space_group_name_H-M "I 2 2 2"
_symmetry_group_IT_number 23
_symmetry_cell_setting 'orthorhombic'
loop_
_space_group_symop_operation_xyz
x,y,z
-x,-y,z
x,-y,-z
-x,y,-z
1/2+x,1/2+y,1/2+z
1/2-x,1/2-y,1/2+z
1/2+x,1/2-y,1/2-z
1/2-x,1/2+y,1/2-z
loop_
_atom_site_type_symbol
_atom_site_label
_atom_site_fract_x
_atom_site_fract_y
_atom_site_fract_z
Si Si1 0.212722 0.552830 0.710219
Si Si2 0.655211 0.716878 0.472120
Si Si3 0.365618 0.882150 0.957107
Si Si4 0.507025 0.831699 0.163652
Si Si5 0.091729 0.793124 0.239710
Si Si6 0.241889 0.708044 0.138966
Si Si7 0.624481 0.572642 0.783726
Si Si8 0.661316 0.529922 0.413920
O O1 0.045464 0.577572 0.695949
O O2 0.276754 0.638023 0.743728
O O3 0.235474 0.468579 0.751595
O O4 0.304083 0.527554 0.653542
O O5 0.500000 0.733568 0.500000
O O6 0.775891 0.704392 0.521911
O O7 0.688542 0.797702 0.427793
O O8 0.670475 0.629712 0.433966
O O9 0.405908 0.860371 0.891952
O O10 0.267565 0.970012 0.952911
O O11 0.500000 0.900831 0.000000
O O12 0.605750 0.772666 0.205679
O O13 0.363116 0.783080 0.142694
O O14 0.106630 0.735876 0.180727
O O15 0.940119 0.847713 0.243806
O O16 0.312427 0.614133 0.157026
O O17 0.500000 0.500000 0.797276
O O18 0.500000 0.500000 0.425888
#
# Coordination Sequence:
#
# PCOD8163636 Si02
#       8
#     8   8   8   8   8   8   8   8
#     4  10  20  37  58  89 127 155 210 246 315 378
#     4  12  24  41  58  85 126 176 215 250 304 371
#     4  12  25  40  59  87 126 172 214 253 304 361
#     4  10  21  38  57  87 124 159 201 262 308 360
#     4   9  18  36  57  85 122 159 203 250 317 367
#     4  10  20  40  59  84 126 154 211 268 303 366
#     4   9  19  35  61  88 122 166 200 256 323 383
#     4  12  23  37  57  83 125 176 212 241 297 382
#
# _framework density 19.835967
#
# number of rings (size 3 to 8) (size 9 to 14) (size 15 to 20)
#    0.000    1.500    5.000    1.500    1.750    3.500 
#    6.750    0.000    0.000    0.000    0.000   14.875 
#    3.750    0.000    0.000    0.000    0.000    0.000 
#
# Total GULP energy -396613.835858 kJ/mol
# GULP energy per Si atom -12394.182371 kJ/mol
# Density = 1.979082 g / cm^3
# Si number density = 19.835967 Si / 1000 Ang^3
#
#
#
# Elastic Constant Matrix: (Units=GPa)
#
#
# Indices 1 2 3 4 5 6 
#
# 1 91.5413 36.6472 56.7241 0.0000 0.0000 0.0000
# 2 36.6472 81.7378 51.5763 0.0000 0.0000 0.0000
# 3 56.7241 51.5763 109.6504 0.0000 0.0000 0.0000
# 4 0.0000 0.0000 0.0000 32.1794 0.0000 0.0000
# 5 0.0000 0.0000 0.0000 0.0000 16.7376 0.0000
# 6 0.0000 0.0000 0.0000 0.0000 0.0000 16.3039
#
#
#
# Elastic Compliance Matrix: (Units=1/GPa)
#
#
# Indices 1 2 3 4 5 6 
#
# 1 0.016537 -0.002867 -0.007206 0.000000 0.000000 0.000000
# 2 -0.002867 0.017895 -0.006934 0.000000 0.000000 0.000000
# 3 -0.007206 -0.006934 0.016109 0.000000 0.000000 0.000000
# 4 0.000000 0.000000 0.000000 0.031076 0.000000 0.000000
# 5 0.000000 0.000000 0.000000 0.000000 0.059746 0.000000
# 6 0.000000 0.000000 0.000000 0.000000 0.000000 0.061335
#
#
# Mechanical properties :
#
#
# Convention : Reuss Voigt Hill
#
# Bulk Modulus (GPa) = 60.50885 63.64719 62.07802
# Shear Modulus (GPa) = 20.64214 22.24296 21.44255
#
# Velocity S-wave (km/s) = 3.22940 3.35228 3.29141
# Velocity P-wave (km/s) = 6.66905 6.86587 6.76817
#
# Compressibility (1/GPa) = 0.01652651
#
# Stress axis : x y z
#
# Youngs Moduli (GPa) = 60.46894 55.88096 62.07537
#
# Poissons Ratio (x) = 0.16023 0.44734
# Poissons Ratio (y) = 0.17339 0.43043
# Poissons Ratio (z) = 0.43576 0.38748
#
# Static dielectric constant tensor:
#      x y z
#    x 3.754620 0.000000 0.000000 
#    y 0.000000 3.592230 0.000000 
#    z 0.000000 0.000000 3.726310 
# 
# 
# High freq. dielectric constant tensor:
#      x y z
#    x 1.776360 0.000000 0.000000 
#    y 0.000000 1.751380 0.000000 
#    z 0.000000 0.000000 1.766040 
# 
# From -- ./inp_files/28083.got.cif
#   From: 2010.03.12/outbox.cif.g09.slc.cpg/sg23_15_cif.got.tgz:28083.got - 2010.04.14 02:50:06.
