data_PCOD8163610
_publ_section_title
;
Structure prediction by ZEFSAII (Michael W. Deem and Ramdas Pophale) SiO2 
 PCOD8163610
Probable space group: I 2 2 2
;
_chemical_formula_sum "Si O2"
_cell_formula_units_Z 32
_cell_length_a 4.887470
_cell_length_b 7.779241
_cell_length_c 36.012692
_cell_angle_alpha 90.000000
_cell_angle_beta 90.000000
_cell_angle_gamma 90.000000
_cell_volume 1369.231612
_symmetry_space_group_name_H-M "I 2 2 2"
_symmetry_group_IT_number 23
_symmetry_cell_setting 'orthorhombic'
loop_
_space_group_symop_operation_xyz
x,y,z
-x,-y,z
x,-y,-z
-x,y,-z
1/2+x,1/2+y,1/2+z
1/2-x,1/2-y,1/2+z
1/2+x,1/2-y,1/2-z
1/2-x,1/2+y,1/2-z
loop_
_atom_site_type_symbol
_atom_site_label
_atom_site_fract_x
_atom_site_fract_y
_atom_site_fract_z
Si Si1 0.633219 0.186659 0.729709
Si Si2 0.478616 0.702091 0.040715
Si Si3 0.487986 0.798501 0.411706
Si Si4 0.268032 0.615072 0.659836
O O1 0.382983 0.313251 0.740957
O O2 0.778996 0.236917 0.690473
O O3 0.500000 0.000000 0.727534
O O4 0.500000 0.500000 0.035825
O O5 0.178787 0.749911 0.053968
O O6 0.691265 0.761078 0.073058
O O7 0.500000 0.790187 0.000000
O O8 0.591811 0.692259 0.376795
O O9 0.500000 0.000000 0.401256
O O10 0.500000 0.500000 0.678587
O O11 0.000000 0.500000 0.651281
#
# Coordination Sequence:
#
# PCOD8163610 Si02
#       4
#     8   8   8   8
#     4  12  25  44  69  97 129 166 213 266 323 383
#     4   9  17  31  56  89 121 155 203 263 320 376
#     4  10  20  36  59  88 122 161 208 260 317 378
#     4  12  25  42  63  90 127 169 214 262 319 381
#
# _framework density 23.370771999999999
#
# number of rings (size 3 to 8) (size 9 to 14) (size 15 to 20)
#    0.000    1.250    0.000    7.500    0.000    3.000 
#    0.000    7.500    0.000   11.250    0.000    0.000 
#    0.000    0.000    0.000    0.000    0.000    0.000 
#
# Total GULP energy -198241.160653 kJ/mol
# GULP energy per Si atom -12390.072541 kJ/mol
# Density = 2.331758 g / cm^3
# Si number density = 23.370772 Si / 1000 Ang^3
#
#
#
# Elastic Constant Matrix: (Units=GPa)
#
#
# Indices 1 2 3 4 5 6 
#
# 1 124.5749 30.0362 30.0756 0.0000 0.0000 0.0000
# 2 30.0362 75.3470 49.2694 0.0000 0.0000 0.0000
# 3 30.0756 49.2694 141.6030 0.0000 0.0000 0.0000
# 4 0.0000 0.0000 0.0000 -5.5208 0.0000 0.0000
# 5 0.0000 0.0000 0.0000 0.0000 60.9621 0.0000
# 6 0.0000 0.0000 0.0000 0.0000 0.0000 34.7839
#
#
#
# Elastic Compliance Matrix: (Units=1/GPa)
#
#
# Indices 1 2 3 4 5 6 
#
# 1 0.008960 -0.003013 -0.000855 0.000000 0.000000 0.000000
# 2 -0.003013 0.018194 -0.005691 0.000000 0.000000 0.000000
# 3 -0.000855 -0.005691 0.009223 0.000000 0.000000 0.000000
# 4 0.000000 0.000000 0.000000 -0.181133 0.000000 0.000000
# 5 0.000000 0.000000 0.000000 0.000000 0.016404 0.000000
# 6 0.000000 0.000000 0.000000 0.000000 0.000000 0.028749
#
#
# Mechanical properties :
#
#
# Convention : Reuss Voigt Hill
#
# Bulk Modulus (GPa) = 57.93318 62.25412 60.09365
# Shear Modulus (GPa) = -66.90520 33.52129 -16.69196
#
# Velocity S-wave (km/s) = -5.35629 3.79136 -2.67540
# Velocity P-wave (km/s) = 3.66205 6.77210 4.02807
#
# Compressibility (1/GPa) = 0.01726127
#
# Stress axis : x y z
#
# Youngs Moduli (GPa) = 111.60594 54.96316 108.41875
#
# Poissons Ratio (x) = 0.16560 0.09267
# Poissons Ratio (y) = 0.33626 0.61696
# Poissons Ratio (z) = 0.09540 0.31277
#
# Static dielectric constant tensor:
#      x y z
#    x 4.528840 0.000000 0.000000 
#    y 0.000000 4.344650 0.000000 
#    z 0.000000 0.000000 4.218840 
# 
# 
# High freq. dielectric constant tensor:
#      x y z
#    x 1.939730 0.000000 0.000000 
#    y 0.000000 1.904160 0.000000 
#    z 0.000000 0.000000 1.936430 
# 
# From -- ./inp_files/29826.got.cif
#   From: 2010.03.12/outbox.cif.g09.slc.cpg/sg23_15_cif.got.tgz:29826.got - 2010.04.14 02:50:06.
