data_PCOD8163138
_publ_section_title
;
Structure prediction by ZEFSAII (Michael W. Deem and Ramdas Pophale) SiO2 
 PCOD8163138
Probable space group: F 2 2 2
;
_chemical_formula_sum "Si O2"
_cell_formula_units_Z 88
_cell_length_a 15.226330
_cell_length_b 12.363480
_cell_length_c 22.841382
_cell_angle_alpha 90.000000
_cell_angle_beta 90.000000
_cell_angle_gamma 90.000000
_cell_volume 4299.899902
_symmetry_space_group_name_H-M "F 2 2 2"
_symmetry_group_IT_number 22
_symmetry_cell_setting 'orthorhombic'
loop_
_space_group_symop_operation_xyz
x,y,z
-x,-y,z
x,-y,-z
-x,y,-z
x,1/2+y,1/2+z
-x,1/2-y,1/2+z
x,1/2-y,1/2-z
-x,1/2+y,1/2-z
1/2+x,y,1/2+z
1/2-x,-y,1/2+z
1/2+x,-y,1/2-z
1/2-x,y,1/2-z
1/2+x,1/2+y,z
1/2-x,1/2-y,z
1/2+x,1/2-y,-z
1/2-x,1/2+y,-z
loop_
_atom_site_type_symbol
_atom_site_label
_atom_site_fract_x
_atom_site_fract_y
_atom_site_fract_z
Si Si1 0.445157 0.408644 0.694600
Si Si2 0.004201 0.123956 0.069197
Si Si3 0.669271 0.667367 0.141886
Si Si4 0.074224 0.250000 0.250000
Si Si5 0.156546 0.740618 0.371401
Si Si6 0.324977 0.540603 0.205024
O O1 0.500000 0.500000 0.659157
O O2 0.513203 0.313830 0.705887
O O3 0.368438 0.359597 0.653808
O O4 0.413497 0.465697 0.755303
O O5 0.919904 0.191397 0.089179
O O6 0.093274 0.181197 0.092877
O O7 0.000000 0.000000 0.092799
O O8 0.000000 0.125990 0.000000
O O9 0.750000 0.750000 0.126933
O O10 0.636947 0.681926 0.208288
O O11 0.689516 0.538887 0.148314
O O12 0.250000 0.750000 0.406452
O O13 0.176838 0.663580 0.316639
O O14 0.250000 0.513371 0.250000
#
# Coordination Sequence:
#
# PCOD8163138 Si02
#       6
#    16  16  16   8  16  16
#     4  12  23  34  58  91 138 184 217 256 324 405
#     4  11  25  49  74  94 124 174 237 291 336 397
#     4  12  25  40  64 102 137 174 218 275 344 408
#     4  12  21  36  59  94 140 178 211 256 339 406
#     4  12  24  41  65  95 130 176 226 272 331 400
#     4  12  22  35  57  95 141 178 208 259 326 420
#
# _framework density 20.465593999999999
#
# number of rings (size 3 to 8) (size 9 to 14) (size 15 to 20)
#    0.000    0.182    9.091    1.364    0.000    0.727 
#    0.000    0.000    0.000    0.545    0.000    0.000 
#    0.000    0.000    0.000    0.000    0.000    0.000 
#
# Total GULP energy -272581.915954 kJ/mol
# GULP energy per Si atom -12390.087089 kJ/mol
# Density = 2.041901 g / cm^3
# Si number density = 20.465594 Si / 1000 Ang^3
#
#
#
# Elastic Constant Matrix: (Units=GPa)
#
#
# Indices 1 2 3 4 5 6 
#
# 1 150.5315 54.1990 34.7718 0.0000 0.0000 0.0000
# 2 54.1990 107.8518 22.0929 0.0000 0.0000 0.0000
# 3 34.7718 22.0929 61.5972 0.0000 0.0000 0.0000
# 4 0.0000 0.0000 0.0000 10.6836 0.0000 0.0000
# 5 0.0000 0.0000 0.0000 0.0000 17.7810 0.0000
# 6 0.0000 0.0000 0.0000 0.0000 0.0000 25.2871
#
#
#
# Elastic Compliance Matrix: (Units=1/GPa)
#
#
# Indices 1 2 3 4 5 6 
#
# 1 0.008812 -0.003680 -0.003655 0.000000 0.000000 0.000000
# 2 -0.003680 0.011544 -0.002063 0.000000 0.000000 0.000000
# 3 -0.003655 -0.002063 0.019038 0.000000 0.000000 0.000000
# 4 0.000000 0.000000 0.000000 0.093602 0.000000 0.000000
# 5 0.000000 0.000000 0.000000 0.000000 0.056240 0.000000
# 6 0.000000 0.000000 0.000000 0.000000 0.000000 0.039546
#
#
# Mechanical properties :
#
#
# Convention : Reuss Voigt Hill
#
# Bulk Modulus (GPa) = 48.54755 60.23419 54.39087
# Shear Modulus (GPa) = 19.65080 24.67812 22.16446
#
# Velocity S-wave (km/s) = 3.10205 3.47628 3.29448
# Velocity P-wave (km/s) = 6.05007 6.75341 6.41139
#
# Compressibility (1/GPa) = 0.02059836
#
# Stress axis : x y z
#
# Youngs Moduli (GPa) = 113.47840 86.62641 52.52766
#
# Poissons Ratio (x) = 0.31877 0.19197
# Poissons Ratio (y) = 0.41758 0.10837
# Poissons Ratio (z) = 0.41473 0.17872
#
# Static dielectric constant tensor:
#      x y z
#    x 4.097270 0.000000 0.000000 
#    y 0.000000 3.824980 0.000000 
#    z 0.000000 0.000000 3.475990 
# 
# 
# High freq. dielectric constant tensor:
#      x y z
#    x 1.823190 0.000000 0.000000 
#    y 0.000000 1.813000 0.000000 
#    z 0.000000 0.000000 1.742250 
# 
# From -- ./inp_files/19940.got.cif
#   From: 2010.03.12/outbox.cif.g09.slc.cpg/sg22_10_cif.got.tgz:19940.got - 2010.04.14 02:24:06.
