data_PCOD8163882
_publ_section_title
;
Structure prediction by ZEFSAII (Michael W. Deem and Ramdas Pophale) SiO2 
 PCOD8163882
Probable space group: I 2 2 2
;
_chemical_formula_sum "Si O2"
_cell_formula_units_Z 36
_cell_length_a 12.460007
_cell_length_b 14.243550
_cell_length_c 8.284037
_cell_angle_alpha 90.000000
_cell_angle_beta 90.000000
_cell_angle_gamma 90.000000
_cell_volume 1470.207252
_symmetry_space_group_name_H-M "I 2 2 2"
_symmetry_group_IT_number 23
_symmetry_cell_setting 'orthorhombic'
loop_
_space_group_symop_operation_xyz
x,y,z
-x,-y,z
x,-y,-z
-x,y,-z
1/2+x,1/2+y,1/2+z
1/2-x,1/2-y,1/2+z
1/2+x,1/2-y,1/2-z
1/2-x,1/2+y,1/2-z
loop_
_atom_site_type_symbol
_atom_site_label
_atom_site_fract_x
_atom_site_fract_y
_atom_site_fract_z
Si Si1 0.967526 0.787522 0.183223
Si Si2 0.564652 0.092498 0.752116
Si Si3 0.246282 0.320109 0.560123
Si Si4 0.173084 0.862939 0.295899
Si Si5 0.201654 0.500000 0.000000
O O1 0.845828 0.824747 0.187996
O O2 0.984350 0.681822 0.252862
O O3 0.043414 0.862739 0.276792
O O4 0.000000 0.781858 0.000000
O O5 0.656679 0.105837 0.885986
O O6 0.623150 0.078816 0.577804
O O7 0.500000 0.000000 0.801427
O O8 0.200248 0.215195 0.570784
O O9 0.276657 0.339433 0.377039
O O10 0.221573 0.959846 0.359651
#
# Coordination Sequence:
#
# PCOD8163882 Si02
#       5
#     8   8   8   8   4
#     4   9  18  38  66  91 124 176 222 265 334 399
#     4  11  22  39  66  98 133 175 226 280 332 389
#     4  10  21  41  65  95 133 175 224 276 335 400
#     4  10  21  39  66  96 132 176 222 274 335 401
#     4  12  23  40  63  96 134 172 226 284 332 388
#
# _framework density 24.486343000000002
#
# number of rings (size 3 to 8) (size 9 to 14) (size 15 to 20)
#    0.000    1.778    0.000    7.000    0.000    0.889 
#    0.000   22.222    0.000    4.000    0.000    0.000 
#    0.000    0.000    0.000    0.000    0.000    0.000 
#
# Total GULP energy -223131.479315 kJ/mol
# GULP energy per Si atom -12396.193295 kJ/mol
# Density = 2.443061 g / cm^3
# Si number density = 24.486343 Si / 1000 Ang^3
#
#
#
# Elastic Constant Matrix: (Units=GPa)
#
#
# Indices 1 2 3 4 5 6 
#
# 1 139.6390 66.6735 30.5117 0.0000 0.0000 0.0000
# 2 66.6735 93.7686 38.1794 0.0000 0.0000 0.0000
# 3 30.5117 38.1794 81.5402 0.0000 0.0000 0.0000
# 4 0.0000 0.0000 0.0000 40.7606 0.0000 0.0000
# 5 0.0000 0.0000 0.0000 0.0000 28.9766 0.0000
# 6 0.0000 0.0000 0.0000 0.0000 0.0000 46.4697
#
#
#
# Elastic Compliance Matrix: (Units=1/GPa)
#
#
# Indices 1 2 3 4 5 6 
#
# 1 0.010863 -0.007498 -0.000554 0.000000 0.000000 0.000000
# 2 -0.007498 0.018353 -0.005787 0.000000 0.000000 0.000000
# 3 -0.000554 -0.005787 0.015181 0.000000 0.000000 0.000000
# 4 0.000000 0.000000 0.000000 0.024533 0.000000 0.000000
# 5 0.000000 0.000000 0.000000 0.000000 0.034511 0.000000
# 6 0.000000 0.000000 0.000000 0.000000 0.000000 0.021519
#
#
# Mechanical properties :
#
#
# Convention : Reuss Voigt Hill
#
# Bulk Modulus (GPa) = 59.81876 65.07523 62.44700
# Shear Modulus (GPa) = 31.60342 35.21358 33.40850
#
# Velocity S-wave (km/s) = 3.59647 3.79633 3.69775
# Velocity P-wave (km/s) = 6.45976 6.77126 6.61735
#
# Compressibility (1/GPa) = 0.01671716
#
# Stress axis : x y z
#
# Youngs Moduli (GPa) = 92.05976 54.48835 65.87212
#
# Poissons Ratio (x) = 0.40857 0.03648
# Poissons Ratio (y) = 0.69029 0.38123
# Poissons Ratio (z) = 0.05098 0.31535
#
# Static dielectric constant tensor:
#      x y z
#    x 5.397430 0.000000 0.000000 
#    y 0.000000 4.202310 0.000000 
#    z 0.000000 0.000000 4.226100 
# 
# 
# High freq. dielectric constant tensor:
#      x y z
#    x 1.990000 0.000000 0.000000 
#    y 0.000000 1.946530 0.000000 
#    z 0.000000 0.000000 1.971280 
# 
# From -- ./inp_files/9484.got.cif
#   From: 2010.03.12/outbox.cif.g09.slc.cpg/sg23_5_cif.got.tgz:9484.got - 2010.04.14 02:50:06.
