data_PCOD8163244
_publ_section_title
;
Structure prediction by ZEFSAII (Michael W. Deem and Ramdas Pophale) SiO2 
 PCOD8163244
Probable space group: I 2 2 2
;
_chemical_formula_sum "Si O2"
_cell_formula_units_Z 48
_cell_length_a 14.415460
_cell_length_b 9.623261
_cell_length_c 16.240123
_cell_angle_alpha 90.000000
_cell_angle_beta 90.000000
_cell_angle_gamma 90.000000
_cell_volume 2252.890503
_symmetry_space_group_name_H-M "I 2 2 2"
_symmetry_group_IT_number 23
_symmetry_cell_setting 'orthorhombic'
loop_
_space_group_symop_operation_xyz
x,y,z
-x,-y,z
x,-y,-z
-x,y,-z
1/2+x,1/2+y,1/2+z
1/2-x,1/2-y,1/2+z
1/2+x,1/2-y,1/2-z
1/2-x,1/2+y,1/2-z
loop_
_atom_site_type_symbol
_atom_site_label
_atom_site_fract_x
_atom_site_fract_y
_atom_site_fract_z
Si Si1 0.711851 0.727246 0.883787
Si Si2 0.964587 0.844622 0.086526
Si Si3 0.314494 0.549784 0.811336
Si Si4 0.094471 0.728447 0.214206
Si Si5 0.666416 0.991695 0.179904
Si Si6 0.754627 0.222649 0.927630
O O1 0.654979 0.586317 0.863191
O O2 0.811835 0.730450 0.840012
O O3 0.645117 0.852449 0.851441
O O4 0.729734 0.735508 0.980322
O O5 0.854800 0.845474 0.083255
O O6 0.003446 0.744563 0.158305
O O7 0.000000 0.000000 0.102204
O O8 0.000000 0.784743 0.000000
O O9 0.400645 0.642958 0.779461
O O10 0.260572 0.492945 0.732274
O O11 0.248363 0.642460 0.869509
O O12 0.086914 0.581438 0.263621
O O13 0.682111 0.894646 0.100401
#
# Coordination Sequence:
#
# PCOD8163244 Si02
#       6
#     8   8   8   8   8   8
#     4  10  17  31  52  79 105 145 193 245 290 336
#     4  11  21  31  52  83 122 163 189 233 296 368
#     4   9  19  33  52  73 109 150 194 244 281 340
#     4   9  18  35  49  75 111 153 198 235 273 346
#     4   9  19  32  53  72 107 153 198 238 272 346
#     4  11  20  32  53  83 114 146 192 241 295 350
#
# _framework density 21.305963999999999
#
# number of rings (size 3 to 8) (size 9 to 14) (size 15 to 20)
#    0.000    2.167    1.667    4.000    2.333    0.000 
#    0.000    3.333    0.000    2.000    0.000    0.000 
#    0.000  349.333    0.000    0.000    0.000    0.000 
#
# Total GULP energy -297455.522970 kJ/mol
# GULP energy per Si atom -12393.980124 kJ/mol
# Density = 2.125747 g / cm^3
# Si number density = 21.305964 Si / 1000 Ang^3
#
#
#
# Elastic Constant Matrix: (Units=GPa)
#
#
# Indices 1 2 3 4 5 6 
#
# 1 24.0503 12.7137 24.9453 0.0000 0.0000 0.0000
# 2 12.7137 121.7267 41.4783 0.0000 0.0000 0.0000
# 3 24.9453 41.4783 114.6442 0.0000 0.0000 0.0000
# 4 0.0000 0.0000 0.0000 25.7167 0.0000 0.0000
# 5 0.0000 0.0000 0.0000 0.0000 24.4492 0.0000
# 6 0.0000 0.0000 0.0000 0.0000 0.0000 15.2025
#
#
#
# Elastic Compliance Matrix: (Units=1/GPa)
#
#
# Indices 1 2 3 4 5 6 
#
# 1 0.054069 -0.001869 -0.011089 0.000000 0.000000 0.000000
# 2 -0.001869 0.009435 -0.003007 0.000000 0.000000 0.000000
# 3 -0.011089 -0.003007 0.012223 0.000000 0.000000 0.000000
# 4 0.000000 0.000000 0.000000 0.038885 0.000000 0.000000
# 5 0.000000 0.000000 0.000000 0.000000 0.040901 0.000000
# 6 0.000000 0.000000 0.000000 0.000000 0.000000 0.065778
#
#
# Mechanical properties :
#
#
# Convention : Reuss Voigt Hill
#
# Bulk Modulus (GPa) = 22.83197 46.52178 34.67687
# Shear Modulus (GPa) = 18.66927 25.15928 21.91427
#
# Velocity S-wave (km/s) = 2.96336 3.44009 3.21058
# Velocity P-wave (km/s) = 4.73795 6.13689 5.48222
#
# Compressibility (1/GPa) = 0.04379824
#
# Stress axis : x y z
#
# Youngs Moduli (GPa) = 18.49501 105.98924 81.81089
#
# Poissons Ratio (x) = 0.19807 0.90717
# Poissons Ratio (y) = 0.03456 0.24600
# Poissons Ratio (z) = 0.20508 0.31870
#
# Static dielectric constant tensor:
#      x y z
#    x 3.171260 0.000000 0.000000 
#    y 0.000000 4.218120 0.000000 
#    z 0.000000 0.000000 3.885300 
# 
# 
# High freq. dielectric constant tensor:
#      x y z
#    x 1.770050 0.000000 0.000000 
#    y 0.000000 1.850280 0.000000 
#    z 0.000000 0.000000 1.850630 
# 
# From -- ./inp_files/19999.got.cif
#   From: 2010.03.12/outbox.cif.g09.slc.cpg/sg23_10_cif.got.tgz:19999.got - 2010.04.14 02:50:06.
