data_PCOD8163068
_publ_section_title
;
Structure prediction by ZEFSAII (Michael W. Deem and Ramdas Pophale) SiO2 
 PCOD8163068
Probable space group: F 2 2 2
;
_chemical_formula_sum "Si O2"
_cell_formula_units_Z 108
_cell_length_a 14.402198
_cell_length_b 29.168315
_cell_length_c 11.432027
_cell_angle_alpha 90.000000
_cell_angle_beta 90.000000
_cell_angle_gamma 90.000000
_cell_volume 4802.455620
_symmetry_space_group_name_H-M "F 2 2 2"
_symmetry_group_IT_number 22
_symmetry_cell_setting 'orthorhombic'
loop_
_space_group_symop_operation_xyz
x,y,z
-x,-y,z
x,-y,-z
-x,y,-z
x,1/2+y,1/2+z
-x,1/2-y,1/2+z
x,1/2-y,1/2-z
-x,1/2+y,1/2-z
1/2+x,y,1/2+z
1/2-x,-y,1/2+z
1/2+x,-y,1/2-z
1/2-x,y,1/2-z
1/2+x,1/2+y,z
1/2-x,1/2-y,z
1/2+x,1/2-y,-z
1/2-x,1/2+y,-z
loop_
_atom_site_type_symbol
_atom_site_label
_atom_site_fract_x
_atom_site_fract_y
_atom_site_fract_z
Si Si1 0.868951 0.867982 0.645447
Si Si2 0.500000 0.000000 0.500000
Si Si3 0.750000 0.022338 0.750000
Si Si4 0.790622 0.202535 0.103582
Si Si5 0.731005 0.087291 0.959814
Si Si6 0.134902 0.945695 0.157784
Si Si7 0.183958 0.324988 0.355736
Si Si8 0.983230 0.697247 0.727722
O O1 0.772704 0.838708 0.652705
O O2 0.865015 0.891687 0.515731
O O3 0.883498 0.904501 0.751088
O O4 0.954184 0.831473 0.655253
O O5 0.550418 0.962086 0.578924
O O6 0.712167 0.049739 0.862248
O O7 0.839029 0.991685 0.774454
O O8 0.750000 0.250000 0.155153
O O9 0.896265 0.192302 0.140510
O O10 0.791871 0.207787 0.963762
O O11 0.795890 0.123396 0.894159
O O12 0.780437 0.067885 0.074537
O O13 0.250000 0.309176 0.250000
O O14 0.075814 0.324619 0.324022
O O15 0.005184 0.750000 0.750000
#
# Coordination Sequence:
#
# PCOD8163068 Si02
#       8
#    16   4   8  16  16  16  16  16
#     4  11  24  44  74 106 142 187 237 297 357 420
#     4  12  28  40  68 110 148 178 232 304 350 428
#     4  12  22  42  74 104 138 188 238 284 364 432
#     4  11  23  44  71 104 141 183 238 294 349 418
#     4  11  22  46  71 102 137 190 234 290 359 431
#     4  12  24  42  72 106 141 180 238 292 356 425
#     4  11  27  46  69  99 144 193 232 286 357 425
#     4  12  25  43  72 108 141 185 242 295 345 419
#
# _framework density 22.488493999999999
#
# number of rings (size 3 to 8) (size 9 to 14) (size 15 to 20)
#    0.000    0.593    5.185    3.556    4.148    0.000 
#    0.000    2.963    0.000    0.889    0.000    0.000 
#    0.000    0.000    0.000    0.000    0.000    0.000 
#
# Total GULP energy -334538.415458 kJ/mol
# GULP energy per Si atom -12390.311684 kJ/mol
# Density = 2.243731 g / cm^3
# Si number density = 22.488494 Si / 1000 Ang^3
#
#
#
# Elastic Constant Matrix: (Units=GPa)
#
#
# Indices 1 2 3 4 5 6 
#
# 1 118.5033 41.9478 48.6554 0.0000 0.0000 0.0000
# 2 41.9478 131.6853 53.0325 0.0000 0.0000 0.0000
# 3 48.6554 53.0325 116.4993 0.0000 0.0000 0.0000
# 4 0.0000 0.0000 0.0000 4327.2234 0.0000 0.0000
# 5 0.0000 0.0000 0.0000 0.0000 34.0892 0.0000
# 6 0.0000 0.0000 0.0000 0.0000 0.0000 14.6471
#
#
#
# Elastic Compliance Matrix: (Units=1/GPa)
#
#
# Indices 1 2 3 4 5 6 
#
# 1 0.010578 -0.001947 -0.003531 0.000000 0.000000 0.000000
# 2 -0.001947 0.009657 -0.003583 0.000000 0.000000 0.000000
# 3 -0.003531 -0.003583 0.011689 0.000000 0.000000 0.000000
# 4 0.000000 0.000000 0.000000 0.000231 0.000000 0.000000
# 5 0.000000 0.000000 0.000000 0.000000 0.029335 0.000000
# 6 0.000000 0.000000 0.000000 0.000000 0.000000 0.068273
#
#
# Mechanical properties :
#
#
# Convention : Reuss Voigt Hill
#
# Bulk Modulus (GPa) = 72.45582 72.66215 72.55899
# Shear Modulus (GPa) = 32.78979 890.06209 461.42594
#
# Velocity S-wave (km/s) = 3.82261 19.91594 14.33975
# Velocity P-wave (km/s) = 7.19529 23.69052 17.50732
#
# Compressibility (1/GPa) = 0.01380151
#
# Stress axis : x y z
#
# Youngs Moduli (GPa) = 94.53758 103.55142 85.54696
#
# Poissons Ratio (x) = 0.20166 0.30209
# Poissons Ratio (y) = 0.18410 0.30649
# Poissons Ratio (z) = 0.33384 0.37100
#
# Static dielectric constant tensor:
#      x y z
#    x -4.489390 0.000000 0.000000 
#    y 0.000000 5.023090 0.000000 
#    z 0.000000 0.000000 4.781820 
# 
# 
# High freq. dielectric constant tensor:
#      x y z
#    x 1.859790 0.000000 0.000000 
#    y 0.000000 1.907730 0.000000 
#    z 0.000000 0.000000 1.903440 
# 
# From -- ./inp_files/20333.got.cif
#   From: 2010.03.12/outbox.cif.g09.slc.cpg/sg22_11_cif.got.tgz:20333.got - 2010.04.14 02:24:06.
