data_PCOD8163933
_publ_section_title
;
Structure prediction by ZEFSAII (Michael W. Deem and Ramdas Pophale) SiO2 
 PCOD8163933
Probable space group: I 2 2 2
;
_chemical_formula_sum "Si O2"
_cell_formula_units_Z 56
_cell_length_a 14.624957
_cell_length_b 20.898415
_cell_length_c 8.502324
_cell_angle_alpha 90.000000
_cell_angle_beta 90.000000
_cell_angle_gamma 90.000000
_cell_volume 2598.636880
_symmetry_space_group_name_H-M "I 2 2 2"
_symmetry_group_IT_number 23
_symmetry_cell_setting 'orthorhombic'
loop_
_space_group_symop_operation_xyz
x,y,z
-x,-y,z
x,-y,-z
-x,y,-z
1/2+x,1/2+y,1/2+z
1/2-x,1/2-y,1/2+z
1/2+x,1/2-y,1/2-z
1/2-x,1/2+y,1/2-z
loop_
_atom_site_type_symbol
_atom_site_label
_atom_site_fract_x
_atom_site_fract_y
_atom_site_fract_z
Si Si1 0.637996 0.744160 0.721797
Si Si2 0.603418 0.099997 0.809984
Si Si3 0.167530 0.276906 0.860587
Si Si4 0.031256 0.825179 0.171981
Si Si5 0.398025 0.880804 0.166347
Si Si6 0.090991 0.970549 0.173501
Si Si7 0.783986 0.514746 0.181271
O O1 0.727741 0.724227 0.813028
O O2 0.662395 0.757861 0.541753
O O3 0.565222 0.686660 0.762140
O O4 0.591458 0.807744 0.786662
O O5 0.628660 0.152902 0.679284
O O6 0.495390 0.084965 0.804822
O O7 0.658595 0.035476 0.781054
O O8 0.632943 0.120379 0.984851
O O9 0.108883 0.223681 0.765216
O O10 0.074644 0.894976 0.171400
O O11 0.000000 0.803518 0.000000
O O12 0.321179 0.915203 0.272582
O O13 0.176916 0.989241 0.279075
O O14 0.000000 0.000000 0.252021
O O15 0.104924 0.000000 0.000000
O O16 0.798918 0.500000 0.000000
#
# Coordination Sequence:
#
# PCOD8163933 Si02
#       7
#     8   8   8   8   8   8   8
#     4  11  23  40  67  95 139 179 229 281 341 410
#     4  11  24  42  70  99 135 178 230 282 348 411
#     4  11  23  39  65  97 136 178 230 278 340 406
#     4  10  21  41  66  99 130 179 224 274 332 400
#     4  11  23  45  67 100 136 177 228 286 347 412
#     4  11  23  43  73  98 134 181 235 276 334 401
#     4  12  27  43  69 101 139 180 228 285 349 415
#
# _framework density 21.549759999999999
#
# number of rings (size 3 to 8) (size 9 to 14) (size 15 to 20)
#    0.000    1.000    2.857    4.286    2.000    4.857 
#    0.000    0.000    6.286    0.000    0.000    0.000 
#    0.000    0.000    0.000    0.000    0.000    0.000 
#
# Total GULP energy -347142.450352 kJ/mol
# GULP energy per Si atom -12397.944655 kJ/mol
# Density = 2.150071 g / cm^3
# Si number density = 21.549760 Si / 1000 Ang^3
#
#
#
# Elastic Constant Matrix: (Units=GPa)
#
#
# Indices 1 2 3 4 5 6 
#
# 1 129.6861 26.2486 26.3610 0.0000 0.0000 0.0000
# 2 26.2486 92.2422 7.7707 0.0000 0.0000 0.0000
# 3 26.3610 7.7707 80.2446 0.0000 0.0000 0.0000
# 4 0.0000 0.0000 0.0000 28.6305 0.0000 0.0000
# 5 0.0000 0.0000 0.0000 0.0000 23.2441 0.0000
# 6 0.0000 0.0000 0.0000 0.0000 0.0000 38.7060
#
#
#
# Elastic Compliance Matrix: (Units=1/GPa)
#
#
# Indices 1 2 3 4 5 6 
#
# 1 0.008704 -0.002254 -0.002641 0.000000 0.000000 0.000000
# 2 -0.002254 0.011514 -0.000374 0.000000 0.000000 0.000000
# 3 -0.002641 -0.000374 0.013366 0.000000 0.000000 0.000000
# 4 0.000000 0.000000 0.000000 0.034928 0.000000 0.000000
# 5 0.000000 0.000000 0.000000 0.000000 0.043022 0.000000
# 6 0.000000 0.000000 0.000000 0.000000 0.000000 0.025836
#
#
# Mechanical properties :
#
#
# Convention : Reuss Voigt Hill
#
# Bulk Modulus (GPa) = 43.39480 46.99262 45.19371
# Shear Modulus (GPa) = 32.13570 34.23561 33.18566
#
# Velocity S-wave (km/s) = 3.86584 3.99015 3.92848
# Velocity P-wave (km/s) = 6.33301 6.56371 6.44939
#
# Compressibility (1/GPa) = 0.02304424
#
# Stress axis : x y z
#
# Youngs Moduli (GPa) = 114.88900 86.85022 74.81798
#
# Poissons Ratio (x) = 0.19579 0.19760
# Poissons Ratio (y) = 0.25900 0.02801
# Poissons Ratio (z) = 0.30343 0.03252
#
# Static dielectric constant tensor:
#      x y z
#    x 4.231620 0.000000 0.000000 
#    y 0.000000 3.876390 0.000000 
#    z 0.000000 0.000000 3.789800 
# 
# 
# High freq. dielectric constant tensor:
#      x y z
#    x 1.868210 0.000000 0.000000 
#    y 0.000000 1.851080 0.000000 
#    z 0.000000 0.000000 1.829690 
# 
# From -- ./inp_files/10207.got.cif
#   From: 2010.03.12/outbox.cif.g09.slc.cpg/sg23_6_cif.got.tgz:10207.got - 2010.04.14 02:50:06.
