data_PCOD8163817
_publ_section_title
;
Structure prediction by ZEFSAII (Michael W. Deem and Ramdas Pophale) SiO2 
 PCOD8163817
Probable space group: I 2 2 2
;
_chemical_formula_sum "Si O2"
_cell_formula_units_Z 56
_cell_length_a 15.735243
_cell_length_b 8.861449
_cell_length_c 19.790242
_cell_angle_alpha 90.000000
_cell_angle_beta 90.000000
_cell_angle_gamma 90.000000
_cell_volume 2759.493030
_symmetry_space_group_name_H-M "I 2 2 2"
_symmetry_group_IT_number 23
_symmetry_cell_setting 'orthorhombic'
loop_
_space_group_symop_operation_xyz
x,y,z
-x,-y,z
x,-y,-z
-x,y,-z
1/2+x,1/2+y,1/2+z
1/2-x,1/2-y,1/2+z
1/2+x,1/2-y,1/2-z
1/2-x,1/2+y,1/2-z
loop_
_atom_site_type_symbol
_atom_site_label
_atom_site_fract_x
_atom_site_fract_y
_atom_site_fract_z
Si Si1 0.639115 0.822092 0.823733
Si Si2 0.639115 0.177908 0.823733
Si Si3 0.833549 0.172857 0.191592
Si Si4 0.598861 0.163977 0.573123
Si Si5 0.500000 0.320709 0.079870
Si Si6 0.666451 0.327144 0.308408
Si Si7 0.401139 0.836023 0.426877
O O1 0.737827 0.772079 0.825590
O O2 0.584230 0.742993 0.882703
O O3 0.614261 0.767005 0.748418
O O4 0.624834 1.000000 0.831343
O O5 0.614261 0.232995 0.748418
O O6 0.584230 0.257006 0.882703
O O7 0.737827 0.227921 0.825590
O O8 0.881988 0.197795 0.122107
O O9 0.834425 0.000000 0.213985
O O10 0.641127 0.197629 0.500000
O O11 0.500000 0.153264 0.563004
O O12 0.632526 0.000000 0.600139
O O13 0.500000 0.500000 0.086633
O O14 0.500000 0.273551 0.000000
O O15 0.618012 0.302204 0.377893
#
# Coordination Sequence:
#
# PCOD8163817 Si02
#       7
#     8   8   8   8   8   8   8
#     4  10  22  40  61  85 115 153 195 239 291 351
#     4  10  22  40  61  85 115 153 195 239 291 351
#     4  10  21  37  59  87 117 151 194 243 292 343
#     4   9  19  35  54  79 113 153 193 231 279 340
#     4  11  25  43  63  89 120 155 198 249 303 357
#     4  10  21  37  59  87 117 151 194 243 292 343
#     4   9  19  35  54  79 113 153 193 231 279 340
#
# _framework density 20.293583000000002
#
# number of rings (size 3 to 8) (size 9 to 14) (size 15 to 20)
#    0.000    2.143    0.000    3.000    2.000    6.857 
#    0.000    7.143    0.000    0.000    0.000    0.000 
#    0.000    0.000    0.000    0.000    0.000    0.000 
#
# Total GULP energy -346901.990506 kJ/mol
# GULP energy per Si atom -12389.356804 kJ/mol
# Density = 2.024739 g / cm^3
# Si number density = 20.293583 Si / 1000 Ang^3
#
#
#
# Elastic Constant Matrix: (Units=GPa)
#
#
# Indices 1 2 3 4 5 6 
#
# 1 59.3031 34.1979 55.3278 0.0000 0.0000 0.0000
# 2 34.1979 90.3733 61.1929 0.0000 0.0000 0.0000
# 3 55.3278 61.1929 161.9239 0.0000 0.0000 0.0000
# 4 0.0000 0.0000 0.0000 21.9406 0.0000 0.0000
# 5 0.0000 0.0000 0.0000 0.0000 16.4577 0.0000
# 6 0.0000 0.0000 0.0000 0.0000 0.0000 31.0095
#
#
#
# Elastic Compliance Matrix: (Units=1/GPa)
#
#
# Indices 1 2 3 4 5 6 
#
# 1 0.026475 -0.005232 -0.007069 0.000000 0.000000 0.000000
# 2 -0.005232 0.015904 -0.004223 0.000000 0.000000 0.000000
# 3 -0.007069 -0.004223 0.010187 0.000000 0.000000 0.000000
# 4 0.000000 0.000000 0.000000 0.045578 0.000000 0.000000
# 5 0.000000 0.000000 0.000000 0.000000 0.060762 0.000000
# 6 0.000000 0.000000 0.000000 0.000000 0.000000 0.032248
#
#
# Mechanical properties :
#
#
# Convention : Reuss Voigt Hill
#
# Bulk Modulus (GPa) = 51.23242 68.11527 59.67385
# Shear Modulus (GPa) = 21.67256 24.60700 23.13978
#
# Velocity S-wave (km/s) = 3.27150 3.48595 3.38042
# Velocity P-wave (km/s) = 6.29052 7.05976 6.68621
#
# Compressibility (1/GPa) = 0.01951889
#
# Stress axis : x y z
#
# Youngs Moduli (GPa) = 37.77217 62.87642 98.16451
#
# Poissons Ratio (x) = 0.32895 0.69392
# Poissons Ratio (y) = 0.19761 0.41453
# Poissons Ratio (z) = 0.26701 0.26551
#
# Static dielectric constant tensor:
#      x y z
#    x 3.559780 0.000000 0.000000 
#    y 0.000000 3.624970 0.000000 
#    z 0.000000 0.000000 3.919430 
# 
# 
# High freq. dielectric constant tensor:
#      x y z
#    x 1.778430 0.000000 0.000000 
#    y 0.000000 1.795250 0.000000 
#    z 0.000000 0.000000 1.800520 
# 
# From -- ./inp_files/26990.got.cif
#   From: 2010.03.12/outbox.cif.g09.slc.cpg/sg23_14_cif.got.tgz:26990.got - 2010.04.14 02:50:06.
