data_PCOD8163207
_publ_section_title
;
Structure prediction by ZEFSAII (Michael W. Deem and Ramdas Pophale) SiO2 
 PCOD8163207
Probable space group: I 2 2 2
;
_chemical_formula_sum "Si O2"
_cell_formula_units_Z 48
_cell_length_a 7.765839
_cell_length_b 22.419084
_cell_length_c 14.171204
_cell_angle_alpha 90.000000
_cell_angle_beta 90.000000
_cell_angle_gamma 90.000000
_cell_volume 2467.249086
_symmetry_space_group_name_H-M "I 2 2 2"
_symmetry_group_IT_number 23
_symmetry_cell_setting 'orthorhombic'
loop_
_space_group_symop_operation_xyz
x,y,z
-x,-y,z
x,-y,-z
-x,y,-z
1/2+x,1/2+y,1/2+z
1/2-x,1/2-y,1/2+z
1/2+x,1/2-y,1/2-z
1/2-x,1/2+y,1/2-z
loop_
_atom_site_type_symbol
_atom_site_label
_atom_site_fract_x
_atom_site_fract_y
_atom_site_fract_z
Si Si1 0.289230 0.770959 0.869047
Si Si2 0.834397 0.099468 0.881146
Si Si3 0.983615 0.435567 0.269004
Si Si4 0.827138 0.229770 0.060681
Si Si5 0.784391 0.900477 0.902411
Si Si6 0.494587 0.192218 0.705854
O O1 0.170610 0.829907 0.859266
O O2 0.465664 0.784521 0.812826
O O3 0.192947 0.715585 0.820551
O O4 0.318594 0.755413 0.980418
O O5 0.707345 0.064784 0.812138
O O6 0.029518 0.076461 0.865152
O O7 0.769021 0.086512 0.986780
O O8 0.128931 0.433037 0.350206
O O9 0.000000 0.500000 0.216919
O O10 0.007137 0.379769 0.198326
O O11 0.771051 0.170623 0.117061
O O12 0.858414 0.283948 0.133378
O O13 0.000000 0.216550 0.000000
#
# Coordination Sequence:
#
# PCOD8163207 Si02
#       6
#     8   8   8   8   8   8
#     4   9  17  30  52  81 103 128 167 215 272 317
#     4   9  18  33  51  74 101 129 169 214 263 318
#     4  11  24  33  44  73 105 141 183 208 239 306
#     4   9  15  31  55  79 103 132 167 216 272 318
#     4  10  16  33  54  69 102 135 163 215 270 311
#     4  10  18  31  52  73 103 138 166 216 260 304
#
# _framework density 19.454865999999999
#
# number of rings (size 3 to 8) (size 9 to 14) (size 15 to 20)
#    0.000    2.333    5.000    1.500    0.000    2.000 
#    0.000    4.167    0.000    4.500    0.000    0.000 
#    0.000    0.000    3.000    0.000    0.000    0.000 
#
# Total GULP energy -297397.852518 kJ/mol
# GULP energy per Si atom -12391.577188 kJ/mol
# Density = 1.941059 g / cm^3
# Si number density = 19.454866 Si / 1000 Ang^3
#
#
#
# Elastic Constant Matrix: (Units=GPa)
#
#
# Indices 1 2 3 4 5 6 
#
# 1 61.6416 15.0346 3.4356 0.0000 0.0000 0.0000
# 2 15.0346 123.9391 24.1459 -0.0001 0.0000 0.0000
# 3 3.4356 24.1459 33.0895 -0.0002 0.0000 0.0000
# 4 0.0000 -0.0001 -0.0002 18.2712 0.0000 0.0000
# 5 0.0000 0.0000 0.0000 0.0000 20.2908 0.0000
# 6 0.0000 0.0000 0.0000 0.0000 0.0000 14.7484
#
#
#
# Elastic Compliance Matrix: (Units=1/GPa)
#
#
# Indices 1 2 3 4 5 6 
#
# 1 0.016720 -0.001970 -0.000298 0.000000 0.000000 0.000000
# 2 -0.001970 0.009638 -0.006828 0.000000 0.000000 0.000000
# 3 -0.000298 -0.006828 0.035235 0.000000 0.000000 0.000000
# 4 0.000000 0.000000 0.000000 0.054731 0.000000 0.000000
# 5 0.000000 0.000000 0.000000 0.000000 0.049284 0.000000
# 6 0.000000 0.000000 0.000000 0.000000 0.000000 0.067804
#
#
# Mechanical properties :
#
#
# Convention : Reuss Voigt Hill
#
# Bulk Modulus (GPa) = 23.04204 33.76693 28.40448
# Shear Modulus (GPa) = 18.79202 22.39902 20.59552
#
# Velocity S-wave (km/s) = 3.11131 3.39681 3.25719
# Velocity P-wave (km/s) = 4.97761 5.72526 5.36448
#
# Compressibility (1/GPa) = 0.04339894
#
# Stress axis : x y z
#
# Youngs Moduli (GPa) = 59.80874 103.75867 28.38113
#
# Poissons Ratio (x) = 0.20442 0.00847
# Poissons Ratio (y) = 0.11783 0.19379
# Poissons Ratio (z) = 0.01785 0.70849
#
# Static dielectric constant tensor:
#      x y z
#    x 3.601830 0.000000 0.000000 
#    y 0.000000 3.441000 0.000000 
#    z 0.000000 0.000000 3.685710 
# 
# 
# High freq. dielectric constant tensor:
#      x y z
#    x 1.760650 0.000000 0.000000 
#    y 0.000000 1.734560 0.000000 
#    z 0.000000 0.000000 1.721140 
# 
# From -- ./inp_files/11917.got.cif
#   From: 2010.03.12/outbox.cif.g09.slc.cpg/sg23_6_cif.got.tgz:11917.got - 2010.04.14 02:50:06.
