data_PCOD8163473
_publ_section_title
;
Structure prediction by ZEFSAII (Michael W. Deem and Ramdas Pophale) SiO2 
 PCOD8163473
Probable space group: I 2 2 2
;
_chemical_formula_sum "Si O2"
_cell_formula_units_Z 64
_cell_length_a 11.569129
_cell_length_b 27.853745
_cell_length_c 9.761071
_cell_angle_alpha 90.000000
_cell_angle_beta 90.000000
_cell_angle_gamma 90.000000
_cell_volume 3145.442357
_symmetry_space_group_name_H-M "I 2 2 2"
_symmetry_group_IT_number 23
_symmetry_cell_setting 'orthorhombic'
loop_
_space_group_symop_operation_xyz
x,y,z
-x,-y,z
x,-y,-z
-x,y,-z
1/2+x,1/2+y,1/2+z
1/2-x,1/2-y,1/2+z
1/2+x,1/2-y,1/2-z
1/2-x,1/2+y,1/2-z
loop_
_atom_site_type_symbol
_atom_site_label
_atom_site_fract_x
_atom_site_fract_y
_atom_site_fract_z
Si Si1 0.422743 0.883499 0.807150
Si Si2 0.082739 0.718303 0.386295
Si Si3 0.508455 0.398585 0.155701
Si Si4 0.290025 0.545254 0.818187
Si Si5 0.507646 0.301430 0.707990
Si Si6 0.747399 0.064456 0.622730
Si Si7 0.329637 0.893315 0.094882
Si Si8 0.192728 0.800892 0.996733
O O1 0.384011 0.827343 0.791196
O O2 0.370791 0.912378 0.678808
O O3 0.561697 0.883056 0.805218
O O4 0.374016 0.909593 0.944814
O O5 0.203984 0.735925 0.455230
O O6 0.000000 0.693940 0.500000
O O7 0.007010 0.761733 0.326966
O O8 0.428675 0.445352 0.184725
O O9 0.457378 0.354041 0.240940
O O10 0.641827 0.409317 0.190479
O O11 0.500000 0.382422 0.000000
O O12 0.258125 0.489978 0.827547
O O13 0.239662 0.565725 0.676234
O O14 0.242860 0.570221 0.957927
O O15 0.605846 0.279289 0.608595
O O16 0.383047 0.308915 0.639684
O O17 0.246907 0.848164 0.065883
#
# Coordination Sequence:
#
# PCOD8163473 Si02
#       8
#     8   8   8   8   8   8   8   8
#     4  10  21  40  62  85 123 169 211 262 325 379
#     4  11  22  40  63  87 123 168 208 258 325 380
#     4  10  19  37  61  91 123 164 207 262 323 384
#     4  10  21  38  63  89 130 168 214 269 334 379
#     4  11  23  38  64  94 122 161 211 262 317 383
#     4  10  22  39  60  96 126 167 217 271 320 397
#     4  10  19  40  65  83 121 171 204 259 324 383
#     4  10  22  41  60  91 125 161 204 264 315 384
#
# _framework density 20.346899000000001
#
# number of rings (size 3 to 8) (size 9 to 14) (size 15 to 20)
#    0.000    1.750    3.750    2.250    1.750    3.000 
#    4.500    3.750    0.000    1.500    0.000    0.000 
#    0.000    0.000    0.000    0.000    0.000    0.000 
#
# Total GULP energy -396482.173381 kJ/mol
# GULP energy per Si atom -12390.067918 kJ/mol
# Density = 2.030059 g / cm^3
# Si number density = 20.346899 Si / 1000 Ang^3
#
#
#
# Elastic Constant Matrix: (Units=GPa)
#
#
# Indices 1 2 3 4 5 6 
#
# 1 121.1291 29.8198 37.2349 0.0006 0.0006 -0.0003
# 2 29.8198 89.0166 32.9640 -0.0005 0.0002 0.0003
# 3 37.2349 32.9640 61.4572 0.0007 0.0085 -0.0018
# 4 0.0006 -0.0005 0.0007 26.1813 -0.0007 -0.0002
# 5 0.0006 0.0002 0.0085 -0.0007 35.6494 0.0005
# 6 -0.0003 0.0003 -0.0018 -0.0002 0.0005 25.5155
#
#
#
# Elastic Compliance Matrix: (Units=1/GPa)
#
#
# Indices 1 2 3 4 5 6 
#
# 1 0.010287 -0.001420 -0.005471 0.000000 0.000001 0.000000
# 2 -0.001420 0.014214 -0.006764 0.000000 0.000002 -0.000001
# 3 -0.005471 -0.006764 0.023214 -0.000001 -0.000005 0.000002
# 4 0.000000 0.000000 -0.000001 0.038195 0.000001 0.000000
# 5 0.000001 0.000002 -0.000005 0.000001 0.028051 -0.000001
# 6 0.000000 -0.000001 0.000002 0.000000 -0.000001 0.039192
#
#
# Mechanical properties :
#
#
# Convention : Reuss Voigt Hill
#
# Bulk Modulus (GPa) = 49.00559 52.40447 50.70503
# Shear Modulus (GPa) = 26.70020 28.90821 27.80420
#
# Velocity S-wave (km/s) = 3.62643 3.77340 3.70064
# Velocity P-wave (km/s) = 6.45538 6.69299 6.57526
#
# Compressibility (1/GPa) = 0.02040584
#
# Stress axis : x y z
#
# Youngs Moduli (GPa) = 97.21021 70.35171 43.07752
#
# Poissons Ratio (x) = 0.09991 0.23567
# Poissons Ratio (y) = 0.13805 0.29137
# Poissons Ratio (z) = 0.53182 0.47584
#
# Static dielectric constant tensor:
#      x y z
#    x 3.858320 0.000000 0.000000 
#    y 0.000000 3.296510 0.000000 
#    z 0.000000 0.000000 3.687060 
# 
# 
# High freq. dielectric constant tensor:
#      x y z
#    x 1.809670 0.000000 0.000000 
#    y 0.000000 1.769940 0.000000 
#    z 0.000000 0.000000 1.787220 
# 
# From -- ./inp_files/8964.got.cif
#   From: 2010.03.12/outbox.cif.g09.slc.cpg/sg23_5_cif.got.tgz:8964.got - 2010.04.14 02:50:06.
