data_PCOD8163251
_publ_section_title
;
Structure prediction by ZEFSAII (Michael W. Deem and Ramdas Pophale) SiO2 
 PCOD8163251
Probable space group: I 2 2 2
;
_chemical_formula_sum "Si O2"
_cell_formula_units_Z 44
_cell_length_a 12.366911
_cell_length_b 22.572723
_cell_length_c 8.641314
_cell_angle_alpha 90.000000
_cell_angle_beta 90.000000
_cell_angle_gamma 90.000000
_cell_volume 2412.264769
_symmetry_space_group_name_H-M "I 2 2 2"
_symmetry_group_IT_number 23
_symmetry_cell_setting 'orthorhombic'
loop_
_space_group_symop_operation_xyz
x,y,z
-x,-y,z
x,-y,-z
-x,y,-z
1/2+x,1/2+y,1/2+z
1/2-x,1/2-y,1/2+z
1/2+x,1/2-y,1/2-z
1/2-x,1/2+y,1/2-z
loop_
_atom_site_type_symbol
_atom_site_label
_atom_site_fract_x
_atom_site_fract_y
_atom_site_fract_z
Si Si1 0.000000 0.500000 0.000000
Si Si2 0.954071 0.322683 0.672052
Si Si3 0.900565 0.579354 0.752282
Si Si4 0.716332 0.672392 0.707537
Si Si5 0.006102 0.191302 0.682850
Si Si6 0.280741 0.294229 0.353504
Si Si7 0.000000 0.500000 0.500000
O O1 0.913318 0.462452 0.099345
O O2 0.826143 0.331026 0.689149
O O3 0.000000 0.331809 0.500000
O O4 0.006253 0.372073 0.779359
O O5 0.988595 0.258878 0.733889
O O6 0.786059 0.612796 0.730766
O O7 0.920072 0.540707 0.599422
O O8 0.593984 0.653440 0.751366
O O9 0.708647 0.699255 0.536624
O O10 0.765524 0.724447 0.815882
O O11 0.121209 0.174329 0.759212
O O12 0.000000 0.183174 0.500000
#
# Coordination Sequence:
#
# PCOD8163251 Si02
#       7
#     2   8   8   8   8   8   2
#     4  10  28  34  56  82 114 134 224 242 312 322
#     4  10  17  33  56  78 117 151 184 226 288 341
#     4  11  20  40  53  87 107 156 183 262 282 344
#     4  11  21  33  57  76 124 149 190 229 293 347
#     4  10  21  34  50  86 121 157 192 218 275 380
#     4  11  19  33  53  89 116 162 183 221 285 377
#     4  10  20  34  64  74 110 142 216 230 306 328
#
# _framework density 18.240120000000001
#
# number of rings (size 3 to 8) (size 9 to 14) (size 15 to 20)
#    0.000    1.455    4.545    2.727    0.000    4.364 
#    0.000    0.000    0.000    0.000    0.000   31.182 
#    0.000    0.000    0.000    0.000    0.000    0.000 
#
# Total GULP energy -272656.422062 kJ/mol
# GULP energy per Si atom -12393.473730 kJ/mol
# Density = 1.819860 g / cm^3
# Si number density = 18.240120 Si / 1000 Ang^3
#
#
#
# Elastic Constant Matrix: (Units=GPa)
#
#
# Indices 1 2 3 4 5 6 
#
# 1 180.9963 50.3136 54.1839 0.0004 0.0002 0.0000
# 2 50.3136 76.3448 42.8952 0.0005 -0.0001 0.0003
# 3 54.1839 42.8952 107.0755 0.0052 -0.0005 0.0016
# 4 0.0004 0.0005 0.0052 8.4458 -0.0007 0.0021
# 5 0.0002 -0.0001 -0.0005 -0.0007 27.5206 0.0000
# 6 0.0000 0.0003 0.0016 0.0021 0.0000 23.0642
#
#
#
# Elastic Compliance Matrix: (Units=1/GPa)
#
#
# Indices 1 2 3 4 5 6 
#
# 1 0.007156 -0.003460 -0.002235 0.000001 0.000000 0.000000
# 2 -0.003460 0.018576 -0.005691 0.000003 0.000000 0.000000
# 3 -0.002235 -0.005691 0.012750 -0.000007 0.000000 -0.000001
# 4 0.000001 0.000003 -0.000007 0.118402 0.000003 -0.000011
# 5 0.000000 0.000000 0.000000 0.000003 0.036336 0.000000
# 6 0.000000 0.000000 -0.000001 -0.000011 0.000000 0.043357
#
#
# Mechanical properties :
#
#
# Convention : Reuss Voigt Hill
#
# Bulk Modulus (GPa) = 63.65295 73.24469 68.44882
# Shear Modulus (GPa) = 18.89743 26.27438 22.58590
#
# Velocity S-wave (km/s) = 3.22224 3.79947 3.52270
# Velocity P-wave (km/s) = 6.98690 7.71304 7.35893
#
# Compressibility (1/GPa) = 0.01571019
#
# Stress axis : x y z
#
# Youngs Moduli (GPa) = 139.74436 53.83201 78.43175
#
# Poissons Ratio (x) = 0.18627 0.17529
# Poissons Ratio (y) = 0.48355 0.44634
# Poissons Ratio (z) = 0.31232 0.30635
#
# Static dielectric constant tensor:
#      x y z
#    x 3.749360 0.000000 -0.000020 
#    y 0.000000 3.247290 0.000000 
#    z -0.000020 0.000000 3.411940 
# 
# 
# High freq. dielectric constant tensor:
#      x y z
#    x 1.713890 0.000000 0.000000 
#    y 0.000000 1.668850 0.000000 
#    z 0.000000 0.000000 1.713490 
# 
# From -- ./inp_files/8630.got.cif
#   From: 2010.03.12/outbox.cif.g09.slc.cpg/sg23_5_cif.got.tgz:8630.got - 2010.04.14 02:50:06.
