data_PCOD8163263
_publ_section_title
;
Structure prediction by ZEFSAII (Michael W. Deem and Ramdas Pophale) SiO2 
 PCOD8163263
Probable space group: I 2 2 2
;
_chemical_formula_sum "Si O2"
_cell_formula_units_Z 42
_cell_length_a 23.239390
_cell_length_b 12.326589
_cell_length_c 8.959943
_cell_angle_alpha 90.000000
_cell_angle_beta 90.000000
_cell_angle_gamma 90.000000
_cell_volume 2566.686858
_symmetry_space_group_name_H-M "I 2 2 2"
_symmetry_group_IT_number 23
_symmetry_cell_setting 'orthorhombic'
loop_
_space_group_symop_operation_xyz
x,y,z
-x,-y,z
x,-y,-z
-x,y,-z
1/2+x,1/2+y,1/2+z
1/2-x,1/2-y,1/2+z
1/2+x,1/2-y,1/2-z
1/2-x,1/2+y,1/2-z
loop_
_atom_site_type_symbol
_atom_site_label
_atom_site_fract_x
_atom_site_fract_y
_atom_site_fract_z
Si Si1 0.000000 0.500000 0.500000
Si Si2 0.835510 0.348784 0.184199
Si Si3 0.173923 0.702876 0.847331
Si Si4 0.795939 0.904479 0.308338
Si Si5 0.109698 0.537501 0.653998
Si Si6 0.803822 0.144508 0.356750
O O1 0.042926 0.565782 0.611496
O O2 0.773340 0.404648 0.205277
O O3 0.883712 0.435510 0.233157
O O4 0.841683 0.238106 0.279595
O O5 0.848142 0.321375 0.012453
O O6 0.174017 0.832579 0.819784
O O7 0.133911 0.646363 0.724990
O O8 0.237548 0.660509 0.816267
O O9 0.813388 0.851425 0.466408
O O10 0.820477 0.025986 0.292908
O O11 0.142184 0.500000 0.500000
#
# Coordination Sequence:
#
# PCOD8163263 Si02
#       6
#     2   8   8   8   8   8
#     4   8  24  36  54  72  90 128 198 212 256 300
#     4  10  18  29  47  71 101 134 166 203 253 293
#     4  10  18  29  47  71 101 134 166 203 253 293
#     4   9  17  29  43  70 106 139 168 188 229 318
#     4  10  19  35  51  69  93 130 168 219 248 295
#     4   9  17  29  43  70 106 139 168 188 229 318
#
# _framework density 16.363506999999998
#
# number of rings (size 3 to 8) (size 9 to 14) (size 15 to 20)
#    0.571    1.905    1.905    1.714    0.000    2.286 
#    0.000    1.905    0.000    0.000    0.000    2.667 
#    0.000    3.048    0.000    0.000    0.000    0.000 
#
# Total GULP energy -260217.597555 kJ/mol
# GULP energy per Si atom -12391.314169 kJ/mol
# Density = 1.632626 g / cm^3
# Si number density = 16.363507 Si / 1000 Ang^3
#
#
#
# Elastic Constant Matrix: (Units=GPa)
#
#
# Indices 1 2 3 4 5 6 
#
# 1 42.6097 18.5782 19.2710 0.0000 0.0000 0.0000
# 2 18.5782 88.4763 22.4584 0.0000 0.0000 0.0000
# 3 19.2710 22.4584 63.9554 0.0000 0.0000 0.0000
# 4 0.0000 0.0000 0.0000 32.8104 0.0000 0.0000
# 5 0.0000 0.0000 0.0000 0.0000 25.2739 0.0000
# 6 0.0000 0.0000 0.0000 0.0000 0.0000 9.3105
#
#
#
# Elastic Compliance Matrix: (Units=1/GPa)
#
#
# Indices 1 2 3 4 5 6 
#
# 1 0.028513 -0.004179 -0.007124 0.000000 0.000000 0.000000
# 2 -0.004179 0.013021 -0.003313 0.000000 0.000000 0.000000
# 3 -0.007124 -0.003313 0.018946 0.000000 0.000000 0.000000
# 4 0.000000 0.000000 0.000000 0.030478 0.000000 0.000000
# 5 0.000000 0.000000 0.000000 0.000000 0.039567 0.000000
# 6 0.000000 0.000000 0.000000 0.000000 0.000000 0.107406
#
#
# Mechanical properties :
#
#
# Convention : Reuss Voigt Hill
#
# Bulk Modulus (GPa) = 32.00250 35.07296 33.53773
# Shear Modulus (GPa) = 18.01292 22.46119 20.23706
#
# Velocity S-wave (km/s) = 3.32143 3.70893 3.52052
# Velocity P-wave (km/s) = 5.85738 6.31045 6.08813
#
# Compressibility (1/GPa) = 0.03124756
#
# Stress axis : x y z
#
# Youngs Moduli (GPa) = 35.07203 76.79941 52.78164
#
# Poissons Ratio (x) = 0.32093 0.37602
# Poissons Ratio (y) = 0.14656 0.17488
# Poissons Ratio (z) = 0.24985 0.25446
#
# Static dielectric constant tensor:
#      x y z
#    x 2.547350 0.000000 0.000000 
#    y 0.000000 3.167790 0.000000 
#    z 0.000000 0.000000 3.248180 
# 
# 
# High freq. dielectric constant tensor:
#      x y z
#    x 1.557660 0.000000 0.000000 
#    y 0.000000 1.634630 0.000000 
#    z 0.000000 0.000000 1.641990 
# 
# From -- ./inp_files/8599.got.cif
#   From: 2010.03.12/outbox.cif.g09.slc.cpg/sg23_5_cif.got.tgz:8599.got - 2010.04.14 02:50:06.
