data_PCOD8163506
_publ_section_title
;
Structure prediction by ZEFSAII (Michael W. Deem and Ramdas Pophale) SiO2 
 PCOD8163506
Probable space group: I 2 2 2
;
_chemical_formula_sum "Si O2"
_cell_formula_units_Z 52
_cell_length_a 14.478393
_cell_length_b 19.667810
_cell_length_c 9.891378
_cell_angle_alpha 90.000000
_cell_angle_beta 90.000000
_cell_angle_gamma 90.000000
_cell_volume 2816.651812
_symmetry_space_group_name_H-M "I 2 2 2"
_symmetry_group_IT_number 23
_symmetry_cell_setting 'orthorhombic'
loop_
_space_group_symop_operation_xyz
x,y,z
-x,-y,z
x,-y,-z
-x,y,-z
1/2+x,1/2+y,1/2+z
1/2-x,1/2-y,1/2+z
1/2+x,1/2-y,1/2-z
1/2-x,1/2+y,1/2-z
loop_
_atom_site_type_symbol
_atom_site_label
_atom_site_fract_x
_atom_site_fract_y
_atom_site_fract_z
Si Si1 0.000000 0.811140 0.000000
Si Si2 0.807360 0.301735 0.442487
Si Si3 0.361847 0.650420 0.301321
Si Si4 0.602518 0.421538 0.036018
Si Si5 0.412986 0.800395 0.677192
Si Si6 0.724443 0.838758 0.532831
Si Si7 0.611144 0.806491 0.778429
O O1 0.072346 0.764134 0.080442
O O2 0.944484 0.861706 0.095241
O O3 0.735279 0.356880 0.381459
O O4 0.868153 0.276103 0.317076
O O5 0.752444 0.238150 0.502574
O O6 0.869735 0.330487 0.566708
O O7 0.373274 0.590971 0.192629
O O8 0.374750 0.725027 0.233391
O O9 0.605479 0.500000 0.000000
O O10 0.500000 0.391978 0.000000
O O11 0.685220 0.385401 0.956141
O O12 0.348948 0.854134 0.590797
O O13 0.511335 0.831216 0.724062
O O14 0.681258 0.845819 0.680792
#
# Coordination Sequence:
#
# PCOD8163506 Si02
#       7
#     4   8   8   8   8   8   8
#     4  10  20  30  52  85 125 152 180 238 304 356
#     4  11  19  29  52  88 122 150 185 229 309 361
#     4  10  20  33  53  83 117 160 192 242 291 349
#     4  11  25  41  58  80 111 161 216 246 274 340
#     4  11  18  32  50  86 125 147 179 230 302 376
#     4  11  19  35  55  78 118 155 193 239 289 351
#     4  10  20  30  53  91 122 149 180 233 313 363
#
# _framework density 18.461635000000001
#
# number of rings (size 3 to 8) (size 9 to 14) (size 15 to 20)
#    0.000    1.385    7.692    1.385    4.308    0.000 
#    0.000    0.000    0.000    8.308    0.000    0.000 
#    4.615    0.000    0.000    0.000    0.000    0.000 
#
# Total GULP energy -322139.975288 kJ/mol
# GULP energy per Si atom -12389.999050 kJ/mol
# Density = 1.841962 g / cm^3
# Si number density = 18.461635 Si / 1000 Ang^3
#
#
#
# Elastic Constant Matrix: (Units=GPa)
#
#
# Indices 1 2 3 4 5 6 
#
# 1 129.1439 40.2752 55.8310 0.0000 0.0000 0.0000
# 2 40.2752 39.8600 33.0918 0.0000 0.0000 0.0000
# 3 55.8310 33.0918 138.1379 0.0000 0.0000 0.0000
# 4 0.0000 0.0000 0.0000 18.5100 0.0000 0.0000
# 5 0.0000 0.0000 0.0000 0.0000 46.8126 0.0000
# 6 0.0000 0.0000 0.0000 0.0000 0.0000 18.8989
#
#
#
# Elastic Compliance Matrix: (Units=1/GPa)
#
#
# Indices 1 2 3 4 5 6 
#
# 1 0.011916 -0.010039 -0.002411 0.000000 0.000000 0.000000
# 2 -0.010039 0.039773 -0.005470 0.000000 0.000000 0.000000
# 3 -0.002411 -0.005470 0.009524 0.000000 0.000000 0.000000
# 4 0.000000 0.000000 0.000000 0.054025 0.000000 0.000000
# 5 0.000000 0.000000 0.000000 0.000000 0.021362 0.000000
# 6 0.000000 0.000000 0.000000 0.000000 0.000000 0.052913
#
#
# Mechanical properties :
#
#
# Convention : Reuss Voigt Hill
#
# Bulk Modulus (GPa) = 39.41319 62.83754 51.12536
# Shear Modulus (GPa) = 21.38474 28.70721 25.04598
#
# Velocity S-wave (km/s) = 3.40712 3.94758 3.68727
# Velocity P-wave (km/s) = 6.07232 7.40868 6.77354
#
# Compressibility (1/GPa) = 0.02537222
#
# Stress axis : x y z
#
# Youngs Moduli (GPa) = 83.91738 25.14297 104.99500
#
# Poissons Ratio (x) = 0.25240 0.25319
# Poissons Ratio (y) = 0.84241 0.57437
# Poissons Ratio (z) = 0.20236 0.13754
#
# Static dielectric constant tensor:
#      x y z
#    x 3.948100 0.000000 0.000000 
#    y 0.000000 2.619950 0.000000 
#    z 0.000000 0.000000 3.682330 
# 
# 
# High freq. dielectric constant tensor:
#      x y z
#    x 1.747870 0.000000 0.000000 
#    y 0.000000 1.614340 0.000000 
#    z 0.000000 0.000000 1.739770 
# 
# From -- ./inp_files/10149.got.cif
#   From: 2010.03.12/outbox.cif.g09.slc.cpg/sg23_6_cif.got.tgz:10149.got - 2010.04.14 02:50:06.
