data_PCOD8163929
_publ_section_title
;
Structure prediction by ZEFSAII (Michael W. Deem and Ramdas Pophale) SiO2 
 PCOD8163929
Probable space group: I 2 2 2
;
_chemical_formula_sum "Si O2"
_cell_formula_units_Z 48
_cell_length_a 17.976676
_cell_length_b 8.955853
_cell_length_c 13.741341
_cell_angle_alpha 90.000000
_cell_angle_beta 90.000000
_cell_angle_gamma 90.000000
_cell_volume 2212.307362
_symmetry_space_group_name_H-M "I 2 2 2"
_symmetry_group_IT_number 23
_symmetry_cell_setting 'orthorhombic'
loop_
_space_group_symop_operation_xyz
x,y,z
-x,-y,z
x,-y,-z
-x,y,-z
1/2+x,1/2+y,1/2+z
1/2-x,1/2-y,1/2+z
1/2+x,1/2-y,1/2-z
1/2-x,1/2+y,1/2-z
loop_
_atom_site_type_symbol
_atom_site_label
_atom_site_fract_x
_atom_site_fract_y
_atom_site_fract_z
Si Si1 0.781911 0.015443 0.786715
Si Si2 0.825087 0.268735 0.656926
Si Si3 0.031486 0.335564 0.236859
Si Si4 0.399450 0.831801 0.472638
Si Si5 0.756150 0.162323 0.970517
Si Si6 0.062738 0.119623 0.856247
O O1 0.800756 0.099135 0.685419
O O2 0.739960 0.138999 0.856003
O O3 0.724266 0.879790 0.775126
O O4 0.858095 0.955089 0.835157
O O5 0.912154 0.296995 0.675678
O O6 0.813076 0.298882 0.541545
O O7 0.076418 0.303421 0.137598
O O8 0.000000 0.500000 0.249192
O O9 0.961734 0.221078 0.237112
O O10 0.312474 0.798370 0.484244
O O11 0.440290 0.726167 0.549578
O O12 0.418444 0.000000 0.500000
O O13 0.790475 0.000000 0.000000
O O14 0.000000 0.000000 0.877408
#
# Coordination Sequence:
#
# PCOD8163929 Si02
#       6
#     8   8   8   8   8   8
#     4  11  24  42  65  98 131 177 226 278 336 404
#     4  11  24  41  64  94 137 177 226 275 332 402
#     4  12  26  39  60 100 139 176 219 282 339 411
#     4  12  23  37  58  98 137 169 212 268 348 407
#     4  10  21  41  65  91 133 177 223 267 324 402
#     4  12  23  41  62  92 135 177 217 271 344 411
#
# _framework density 21.696805000000001
#
# number of rings (size 3 to 8) (size 9 to 14) (size 15 to 20)
#    0.000    0.667    8.333    0.500    4.667    2.000 
#    0.000    0.000    0.000    4.500    0.000    0.000 
#    0.000    0.000    0.000    0.000    0.000    0.000 
#
# Total GULP energy -297375.569673 kJ/mol
# GULP energy per Si atom -12390.648736 kJ/mol
# Density = 2.164742 g / cm^3
# Si number density = 21.696805 Si / 1000 Ang^3
#
#
#
# Elastic Constant Matrix: (Units=GPa)
#
#
# Indices 1 2 3 4 5 6 
#
# 1 65.1273 -0.8221 26.1491 0.0000 0.0000 0.0000
# 2 -0.8221 83.4532 12.8224 0.0000 0.0000 0.0000
# 3 26.1491 12.8224 65.3105 0.0000 0.0000 0.0000
# 4 0.0000 0.0000 0.0000 24.7776 0.0000 0.0000
# 5 0.0000 0.0000 0.0000 0.0000 23.0460 0.0000
# 6 0.0000 0.0000 0.0000 0.0000 0.0000 25.8174
#
#
#
# Elastic Compliance Matrix: (Units=1/GPa)
#
#
# Indices 1 2 3 4 5 6 
#
# 1 0.018444 0.001357 -0.007651 0.000000 0.000000 0.000000
# 2 0.001357 0.012455 -0.002989 0.000000 0.000000 0.000000
# 3 -0.007651 -0.002989 0.018962 0.000000 0.000000 0.000000
# 4 0.000000 0.000000 0.000000 0.040359 0.000000 0.000000
# 5 0.000000 0.000000 0.000000 0.000000 0.043391 0.000000
# 6 0.000000 0.000000 0.000000 0.000000 0.000000 0.038734
#
#
# Mechanical properties :
#
#
# Convention : Reuss Voigt Hill
#
# Bulk Modulus (GPa) = 31.95341 32.24330 32.09836
# Shear Modulus (GPa) = 24.83346 26.44431 25.63889
#
# Velocity S-wave (km/s) = 3.38682 3.49494 3.44130
# Velocity P-wave (km/s) = 5.48208 5.58383 5.53319
#
# Compressibility (1/GPa) = 0.03129556
#
# Stress axis : x y z
#
# Youngs Moduli (GPa) = 54.21947 80.28676 52.73833
#
# Poissons Ratio (x) = -0.10897 0.40350
# Poissons Ratio (y) = -0.07359 0.15762
# Poissons Ratio (z) = 0.41483 0.23996
#
# Static dielectric constant tensor:
#      x y z
#    x 3.906390 0.000000 0.000000 
#    y 0.000000 4.174330 0.000000 
#    z 0.000000 0.000000 3.769750 
# 
# 
# High freq. dielectric constant tensor:
#      x y z
#    x 1.838810 0.000000 0.000000 
#    y 0.000000 1.869530 0.000000 
#    z 0.000000 0.000000 1.819330 
# 
# From -- ./inp_files/22030.got.cif
#   From: 2010.03.12/outbox.cif.g09.slc.cpg/sg23_12_cif.got.tgz:22030.got - 2010.04.14 02:50:06.
