data_PCOD8163672
_publ_section_title
;
Structure prediction by ZEFSAII (Michael W. Deem and Ramdas Pophale) SiO2 
 PCOD8163672
Probable space group: I 2 2 2
;
_chemical_formula_sum "Si O2"
_cell_formula_units_Z 54
_cell_length_a 22.574301
_cell_length_b 11.345874
_cell_length_c 11.066521
_cell_angle_alpha 90.000000
_cell_angle_beta 90.000000
_cell_angle_gamma 90.000000
_cell_volume 2834.414625
_symmetry_space_group_name_H-M "I 2 2 2"
_symmetry_group_IT_number 23
_symmetry_cell_setting 'orthorhombic'
loop_
_space_group_symop_operation_xyz
x,y,z
-x,-y,z
x,-y,-z
-x,y,-z
1/2+x,1/2+y,1/2+z
1/2-x,1/2-y,1/2+z
1/2+x,1/2-y,1/2-z
1/2-x,1/2+y,1/2-z
loop_
_atom_site_type_symbol
_atom_site_label
_atom_site_fract_x
_atom_site_fract_y
_atom_site_fract_z
Si Si1 0.411089 0.951620 0.811803
Si Si2 0.699498 0.134756 0.722187
Si Si3 0.000000 0.500000 0.500000
Si Si4 0.032808 0.295286 0.881894
Si Si5 0.146972 0.856027 0.112571
Si Si6 0.409181 0.180985 0.685761
Si Si7 0.325735 0.610975 0.341980
Si Si8 0.144722 0.500000 0.000000
O O1 0.346001 0.897990 0.832111
O O2 0.433287 0.903485 0.681395
O O3 0.406340 0.092031 0.798743
O O4 0.457028 0.918410 0.917794
O O5 0.688121 0.271224 0.692303
O O6 0.763911 0.113264 0.773059
O O7 0.686819 0.051993 0.605663
O O8 0.078635 0.187575 0.902358
O O9 0.974370 0.258638 0.806142
O O10 0.000000 0.343027 0.000000
O O11 0.144531 0.982939 0.177808
O O12 0.179931 0.865075 0.984438
O O13 0.364542 0.285793 0.715744
O O14 0.393073 0.110927 0.557722
#
# Coordination Sequence:
#
# PCOD8163672 Si02
#       8
#     8   8   2   8   8   8   8   4
#     4  10  23  36  61  90 117 157 193 251 309 349
#     4  10  22  40  61  82 119 162 199 247 299 356
#     4  12  20  40  54  92 130 140 200 252 300 370
#     4  11  18  37  62  88 119 150 194 254 305 352
#     4  10  23  38  54  90 120 151 193 252 300 352
#     4  11  19  36  60  91 112 155 195 245 303 350
#     4  11  23  38  57  86 123 153 198 238 301 368
#     4  10  20  38  61  92 114 149 202 250 294 354
#
# _framework density 19.051552000000001
#
# number of rings (size 3 to 8) (size 9 to 14) (size 15 to 20)
#    0.000    1.481    4.444    1.778    4.148    2.370 
#    0.000    0.000    0.000    0.000    0.000    4.148 
#    0.000    0.000    0.000    0.000    0.000    0.000 
#
# Total GULP energy -334510.818037 kJ/mol
# GULP energy per Si atom -12389.289557 kJ/mol
# Density = 1.900819 g / cm^3
# Si number density = 19.051552 Si / 1000 Ang^3
#
#
#
# Elastic Constant Matrix: (Units=GPa)
#
#
# Indices 1 2 3 4 5 6 
#
# 1 155.4095 69.8434 40.1292 0.0000 0.0000 0.0000
# 2 69.8434 128.6347 39.0654 0.0000 0.0000 0.0000
# 3 40.1292 39.0654 57.6790 0.0000 0.0000 0.0000
# 4 0.0000 0.0000 0.0000 14.4993 0.0000 0.0000
# 5 0.0000 0.0000 0.0000 0.0000 29.1337 0.0000
# 6 0.0000 0.0000 0.0000 0.0000 0.0000 19.6834
#
#
#
# Elastic Compliance Matrix: (Units=1/GPa)
#
#
# Indices 1 2 3 4 5 6 
#
# 1 0.009118 -0.003807 -0.003765 0.000000 0.000000 0.000000
# 2 -0.003807 0.011377 -0.005057 0.000000 0.000000 0.000000
# 3 -0.003765 -0.005057 0.023382 0.000000 0.000000 0.000000
# 4 0.000000 0.000000 0.000000 0.068969 0.000000 0.000000
# 5 0.000000 0.000000 0.000000 0.000000 0.034324 0.000000
# 6 0.000000 0.000000 0.000000 0.000000 0.000000 0.050804
#
#
# Mechanical properties :
#
#
# Convention : Reuss Voigt Hill
#
# Bulk Modulus (GPa) = 53.70976 71.08881 62.39929
# Shear Modulus (GPa) = 21.79245 25.50897 23.65071
#
# Velocity S-wave (km/s) = 3.38578 3.66313 3.52718
# Velocity P-wave (km/s) = 6.59831 7.43547 7.02937
#
# Compressibility (1/GPa) = 0.01861859
#
# Stress axis : x y z
#
# Youngs Moduli (GPa) = 109.67553 87.89856 42.76878
#
# Poissons Ratio (x) = 0.33465 0.16102
# Poissons Ratio (y) = 0.41756 0.21626
# Poissons Ratio (z) = 0.41293 0.44447
#
# Static dielectric constant tensor:
#      x y z
#    x 3.701240 0.000000 0.000000 
#    y 0.000000 3.568170 0.000000 
#    z 0.000000 0.000000 3.289580 
# 
# 
# High freq. dielectric constant tensor:
#      x y z
#    x 1.752040 0.000000 0.000000 
#    y 0.000000 1.730900 0.000000 
#    z 0.000000 0.000000 1.713080 
# 
# From -- ./inp_files/18024.got.cif
#   From: 2010.03.12/outbox.cif.g09.slc.cpg/sg23_10_cif.got.tgz:18024.got - 2010.04.14 02:50:06.
