data_PCOD8163858
_publ_section_title
;
Structure prediction by ZEFSAII (Michael W. Deem and Ramdas Pophale) SiO2 
 PCOD8163858
Probable space group: I 2 2 2
;
_chemical_formula_sum "Si O2"
_cell_formula_units_Z 54
_cell_length_a 15.143934
_cell_length_b 13.594405
_cell_length_c 12.336965
_cell_angle_alpha 90.000000
_cell_angle_beta 90.000000
_cell_angle_gamma 90.000000
_cell_volume 2539.845184
_symmetry_space_group_name_H-M "I 2 2 2"
_symmetry_group_IT_number 23
_symmetry_cell_setting 'orthorhombic'
loop_
_space_group_symop_operation_xyz
x,y,z
-x,-y,z
x,-y,-z
-x,y,-z
1/2+x,1/2+y,1/2+z
1/2-x,1/2-y,1/2+z
1/2+x,1/2-y,1/2-z
1/2-x,1/2+y,1/2-z
loop_
_atom_site_type_symbol
_atom_site_label
_atom_site_fract_x
_atom_site_fract_y
_atom_site_fract_z
Si Si1 0.000000 0.500000 0.740549
Si Si2 0.102055 0.921722 0.692741
Si Si3 0.298059 0.405174 0.271915
Si Si4 0.786847 0.220442 0.821403
Si Si5 0.971691 0.871636 0.877025
Si Si6 0.667519 0.039493 0.882134
Si Si7 0.954970 0.672607 0.110227
Si Si8 0.000000 0.000000 0.500000
O O1 0.928068 0.560557 0.670697
O O2 0.947581 0.419993 0.811300
O O3 0.162660 0.825531 0.715808
O O4 0.053581 0.922613 0.576276
O O5 0.033495 0.931771 0.793267
O O6 0.162637 0.018974 0.684297
O O7 0.283677 0.299898 0.217480
O O8 0.368989 0.397522 0.368661
O O9 0.207929 0.447749 0.317791
O O10 0.732618 0.134138 0.882361
O O11 0.857961 0.274433 0.901233
O O12 0.980001 0.756886 0.845418
O O13 0.000000 0.894847 0.000000
O O14 0.648971 0.000000 0.000000
O O15 0.000000 0.633980 0.000000
#
# Coordination Sequence:
#
# PCOD8163858 Si02
#       8
#     4   8   8   8   8   8   8   2
#     4  12  22  48  64  94 144 186 234 272 340 446
#     4  10  23  40  66  95 130 176 219 270 339 406
#     4  11  21  42  65  99 132 172 220 287 347 400
#     4  10  23  47  64 105 136 171 234 288 342 415
#     4  10  21  38  68 102 130 168 223 294 350 400
#     4  11  26  42  70  99 138 181 232 286 347 415
#     4  10  22  40  70 101 133 178 226 283 349 409
#     4  12  20  48  58  92 136 176 224 246 332 412
#
# _framework density 21.261137999999999
#
# number of rings (size 3 to 8) (size 9 to 14) (size 15 to 20)
#    0.000    1.481    2.963    1.333    8.296    0.593 
#    2.667    2.222    0.000    0.000    0.000    0.000 
#    0.000    0.000    0.000    0.000    0.000    0.000 
#
# Total GULP energy -334562.013282 kJ/mol
# GULP energy per Si atom -12391.185677 kJ/mol
# Density = 2.121275 g / cm^3
# Si number density = 21.261138 Si / 1000 Ang^3
#
#
#
# Elastic Constant Matrix: (Units=GPa)
#
#
# Indices 1 2 3 4 5 6 
#
# 1 118.8404 35.8213 50.5548 0.0000 0.0000 0.0000
# 2 35.8213 112.2115 38.6369 0.0000 0.0000 0.0000
# 3 50.5548 38.6369 124.0317 0.0000 0.0000 0.0000
# 4 0.0000 0.0000 0.0000 21.4197 0.0000 0.0000
# 5 0.0000 0.0000 0.0000 0.0000 31.5245 0.0000
# 6 0.0000 0.0000 0.0000 0.0000 0.0000 40.8449
#
#
#
# Elastic Compliance Matrix: (Units=1/GPa)
#
#
# Indices 1 2 3 4 5 6 
#
# 1 0.010614 -0.002127 -0.003664 0.000000 0.000000 0.000000
# 2 -0.002127 0.010409 -0.002375 0.000000 0.000000 0.000000
# 3 -0.003664 -0.002375 0.010296 0.000000 0.000000 0.000000
# 4 0.000000 0.000000 0.000000 0.046686 0.000000 0.000000
# 5 0.000000 0.000000 0.000000 0.000000 0.031721 0.000000
# 6 0.000000 0.000000 0.000000 0.000000 0.000000 0.024483
#
#
# Mechanical properties :
#
#
# Convention : Reuss Voigt Hill
#
# Bulk Modulus (GPa) = 66.72705 67.23439 66.98072
# Shear Modulus (GPa) = 32.14674 34.09586 33.12130
#
# Velocity S-wave (km/s) = 3.89266 4.00893 3.95122
# Velocity P-wave (km/s) = 7.18724 7.28838 7.23798
#
# Compressibility (1/GPa) = 0.01498643
#
# Stress axis : x y z
#
# Youngs Moduli (GPa) = 94.21229 96.07405 97.12709
#
# Poissons Ratio (x) = 0.20434 0.35586
# Poissons Ratio (y) = 0.20038 0.23072
# Poissons Ratio (z) = 0.34518 0.22822
#
# Static dielectric constant tensor:
#      x y z
#    x 3.922640 0.000000 0.000000 
#    y 0.000000 3.909020 0.000000 
#    z 0.000000 0.000000 3.603880 
# 
# 
# High freq. dielectric constant tensor:
#      x y z
#    x 1.842830 0.000000 0.000000 
#    y 0.000000 1.844360 0.000000 
#    z 0.000000 0.000000 1.803560 
# 
# From -- ./inp_files/16814.got.cif
#   From: 2010.03.12/outbox.cif.g09.slc.cpg/sg23_9_cif.got.tgz:16814.got - 2010.04.14 02:50:06.
