data_PCOD8163436
_publ_section_title
;
Structure prediction by ZEFSAII (Michael W. Deem and Ramdas Pophale) SiO2 
 PCOD8163436
Probable space group: I 2 2 2
;
_chemical_formula_sum "Si O2"
_cell_formula_units_Z 60
_cell_length_a 12.467692
_cell_length_b 11.958709
_cell_length_c 20.426349
_cell_angle_alpha 90.000000
_cell_angle_beta 90.000000
_cell_angle_gamma 90.000000
_cell_volume 3045.517581
_symmetry_space_group_name_H-M "I 2 2 2"
_symmetry_group_IT_number 23
_symmetry_cell_setting 'orthorhombic'
loop_
_space_group_symop_operation_xyz
x,y,z
-x,-y,z
x,-y,-z
-x,y,-z
1/2+x,1/2+y,1/2+z
1/2-x,1/2-y,1/2+z
1/2+x,1/2-y,1/2-z
1/2-x,1/2+y,1/2-z
loop_
_atom_site_type_symbol
_atom_site_label
_atom_site_fract_x
_atom_site_fract_y
_atom_site_fract_z
Si Si1 0.966932 0.254713 0.069102
Si Si2 0.000000 0.500000 0.894704
Si Si3 0.714800 0.119373 0.814220
Si Si4 0.376974 0.027386 0.924636
Si Si5 0.156204 0.845402 0.268843
Si Si6 0.248545 0.722168 0.633038
Si Si7 0.788285 0.538056 0.819437
Si Si8 0.040711 0.882009 0.815912
O O1 0.848730 0.209655 0.084453
O O2 0.980242 0.388536 0.063049
O O3 0.041894 0.211400 0.127686
O O4 0.000000 0.201089 0.000000
O O5 0.110370 0.517806 0.855050
O O6 0.674388 0.245985 0.820680
O O7 0.656290 0.070806 0.749913
O O8 0.838451 0.108810 0.791940
O O9 0.695532 0.054632 0.881292
O O10 0.349302 0.156112 0.903317
O O11 0.500000 0.000000 0.909092
O O12 0.350145 0.000000 0.000000
O O13 0.229445 0.835203 0.203388
O O14 0.032028 0.848973 0.246820
O O15 0.190501 0.952758 0.310305
O O16 0.234078 0.855345 0.643511
O O17 0.000000 0.000000 0.845001
#
# Coordination Sequence:
#
# PCOD8163436 Si02
#       8
#     8   4   8   8   8   8   8   8
#     4  10  21  36  58  86 120 165 193 246 301 352
#     4  10  21  36  56  90 123 150 214 244 294 370
#     4  11  22  36  61  88 115 163 200 243 308 356
#     4  11  25  44  63  86 118 159 210 254 291 356
#     4  10  20  37  58  88 125 151 196 246 309 369
#     4   9  20  38  58  89 118 154 206 242 300 360
#     4  10  19  35  60  85 123 160 190 255 303 361
#     4  11  21  38  54  88 126 151 199 247 294 372
#
# _framework density 19.701086
#
# number of rings (size 3 to 8) (size 9 to 14) (size 15 to 20)
#    0.000    1.733    2.667    2.600    2.800    2.400 
#    0.000    0.000    0.000    0.000    0.000    1.867 
#    0.000    0.000    0.000    0.000    0.000    0.000 
#
# Total GULP energy -371792.797664 kJ/mol
# GULP energy per Si atom -12393.093255 kJ/mol
# Density = 1.965625 g / cm^3
# Si number density = 19.701086 Si / 1000 Ang^3
#
#
#
# Elastic Constant Matrix: (Units=GPa)
#
#
# Indices 1 2 3 4 5 6 
#
# 1 98.8964 36.7123 37.9352 0.0000 0.0000 0.0000
# 2 36.7123 109.8510 33.4856 0.0000 0.0000 0.0000
# 3 37.9352 33.4856 85.6643 0.0000 0.0000 0.0000
# 4 0.0000 0.0000 0.0000 20.2826 0.0000 0.0000
# 5 0.0000 0.0000 0.0000 0.0000 16.6560 0.0000
# 6 0.0000 0.0000 0.0000 0.0000 0.0000 34.7278
#
#
#
# Elastic Compliance Matrix: (Units=1/GPa)
#
#
# Indices 1 2 3 4 5 6 
#
# 1 0.012962 -0.002932 -0.004594 0.000000 0.000000 0.000000
# 2 -0.002932 0.010998 -0.003001 0.000000 0.000000 0.000000
# 3 -0.004594 -0.003001 0.014881 0.000000 0.000000 0.000000
# 4 0.000000 0.000000 0.000000 0.049303 0.000000 0.000000
# 5 0.000000 0.000000 0.000000 0.000000 0.060038 0.000000
# 6 0.000000 0.000000 0.000000 0.000000 0.000000 0.028795
#
#
# Mechanical properties :
#
#
# Convention : Reuss Voigt Hill
#
# Bulk Modulus (GPa) = 56.21822 56.74198 56.48010
# Shear Modulus (GPa) = 24.51464 26.75186 25.63325
#
# Velocity S-wave (km/s) = 3.53133 3.68895 3.61100
# Velocity P-wave (km/s) = 6.72493 6.85627 6.79092
#
# Compressibility (1/GPa) = 0.01778783
#
# Stress axis : x y z
#
# Youngs Moduli (GPa) = 77.14815 90.92845 67.20021
#
# Poissons Ratio (x) = 0.26656 0.30873
# Poissons Ratio (y) = 0.22616 0.20165
# Poissons Ratio (z) = 0.35443 0.27285
#
# Static dielectric constant tensor:
#      x y z
#    x 3.493200 0.000000 0.000000 
#    y 0.000000 3.793690 0.000000 
#    z 0.000000 0.000000 3.390450 
# 
# 
# High freq. dielectric constant tensor:
#      x y z
#    x 1.753830 0.000000 0.000000 
#    y 0.000000 1.782470 0.000000 
#    z 0.000000 0.000000 1.747010 
# 
# From -- ./inp_files/26757.got.cif
#   From: 2010.03.12/outbox.cif.g09.slc.cpg/sg23_14_cif.got.tgz:26757.got - 2010.04.14 02:50:06.
