data_PCOD8163215
_publ_section_title
;
Structure prediction by ZEFSAII (Michael W. Deem and Ramdas Pophale) SiO2 
 PCOD8163215
Probable space group: I 2 2 2
;
_chemical_formula_sum "Si O2"
_cell_formula_units_Z 36
_cell_length_a 8.801648
_cell_length_b 13.696234
_cell_length_c 15.120231
_cell_angle_alpha 90.000000
_cell_angle_beta 90.000000
_cell_angle_gamma 90.000000
_cell_volume 1822.735237
_symmetry_space_group_name_H-M "I 2 2 2"
_symmetry_group_IT_number 23
_symmetry_cell_setting 'orthorhombic'
loop_
_space_group_symop_operation_xyz
x,y,z
-x,-y,z
x,-y,-z
-x,y,-z
1/2+x,1/2+y,1/2+z
1/2-x,1/2-y,1/2+z
1/2+x,1/2-y,1/2-z
1/2-x,1/2+y,1/2-z
loop_
_atom_site_type_symbol
_atom_site_label
_atom_site_fract_x
_atom_site_fract_y
_atom_site_fract_z
Si Si1 0.145360 0.818972 0.725688
Si Si2 0.500000 0.500000 0.500000
Si Si3 0.755712 0.060055 0.879090
Si Si4 0.798331 0.878971 0.755314
Si Si5 0.821846 0.986034 0.401990
Si Si6 0.500000 0.000000 0.000000
O O1 0.178415 0.704602 0.718463
O O2 0.969416 0.838896 0.747122
O O3 0.248893 0.854824 0.807409
O O4 0.202479 0.876986 0.637917
O O5 0.397358 0.574772 0.444053
O O6 0.783717 0.954953 0.834567
O O7 0.601910 0.067343 0.936114
O O8 0.750743 0.932468 0.663600
O O9 0.748660 0.000000 0.500000
O O10 0.000000 0.000000 0.408042
#
# Coordination Sequence:
#
# PCOD8163215 Si02
#       6
#     8   2   8   8   8   2
#     4  10  20  36  58  82 114 151 187 227 290 341
#     4  10  16  38  60  70 110 156 188 218 300 354
#     4  10  20  39  55  81 114 151 185 241 293 337
#     4  10  20  36  58  82 114 151 187 227 290 341
#     4   8  16  36  57  78 107 147 186 226 269 331
#     4  10  24  34  60  86 106 140 204 246 280 338
#
# _framework density 19.750537000000001
#
# number of rings (size 3 to 8) (size 9 to 14) (size 15 to 20)
#    0.000    2.444    2.222    1.333    3.111    0.000 
#    8.000    0.000    0.000    1.333    0.000    0.000 
#    0.000    0.000    0.000    0.000    0.000    0.000 
#
# Total GULP energy -223089.711124 kJ/mol
# GULP energy per Si atom -12393.872840 kJ/mol
# Density = 1.970558 g / cm^3
# Si number density = 19.750537 Si / 1000 Ang^3
#
#
#
# Elastic Constant Matrix: (Units=GPa)
#
#
# Indices 1 2 3 4 5 6 
#
# 1 67.8636 14.4384 29.7835 0.0000 0.0000 0.0000
# 2 14.4384 105.9072 36.4592 0.0000 0.0000 0.0000
# 3 29.7835 36.4592 134.0837 0.0000 0.0000 0.0000
# 4 0.0000 0.0000 0.0000 11.2685 0.0000 0.0000
# 5 0.0000 0.0000 0.0000 0.0000 1.3123 0.0000
# 6 0.0000 0.0000 0.0000 0.0000 0.0000 25.6926
#
#
#
# Elastic Compliance Matrix: (Units=1/GPa)
#
#
# Indices 1 2 3 4 5 6 
#
# 1 0.016439 -0.001086 -0.003356 0.000000 0.000000 0.000000
# 2 -0.001086 0.010489 -0.002611 0.000000 0.000000 0.000000
# 3 -0.003356 -0.002611 0.008914 0.000000 0.000000 0.000000
# 4 0.000000 0.000000 0.000000 0.088743 0.000000 0.000000
# 5 0.000000 0.000000 0.000000 0.000000 0.762003 0.000000
# 6 0.000000 0.000000 0.000000 0.000000 0.000000 0.038922
#
#
# Mechanical properties :
#
#
# Convention : Reuss Voigt Hill
#
# Bulk Modulus (GPa) = 46.00690 52.13521 49.07105
# Shear Modulus (GPa) = 5.28060 22.79957 14.04009
#
# Velocity S-wave (km/s) = 1.63690 3.40130 2.66911
# Velocity P-wave (km/s) = 5.18818 6.47142 5.86500
#
# Compressibility (1/GPa) = 0.02173587
#
# Stress axis : x y z
#
# Youngs Moduli (GPa) = 60.82918 95.33720 112.18897
#
# Poissons Ratio (x) = 0.10351 0.37655
# Poissons Ratio (y) = 0.06604 0.29292
# Poissons Ratio (z) = 0.20417 0.24892
#
# Static dielectric constant tensor:
#      x y z
#    x 3.375470 0.000000 0.000000 
#    y 0.000000 3.434880 0.000000 
#    z 0.000000 0.000000 4.160040 
# 
# 
# High freq. dielectric constant tensor:
#      x y z
#    x 1.750910 0.000000 0.000000 
#    y 0.000000 1.745240 0.000000 
#    z 0.000000 0.000000 1.784690 
# 
# From -- ./inp_files/9505.got.cif
#   From: 2010.03.12/outbox.cif.g09.slc.cpg/sg23_5_cif.got.tgz:9505.got - 2010.04.14 02:50:06.
