data_PCOD8163183
_publ_section_title
;
Structure prediction by ZEFSAII (Michael W. Deem and Ramdas Pophale) SiO2 
 PCOD8163183
Probable space group: F 2 2 2
;
_chemical_formula_sum "Si O2"
_cell_formula_units_Z 64
_cell_length_a 11.545048
_cell_length_b 15.356964
_cell_length_c 14.266392
_cell_angle_alpha 90.000000
_cell_angle_beta 90.000000
_cell_angle_gamma 90.000000
_cell_volume 2529.386883
_symmetry_space_group_name_H-M "F 2 2 2"
_symmetry_group_IT_number 22
_symmetry_cell_setting 'orthorhombic'
loop_
_space_group_symop_operation_xyz
x,y,z
-x,-y,z
x,-y,-z
-x,y,-z
x,1/2+y,1/2+z
-x,1/2-y,1/2+z
x,1/2-y,1/2-z
-x,1/2+y,1/2-z
1/2+x,y,1/2+z
1/2-x,-y,1/2+z
1/2+x,-y,1/2-z
1/2-x,y,1/2-z
1/2+x,1/2+y,z
1/2-x,1/2-y,z
1/2+x,1/2-y,-z
1/2-x,1/2+y,-z
loop_
_atom_site_type_symbol
_atom_site_label
_atom_site_fract_x
_atom_site_fract_y
_atom_site_fract_z
Si Si1 0.307526 0.599593 0.462826
Si Si2 0.558183 0.375420 0.084292
Si Si3 0.463086 0.907992 0.208983
Si Si4 0.880887 0.279621 0.879018
O O1 0.295839 0.500000 0.500000
O O2 0.184310 0.648679 0.455888
O O3 0.357664 0.616187 0.358814
O O4 0.384726 0.652159 0.535753
O O5 0.575647 0.423894 0.183216
O O6 0.472349 0.294324 0.096429
O O7 0.500000 0.432800 0.000000
O O8 0.566063 0.835410 0.208523
O O9 0.500000 0.000000 0.167092
O O10 0.750000 0.250000 0.853485
#
# Coordination Sequence:
#
# PCOD8163183 Si02
#       4
#    16  16  16  16
#     4  12  27  52  81 113 158 205 261 322 390 460
#     4  12  28  50  77 115 158 201 257 322 387 459
#     4  12  28  49  80 116 156 205 263 317 393 466
#     4  12  27  52  81 115 157 206 259 323 387 466
#
# _framework density 25.302572999999999
#
# number of rings (size 3 to 8) (size 9 to 14) (size 15 to 20)
#    0.000    0.000    5.000    3.750    3.500    2.000 
#    4.500    2.500    0.000    0.000    0.000    0.000 
#    0.000    0.000    0.000    0.000    0.000    0.000 
#
# Total GULP energy -198240.871197 kJ/mol
# GULP energy per Si atom -12390.054450 kJ/mol
# Density = 2.524498 g / cm^3
# Si number density = 25.302573 Si / 1000 Ang^3
#
#
#
# Elastic Constant Matrix: (Units=GPa)
#
#
# Indices 1 2 3 4 5 6 
#
# 1 137.5154 41.9318 32.9217 0.0000 0.0000 0.0000
# 2 41.9318 104.8589 -5.0359 0.0000 0.0000 0.0000
# 3 32.9217 -5.0359 182.6947 0.0000 0.0000 0.0000
# 4 0.0000 0.0000 0.0000 18.7666 0.0000 0.0000
# 5 0.0000 0.0000 0.0000 0.0000 34.7487 0.0000
# 6 0.0000 0.0000 0.0000 0.0000 0.0000 26.8744
#
#
#
# Elastic Compliance Matrix: (Units=1/GPa)
#
#
# Indices 1 2 3 4 5 6 
#
# 1 0.008767 -0.003587 -0.001679 0.000000 0.000000 0.000000
# 2 -0.003587 0.011016 0.000950 0.000000 0.000000 0.000000
# 3 -0.001679 0.000950 0.005802 0.000000 0.000000 0.000000
# 4 0.000000 0.000000 0.000000 0.053286 0.000000 0.000000
# 5 0.000000 0.000000 0.000000 0.000000 0.028778 0.000000
# 6 0.000000 0.000000 0.000000 0.000000 0.000000 0.037210
#
#
# Mechanical properties :
#
#
# Convention : Reuss Voigt Hill
#
# Bulk Modulus (GPa) = 58.97811 62.74491 60.86151
# Shear Modulus (GPa) = 31.41825 39.76137 35.58981
#
# Velocity S-wave (km/s) = 3.52760 3.96843 3.75449
# Velocity P-wave (km/s) = 6.32074 6.77124 6.54986
#
# Compressibility (1/GPa) = 0.01695544
#
# Stress axis : x y z
#
# Youngs Moduli (GPa) = 114.05801 90.77293 172.34506
#
# Poissons Ratio (x) = 0.32557 0.28933
# Poissons Ratio (y) = 0.40908 -0.16372
# Poissons Ratio (z) = 0.19148 -0.08623
#
# Static dielectric constant tensor:
#      x y z
#    x 4.706750 0.000000 0.000000 
#    y 0.000000 4.358370 0.000000 
#    z 0.000000 0.000000 5.010590 
# 
# 
# High freq. dielectric constant tensor:
#      x y z
#    x 2.018090 0.000000 0.000000 
#    y 0.000000 2.006810 0.000000 
#    z 0.000000 0.000000 2.036270 
# 
# From -- ./inp_files/27810.got.cif
#   From: 2010.03.12/outbox.cif.g09.slc.cpg/sg22_14_cif.got.tgz:27810.got - 2010.04.14 02:24:06.
