data_PCOD8163203
_publ_section_title
;
Structure prediction by ZEFSAII (Michael W. Deem and Ramdas Pophale) SiO2 
 PCOD8163203
Probable space group: I 2 2 2
;
_chemical_formula_sum "Si O2"
_cell_formula_units_Z 44
_cell_length_a 32.674143
_cell_length_b 9.155755
_cell_length_c 7.712101
_cell_angle_alpha 90.000000
_cell_angle_beta 90.000000
_cell_angle_gamma 90.000000
_cell_volume 2307.124743
_symmetry_space_group_name_H-M "I 2 2 2"
_symmetry_group_IT_number 23
_symmetry_cell_setting 'orthorhombic'
loop_
_space_group_symop_operation_xyz
x,y,z
-x,-y,z
x,-y,-z
-x,y,-z
1/2+x,1/2+y,1/2+z
1/2-x,1/2-y,1/2+z
1/2+x,1/2-y,1/2-z
1/2-x,1/2+y,1/2-z
loop_
_atom_site_type_symbol
_atom_site_label
_atom_site_fract_x
_atom_site_fract_y
_atom_site_fract_z
Si Si1 0.705497 0.178209 0.801731
Si Si2 0.000000 0.500000 0.500000
Si Si3 0.787392 0.334554 0.695123
Si Si4 0.514995 0.755096 0.231204
Si Si5 0.651903 0.828062 0.511078
Si Si6 0.000000 0.000000 0.500000
Si Si7 0.059922 0.330933 0.054532
O O1 0.743122 0.269318 0.728298
O O2 0.666820 0.225642 0.680209
O O3 0.715932 0.007962 0.783010
O O4 0.696601 0.212583 0.003760
O O5 0.029064 0.394714 0.616386
O O6 0.818297 0.269108 0.838084
O O7 0.525085 0.607950 0.125227
O O8 0.541365 0.735294 0.400775
O O9 0.466473 0.787592 0.274983
O O10 0.606635 0.777928 0.568021
O O11 0.652276 0.000000 0.500000
O O12 0.054632 0.500000 0.000000
#
# Coordination Sequence:
#
# PCOD8163203 Si02
#       7
#     8   2   8   8   8   2   8
#     4  10  19  33  55  79 107 144 184 226 281 334
#     4  10  16  32  56  94 108 132 192 234 256 336
#     4  10  19  33  55  79 107 144 184 226 281 334
#     4  10  19  36  59  83 116 150 186 221 289 326
#     4   9  19  34  52  85 115 142 180 237 289 327
#     4  10  24  36  56  86 112 152 188 226 276 356
#     4  10  18  35  60  86 110 148 191 239 277 335
#
# _framework density 19.071356999999999
#
# number of rings (size 3 to 8) (size 9 to 14) (size 15 to 20)
#    0.000    2.182    3.636    0.545    0.000    1.455 
#    6.545    0.000    8.000    0.000    0.000    0.000 
#    0.000    0.000    0.000    0.000    0.000    0.000 
#
# Total GULP energy -272550.257786 kJ/mol
# GULP energy per Si atom -12388.648081 kJ/mol
# Density = 1.902795 g / cm^3
# Si number density = 19.071357 Si / 1000 Ang^3
#
#
#
# Elastic Constant Matrix: (Units=GPa)
#
#
# Indices 1 2 3 4 5 6 
#
# 1 109.7927 8.8764 39.7791 0.0000 0.0000 0.0000
# 2 8.8764 63.7324 27.8772 0.0000 0.0000 0.0000
# 3 39.7791 27.8772 131.6570 0.0000 0.0000 0.0000
# 4 0.0000 0.0000 0.0000 20.2598 0.0000 0.0000
# 5 0.0000 0.0000 0.0000 0.0000 15.8244 0.0000
# 6 0.0000 0.0000 0.0000 0.0000 0.0000 14.2349
#
#
#
# Elastic Compliance Matrix: (Units=1/GPa)
#
#
# Indices 1 2 3 4 5 6 
#
# 1 0.010228 -0.000080 -0.003073 0.000000 0.000000 0.000000
# 2 -0.000080 0.017293 -0.003637 0.000000 0.000000 0.000000
# 3 -0.003073 -0.003637 0.009294 0.000000 0.000000 0.000000
# 4 0.000000 0.000000 0.000000 0.049359 0.000000 0.000000
# 5 0.000000 0.000000 0.000000 0.000000 0.063194 0.000000
# 6 0.000000 0.000000 0.000000 0.000000 0.000000 0.070250
#
#
# Mechanical properties :
#
#
# Convention : Reuss Voigt Hill
#
# Bulk Modulus (GPa) = 43.04170 50.91639 46.97905
# Shear Modulus (GPa) = 20.75173 25.30710 23.02941
#
# Velocity S-wave (km/s) = 3.30223 3.64671 3.47874
# Velocity P-wave (km/s) = 6.09569 6.66987 6.38923
#
# Compressibility (1/GPa) = 0.02323328
#
# Stress axis : x y z
#
# Youngs Moduli (GPa) = 97.77016 57.82755 107.59327
#
# Poissons Ratio (x) = 0.00464 0.33067
# Poissons Ratio (y) = 0.00784 0.39136
# Poissons Ratio (z) = 0.30048 0.21034
#
# Static dielectric constant tensor:
#      x y z
#    x 3.566440 0.000000 0.000000 
#    y 0.000000 3.293460 0.000000 
#    z 0.000000 0.000000 3.953160 
# 
# 
# High freq. dielectric constant tensor:
#      x y z
#    x 1.710260 0.000000 0.000000 
#    y 0.000000 1.714400 0.000000 
#    z 0.000000 0.000000 1.767260 
# 
# From -- ./inp_files/13295.got.cif
#   From: 2010.03.12/outbox.cif.g09.slc.cpg/sg23_7_cif.got.tgz:13295.got - 2010.04.14 02:50:06.
