data_PCOD8163017
_publ_section_title
;
Structure prediction by ZEFSAII (Michael W. Deem and Ramdas Pophale) SiO2 
 PCOD8163017
Probable space group: F 2 2 2
;
_chemical_formula_sum "Si O2"
_cell_formula_units_Z 88
_cell_length_a 4.975097
_cell_length_b 32.412300
_cell_length_c 23.983433
_cell_angle_alpha 90.000000
_cell_angle_beta 90.000000
_cell_angle_gamma 90.000000
_cell_volume 3867.432575
_symmetry_space_group_name_H-M "F 2 2 2"
_symmetry_group_IT_number 22
_symmetry_cell_setting 'orthorhombic'
loop_
_space_group_symop_operation_xyz
x,y,z
-x,-y,z
x,-y,-z
-x,y,-z
x,1/2+y,1/2+z
-x,1/2-y,1/2+z
x,1/2-y,1/2-z
-x,1/2+y,1/2-z
1/2+x,y,1/2+z
1/2-x,-y,1/2+z
1/2+x,-y,1/2-z
1/2-x,y,1/2-z
1/2+x,1/2+y,z
1/2-x,1/2-y,z
1/2+x,1/2-y,-z
1/2-x,1/2+y,-z
loop_
_atom_site_type_symbol
_atom_site_label
_atom_site_fract_x
_atom_site_fract_y
_atom_site_fract_z
Si Si1 0.684481 0.846046 0.811420
Si Si2 0.794775 0.202995 0.844869
Si Si3 0.132398 0.930277 0.374053
Si Si4 0.374857 0.577743 0.942658
Si Si5 0.500000 0.000000 0.787761
Si Si6 0.765726 0.170988 0.963492
O O1 0.750000 0.863355 0.750000
O O2 0.405452 0.822146 0.805443
O O3 0.628965 0.883259 0.853664
O O4 0.905507 0.814103 0.835110
O O5 0.750000 0.250000 0.827307
O O6 0.707351 0.198567 0.909575
O O7 0.432475 0.939873 0.394387
O O8 0.926283 0.936578 0.426277
O O9 0.063820 0.960236 0.324126
O O10 0.381931 0.627067 0.943767
O O11 0.500000 0.559682 0.000000
O O12 0.250000 0.987584 0.750000
O O13 0.500000 0.165026 0.000000
O O14 0.000000 0.192761 0.000000
#
# Coordination Sequence:
#
# PCOD8163017 Si02
#       6
#    16  16  16  16   8  16
#     4  12  25  44  68  93 127 181 235 280 344 413
#     4  12  26  43  63  97 136 174 230 290 341 406
#     4  12  23  46  71 101 137 177 225 281 342 415
#     4  11  22  40  71 103 135 178 225 273 337 415
#     4  12  28  48  73 108 143 180 230 296 354 396
#     4  11  21  38  66  95 131 174 222 278 336 405
#
# _framework density 22.754111999999999
#
# number of rings (size 3 to 8) (size 9 to 14) (size 15 to 20)
#    0.000    0.364    3.636    6.545    0.000    4.364 
#    0.000    2.727    0.000    0.000    0.000    0.000 
#    0.000    0.000    0.000    0.000    0.000    0.000 
#
# Total GULP energy -272858.598308 kJ/mol
# GULP energy per Si atom -12402.663559 kJ/mol
# Density = 2.270232 g / cm^3
# Si number density = 22.754112 Si / 1000 Ang^3
#
#
#
# Elastic Constant Matrix: (Units=GPa)
#
#
# Indices 1 2 3 4 5 6 
#
# 1 131.2105 26.2041 32.6665 0.0000 0.0000 0.0000
# 2 26.2041 81.6146 14.1034 0.0000 0.0000 0.0000
# 3 32.6665 14.1034 100.5996 0.0000 0.0000 0.0000
# 4 0.0000 0.0000 0.0000 19.3967 0.0000 0.0000
# 5 0.0000 0.0000 0.0000 0.0000 52.6154 0.0000
# 6 0.0000 0.0000 0.0000 0.0000 0.0000 22.6936
#
#
#
# Elastic Compliance Matrix: (Units=1/GPa)
#
#
# Indices 1 2 3 4 5 6 
#
# 1 0.008716 -0.002367 -0.002498 0.000000 0.000000 0.000000
# 2 -0.002367 0.013200 -0.001082 0.000000 0.000000 0.000000
# 3 -0.002498 -0.001082 0.010903 0.000000 0.000000 0.000000
# 4 0.000000 0.000000 0.000000 0.051555 0.000000 0.000000
# 5 0.000000 0.000000 0.000000 0.000000 0.019006 0.000000
# 6 0.000000 0.000000 0.000000 0.000000 0.000000 0.044065
#
#
# Mechanical properties :
#
#
# Convention : Reuss Voigt Hill
#
# Bulk Modulus (GPa) = 47.79045 51.04139 49.41592
# Shear Modulus (GPa) = 30.06355 34.97119 32.51737
#
# Velocity S-wave (km/s) = 3.63882 3.92461 3.78441
# Velocity P-wave (km/s) = 6.22120 6.55875 6.39220
#
# Compressibility (1/GPa) = 0.02092468
#
# Stress axis : x y z
#
# Youngs Moduli (GPa) = 114.73123 75.76004 91.71476
#
# Poissons Ratio (x) = 0.17930 0.22914
# Poissons Ratio (y) = 0.27154 0.09923
# Poissons Ratio (z) = 0.28665 0.08197
#
# Static dielectric constant tensor:
#      x y z
#    x 4.309140 0.000000 0.000000 
#    y 0.000000 3.751350 0.000000 
#    z 0.000000 0.000000 4.278940 
# 
# 
# High freq. dielectric constant tensor:
#      x y z
#    x 1.917910 0.000000 0.000000 
#    y 0.000000 1.870600 0.000000 
#    z 0.000000 0.000000 1.912100 
# 
# From -- ./inp_files/46671.got.cif
#   From: 2010.03.12/outbox.cif.g09.slc.cpg/sg22_24_cif.got.tgz:46671.got - 2010.04.14 02:24:06.
