data_PCOD8163533
_publ_section_title
;
Structure prediction by ZEFSAII (Michael W. Deem and Ramdas Pophale) SiO2 
 PCOD8163533
Probable space group: I 2 2 2
;
_chemical_formula_sum "Si O2"
_cell_formula_units_Z 42
_cell_length_a 5.082053
_cell_length_b 23.764938
_cell_length_c 18.436234
_cell_angle_alpha 90.000000
_cell_angle_beta 90.000000
_cell_angle_gamma 90.000000
_cell_volume 2226.630160
_symmetry_space_group_name_H-M "I 2 2 2"
_symmetry_group_IT_number 23
_symmetry_cell_setting 'orthorhombic'
loop_
_space_group_symop_operation_xyz
x,y,z
-x,-y,z
x,-y,-z
-x,y,-z
1/2+x,1/2+y,1/2+z
1/2-x,1/2-y,1/2+z
1/2+x,1/2-y,1/2-z
1/2-x,1/2+y,1/2-z
loop_
_atom_site_type_symbol
_atom_site_label
_atom_site_fract_x
_atom_site_fract_y
_atom_site_fract_z
Si Si1 0.462463 0.773883 0.659336
Si Si2 0.436136 0.437266 0.294992
Si Si3 0.000000 0.329667 0.500000
Si Si4 0.000000 0.756985 0.000000
Si Si5 0.540153 0.322248 0.769345
Si Si6 0.500000 0.000000 0.000000
Si Si7 0.068055 0.418961 0.614141
O O1 0.426520 0.777939 0.572332
O O2 0.431894 0.710319 0.691739
O O3 0.249186 0.814549 0.697035
O O4 0.753004 0.795992 0.675184
O O5 0.500000 0.500000 0.263490
O O6 0.385395 0.388846 0.235441
O O7 0.683982 0.408420 0.335265
O O8 0.178363 0.446244 0.343770
O O9 0.748127 0.294039 0.479887
O O10 0.045676 0.364087 0.425741
O O11 0.321500 0.038972 0.051792
#
# Coordination Sequence:
#
# PCOD8163533 Si02
#       7
#     8   8   4   4   8   2   8
#     4  10  21  37  58  83 108 146 179 240 283 343
#     4  12  22  37  55  79 107 152 195 238 263 330
#     4  11  22  33  52  78 112 152 179 232 265 328
#     4  12  22  38  58  87 111 140 194 232 294 342
#     4  10  21  37  57  81 113 143 188 229 290 326
#     4  10  20  34  44  70 108 150 192 220 250 306
#     4  11  22  34  49  74 110 153 194 226 264 307
#
# _framework density 18.862584999999999
#
# number of rings (size 3 to 8) (size 9 to 14) (size 15 to 20)
#    0.000    1.143    1.905    5.714    0.000    6.095 
#    0.000    0.000    0.000    0.000    0.000    4.000 
#    0.000    0.000    0.000    0.000    0.000    0.000 
#
# Total GULP energy -260261.077018 kJ/mol
# GULP energy per Si atom -12393.384620 kJ/mol
# Density = 1.881965 g / cm^3
# Si number density = 18.862585 Si / 1000 Ang^3
#
#
#
# Elastic Constant Matrix: (Units=GPa)
#
#
# Indices 1 2 3 4 5 6 
#
# 1 87.2074 10.9468 7.0271 0.0000 0.0000 0.0000
# 2 10.9468 101.4285 31.9329 0.0000 0.0000 0.0000
# 3 7.0271 31.9329 91.1635 0.0000 0.0000 0.0000
# 4 0.0000 0.0000 0.0000 22.6210 0.0000 0.0000
# 5 0.0000 0.0000 0.0000 0.0000 21.8593 0.0000
# 6 0.0000 0.0000 0.0000 0.0000 0.0000 23.8522
#
#
#
# Elastic Compliance Matrix: (Units=1/GPa)
#
#
# Indices 1 2 3 4 5 6 
#
# 1 0.011646 -0.001095 -0.000514 0.000000 0.000000 0.000000
# 2 -0.001095 0.011184 -0.003833 0.000000 0.000000 0.000000
# 3 -0.000514 -0.003833 0.012352 0.000000 0.000000 0.000000
# 4 0.000000 0.000000 0.000000 0.044207 0.000000 0.000000
# 5 0.000000 0.000000 0.000000 0.000000 0.045747 0.000000
# 6 0.000000 0.000000 0.000000 0.000000 0.000000 0.041925
#
#
# Mechanical properties :
#
#
# Convention : Reuss Voigt Hill
#
# Bulk Modulus (GPa) = 41.15752 42.17923 41.66838
# Shear Modulus (GPa) = 26.87535 28.99265 27.93400
#
# Velocity S-wave (km/s) = 3.77874 3.92477 3.85245
# Velocity P-wave (km/s) = 6.39575 6.55349 6.47510
#
# Compressibility (1/GPa) = 0.02429689
#
# Stress axis : x y z
#
# Youngs Moduli (GPa) = 85.86791 89.41214 80.96093
#
# Poissons Ratio (x) = 0.09791 0.04162
# Poissons Ratio (y) = 0.09403 0.31034
# Poissons Ratio (z) = 0.04415 0.34273
#
# Static dielectric constant tensor:
#      x y z
#    x 3.451000 0.000000 0.000000 
#    y 0.000000 3.354480 0.000000 
#    z 0.000000 0.000000 3.202000 
# 
# 
# High freq. dielectric constant tensor:
#      x y z
#    x 1.748460 0.000000 0.000000 
#    y 0.000000 1.718930 0.000000 
#    z 0.000000 0.000000 1.698990 
# 
# From -- ./inp_files/23172.got.cif
#   From: 2010.03.12/outbox.cif.g09.slc.cpg/sg23_12_cif.got.tgz:23172.got - 2010.04.14 02:50:06.
