data_PCOD8163959
_publ_section_title
;
Structure prediction by ZEFSAII (Michael W. Deem and Ramdas Pophale) SiO2 
 PCOD8163959
Probable space group: I 2 2 2
;
_chemical_formula_sum "Si O2"
_cell_formula_units_Z 56
_cell_length_a 14.582089
_cell_length_b 15.436781
_cell_length_c 10.778637
_cell_angle_alpha 90.000000
_cell_angle_beta 90.000000
_cell_angle_gamma 90.000000
_cell_volume 2426.276733
_symmetry_space_group_name_H-M "I 2 2 2"
_symmetry_group_IT_number 23
_symmetry_cell_setting 'orthorhombic'
loop_
_space_group_symop_operation_xyz
x,y,z
-x,-y,z
x,-y,-z
-x,y,-z
1/2+x,1/2+y,1/2+z
1/2-x,1/2-y,1/2+z
1/2+x,1/2-y,1/2-z
1/2-x,1/2+y,1/2-z
loop_
_atom_site_type_symbol
_atom_site_label
_atom_site_fract_x
_atom_site_fract_y
_atom_site_fract_z
Si Si1 0.599823 0.411412 0.943650
Si Si2 0.211054 0.449308 0.617326
Si Si3 0.693101 0.757310 0.126961
Si Si4 0.893150 0.515756 0.141955
Si Si5 0.417927 0.272440 0.365358
Si Si6 0.611432 0.210022 0.375876
Si Si7 0.903313 0.960655 0.840215
O O1 0.663018 0.324625 0.961736
O O2 0.588835 0.431087 0.800506
O O3 0.644174 0.500000 0.000000
O O4 0.500000 0.392528 0.000000
O O5 0.168463 0.500000 0.500000
O O6 0.190573 0.352250 0.566840
O O7 0.163120 0.464446 0.751391
O O8 0.319661 0.474166 0.631302
O O9 0.630489 0.761287 0.245206
O O10 0.796510 0.751513 0.175363
O O11 0.884158 0.614980 0.179274
O O12 0.000000 0.500000 0.150808
O O13 0.856874 0.500000 0.000000
O O14 0.525815 0.267470 0.331376
O O15 0.391437 0.205331 0.473611
O O16 0.389235 0.368854 0.411162
O O17 0.000000 0.000000 0.884403
#
# Coordination Sequence:
#
# PCOD8163959 Si02
#       7
#     8   8   8   8   8   8   8
#     4  10  21  44  70 107 145 182 252 323 390 448
#     4  12  27  46  64 105 150 195 250 299 380 462
#     4  11  24  42  67 102 140 191 240 306 376 453
#     4  11  23  45  73  98 132 188 245 309 369 446
#     4  10  22  42  65  99 134 175 247 307 375 448
#     4  11  22  42  68  96 132 183 240 306 370 447
#     4  11  22  41  69  99 141 191 237 309 378 458
#
# _framework density 23.080631
#
# number of rings (size 3 to 8) (size 9 to 14) (size 15 to 20)
#    0.000    1.143    1.429    6.857    0.000    5.143 
#   12.857    0.000    0.000    0.000    0.000    0.000 
#    0.000    0.000    0.000    0.000    0.000    0.000 
#
# Total GULP energy -346881.749815 kJ/mol
# GULP energy per Si atom -12388.633922 kJ/mol
# Density = 2.302810 g / cm^3
# Si number density = 23.080631 Si / 1000 Ang^3
#
#
#
# Elastic Constant Matrix: (Units=GPa)
#
#
# Indices 1 2 3 4 5 6 
#
# 1 126.7397 49.2635 36.2217 0.0000 0.0000 0.0000
# 2 49.2635 188.9847 30.9843 0.0000 0.0000 0.0000
# 3 36.2217 30.9843 93.2803 0.0000 0.0000 0.0000
# 4 0.0000 0.0000 0.0000 37.7959 0.0000 0.0000
# 5 0.0000 0.0000 0.0000 0.0000 -10.0306 0.0000
# 6 0.0000 0.0000 0.0000 0.0000 0.0000 47.6869
#
#
#
# Elastic Compliance Matrix: (Units=1/GPa)
#
#
# Indices 1 2 3 4 5 6 
#
# 1 0.009531 -0.001986 -0.003041 0.000000 0.000000 0.000000
# 2 -0.001986 0.006010 -0.001225 0.000000 0.000000 0.000000
# 3 -0.003041 -0.001225 0.012308 0.000000 0.000000 0.000000
# 4 0.000000 0.000000 0.000000 0.026458 0.000000 0.000000
# 5 0.000000 0.000000 0.000000 0.000000 -0.099695 0.000000
# 6 0.000000 0.000000 0.000000 0.000000 0.000000 0.020970
#
#
# Mechanical properties :
#
#
# Convention : Reuss Voigt Hill
#
# Bulk Modulus (GPa) = 65.16946 71.32709 68.24828
# Shear Modulus (GPa) = -735.54222 34.59280 -350.47471
#
# Velocity S-wave (km/s) = -17.87108 3.87561 -12.33603
# Velocity P-wave (km/s) = 19.93834 7.14126 13.16320
#
# Compressibility (1/GPa) = 0.01534461
#
# Stress axis : x y z
#
# Youngs Moduli (GPa) = 104.91691 166.39000 81.24561
#
# Poissons Ratio (x) = 0.33044 0.24711
# Poissons Ratio (y) = 0.20836 0.09954
# Poissons Ratio (z) = 0.31910 0.20385
#
# Static dielectric constant tensor:
#      x y z
#    x 4.186470 0.000000 0.000000 
#    y 0.000000 5.587470 0.000000 
#    z 0.000000 0.000000 3.892050 
# 
# 
# High freq. dielectric constant tensor:
#      x y z
#    x 1.914190 0.000000 0.000000 
#    y 0.000000 1.932560 0.000000 
#    z 0.000000 0.000000 1.900930 
# 
# From -- ./inp_files/16771.got.cif
#   From: 2010.03.12/outbox.cif.g09.slc.cpg/sg23_9_cif.got.tgz:16771.got - 2010.04.14 02:50:06.
