data_PCOD8163985
_publ_section_title
;
Structure prediction by ZEFSAII (Michael W. Deem and Ramdas Pophale) SiO2 
 PCOD8163985
Probable space group: I 2 2 2
;
_chemical_formula_sum "Si O2"
_cell_formula_units_Z 56
_cell_length_a 12.595337
_cell_length_b 13.956842
_cell_length_c 16.933628
_cell_angle_alpha 90.000000
_cell_angle_beta 90.000000
_cell_angle_gamma 90.000000
_cell_volume 2976.781575
_symmetry_space_group_name_H-M "I 2 2 2"
_symmetry_group_IT_number 23
_symmetry_cell_setting 'orthorhombic'
loop_
_space_group_symop_operation_xyz
x,y,z
-x,-y,z
x,-y,-z
-x,y,-z
1/2+x,1/2+y,1/2+z
1/2-x,1/2-y,1/2+z
1/2+x,1/2-y,1/2-z
1/2-x,1/2+y,1/2-z
loop_
_atom_site_type_symbol
_atom_site_label
_atom_site_fract_x
_atom_site_fract_y
_atom_site_fract_z
Si Si1 0.376576 0.103881 0.500000
Si Si2 0.164454 0.268115 0.852678
Si Si3 0.618600 0.813134 0.818343
Si Si4 0.624183 0.000000 0.911753
Si Si5 0.335546 0.768115 0.352679
Si Si6 0.618600 0.813134 0.181657
Si Si7 0.500000 0.386164 0.405826
O O1 0.500000 0.089102 0.500000
O O2 0.344270 0.160448 0.423573
O O3 0.344270 0.160449 0.576427
O O4 0.319938 0.000000 0.500000
O O5 0.291375 0.262115 0.841486
O O6 0.114104 0.320255 0.776518
O O7 0.104448 0.166769 0.870121
O O8 0.614104 0.820254 0.723482
O O9 0.500000 0.784206 0.848593
O O10 0.658603 0.909761 0.860003
O O11 0.658603 0.090239 0.860003
O O12 0.500000 0.000000 0.924468
O O13 0.678095 0.000000 0.000000
O O14 0.208625 0.762115 0.341486
O O15 0.395552 0.666769 0.370121
O O16 0.500000 0.500000 0.383132
O O17 0.500000 0.373245 0.500000
#
# Coordination Sequence:
#
# PCOD8163985 Si02
#       7
#     8   8   8   8   8   8   8
#     4  11  22  38  63  89 120 153 196 251 291 355
#     4  11  21  40  61  89 120 156 201 241 301 360
#     4  10  22  38  60  85 120 157 197 249 294 351
#     4   9  20  36  56  88 116 154 199 238 297 349
#     4  11  21  40  61  89 120 156 201 241 301 360
#     4  10  22  38  60  85 120 157 197 249 294 351
#     4  11  22  38  62  92 124 157 197 247 303 360
#
# _framework density 18.812263999999999
#
# number of rings (size 3 to 8) (size 9 to 14) (size 15 to 20)
#    0.000    1.571    4.286    0.000    6.000    0.000 
#    0.000    0.000    0.000    0.857    0.000    0.000 
#    0.000    0.000    0.000    0.000    0.000    0.000 
#
# Total GULP energy -346940.444256 kJ/mol
# GULP energy per Si atom -12390.730152 kJ/mol
# Density = 1.876945 g / cm^3
# Si number density = 18.812264 Si / 1000 Ang^3
#
#
#
# Elastic Constant Matrix: (Units=GPa)
#
#
# Indices 1 2 3 4 5 6 
#
# 1 111.1757 27.8701 27.4950 0.0000 0.0000 0.0000
# 2 27.8701 112.9651 77.8895 0.0000 -0.0001 0.0000
# 3 27.4950 77.8895 151.0144 0.0000 -0.0001 0.0000
# 4 0.0000 0.0000 0.0000 32.1704 -0.0001 0.0000
# 5 0.0000 -0.0001 -0.0001 -0.0001 128.9175 0.0000
# 6 0.0000 0.0000 0.0000 0.0000 0.0000 17.0752
#
#
#
# Elastic Compliance Matrix: (Units=1/GPa)
#
#
# Indices 1 2 3 4 5 6 
#
# 1 0.009653 -0.001815 -0.000821 0.000000 0.000000 0.000000
# 2 -0.001815 0.014079 -0.006931 0.000000 0.000000 0.000000
# 3 -0.000821 -0.006931 0.010346 0.000000 0.000000 0.000000
# 4 0.000000 0.000000 0.000000 0.031084 0.000000 0.000000
# 5 0.000000 0.000000 0.000000 0.000000 0.007757 0.000000
# 6 0.000000 0.000000 0.000000 0.000000 0.000000 0.058564
#
#
# Mechanical properties :
#
#
# Convention : Reuss Voigt Hill
#
# Bulk Modulus (GPa) = 66.92060 71.29603 69.10831
# Shear Modulus (GPa) = 32.13351 51.75932 41.94642
#
# Velocity S-wave (km/s) = 4.13742 5.25103 4.72713
# Velocity P-wave (km/s) = 7.64685 8.64554 8.16149
#
# Compressibility (1/GPa) = 0.01494308
#
# Stress axis : x y z
#
# Youngs Moduli (GPa) = 103.59549 71.02668 96.65242
#
# Poissons Ratio (x) = 0.12893 0.07937
# Poissons Ratio (y) = 0.18806 0.66992
# Poissons Ratio (z) = 0.08507 0.49230
#
# Static dielectric constant tensor:
#      x y z
#    x 3.508390 0.000000 0.000000 
#    y 0.000000 3.610460 0.000000 
#    z 0.000000 0.000000 3.666180 
# 
# 
# High freq. dielectric constant tensor:
#      x y z
#    x 1.733910 0.000000 0.000000 
#    y 0.000000 1.714180 0.000000 
#    z 0.000000 0.000000 1.743610 
# 
# From -- ./inp_files/20900.got.cif
#   From: 2010.03.12/outbox.cif.g09.slc.cpg/sg23_11_cif.got.tgz:20900.got - 2010.04.14 02:50:06.
