data_PCOD8163179
_publ_section_title
;
Structure prediction by ZEFSAII (Michael W. Deem and Ramdas Pophale) SiO2 
 PCOD8163179
Probable space group: F 2 2 2
;
_chemical_formula_sum "Si O2"
_cell_formula_units_Z 40
_cell_length_a 7.281461
_cell_length_b 19.619427
_cell_length_c 11.398006
_cell_angle_alpha 90.000000
_cell_angle_beta 90.000000
_cell_angle_gamma 90.000000
_cell_volume 1628.297396
_symmetry_space_group_name_H-M "F 2 2 2"
_symmetry_group_IT_number 22
_symmetry_cell_setting 'orthorhombic'
loop_
_space_group_symop_operation_xyz
x,y,z
-x,-y,z
x,-y,-z
-x,y,-z
x,1/2+y,1/2+z
-x,1/2-y,1/2+z
x,1/2-y,1/2-z
-x,1/2+y,1/2-z
1/2+x,y,1/2+z
1/2-x,-y,1/2+z
1/2+x,-y,1/2-z
1/2-x,y,1/2-z
1/2+x,1/2+y,z
1/2-x,1/2-y,z
1/2+x,1/2-y,-z
1/2-x,1/2+y,-z
loop_
_atom_site_type_symbol
_atom_site_label
_atom_site_fract_x
_atom_site_fract_y
_atom_site_fract_z
Si Si1 0.538452 0.426121 0.247053
Si Si2 0.660774 0.183155 0.585317
Si Si3 0.500000 0.109888 0.000000
O O1 0.500000 0.500000 0.186667
O O2 0.750000 0.404890 0.250000
O O3 0.414188 0.369024 0.184041
O O4 0.478504 0.434113 0.382091
O O5 0.500000 0.207180 0.500000
O O6 0.750000 0.250000 0.647292
O O7 0.812103 0.152687 0.496577
#
# Coordination Sequence:
#
# PCOD8163179 Si02
#       3
#    16  16   8
#     4  12  27  49  79 119 160 208 264 327 397 479
#     4  12  26  51  79 113 159 211 265 327 396 471
#     4  12  25  48  78 112 159 208 254 328 396 474
#
# _framework density 24.565536999999999
#
# number of rings (size 3 to 8) (size 9 to 14) (size 15 to 20)
#    0.000    0.000    6.000    4.200    0.000    4.000 
#    0.000    4.000    0.000    0.000    0.000    0.000 
#    0.000    0.000    0.000    0.000    0.000    0.000 
#
# Total GULP energy -123920.356626 kJ/mol
# GULP energy per Si atom -12392.035663 kJ/mol
# Density = 2.450962 g / cm^3
# Si number density = 24.565537 Si / 1000 Ang^3
#
#
#
# Elastic Constant Matrix: (Units=GPa)
#
#
# Indices 1 2 3 4 5 6 
#
# 1 187.8450 70.5645 37.9291 0.0000 0.0000 0.0000
# 2 70.5645 203.6746 61.7214 0.0000 0.0000 0.0000
# 3 37.9291 61.7214 137.1586 0.0000 0.0000 0.0000
# 4 0.0000 0.0000 0.0000 -16.5468 0.0000 0.0000
# 5 0.0000 0.0000 0.0000 0.0000 35.1873 0.0000
# 6 0.0000 0.0000 0.0000 0.0000 0.0000 41.0554
#
#
#
# Elastic Compliance Matrix: (Units=1/GPa)
#
#
# Indices 1 2 3 4 5 6 
#
# 1 0.006208 -0.001888 -0.000867 0.000000 0.000000 0.000000
# 2 -0.001888 0.006259 -0.002295 0.000000 0.000000 0.000000
# 3 -0.000867 -0.002295 0.008563 0.000000 0.000000 0.000000
# 4 0.000000 0.000000 0.000000 -0.060435 0.000000 0.000000
# 5 0.000000 0.000000 0.000000 0.000000 0.028419 0.000000
# 6 0.000000 0.000000 0.000000 0.000000 0.000000 0.024357
#
#
# Mechanical properties :
#
#
# Convention : Reuss Voigt Hill
#
# Bulk Modulus (GPa) = 91.48321 96.56756 94.02539
# Shear Modulus (GPa) = 184.39791 35.83673 110.11732
#
# Velocity S-wave (km/s) = 8.67333 3.82360 6.70248
# Velocity P-wave (km/s) = 11.73130 7.67390 9.91242
#
# Compressibility (1/GPa) = 0.01093097
#
# Stress axis : x y z
#
# Youngs Moduli (GPa) = 161.08645 159.76381 116.77929
#
# Poissons Ratio (x) = 0.30163 0.10126
# Poissons Ratio (y) = 0.30413 0.26796
# Poissons Ratio (z) = 0.13968 0.36659
#
# Static dielectric constant tensor:
#      x y z
#    x 4.892060 0.000000 0.000000 
#    y 0.000000 4.289030 0.000000 
#    z 0.000000 0.000000 4.264480 
# 
# 
# High freq. dielectric constant tensor:
#      x y z
#    x 2.007730 0.000000 0.000000 
#    y 0.000000 1.972530 0.000000 
#    z 0.000000 0.000000 1.969860 
# 
# From -- ./inp_files/7917.got.cif
#   From: 2010.03.12/outbox.cif.g09.slc.cpg/sg22_4_cif.got.tgz:7917.got - 2010.04.14 02:24:06.
