data_PCOD8163596
_publ_section_title
;
Structure prediction by ZEFSAII (Michael W. Deem and Ramdas Pophale) SiO2 
 PCOD8163596
Probable space group: I 2 2 2
;
_chemical_formula_sum "Si O2"
_cell_formula_units_Z 56
_cell_length_a 8.301251
_cell_length_b 14.810143
_cell_length_c 21.487777
_cell_angle_alpha 90.000000
_cell_angle_beta 90.000000
_cell_angle_gamma 90.000000
_cell_volume 2641.765631
_symmetry_space_group_name_H-M "I 2 2 2"
_symmetry_group_IT_number 23
_symmetry_cell_setting 'orthorhombic'
loop_
_space_group_symop_operation_xyz
x,y,z
-x,-y,z
x,-y,-z
-x,y,-z
1/2+x,1/2+y,1/2+z
1/2-x,1/2-y,1/2+z
1/2+x,1/2-y,1/2-z
1/2-x,1/2+y,1/2-z
loop_
_atom_site_type_symbol
_atom_site_label
_atom_site_fract_x
_atom_site_fract_y
_atom_site_fract_z
Si Si1 0.807763 0.607125 0.895137
Si Si2 0.314596 0.870960 0.248938
Si Si3 0.692272 0.222682 0.492025
Si Si4 0.185244 0.677306 0.236393
Si Si5 0.310812 0.090631 0.611688
Si Si6 0.827690 0.965897 0.178537
Si Si7 0.326210 0.580989 0.466528
O O1 0.747919 0.635919 0.827492
O O2 0.747506 0.506561 0.911956
O O3 0.999311 0.602526 0.894164
O O4 0.737359 0.678370 0.945037
O O5 0.207634 0.784646 0.231057
O O6 0.500266 0.843901 0.250101
O O7 0.255180 0.900324 0.317173
O O8 0.294489 0.953802 0.199791
O O9 0.500000 0.221602 0.500000
O O10 0.761633 0.166761 0.433372
O O11 0.759313 0.323463 0.480123
O O12 0.288819 0.630493 0.290507
O O13 0.832897 0.944611 0.105630
O O14 0.000000 0.000000 0.201684
O O15 0.227143 0.500000 0.500000
O O16 0.500000 0.585648 0.500000
#
# Coordination Sequence:
#
# PCOD8163596 Si02
#       7
#     8   8   8   8   8   8   8
#     4   9  17  30  53  82 121 150 195 251 316 372
#     4  11  23  38  62  88 132 171 211 271 327 393
#     4   9  17  27  52  80 116 156 196 255 313 366
#     4  11  23  40  59  94 129 167 215 266 326 396
#     4   9  16  32  50  84 117 154 191 252 315 373
#     4  12  23  39  65  93 124 171 214 269 335 383
#     4  10  20  36  54  88 123 156 210 270 312 376
#
# _framework density 21.197944
#
# number of rings (size 3 to 8) (size 9 to 14) (size 15 to 20)
#    0.000    1.857    2.857    2.571    2.000    4.000 
#    0.000    0.000    0.000    1.714    0.000    4.000 
#    0.000    0.000    0.000    0.000    0.000    0.000 
#
# Total GULP energy -346992.645231 kJ/mol
# GULP energy per Si atom -12392.594473 kJ/mol
# Density = 2.114970 g / cm^3
# Si number density = 21.197944 Si / 1000 Ang^3
#
#
#
# Elastic Constant Matrix: (Units=GPa)
#
#
# Indices 1 2 3 4 5 6 
#
# 1 29.2240 9.8894 19.2344 0.0000 0.0000 0.0000
# 2 9.8894 190.2091 80.5100 0.0000 0.0000 0.0000
# 3 19.2344 80.5100 166.1693 0.0000 0.0000 0.0000
# 4 0.0000 0.0000 0.0000 40.1677 0.0000 0.0000
# 5 0.0000 0.0000 0.0000 0.0000 20.5720 0.0000
# 6 0.0000 0.0000 0.0000 0.0000 0.0000 22.7499
#
#
#
# Elastic Compliance Matrix: (Units=1/GPa)
#
#
# Indices 1 2 3 4 5 6 
#
# 1 0.037043 -0.000140 -0.004220 0.000000 0.000000 0.000000
# 2 -0.000140 0.006614 -0.003188 0.000000 0.000000 0.000000
# 3 -0.004220 -0.003188 0.008051 0.000000 0.000000 0.000000
# 4 0.000000 0.000000 0.000000 0.024896 0.000000 0.000000
# 5 0.000000 0.000000 0.000000 0.000000 0.048610 0.000000
# 6 0.000000 0.000000 0.000000 0.000000 0.000000 0.043956
#
#
# Mechanical properties :
#
#
# Convention : Reuss Voigt Hill
#
# Bulk Modulus (GPa) = 27.31329 67.20777 47.26053
# Shear Modulus (GPa) = 25.44903 35.09582 30.27242
#
# Velocity S-wave (km/s) = 3.46864 4.07335 3.78310
# Velocity P-wave (km/s) = 5.38097 7.34143 6.43628
#
# Compressibility (1/GPa) = 0.03661222
#
# Stress axis : x y z
#
# Youngs Moduli (GPa) = 26.99540 151.18956 124.20394
#
# Poissons Ratio (x) = 0.02112 0.52416
# Poissons Ratio (y) = 0.00377 0.39602
# Poissons Ratio (z) = 0.11392 0.48206
#
# Static dielectric constant tensor:
#      x y z
#    x 3.210000 0.000000 0.000000 
#    y 0.000000 4.522050 0.000000 
#    z 0.000000 0.000000 3.991000 
# 
# 
# High freq. dielectric constant tensor:
#      x y z
#    x 1.766940 0.000000 0.000000 
#    y 0.000000 1.857970 0.000000 
#    z 0.000000 0.000000 1.841310 
# 
# From -- ./inp_files/26273.got.cif
#   From: 2010.03.12/outbox.cif.g09.slc.cpg/sg23_14_cif.got.tgz:26273.got - 2010.04.14 02:50:06.
