data_PCOD8163238
_publ_section_title
;
Structure prediction by ZEFSAII (Michael W. Deem and Ramdas Pophale) SiO2 
 PCOD8163238
Probable space group: I 2 2 2
;
_chemical_formula_sum "Si O2"
_cell_formula_units_Z 44
_cell_length_a 11.379863
_cell_length_b 11.379814
_cell_length_c 16.291919
_cell_angle_alpha 90.000000
_cell_angle_beta 90.000000
_cell_angle_gamma 90.000000
_cell_volume 2109.815311
_symmetry_space_group_name_H-M "I 2 2 2"
_symmetry_group_IT_number 23
_symmetry_cell_setting 'orthorhombic'
loop_
_space_group_symop_operation_xyz
x,y,z
-x,-y,z
x,-y,-z
-x,y,-z
1/2+x,1/2+y,1/2+z
1/2-x,1/2-y,1/2+z
1/2+x,1/2-y,1/2-z
1/2-x,1/2+y,1/2-z
loop_
_atom_site_type_symbol
_atom_site_label
_atom_site_fract_x
_atom_site_fract_y
_atom_site_fract_z
Si Si1 0.736967 0.500000 0.500000
Si Si2 0.693553 0.674262 0.866014
Si Si3 0.392165 0.921863 0.731876
Si Si4 0.558428 0.674398 0.197999
Si Si5 0.218969 0.073205 0.827676
Si Si6 0.630502 0.763549 0.030088
O O1 0.664367 0.541571 0.418434
O O2 0.812450 0.608676 0.532887
O O3 0.800151 0.588909 0.842746
O O4 0.570635 0.628105 0.827426
O O5 0.714692 0.803011 0.828908
O O6 0.692120 0.677465 0.964517
O O7 0.449389 0.798314 0.755875
O O8 0.500000 0.000000 0.701129
O O9 0.319932 0.978069 0.807429
O O10 0.617093 0.578079 0.258629
O O11 0.637302 0.695387 0.116597
O O12 0.500000 0.787859 0.000000
#
# Coordination Sequence:
#
# PCOD8163238 Si02
#       6
#     4   8   8   8   8   8
#     4  10  17  30  52  91 120 152 205 249 310 362
#     4   9  20  34  55  89 118 154 199 254 302 356
#     4  11  20  35  57  85 119 161 199 238 307 373
#     4  10  19  35  57  89 123 152 200 257 306 359
#     4  10  20  32  56  88 117 161 195 251 303 365
#     4   9  17  30  56  88 119 148 195 262 308 345
#
# _framework density 20.854906
#
# number of rings (size 3 to 8) (size 9 to 14) (size 15 to 20)
#    0.000    2.182    3.636    0.273    0.000    0.727 
#    0.000    0.909    0.000    7.636    0.000    0.000 
#    0.000    0.000    0.000    0.000    0.000    0.000 
#
# Total GULP energy -272644.067460 kJ/mol
# GULP energy per Si atom -12392.912157 kJ/mol
# Density = 2.080744 g / cm^3
# Si number density = 20.854906 Si / 1000 Ang^3
#
#
#
# Elastic Constant Matrix: (Units=GPa)
#
#
# Indices 1 2 3 4 5 6 
#
# 1 95.7733 32.1860 68.2129 0.0000 0.0000 0.0000
# 2 32.1860 44.2592 39.4729 0.0000 0.0000 0.0000
# 3 68.2129 39.4729 167.5090 0.0000 0.0000 0.0000
# 4 0.0000 0.0000 0.0000 31.0211 0.0000 0.0000
# 5 0.0000 0.0000 0.0000 0.0000 28.6562 0.0000
# 6 0.0000 0.0000 0.0000 0.0000 0.0000 32.8133
#
#
#
# Elastic Compliance Matrix: (Units=1/GPa)
#
#
# Indices 1 2 3 4 5 6 
#
# 1 0.016510 -0.007609 -0.004930 0.000000 0.000000 0.000000
# 2 -0.007609 0.032113 -0.004469 0.000000 0.000000 0.000000
# 3 -0.004930 -0.004469 0.009030 0.000000 0.000000 0.000000
# 4 0.000000 0.000000 0.000000 0.032236 0.000000 0.000000
# 5 0.000000 0.000000 0.000000 0.000000 0.034896 0.000000
# 6 0.000000 0.000000 0.000000 0.000000 0.000000 0.030475
#
#
# Mechanical properties :
#
#
# Convention : Reuss Voigt Hill
#
# Bulk Modulus (GPa) = 42.30574 65.25387 53.77981
# Shear Modulus (GPa) = 25.36052 29.67611 27.51832
#
# Velocity S-wave (km/s) = 3.49097 3.77633 3.63645
# Velocity P-wave (km/s) = 6.04805 7.09730 6.59358
#
# Compressibility (1/GPa) = 0.02363745
#
# Stress axis : x y z
#
# Youngs Moduli (GPa) = 60.56985 31.13977 110.73632
#
# Poissons Ratio (x) = 0.23695 0.54593
# Poissons Ratio (y) = 0.46090 0.49485
# Poissons Ratio (z) = 0.29861 0.13915
#
# Static dielectric constant tensor:
#      x y z
#    x 3.601700 0.000000 0.000000 
#    y 0.000000 3.651740 0.000000 
#    z 0.000000 0.000000 4.059270 
# 
# 
# High freq. dielectric constant tensor:
#      x y z
#    x 1.786700 0.000000 0.000000 
#    y 0.000000 1.815190 0.000000 
#    z 0.000000 0.000000 1.819560 
# 
# From -- ./inp_files/20796.got.cif
#   From: 2010.03.12/outbox.cif.g09.slc.cpg/sg23_11_cif.got.tgz:20796.got - 2010.04.14 02:50:06.
