data_PCOD8163009
_publ_section_title
;
Structure prediction by ZEFSAII (Michael W. Deem and Ramdas Pophale) SiO2 
 PCOD8163009
Probable space group: F 2 2 2
;
_chemical_formula_sum "Si O2"
_cell_formula_units_Z 80
_cell_length_a 11.738924
_cell_length_b 16.586251
_cell_length_c 17.682987
_cell_angle_alpha 90.000000
_cell_angle_beta 90.000000
_cell_angle_gamma 90.000000
_cell_volume 3442.961385
_symmetry_space_group_name_H-M "F 2 2 2"
_symmetry_group_IT_number 22
_symmetry_cell_setting 'orthorhombic'
loop_
_space_group_symop_operation_xyz
x,y,z
-x,-y,z
x,-y,-z
-x,y,-z
x,1/2+y,1/2+z
-x,1/2-y,1/2+z
x,1/2-y,1/2-z
-x,1/2+y,1/2-z
1/2+x,y,1/2+z
1/2-x,-y,1/2+z
1/2+x,-y,1/2-z
1/2-x,y,1/2-z
1/2+x,1/2+y,z
1/2-x,1/2-y,z
1/2+x,1/2-y,-z
1/2-x,1/2+y,-z
loop_
_atom_site_type_symbol
_atom_site_label
_atom_site_fract_x
_atom_site_fract_y
_atom_site_fract_z
Si Si1 0.807847 0.628674 0.331548
Si Si2 0.550854 0.414593 0.376684
Si Si3 0.000000 0.210898 0.500000
Si Si4 0.961060 0.665086 0.720904
Si Si5 0.710157 0.551570 0.835661
Si Si6 0.750000 0.750000 0.049389
O O1 0.750000 0.630416 0.250000
O O2 0.834771 0.537077 0.358117
O O3 0.735036 0.671131 0.397096
O O4 0.922752 0.680977 0.323776
O O5 0.500000 0.500000 0.400946
O O6 0.501211 0.343224 0.425767
O O7 0.517455 0.396582 0.289871
O O8 0.686419 0.421279 0.389176
O O9 0.873904 0.257232 0.503762
O O10 0.908610 0.750000 0.750000
O O11 0.882368 0.622431 0.657932
O O12 0.750000 0.548786 0.750000
#
# Coordination Sequence:
#
# PCOD8163009 Si02
#       6
#    16  16   8  16  16   8
#     4  11  20  38  65  95 125 159 209 272 328 376
#     4  11  22  40  63  90 124 167 213 259 314 384
#     4  12  27  44  64  90 129 172 218 262 311 386
#     4  11  21  35  61  97 132 164 203 261 328 388
#     4   9  20  35  60  94 129 163 205 261 324 387
#     4  12  27  44  64  92 125 170 218 268 324 386
#
# _framework density 23.235811999999999
#
# number of rings (size 3 to 8) (size 9 to 14) (size 15 to 20)
#    0.000    1.200    0.000    9.600    0.000    6.800 
#    0.000    0.000    0.000    0.000    0.000    0.000 
#    0.000    0.000    0.000    0.000    0.000    0.000 
#
# Total GULP energy -247812.080201 kJ/mol
# GULP energy per Si atom -12390.604010 kJ/mol
# Density = 2.318293 g / cm^3
# Si number density = 23.235812 Si / 1000 Ang^3
#
#
#
# Elastic Constant Matrix: (Units=GPa)
#
#
# Indices 1 2 3 4 5 6 
#
# 1 161.1692 43.7650 27.7128 0.0000 0.0000 0.0000
# 2 43.7650 121.2591 4.1784 0.0000 0.0000 0.0000
# 3 27.7128 4.1784 38.5792 0.0000 0.0000 0.0000
# 4 0.0000 0.0000 0.0000 4.5566 0.0000 0.0000
# 5 0.0000 0.0000 0.0000 0.0000 24.2224 0.0000
# 6 0.0000 0.0000 0.0000 0.0000 0.0000 36.8507
#
#
#
# Elastic Compliance Matrix: (Units=1/GPa)
#
#
# Indices 1 2 3 4 5 6 
#
# 1 0.007843 -0.002646 -0.005347 0.000000 0.000000 0.000000
# 2 -0.002646 0.009171 0.000908 0.000000 0.000000 0.000000
# 3 -0.005347 0.000908 0.029663 0.000000 0.000000 0.000000
# 4 0.000000 0.000000 0.000000 0.219460 0.000000 0.000000
# 5 0.000000 0.000000 0.000000 0.000000 0.041284 0.000000
# 6 0.000000 0.000000 0.000000 0.000000 0.000000 0.027137
#
#
# Mechanical properties :
#
#
# Convention : Reuss Voigt Hill
#
# Bulk Modulus (GPa) = 30.76416 52.47999 41.62208
# Shear Modulus (GPa) = 13.90574 29.48271 21.69422
#
# Velocity S-wave (km/s) = 2.44900 3.56595 3.05889
# Velocity P-wave (km/s) = 4.61146 6.29202 5.51612
#
# Compressibility (1/GPa) = 0.03250535
#
# Stress axis : x y z
#
# Youngs Moduli (GPa) = 127.50733 109.04360 33.71158
#
# Poissons Ratio (x) = 0.28857 0.18026
# Poissons Ratio (y) = 0.33743 -0.03060
# Poissons Ratio (z) = 0.68179 -0.09898
#
# Static dielectric constant tensor:
#      x y z
#    x 7.226500 0.000000 0.000000 
#    y 0.000000 4.291350 0.000000 
#    z 0.000000 0.000000 3.781280 
# 
# 
# High freq. dielectric constant tensor:
#      x y z
#    x 1.933040 0.000000 0.000000 
#    y 0.000000 1.921140 0.000000 
#    z 0.000000 0.000000 1.876520 
# 
# From -- ./inp_files/22531.got.cif
#   From: 2010.03.12/outbox.cif.g09.slc.cpg/sg22_12_cif.got.tgz:22531.got - 2010.04.14 02:24:06.
