data_PCOD8163704
_publ_section_title
;
Structure prediction by ZEFSAII (Michael W. Deem and Ramdas Pophale) SiO2 
 PCOD8163704
Probable space group: I 2 2 2
;
_chemical_formula_sum "Si O2"
_cell_formula_units_Z 48
_cell_length_a 19.898390
_cell_length_b 8.765491
_cell_length_c 12.994891
_cell_angle_alpha 90.000000
_cell_angle_beta 90.000000
_cell_angle_gamma 90.000000
_cell_volume 2266.557952
_symmetry_space_group_name_H-M "I 2 2 2"
_symmetry_group_IT_number 23
_symmetry_cell_setting 'orthorhombic'
loop_
_space_group_symop_operation_xyz
x,y,z
-x,-y,z
x,-y,-z
-x,y,-z
1/2+x,1/2+y,1/2+z
1/2-x,1/2-y,1/2+z
1/2+x,1/2-y,1/2-z
1/2-x,1/2+y,1/2-z
loop_
_atom_site_type_symbol
_atom_site_label
_atom_site_fract_x
_atom_site_fract_y
_atom_site_fract_z
Si Si1 0.792646 0.460116 0.310352
Si Si2 0.599640 0.861606 0.936317
Si Si3 0.855776 0.076447 0.890234
Si Si4 0.164474 0.839237 0.400896
Si Si5 0.189764 0.402784 0.087932
Si Si6 0.931148 0.081654 0.689580
O O1 0.833122 0.563968 0.390745
O O2 0.714821 0.479355 0.341478
O O3 0.819428 0.285519 0.311431
O O4 0.804969 0.512537 0.195689
O O5 0.562676 0.762231 0.845712
O O6 0.613770 0.731162 0.018050
O O7 0.560821 0.000000 0.000000
O O8 0.855392 0.255892 0.904007
O O9 0.917464 0.054891 0.810956
O O10 0.871187 0.000000 0.000000
O O11 0.235651 0.868667 0.454978
O O12 0.131972 0.997400 0.364064
O O13 0.152736 0.500000 0.000000
O O14 0.000000 0.000000 0.659215
#
# Coordination Sequence:
#
# PCOD8163704 Si02
#       6
#     8   8   8   8   8   8
#     4  10  20  39  63  96 129 164 202 268 336 390
#     4  10  21  42  65  93 130 160 209 262 328 391
#     4  11  24  39  64  94 130 169 212 265 325 391
#     4  10  22  35  62  93 127 161 201 263 324 391
#     4  11  21  34  64  96 127 158 207 263 340 393
#     4  12  25  42  63  92 127 173 221 262 317 379
#
# _framework density 21.177488
#
# number of rings (size 3 to 8) (size 9 to 14) (size 15 to 20)
#    0.000    1.333    3.333    4.000    2.333    1.667 
#    0.000    5.833    0.000    0.000    0.000    0.000 
#    0.000    0.000    0.000    0.000    0.000    0.000 
#
# Total GULP energy -297318.232211 kJ/mol
# GULP energy per Si atom -12388.259675 kJ/mol
# Density = 2.112929 g / cm^3
# Si number density = 21.177488 Si / 1000 Ang^3
#
#
#
# Elastic Constant Matrix: (Units=GPa)
#
#
# Indices 1 2 3 4 5 6 
#
# 1 50.9245 14.9271 -1.9688 0.0000 0.0000 0.0000
# 2 14.9271 122.5076 44.3534 0.0000 0.0000 0.0000
# 3 -1.9688 44.3534 118.7642 0.0000 0.0000 0.0000
# 4 0.0000 0.0000 0.0000 43.3966 0.0000 0.0000
# 5 0.0000 0.0000 0.0000 0.0000 5.5251 0.0000
# 6 0.0000 0.0000 0.0000 0.0000 0.0000 11.9136
#
#
#
# Elastic Compliance Matrix: (Units=1/GPa)
#
#
# Indices 1 2 3 4 5 6 
#
# 1 0.020586 -0.003043 0.001478 0.000000 0.000000 0.000000
# 2 -0.003043 0.009889 -0.003744 0.000000 0.000000 0.000000
# 3 0.001478 -0.003744 0.009843 0.000000 0.000000 0.000000
# 4 0.000000 0.000000 0.000000 0.023043 0.000000 0.000000
# 5 0.000000 0.000000 0.000000 0.000000 0.180991 0.000000
# 6 0.000000 0.000000 0.000000 0.000000 0.000000 0.083938
#
#
# Mechanical properties :
#
#
# Convention : Reuss Voigt Hill
#
# Bulk Modulus (GPa) = 33.67062 45.20218 39.43640
# Shear Modulus (GPa) = 14.33454 27.82603 21.08028
#
# Velocity S-wave (km/s) = 2.60451 3.62877 3.15843
# Velocity P-wave (km/s) = 4.99784 6.24084 5.65360
#
# Compressibility (1/GPa) = 0.02969948
#
# Stress axis : x y z
#
# Youngs Moduli (GPa) = 48.57640 101.12331 101.59912
#
# Poissons Ratio (x) = 0.30776 -0.15015
# Poissons Ratio (y) = 0.14784 0.38034
# Poissons Ratio (z) = -0.07179 0.37856
#
# Static dielectric constant tensor:
#      x y z
#    x 3.394390 0.000000 0.000000 
#    y 0.000000 4.347680 0.000000 
#    z 0.000000 0.000000 3.874800 
# 
# 
# High freq. dielectric constant tensor:
#      x y z
#    x 1.784000 0.000000 0.000000 
#    y 0.000000 1.851200 0.000000 
#    z 0.000000 0.000000 1.836820 
# 
# From -- ./inp_files/18287.got.cif
#   From: 2010.03.12/outbox.cif.g09.slc.cpg/sg23_10_cif.got.tgz:18287.got - 2010.04.14 02:50:06.
