data_PCOD8163498
_publ_section_title
;
Structure prediction by ZEFSAII (Michael W. Deem and Ramdas Pophale) SiO2 
 PCOD8163498
Probable space group: I 2 2 2
;
_chemical_formula_sum "Si O2"
_cell_formula_units_Z 36
_cell_length_a 8.199008
_cell_length_b 17.759985
_cell_length_c 10.994264
_cell_angle_alpha 90.000000
_cell_angle_beta 90.000000
_cell_angle_gamma 90.000000
_cell_volume 1600.921607
_symmetry_space_group_name_H-M "I 2 2 2"
_symmetry_group_IT_number 23
_symmetry_cell_setting 'orthorhombic'
loop_
_space_group_symop_operation_xyz
x,y,z
-x,-y,z
x,-y,-z
-x,y,-z
1/2+x,1/2+y,1/2+z
1/2-x,1/2-y,1/2+z
1/2+x,1/2-y,1/2-z
1/2-x,1/2+y,1/2-z
loop_
_atom_site_type_symbol
_atom_site_label
_atom_site_fract_x
_atom_site_fract_y
_atom_site_fract_z
Si Si1 0.196562 0.558738 0.099873
Si Si2 0.028100 0.664911 0.635286
Si Si3 0.000000 0.500000 0.305786
Si Si4 0.000000 0.690065 0.000000
Si Si5 0.500000 0.628830 0.000000
Si Si6 0.768422 0.772855 0.671592
O O1 0.161669 0.517905 0.227323
O O2 0.092541 0.635664 0.094747
O O3 0.135327 0.500000 0.000000
O O4 0.386212 0.576659 0.083281
O O5 0.037221 0.574920 0.617652
O O6 0.866210 0.696364 0.705959
O O7 0.000000 0.699880 0.500000
O O8 0.193521 0.693729 0.702125
O O9 0.880292 0.743147 0.078276
O O10 0.394263 0.672083 0.897786
#
# Coordination Sequence:
#
# PCOD8163498 Si02
#       6
#     8   8   4   4   4   8
#     4  11  18  36  66 107 140 178 234 302 373 413
#     4  12  28  46  71 104 142 195 238 293 370 444
#     4  12  22  42  68  96 150 193 229 278 366 458
#     4  10  19  40  68 104 133 178 244 310 352 397
#     4  10  23  40  70 111 142 178 250 316 358 415
#     4  11  25  44  73 106 143 185 251 310 360 427
#
# _framework density 22.487047
#
# number of rings (size 3 to 8) (size 9 to 14) (size 15 to 20)
#    0.000    0.889    5.556    2.000    6.222    0.000 
#    0.000    0.000    0.000    0.000    0.000    0.000 
#    0.000    0.000    0.000    0.000    0.000    0.000 
#
# Total GULP energy -222997.304781 kJ/mol
# GULP energy per Si atom -12388.739155 kJ/mol
# Density = 2.243587 g / cm^3
# Si number density = 22.487047 Si / 1000 Ang^3
#
#
#
# Elastic Constant Matrix: (Units=GPa)
#
#
# Indices 1 2 3 4 5 6 
#
# 1 147.7422 47.0464 47.5771 0.0000 0.0000 0.0000
# 2 47.0464 104.0328 27.6330 0.0000 0.0000 0.0000
# 3 47.5771 27.6330 115.9824 0.0000 0.0001 0.0001
# 4 0.0000 0.0000 0.0000 31.1000 0.0000 0.0000
# 5 0.0000 0.0000 0.0001 0.0000 40.7144 0.0000
# 6 0.0000 0.0000 0.0001 0.0000 0.0000 26.3064
#
#
#
# Elastic Compliance Matrix: (Units=1/GPa)
#
#
# Indices 1 2 3 4 5 6 
#
# 1 0.008685 -0.003183 -0.002804 0.000000 0.000000 0.000000
# 2 -0.003183 0.011428 -0.001417 0.000000 0.000000 0.000000
# 3 -0.002804 -0.001417 0.010110 0.000000 0.000000 0.000000
# 4 0.000000 0.000000 0.000000 0.032154 0.000000 0.000000
# 5 0.000000 0.000000 0.000000 0.000000 0.024561 0.000000
# 6 0.000000 0.000000 0.000000 0.000000 0.000000 0.038014
#
#
# Mechanical properties :
#
#
# Convention : Reuss Voigt Hill
#
# Bulk Modulus (GPa) = 64.87362 68.03006 66.45184
# Shear Modulus (GPa) = 34.50668 35.99088 35.24878
#
# Velocity S-wave (km/s) = 3.92154 4.00499 3.96348
# Velocity P-wave (km/s) = 7.02969 7.19063 7.11062
#
# Compressibility (1/GPa) = 0.01541459
#
# Stress axis : x y z
#
# Youngs Moduli (GPa) = 115.13894 87.50355 98.91148
#
# Poissons Ratio (x) = 0.27850 0.27739
# Poissons Ratio (y) = 0.36646 0.14017
# Poissons Ratio (z) = 0.32290 0.12401
#
# Static dielectric constant tensor:
#      x y z
#    x 4.274260 0.000000 0.000000 
#    y 0.000000 4.197070 0.000000 
#    z 0.000000 0.000000 3.929670 
# 
# 
# High freq. dielectric constant tensor:
#      x y z
#    x 1.885620 0.000000 0.000000 
#    y 0.000000 1.879660 0.000000 
#    z 0.000000 0.000000 1.881340 
# 
# From -- ./inp_files/14583.got.cif
#   From: 2010.03.12/outbox.cif.g09.slc.cpg/sg23_8_cif.got.tgz:14583.got - 2010.04.14 02:50:06.
