data_PCOD8163909
_publ_section_title
;
Structure prediction by ZEFSAII (Michael W. Deem and Ramdas Pophale) SiO2 
 PCOD8163909
Probable space group: I 2 2 2
;
_chemical_formula_sum "Si O2"
_cell_formula_units_Z 56
_cell_length_a 15.299358
_cell_length_b 15.311039
_cell_length_c 11.685506
_cell_angle_alpha 90.000000
_cell_angle_beta 90.000000
_cell_angle_gamma 90.000000
_cell_volume 2737.318878
_symmetry_space_group_name_H-M "I 2 2 2"
_symmetry_group_IT_number 23
_symmetry_cell_setting 'orthorhombic'
loop_
_space_group_symop_operation_xyz
x,y,z
-x,-y,z
x,-y,-z
-x,y,-z
1/2+x,1/2+y,1/2+z
1/2-x,1/2-y,1/2+z
1/2+x,1/2-y,1/2-z
1/2-x,1/2+y,1/2-z
loop_
_atom_site_type_symbol
_atom_site_label
_atom_site_fract_x
_atom_site_fract_y
_atom_site_fract_z
Si Si1 0.077538 0.548390 0.880064
Si Si2 0.425242 0.207002 0.911163
Si Si3 0.731438 0.518680 0.176869
Si Si4 0.770158 0.423720 0.586675
Si Si5 0.295686 0.358018 0.975361
Si Si6 0.517067 0.763502 0.660709
Si Si7 0.356014 0.275080 0.483498
O O1 0.165888 0.537850 0.812069
O O2 0.044756 0.646044 0.898819
O O3 0.000000 0.500000 0.809691
O O4 0.092099 0.500000 0.000000
O O5 0.360221 0.127239 0.880922
O O6 0.373569 0.289766 0.961399
O O7 0.474087 0.237482 0.796370
O O8 0.500000 0.177286 0.000000
O O9 0.709966 0.538222 0.309122
O O10 0.709462 0.420300 0.137006
O O11 0.684747 0.585393 0.089225
O O12 0.796371 0.500000 0.500000
O O13 0.707862 0.355988 0.524761
O O14 0.201831 0.313021 0.993067
O O15 0.588044 0.701662 0.597546
O O16 0.418627 0.736076 0.627579
#
# Coordination Sequence:
#
# PCOD8163909 Si02
#       7
#     8   8   8   8   8   8   8
#     4  11  18  30  60  96 124 149 205 272 316 360
#     4  11  26  44  64  95 133 172 210 260 335 398
#     4  11  20  40  62  95 121 165 216 263 313 374
#     4  11  26  43  63  94 132 173 208 259 329 400
#     4  10  21  40  69  92 123 167 219 267 309 378
#     4  11  21  40  62  96 124 167 215 267 312 375
#     4  10  21  40  67  91 125 168 219 260 315 370
#
# _framework density 20.457975000000001
#
# number of rings (size 3 to 8) (size 9 to 14) (size 15 to 20)
#    0.000    1.286    4.286    2.571    4.000    2.571 
#    0.000    2.857    0.000    0.000    0.000    0.000 
#    0.000    0.000    0.000    0.000    0.000    0.000 
#
# Total GULP energy -347021.697314 kJ/mol
# GULP energy per Si atom -12393.632047 kJ/mol
# Density = 2.041141 g / cm^3
# Si number density = 20.457975 Si / 1000 Ang^3
#
#
#
# Elastic Constant Matrix: (Units=GPa)
#
#
# Indices 1 2 3 4 5 6 
#
# 1 65.6398 13.5447 10.9168 0.0000 0.0000 0.0000
# 2 13.5447 76.2806 14.3521 0.0000 0.0000 0.0000
# 3 10.9168 14.3521 114.6477 0.0000 0.0000 0.0000
# 4 0.0000 0.0000 0.0000 20.9043 0.0000 0.0000
# 5 0.0000 0.0000 0.0000 0.0000 24.0983 0.0000
# 6 0.0000 0.0000 0.0000 0.0000 0.0000 15.3922
#
#
#
# Elastic Compliance Matrix: (Units=1/GPa)
#
#
# Indices 1 2 3 4 5 6 
#
# 1 0.015972 -0.002611 -0.001194 0.000000 0.000000 0.000000
# 2 -0.002611 0.013853 -0.001485 0.000000 0.000000 0.000000
# 3 -0.001194 -0.001485 0.009022 0.000000 0.000000 0.000000
# 4 0.000000 0.000000 0.000000 0.047837 0.000000 0.000000
# 5 0.000000 0.000000 0.000000 0.000000 0.041497 0.000000
# 6 0.000000 0.000000 0.000000 0.000000 0.000000 0.064968
#
#
# Mechanical properties :
#
#
# Convention : Reuss Voigt Hill
#
# Bulk Modulus (GPa) = 35.37937 37.13281 36.25609
# Shear Modulus (GPa) = 23.45744 26.59592 25.02668
#
# Velocity S-wave (km/s) = 3.38985 3.60950 3.50140
# Velocity P-wave (km/s) = 5.71425 5.96335 5.84013
#
# Compressibility (1/GPa) = 0.02826506
#
# Stress axis : x y z
#
# Youngs Moduli (GPa) = 62.60914 72.18814 110.83993
#
# Poissons Ratio (x) = 0.18852 0.13234
# Poissons Ratio (y) = 0.16350 0.16465
# Poissons Ratio (z) = 0.07475 0.10723
#
# Static dielectric constant tensor:
#      x y z
#    x 3.796310 0.000000 0.000000 
#    y 0.000000 3.661390 0.000000 
#    z 0.000000 0.000000 3.666050 
# 
# 
# High freq. dielectric constant tensor:
#      x y z
#    x 1.794930 0.000000 0.000000 
#    y 0.000000 1.796260 0.000000 
#    z 0.000000 0.000000 1.794010 
# 
# From -- ./inp_files/16776.got.cif
#   From: 2010.03.12/outbox.cif.g09.slc.cpg/sg23_9_cif.got.tgz:16776.got - 2010.04.14 02:50:06.
