data_PCOD8163910
_publ_section_title
;
Structure prediction by ZEFSAII (Michael W. Deem and Ramdas Pophale) SiO2 
 PCOD8163910
Probable space group: I 2 2 2
;
_chemical_formula_sum "Si O2"
_cell_formula_units_Z 48
_cell_length_a 12.475381
_cell_length_b 13.242039
_cell_length_c 13.802784
_cell_angle_alpha 90.000000
_cell_angle_beta 90.000000
_cell_angle_gamma 90.000000
_cell_volume 2280.212763
_symmetry_space_group_name_H-M "I 2 2 2"
_symmetry_group_IT_number 23
_symmetry_cell_setting 'orthorhombic'
loop_
_space_group_symop_operation_xyz
x,y,z
-x,-y,z
x,-y,-z
-x,y,-z
1/2+x,1/2+y,1/2+z
1/2-x,1/2-y,1/2+z
1/2+x,1/2-y,1/2-z
1/2-x,1/2+y,1/2-z
loop_
_atom_site_type_symbol
_atom_site_label
_atom_site_fract_x
_atom_site_fract_y
_atom_site_fract_z
Si Si1 0.986559 0.215543 0.349814
Si Si2 0.404510 0.203005 0.432786
Si Si3 0.427490 0.089349 0.245310
Si Si4 0.712830 0.040035 0.101103
Si Si5 0.332626 0.750880 0.019867
Si Si6 0.066926 0.095556 0.829490
O O1 0.003338 0.320324 0.291934
O O2 0.880333 0.237411 0.413278
O O3 0.966007 0.121562 0.279799
O O4 0.092824 0.183342 0.409141
O O5 0.500000 0.155498 0.500000
O O6 0.369508 0.132325 0.341808
O O7 0.291777 0.219590 0.488018
O O8 0.454337 0.309638 0.399194
O O9 0.500000 0.000000 0.285016
O O10 0.353873 0.045637 0.158217
O O11 0.646131 0.137817 0.065907
O O12 0.807507 0.070865 0.172848
O O13 0.762006 0.000000 0.000000
O O14 0.000000 0.000000 0.867681
#
# Coordination Sequence:
#
# PCOD8163910 Si02
#       6
#     8   8   8   8   8   8
#     4  10  21  41  64  95 126 167 210 266 315 383
#     4  10  25  43  62  94 128 173 210 264 325 383
#     4  11  22  39  65  95 128 161 213 270 320 377
#     4  11  22  37  66  98 125 162 212 271 323 378
#     4  10  21  40  67  91 127 165 212 263 324 377
#     4  10  25  40  62  92 128 169 213 257 317 383
#
# _framework density 21.050667000000001
#
# number of rings (size 3 to 8) (size 9 to 14) (size 15 to 20)
#    0.000    1.667    3.333    0.000    7.000    2.000 
#    6.000    1.667    0.000    0.000    0.000    0.000 
#    0.000    0.000    0.000    0.000    0.000    0.000 
#
# Total GULP energy -297372.592347 kJ/mol
# GULP energy per Si atom -12390.524681 kJ/mol
# Density = 2.100276 g / cm^3
# Si number density = 21.050667 Si / 1000 Ang^3
#
#
#
# Elastic Constant Matrix: (Units=GPa)
#
#
# Indices 1 2 3 4 5 6 
#
# 1 95.7415 18.5581 36.0496 0.0000 0.0000 0.0000
# 2 18.5581 64.9234 24.8515 0.0000 0.0000 0.0000
# 3 36.0496 24.8515 79.4966 0.0000 0.0000 0.0000
# 4 0.0000 0.0000 0.0000 23.6914 0.0000 0.0000
# 5 0.0000 0.0000 0.0000 0.0000 33.8040 0.0000
# 6 0.0000 0.0000 0.0000 0.0000 0.0000 23.8411
#
#
#
# Elastic Compliance Matrix: (Units=1/GPa)
#
#
# Indices 1 2 3 4 5 6 
#
# 1 0.012745 -0.001625 -0.005271 0.000000 0.000000 0.000000
# 2 -0.001625 0.017704 -0.004797 0.000000 0.000000 0.000000
# 3 -0.005271 -0.004797 0.016469 0.000000 0.000000 0.000000
# 4 0.000000 0.000000 0.000000 0.042209 0.000000 0.000000
# 5 0.000000 0.000000 0.000000 0.000000 0.029582 0.000000
# 6 0.000000 0.000000 0.000000 0.000000 0.000000 0.041944
#
#
# Mechanical properties :
#
#
# Convention : Reuss Voigt Hill
#
# Bulk Modulus (GPa) = 42.49933 44.34221 43.42077
# Shear Modulus (GPa) = 26.05733 26.98079 26.51906
#
# Velocity S-wave (km/s) = 3.52211 3.58398 3.55318
# Velocity P-wave (km/s) = 6.06409 6.18359 6.12413
#
# Compressibility (1/GPa) = 0.02352978
#
# Stress axis : x y z
#
# Youngs Moduli (GPa) = 78.46446 56.48540 60.71922
#
# Poissons Ratio (x) = 0.09180 0.32007
# Poissons Ratio (y) = 0.12753 0.29129
# Poissons Ratio (z) = 0.41361 0.27098
#
# Static dielectric constant tensor:
#      x y z
#    x 3.576020 0.000000 0.000000 
#    y 0.000000 3.786920 0.000000 
#    z 0.000000 0.000000 3.778050 
# 
# 
# High freq. dielectric constant tensor:
#      x y z
#    x 1.812790 0.000000 0.000000 
#    y 0.000000 1.814300 0.000000 
#    z 0.000000 0.000000 1.828700 
# 
# From -- ./inp_files/16695.got.cif
#   From: 2010.03.12/outbox.cif.g09.slc.cpg/sg23_9_cif.got.tgz:16695.got - 2010.04.14 02:50:06.
