data_PCOD8163671
_publ_section_title
;
Structure prediction by ZEFSAII (Michael W. Deem and Ramdas Pophale) SiO2 
 PCOD8163671
Probable space group: I 2 2 2
;
_chemical_formula_sum "Si O2"
_cell_formula_units_Z 50
_cell_length_a 13.803138
_cell_length_b 8.760827
_cell_length_c 20.074314
_cell_angle_alpha 90.000000
_cell_angle_beta 90.000000
_cell_angle_gamma 90.000000
_cell_volume 2427.524643
_symmetry_space_group_name_H-M "I 2 2 2"
_symmetry_group_IT_number 23
_symmetry_cell_setting 'orthorhombic'
loop_
_space_group_symop_operation_xyz
x,y,z
-x,-y,z
x,-y,-z
-x,y,-z
1/2+x,1/2+y,1/2+z
1/2-x,1/2-y,1/2+z
1/2+x,1/2-y,1/2-z
1/2-x,1/2+y,1/2-z
loop_
_atom_site_type_symbol
_atom_site_label
_atom_site_fract_x
_atom_site_fract_y
_atom_site_fract_z
Si Si1 0.666431 0.907240 0.912259
Si Si2 0.458137 0.658544 0.306547
Si Si3 0.210015 0.355198 0.961132
Si Si4 0.646485 0.392220 0.444806
Si Si5 0.815039 0.356836 0.730989
Si Si6 0.000000 0.500000 0.500000
Si Si7 0.354821 0.151309 0.317397
O O1 0.703875 0.740232 0.929578
O O2 0.634308 0.919934 0.835519
O O3 0.745498 0.039267 0.929001
O O4 0.568396 0.902717 0.953154
O O5 0.500000 0.500000 0.277384
O O6 0.420401 0.621250 0.380603
O O7 0.368500 0.710006 0.261425
O O8 0.535170 0.797211 0.302674
O O9 0.143724 0.387047 0.896361
O O10 0.252484 0.500000 0.000000
O O11 0.152820 0.270939 0.020242
O O12 0.595865 0.500000 0.500000
O O13 0.709084 0.296889 0.707295
O O14 0.816790 0.497046 0.782473
#
# Coordination Sequence:
#
# PCOD8163671 Si02
#       7
#     8   8   8   8   8   2   8
#     4  10  22  40  65  89 119 168 215 257 317 390
#     4  12  24  40  64  95 129 169 222 262 318 394
#     4  10  20  38  61  91 128 157 201 268 326 364
#     4  10  20  41  63  90 125 172 214 256 318 381
#     4  11  24  44  62  92 131 170 211 272 326 385
#     4  12  20  40  70  92 110 156 232 256 296 400
#     4  11  24  41  63  93 128 171 214 259 327 396
#
# _framework density 20.597113
#
# number of rings (size 3 to 8) (size 9 to 14) (size 15 to 20)
#    0.000    1.280    2.400    6.240    2.240    2.240 
#    0.000    4.400    0.000    0.000    0.000    0.000 
#    0.000    0.000    0.000    0.000    0.000    0.000 
#
# Total GULP energy -309751.066653 kJ/mol
# GULP energy per Si atom -12390.042666 kJ/mol
# Density = 2.055023 g / cm^3
# Si number density = 20.597113 Si / 1000 Ang^3
#
#
#
# Elastic Constant Matrix: (Units=GPa)
#
#
# Indices 1 2 3 4 5 6 
#
# 1 72.2447 10.8259 24.2277 0.0000 0.0000 0.0000
# 2 10.8259 102.1441 40.6158 0.0000 0.0000 0.0000
# 3 24.2277 40.6158 117.6471 0.0000 0.0000 0.0000
# 4 0.0000 0.0000 0.0000 38.6404 0.0000 0.0000
# 5 0.0000 0.0000 0.0000 0.0000 33.1146 0.0000
# 6 0.0000 0.0000 0.0000 0.0000 0.0000 22.2674
#
#
#
# Elastic Compliance Matrix: (Units=1/GPa)
#
#
# Indices 1 2 3 4 5 6 
#
# 1 0.014884 -0.000416 -0.002922 0.000000 0.000000 0.000000
# 2 -0.000416 0.011359 -0.003836 0.000000 0.000000 0.000000
# 3 -0.002922 -0.003836 0.010426 0.000000 0.000000 0.000000
# 4 0.000000 0.000000 0.000000 0.025880 0.000000 0.000000
# 5 0.000000 0.000000 0.000000 0.000000 0.030198 0.000000
# 6 0.000000 0.000000 0.000000 0.000000 0.000000 0.044909
#
#
# Mechanical properties :
#
#
# Convention : Reuss Voigt Hill
#
# Bulk Modulus (GPa) = 44.79775 49.26388 47.03081
# Shear Modulus (GPa) = 31.35906 33.22893 32.29399
#
# Velocity S-wave (km/s) = 3.90615 4.02092 3.96395
# Velocity P-wave (km/s) = 6.49159 6.74736 6.62071
#
# Compressibility (1/GPa) = 0.02232255
#
# Stress axis : x y z
#
# Youngs Moduli (GPa) = 67.18662 88.03207 95.91414
#
# Poissons Ratio (x) = 0.03660 0.28022
# Poissons Ratio (y) = 0.02793 0.36793
# Poissons Ratio (z) = 0.19629 0.33770
#
# Static dielectric constant tensor:
#      x y z
#    x 3.863110 0.000000 0.000000 
#    y 0.000000 3.720990 0.000000 
#    z 0.000000 0.000000 4.045900 
# 
# 
# High freq. dielectric constant tensor:
#      x y z
#    x 1.790940 0.000000 0.000000 
#    y 0.000000 1.804600 0.000000 
#    z 0.000000 0.000000 1.825140 
# 
# From -- ./inp_files/24759.got.cif
#   From: 2010.03.12/outbox.cif.g09.slc.cpg/sg23_13_cif.got.tgz:24759.got - 2010.04.14 02:50:06.
