data_PCOD8163389
_publ_section_title
;
Structure prediction by ZEFSAII (Michael W. Deem and Ramdas Pophale) SiO2 
 PCOD8163389
Probable space group: I 2 2 2
;
_chemical_formula_sum "Si O2"
_cell_formula_units_Z 64
_cell_length_a 33.529799
_cell_length_b 9.584739
_cell_length_c 8.950997
_cell_angle_alpha 90.000000
_cell_angle_beta 90.000000
_cell_angle_gamma 90.000000
_cell_volume 2876.621041
_symmetry_space_group_name_H-M "I 2 2 2"
_symmetry_group_IT_number 23
_symmetry_cell_setting 'orthorhombic'
loop_
_space_group_symop_operation_xyz
x,y,z
-x,-y,z
x,-y,-z
-x,y,-z
1/2+x,1/2+y,1/2+z
1/2-x,1/2-y,1/2+z
1/2+x,1/2-y,1/2-z
1/2-x,1/2+y,1/2-z
loop_
_atom_site_type_symbol
_atom_site_label
_atom_site_fract_x
_atom_site_fract_y
_atom_site_fract_z
Si Si1 0.919710 0.220823 0.507988
Si Si2 0.622631 0.080685 0.788015
Si Si3 0.772870 0.326006 0.656863
Si Si4 0.787977 0.638211 0.686531
Si Si5 0.092889 0.711253 0.007936
Si Si6 0.142401 0.267499 0.271837
Si Si7 0.030388 0.213459 0.214878
Si Si8 0.946132 0.099394 0.223097
O O1 0.908648 0.352682 0.403266
O O2 0.882970 0.169685 0.614722
O O3 0.956300 0.260836 0.619028
O O4 0.932986 0.096399 0.397169
O O5 0.664745 0.162662 0.795420
O O6 0.604329 0.082029 0.618144
O O7 0.631111 0.922026 0.833193
O O8 0.775221 0.480350 0.729063
O O9 0.773795 0.330482 0.479661
O O10 0.732877 0.247458 0.703413
O O11 0.810830 0.237277 0.716192
O O12 0.088974 0.844020 0.118304
O O13 0.129513 0.749605 0.899333
O O14 0.052384 0.688253 0.908731
O O15 0.982717 0.210922 0.202359
O O16 0.044056 0.056227 0.176342
#
# Coordination Sequence:
#
# PCOD8163389 Si02
#       8
#     8   8   8   8   8   8   8   8
#     4  10  19  33  59  85 107 142 195 240 276 338
#     4  10  20  38  61  82 110 153 195 235 287 351
#     4  10  22  41  65  91 122 159 202 244 297 359
#     4  10  22  41  65  91 122 159 202 244 297 359
#     4  10  21  33  57  85 109 146 195 236 274 338
#     4  10  20  38  61  82 110 153 195 235 287 351
#     4  10  20  36  57  81 113 152 190 233 293 357
#     4  10  20  36  57  81 113 152 190 233 293 357
#
# _framework density 22.248325000000001
#
# number of rings (size 3 to 8) (size 9 to 14) (size 15 to 20)
#    0.000    2.000    1.250    2.250    1.750    2.500 
#    0.000    7.500    0.000   52.500    0.000    0.000 
#    0.000    0.000    0.000    0.000    0.000    0.000 
#
# Total GULP energy -396692.947020 kJ/mol
# GULP energy per Si atom -12396.654594 kJ/mol
# Density = 2.219769 g / cm^3
# Si number density = 22.248325 Si / 1000 Ang^3
#
#
#
# Elastic Constant Matrix: (Units=GPa)
#
#
# Indices 1 2 3 4 5 6 
#
# 1 78.8820 16.8233 3.2977 0.0000 0.0000 0.0000
# 2 16.8233 20.0373 -8.0145 0.0000 0.0000 0.0000
# 3 3.2977 -8.0145 85.6434 0.0000 0.0000 0.0000
# 4 0.0000 0.0000 0.0000 32.9076 0.0000 0.0000
# 5 0.0000 0.0000 0.0000 0.0000 37.0227 0.0000
# 6 0.0000 0.0000 0.0000 0.0000 0.0000 32.6101
#
#
#
# Elastic Compliance Matrix: (Units=1/GPa)
#
#
# Indices 1 2 3 4 5 6 
#
# 1 0.015739 -0.013980 -0.001914 0.000000 0.000000 0.000000
# 2 -0.013980 0.064265 0.006552 0.000000 0.000000 0.000000
# 3 -0.001914 0.006552 0.012363 0.000000 0.000000 0.000000
# 4 0.000000 0.000000 0.000000 0.030388 0.000000 0.000000
# 5 0.000000 0.000000 0.000000 0.000000 0.027010 0.000000
# 6 0.000000 0.000000 0.000000 0.000000 0.000000 0.030665
#
#
# Mechanical properties :
#
#
# Convention : Reuss Voigt Hill
#
# Bulk Modulus (GPa) = 13.57160 23.19731 18.38446
# Shear Modulus (GPa) = 22.35375 32.00514 27.17944
#
# Velocity S-wave (km/s) = 3.17320 3.79693 3.49899
# Velocity P-wave (km/s) = 4.42028 5.44714 4.96036
#
# Compressibility (1/GPa) = 0.07368327
#
# Stress axis : x y z
#
# Youngs Moduli (GPa) = 63.53761 15.56051 80.88534
#
# Poissons Ratio (x) = 0.21753 0.15484
# Poissons Ratio (y) = 0.88825 -0.52998
# Poissons Ratio (z) = 0.12163 -0.10196
#
# Static dielectric constant tensor:
#      x y z
#    x 4.064320 0.000000 0.000000 
#    y 0.000000 3.672930 0.000000 
#    z 0.000000 0.000000 4.193310 
# 
# 
# High freq. dielectric constant tensor:
#      x y z
#    x 1.865880 0.000000 0.000000 
#    y 0.000000 1.839480 0.000000 
#    z 0.000000 0.000000 1.900370 
# 
# From -- ./inp_files/13491.got.cif
#   From: 2010.03.12/outbox.cif.g09.slc.cpg/sg23_7_cif.got.tgz:13491.got - 2010.04.14 02:50:06.
