data_PCOD8163456
_publ_section_title
;
Structure prediction by ZEFSAII (Michael W. Deem and Ramdas Pophale) SiO2 
 PCOD8163456
Probable space group: I 2 2 2
;
_chemical_formula_sum "Si O2"
_cell_formula_units_Z 40
_cell_length_a 14.885135
_cell_length_b 13.900711
_cell_length_c 9.363225
_cell_angle_alpha 90.000000
_cell_angle_beta 90.000000
_cell_angle_gamma 90.000000
_cell_volume 1937.381962
_symmetry_space_group_name_H-M "I 2 2 2"
_symmetry_group_IT_number 23
_symmetry_cell_setting 'orthorhombic'
loop_
_space_group_symop_operation_xyz
x,y,z
-x,-y,z
x,-y,-z
-x,y,-z
1/2+x,1/2+y,1/2+z
1/2-x,1/2-y,1/2+z
1/2+x,1/2-y,1/2-z
1/2-x,1/2+y,1/2-z
loop_
_atom_site_type_symbol
_atom_site_label
_atom_site_fract_x
_atom_site_fract_y
_atom_site_fract_z
Si Si1 0.312498 0.285504 0.906579
Si Si2 0.000000 0.748030 0.000000
Si Si3 0.052690 0.086336 0.797848
Si Si4 0.172454 0.664858 0.865912
Si Si5 0.500000 0.655808 0.000000
Si Si6 0.291776 0.494520 0.845217
O O1 0.312590 0.198846 0.795745
O O2 0.408162 0.282747 0.988794
O O3 0.287403 0.381301 0.811553
O O4 0.237398 0.274824 0.028740
O O5 0.948644 0.815230 0.886243
O O6 0.070278 0.680367 0.917164
O O7 0.001372 0.096149 0.646792
O O8 0.155484 0.054245 0.775174
O O9 0.000000 0.000000 0.878776
O O10 0.196451 0.550504 0.866836
O O11 0.343112 0.500000 0.000000
#
# Coordination Sequence:
#
# PCOD8163456 Si02
#       6
#     8   4   8   8   4   8
#     4  11  23  39  64  92 116 154 197 246 304 353
#     4  12  25  36  53  88 130 158 196 244 294 342
#     4  12  19  34  59  88 118 148 191 251 308 356
#     4  11  23  39  57  88 124 156 197 243 291 355
#     4  12  19  36  62  86 115 150 194 249 304 358
#     4  10  19  36  61  86 113 153 195 240 291 355
#
# _framework density 20.646418000000001
#
# number of rings (size 3 to 8) (size 9 to 14) (size 15 to 20)
#    0.000    0.800    8.000    1.800    0.000    0.000 
#    0.000    7.500    0.000    0.000    0.000    1.400 
#    0.000    0.000    0.000    0.000    0.000    0.000 
#
# Total GULP energy -247836.154491 kJ/mol
# GULP energy per Si atom -12391.807725 kJ/mol
# Density = 2.059943 g / cm^3
# Si number density = 20.646418 Si / 1000 Ang^3
#
#
#
# Elastic Constant Matrix: (Units=GPa)
#
#
# Indices 1 2 3 4 5 6 
#
# 1 97.2557 26.7526 14.8745 0.0000 0.0000 0.0000
# 2 26.7526 64.3570 11.6876 0.0000 0.0000 0.0000
# 3 14.8745 11.6876 63.3622 0.0000 0.0000 0.0000
# 4 0.0000 0.0000 0.0000 25.7468 0.0000 0.0000
# 5 0.0000 0.0000 0.0000 0.0000 28.3484 0.0000
# 6 0.0000 0.0000 0.0000 0.0000 0.0000 18.9750
#
#
#
# Elastic Compliance Matrix: (Units=1/GPa)
#
#
# Indices 1 2 3 4 5 6 
#
# 1 0.011835 -0.004568 -0.001936 0.000000 0.000000 0.000000
# 2 -0.004568 0.017840 -0.002218 0.000000 0.000000 0.000000
# 3 -0.001936 -0.002218 0.016646 0.000000 0.000000 0.000000
# 4 0.000000 0.000000 0.000000 0.038840 0.000000 0.000000
# 5 0.000000 0.000000 0.000000 0.000000 0.035275 0.000000
# 6 0.000000 0.000000 0.000000 0.000000 0.000000 0.052701
#
#
# Mechanical properties :
#
#
# Convention : Reuss Voigt Hill
#
# Bulk Modulus (GPa) = 34.63012 36.84491 35.73751
# Shear Modulus (GPa) = 24.97422 26.05805 25.51614
#
# Velocity S-wave (km/s) = 3.48173 3.55647 3.51930
# Velocity P-wave (km/s) = 5.74217 5.89483 5.81901
#
# Compressibility (1/GPa) = 0.02887660
#
# Stress axis : x y z
#
# Youngs Moduli (GPa) = 84.49674 56.05348 60.07502
#
# Poissons Ratio (x) = 0.25606 0.11628
# Poissons Ratio (y) = 0.38599 0.13327
# Poissons Ratio (z) = 0.16356 0.12435
#
# Static dielectric constant tensor:
#      x y z
#    x 3.689690 0.000000 0.000000 
#    y 0.000000 3.519230 0.000000 
#    z 0.000000 0.000000 3.651230 
# 
# 
# High freq. dielectric constant tensor:
#      x y z
#    x 1.800070 0.000000 0.000000 
#    y 0.000000 1.779650 0.000000 
#    z 0.000000 0.000000 1.806510 
# 
# From -- ./inp_files/9608.got.cif
#   From: 2010.03.12/outbox.cif.g09.slc.cpg/sg23_5_cif.got.tgz:9608.got - 2010.04.14 02:50:06.
