data_PCOD8163837
_publ_section_title
;
Structure prediction by ZEFSAII (Michael W. Deem and Ramdas Pophale) SiO2 
 PCOD8163837
Probable space group: I 2 2 2
;
_chemical_formula_sum "Si O2"
_cell_formula_units_Z 56
_cell_length_a 22.854018
_cell_length_b 7.419300
_cell_length_c 16.041751
_cell_angle_alpha 90.000000
_cell_angle_beta 90.000000
_cell_angle_gamma 90.000000
_cell_volume 2720.052386
_symmetry_space_group_name_H-M "I 2 2 2"
_symmetry_group_IT_number 23
_symmetry_cell_setting 'orthorhombic'
loop_
_space_group_symop_operation_xyz
x,y,z
-x,-y,z
x,-y,-z
-x,y,-z
1/2+x,1/2+y,1/2+z
1/2-x,1/2-y,1/2+z
1/2+x,1/2-y,1/2-z
1/2-x,1/2+y,1/2-z
loop_
_atom_site_type_symbol
_atom_site_label
_atom_site_fract_x
_atom_site_fract_y
_atom_site_fract_z
Si Si1 0.158838 0.478637 0.902665
Si Si2 0.128550 0.831300 0.680820
Si Si3 0.772954 0.226107 0.807132
Si Si4 0.792807 0.897742 0.924062
Si Si5 0.142018 0.237897 0.673409
Si Si6 0.067734 0.470249 0.233243
Si Si7 0.320144 0.704374 0.009858
O O1 0.210810 0.609108 0.869435
O O2 0.172089 0.269187 0.884929
O O3 0.098894 0.530463 0.856453
O O4 0.149127 0.500000 0.000000
O O5 0.189799 0.764943 0.722265
O O6 0.075367 0.724066 0.722949
O O7 0.131706 0.786675 0.582908
O O8 0.116395 0.041700 0.694080
O O9 0.705112 0.241057 0.782203
O O10 0.783224 0.033168 0.848469
O O11 0.733577 0.831522 0.968393
O O12 0.827372 0.000000 0.000000
O O13 0.095992 0.380778 0.706952
O O14 0.149664 0.272491 0.574690
O O15 0.000000 0.500000 0.218343
O O16 0.296319 0.500000 0.000000
#
# Coordination Sequence:
#
# PCOD8163837 Si02
#       7
#     8   8   8   8   8   8   8
#     4  11  22  41  62  93 130 162 214 265 317 386
#     4  10  24  39  63  92 123 162 212 258 322 385
#     4  11  23  35  59  97 131 166 198 251 331 388
#     4  12  20  33  58  93 137 163 196 249 317 395
#     4  11  22  40  62  91 128 166 206 262 323 376
#     4  11  27  45  64  89 122 175 224 265 313 377
#     4  10  21  38  60  92 133 165 197 257 323 390
#
# _framework density 20.587838999999999
#
# number of rings (size 3 to 8) (size 9 to 14) (size 15 to 20)
#    0.000    1.143    2.857    3.857    8.000    0.857 
#    0.000    1.429    0.000    2.571    0.000    0.000 
#    0.000    0.000    0.000    0.000    0.000    0.000 
#
# Total GULP energy -347298.053348 kJ/mol
# GULP energy per Si atom -12403.501905 kJ/mol
# Density = 2.054098 g / cm^3
# Si number density = 20.587839 Si / 1000 Ang^3
#
#
#
# Elastic Constant Matrix: (Units=GPa)
#
#
# Indices 1 2 3 4 5 6 
#
# 1 85.9140 34.7193 5.7542 0.0000 0.0000 0.0000
# 2 34.7193 120.7740 26.3645 0.0000 0.0000 0.0000
# 3 5.7542 26.3645 76.6773 0.0000 0.0000 0.0000
# 4 0.0000 0.0000 0.0000 29.0864 0.0000 0.0000
# 5 0.0000 0.0000 0.0000 0.0000 16.8807 0.0000
# 6 0.0000 0.0000 0.0000 0.0000 0.0000 21.6306
#
#
#
# Elastic Compliance Matrix: (Units=1/GPa)
#
#
# Indices 1 2 3 4 5 6 
#
# 1 0.013178 -0.003862 0.000339 0.000000 0.000000 0.000000
# 2 -0.003862 0.010084 -0.003177 0.000000 0.000000 0.000000
# 3 0.000339 -0.003177 0.014109 0.000000 0.000000 0.000000
# 4 0.000000 0.000000 0.000000 0.034380 0.000000 0.000000
# 5 0.000000 0.000000 0.000000 0.000000 0.059239 0.000000
# 6 0.000000 0.000000 0.000000 0.000000 0.000000 0.046231
#
#
# Mechanical properties :
#
#
# Convention : Reuss Voigt Hill
#
# Bulk Modulus (GPa) = 41.72033 46.33793 44.02913
# Shear Modulus (GPa) = 25.17481 27.95470 26.56476
#
# Velocity S-wave (km/s) = 3.50065 3.68887 3.59599
# Velocity P-wave (km/s) = 6.05375 6.37965 6.21884
#
# Compressibility (1/GPa) = 0.02396913
#
# Stress axis : x y z
#
# Youngs Moduli (GPa) = 75.88620 99.16881 70.87818
#
# Poissons Ratio (x) = 0.38301 -0.02403
# Poissons Ratio (y) = 0.29309 0.22520
# Poissons Ratio (z) = -0.02573 0.31509
#
# Static dielectric constant tensor:
#      x y z
#    x 3.159010 0.000000 0.000000 
#    y 0.000000 4.184280 0.000000 
#    z 0.000000 0.000000 4.060220 
# 
# 
# High freq. dielectric constant tensor:
#      x y z
#    x 1.735000 0.000000 0.000000 
#    y 0.000000 1.834270 0.000000 
#    z 0.000000 0.000000 1.830570 
# 
# From -- ./inp_files/22393.got.cif
#   From: 2010.03.12/outbox.cif.g09.slc.cpg/sg23_12_cif.got.tgz:22393.got - 2010.04.14 02:50:06.
