data_PCOD8163435
_publ_section_title
;
Structure prediction by ZEFSAII (Michael W. Deem and Ramdas Pophale) SiO2 
 PCOD8163435
Probable space group: I 2 2 2
;
_chemical_formula_sum "Si O2"
_cell_formula_units_Z 48
_cell_length_a 8.851619
_cell_length_b 15.334319
_cell_length_c 17.697132
_cell_angle_alpha 90.000000
_cell_angle_beta 90.000000
_cell_angle_gamma 90.000000
_cell_volume 2402.094541
_symmetry_space_group_name_H-M "I 2 2 2"
_symmetry_group_IT_number 23
_symmetry_cell_setting 'orthorhombic'
loop_
_space_group_symop_operation_xyz
x,y,z
-x,-y,z
x,-y,-z
-x,y,-z
1/2+x,1/2+y,1/2+z
1/2-x,1/2-y,1/2+z
1/2+x,1/2-y,1/2-z
1/2-x,1/2+y,1/2-z
loop_
_atom_site_type_symbol
_atom_site_label
_atom_site_fract_x
_atom_site_fract_y
_atom_site_fract_z
Si Si1 0.354077 0.279390 0.042981
Si Si2 0.086919 0.579490 0.764094
Si Si3 0.678433 0.723711 0.407526
Si Si4 0.462000 0.741627 0.186358
Si Si5 0.084795 0.090260 0.790313
Si Si6 0.061740 0.373094 0.073959
O O1 0.409692 0.240498 0.122822
O O2 0.239227 0.356451 0.061477
O O3 0.500000 0.318983 0.000000
O O4 0.268280 0.209395 0.987560
O O5 0.028900 0.672922 0.737392
O O6 0.263701 0.567188 0.753751
O O7 0.043993 0.569722 0.852012
O O8 0.000000 0.500000 0.722168
O O9 0.795438 0.769775 0.349212
O O10 0.623884 0.631924 0.372285
O O11 0.532225 0.782898 0.419381
O O12 0.490254 0.657250 0.238332
O O13 0.000000 0.000000 0.804729
O O14 0.000000 0.424199 0.000000
#
# Coordination Sequence:
#
# PCOD8163435 Si02
#       6
#     8   8   8   8   8   8
#     4   9  18  36  64  89 117 159 208 248 311 377
#     4  11  24  37  59  92 122 163 211 255 319 375
#     4   9  20  36  61  91 117 164 206 252 314 376
#     4  10  20  39  63  88 120 166 205 260 314 376
#     4  11  23  37  60  94 127 162 208 260 322 383
#     4  10  19  35  60  85 119 158 202 249 309 368
#
# _framework density 19.982561
#
# number of rings (size 3 to 8) (size 9 to 14) (size 15 to 20)
#    0.000    2.000    3.333    0.000    2.333    1.667 
#    0.000    0.000    0.000   35.500    0.000    0.000 
#    0.000    0.000    0.000    0.000    0.000    0.000 
#
# Total GULP energy -297392.738898 kJ/mol
# GULP energy per Si atom -12391.364121 kJ/mol
# Density = 1.993708 g / cm^3
# Si number density = 19.982561 Si / 1000 Ang^3
#
#
#
# Elastic Constant Matrix: (Units=GPa)
#
#
# Indices 1 2 3 4 5 6 
#
# 1 112.3847 50.8971 28.1823 0.0000 0.0000 0.0000
# 2 50.8971 110.0964 31.6184 0.0000 0.0000 0.0000
# 3 28.1823 31.6184 95.7561 0.0000 0.0000 0.0000
# 4 0.0000 0.0000 0.0000 8.1027 0.0000 0.0000
# 5 0.0000 0.0000 0.0000 0.0000 26.5642 0.0000
# 6 0.0000 0.0000 0.0000 0.0000 0.0000 25.6726
#
#
#
# Elastic Compliance Matrix: (Units=1/GPa)
#
#
# Indices 1 2 3 4 5 6 
#
# 1 0.011530 -0.004812 -0.001804 0.000000 0.000000 0.000000
# 2 -0.004812 0.012043 -0.002560 0.000000 0.000000 0.000000
# 3 -0.001804 -0.002560 0.011820 0.000000 0.000000 0.000000
# 4 0.000000 0.000000 0.000000 0.123416 0.000000 0.000000
# 5 0.000000 0.000000 0.000000 0.000000 0.037645 0.000000
# 6 0.000000 0.000000 0.000000 0.000000 0.000000 0.038952
#
#
# Mechanical properties :
#
#
# Convention : Reuss Voigt Hill
#
# Bulk Modulus (GPa) = 58.68943 59.95919 59.32431
# Shear Modulus (GPa) = 19.27245 25.90387 22.58816
#
# Velocity S-wave (km/s) = 3.10895 3.60436 3.36578
# Velocity P-wave (km/s) = 6.50550 6.88424 6.69755
#
# Compressibility (1/GPa) = 0.01703884
#
# Stress axis : x y z
#
# Youngs Moduli (GPa) = 86.73219 83.03748 84.60468
#
# Poissons Ratio (x) = 0.39957 0.15267
# Poissons Ratio (y) = 0.41735 0.21661
# Poissons Ratio (z) = 0.15651 0.21260
#
# Static dielectric constant tensor:
#      x y z
#    x 3.889700 0.000000 0.000000 
#    y 0.000000 3.177570 0.000000 
#    z 0.000000 0.000000 4.066660 
# 
# 
# High freq. dielectric constant tensor:
#      x y z
#    x 1.799160 0.000000 0.000000 
#    y 0.000000 1.738560 0.000000 
#    z 0.000000 0.000000 1.794680 
# 
# From -- ./inp_files/9938.got.cif
#   From: 2010.03.12/outbox.cif.g09.slc.cpg/sg23_5_cif.got.tgz:9938.got - 2010.04.14 02:50:06.
