data_PCOD8163758
_publ_section_title
;
Structure prediction by ZEFSAII (Michael W. Deem and Ramdas Pophale) SiO2 
 PCOD8163758
Probable space group: I 2 2 2
;
_chemical_formula_sum "Si O2"
_cell_formula_units_Z 50
_cell_length_a 13.295474
_cell_length_b 9.688122
_cell_length_c 16.675390
_cell_angle_alpha 90.000000
_cell_angle_beta 90.000000
_cell_angle_gamma 90.000000
_cell_volume 2147.926539
_symmetry_space_group_name_H-M "I 2 2 2"
_symmetry_group_IT_number 23
_symmetry_cell_setting 'orthorhombic'
loop_
_space_group_symop_operation_xyz
x,y,z
-x,-y,z
x,-y,-z
-x,y,-z
1/2+x,1/2+y,1/2+z
1/2-x,1/2-y,1/2+z
1/2+x,1/2-y,1/2-z
1/2-x,1/2+y,1/2-z
loop_
_atom_site_type_symbol
_atom_site_label
_atom_site_fract_x
_atom_site_fract_y
_atom_site_fract_z
Si Si1 0.500000 0.500000 0.000000
Si Si2 0.598217 0.274731 0.541855
Si Si3 0.083822 0.897247 0.769134
Si Si4 0.157717 0.941680 0.380892
Si Si5 0.242870 0.500000 0.500000
Si Si6 0.702591 0.137177 0.842002
Si Si7 0.044536 0.356879 0.793429
Si Si8 0.181046 0.500000 0.000000
O O1 0.571400 0.596665 0.054370
O O2 0.500000 0.342654 0.500000
O O3 0.691244 0.376378 0.535139
O O4 0.589280 0.233360 0.634548
O O5 0.615892 0.137264 0.488707
O O6 0.180850 0.899443 0.825975
O O7 0.040012 0.743109 0.754534
O O8 0.112358 0.953228 0.682427
O O9 0.000000 0.000000 0.808372
O O10 0.195172 0.801411 0.342399
O O11 0.250943 0.021050 0.420975
O O12 0.175252 0.561918 0.426646
O O13 0.627567 0.091951 0.771214
O O14 0.000000 0.500000 0.827644
#
# Coordination Sequence:
#
# PCOD8163758 Si02
#       8
#     2   8   8   8   4   8   8   4
#     4  10  20  44  78  98 142 182 254 298 368 454
#     4  12  25  46  72 107 151 190 249 308 383 456
#     4  12  25  46  76 105 145 201 252 306 382 458
#     4  11  23  46  72 106 140 193 250 304 372 452
#     4  12  27  48  73 106 144 206 246 313 383 448
#     4  12  27  49  73 108 156 193 259 315 385 463
#     4  12  28  46  75 114 150 198 252 318 387 452
#     4  11  23  41  71 104 136 192 239 307 371 443
#
# _framework density 23.278262000000002
#
# number of rings (size 3 to 8) (size 9 to 14) (size 15 to 20)
#    0.000    0.320    4.000    4.320    4.480    1.280 
#    2.880    0.000    0.000    0.000    0.000    0.000 
#    0.000    0.000    0.000    0.000    0.000    0.000 
#
# Total GULP energy -310016.689951 kJ/mol
# GULP energy per Si atom -12400.667598 kJ/mol
# Density = 2.322528 g / cm^3
# Si number density = 23.278262 Si / 1000 Ang^3
#
#
#
# Elastic Constant Matrix: (Units=GPa)
#
#
# Indices 1 2 3 4 5 6 
#
# 1 64.5155 2.1601 28.7621 0.0000 0.0000 0.0000
# 2 2.1601 113.3918 26.1119 0.0000 0.0000 0.0000
# 3 28.7621 26.1119 137.0133 0.0000 0.0000 0.0000
# 4 0.0000 0.0000 0.0000 36.5334 0.0000 0.0000
# 5 0.0000 0.0000 0.0000 0.0000 30.1800 0.0000
# 6 0.0000 0.0000 0.0000 0.0000 0.0000 27.1365
#
#
#
# Elastic Compliance Matrix: (Units=1/GPa)
#
#
# Indices 1 2 3 4 5 6 
#
# 1 0.017130 0.000525 -0.003696 0.000000 0.000000 0.000000
# 2 0.000525 0.009240 -0.001871 0.000000 0.000000 0.000000
# 3 -0.003696 -0.001871 0.008431 0.000000 0.000000 0.000000
# 4 0.000000 0.000000 0.000000 0.027372 0.000000 0.000000
# 5 0.000000 0.000000 0.000000 0.000000 0.033135 0.000000
# 6 0.000000 0.000000 0.000000 0.000000 0.000000 0.036851
#
#
# Mechanical properties :
#
#
# Convention : Reuss Voigt Hill
#
# Bulk Modulus (GPa) = 40.45875 47.66543 44.06209
# Shear Modulus (GPa) = 33.22653 35.96242 34.59448
#
# Velocity S-wave (km/s) = 3.78214 3.93478 3.85922
# Velocity P-wave (km/s) = 6.04078 6.41593 6.23118
#
# Compressibility (1/GPa) = 0.02471653
#
# Stress axis : x y z
#
# Youngs Moduli (GPa) = 58.37601 108.22675 118.60942
#
# Poissons Ratio (x) = -0.05680 0.43839
# Poissons Ratio (y) = -0.03064 0.22193
# Poissons Ratio (z) = 0.21576 0.20250
#
# Static dielectric constant tensor:
#      x y z
#    x 4.606300 0.000000 0.000000 
#    y 0.000000 4.158710 0.000000 
#    z 0.000000 0.000000 4.274730 
# 
# 
# High freq. dielectric constant tensor:
#      x y z
#    x 1.919570 0.000000 0.000000 
#    y 0.000000 1.920740 0.000000 
#    z 0.000000 0.000000 1.930310 
# 
# From -- ./inp_files/24778.got.cif
#   From: 2010.03.12/outbox.cif.g09.slc.cpg/sg23_13_cif.got.tgz:24778.got - 2010.04.14 02:50:06.
