data_PCOD8163694
_publ_section_title
;
Structure prediction by ZEFSAII (Michael W. Deem and Ramdas Pophale) SiO2 
 PCOD8163694
Probable space group: I 2 2 2
;
_chemical_formula_sum "Si O2"
_cell_formula_units_Z 56
_cell_length_a 9.455599
_cell_length_b 14.822309
_cell_length_c 20.027694
_cell_angle_alpha 90.000000
_cell_angle_beta 90.000000
_cell_angle_gamma 90.000000
_cell_volume 2806.957623
_symmetry_space_group_name_H-M "I 2 2 2"
_symmetry_group_IT_number 23
_symmetry_cell_setting 'orthorhombic'
loop_
_space_group_symop_operation_xyz
x,y,z
-x,-y,z
x,-y,-z
-x,y,-z
1/2+x,1/2+y,1/2+z
1/2-x,1/2-y,1/2+z
1/2+x,1/2-y,1/2-z
1/2-x,1/2+y,1/2-z
loop_
_atom_site_type_symbol
_atom_site_label
_atom_site_fract_x
_atom_site_fract_y
_atom_site_fract_z
Si Si1 0.500000 0.000000 0.229476
Si Si2 0.902227 0.175813 0.166938
Si Si3 0.367577 0.762163 0.876038
Si Si4 0.612600 0.673954 0.552656
Si Si5 0.994471 0.896923 0.700055
Si Si6 0.118108 0.612207 0.613390
Si Si7 0.691068 0.150989 0.735786
Si Si8 0.767891 0.500000 0.500000
O O1 0.415209 0.928469 0.185395
O O2 0.613267 0.945422 0.274138
O O3 0.908517 0.108304 0.230265
O O4 0.768769 0.160076 0.119418
O O5 0.898625 0.278395 0.192476
O O6 0.040265 0.157639 0.123700
O O7 0.245791 0.759354 0.933242
O O8 0.412557 0.660942 0.856202
O O9 0.500472 0.815186 0.908012
O O10 0.308993 0.818284 0.812799
O O11 0.500000 0.716788 0.500000
O O12 0.666709 0.578557 0.526017
O O13 0.149378 0.854187 0.709527
O O14 0.000000 0.000000 0.675686
O O15 0.128978 0.533139 0.558917
#
# Coordination Sequence:
#
# PCOD8163694 Si02
#       8
#     4   8   8   8   8   8   8   4
#     4  10  22  35  60  90 125 160 210 256 310 374
#     4  11  23  37  59  85 131 169 198 254 319 373
#     4  10  23  41  59  89 130 167 210 258 318 380
#     4  12  25  40  58  90 130 170 208 250 308 382
#     4  11  22  36  66  93 121 165 215 264 316 368
#     4  11  22  39  57  86 128 168 200 258 308 368
#     4  10  20  39  58  90 126 167 210 253 323 371
#     4  12  25  39  62  94 122 168 218 244 298 384
#
# _framework density 19.950427000000001
#
# number of rings (size 3 to 8) (size 9 to 14) (size 15 to 20)
#    0.000    1.143    4.286    2.786    2.000    3.714 
#    0.000    0.000    0.000    0.000    0.000   15.500 
#    0.000    0.000    0.000    0.000    0.000    0.000 
#
# Total GULP energy -347256.857448 kJ/mol
# GULP energy per Si atom -12402.030623 kJ/mol
# Density = 1.990502 g / cm^3
# Si number density = 19.950427 Si / 1000 Ang^3
#
#
#
# Elastic Constant Matrix: (Units=GPa)
#
#
# Indices 1 2 3 4 5 6 
#
# 1 126.0547 47.4846 42.2936 0.0000 0.0000 0.0000
# 2 47.4846 105.2873 35.1413 0.0000 0.0000 0.0000
# 3 42.2936 35.1413 68.2622 0.0000 0.0000 0.0000
# 4 0.0000 0.0000 0.0000 32.7485 0.0000 0.0000
# 5 0.0000 0.0000 0.0000 0.0000 41.4122 0.0000
# 6 0.0000 0.0000 0.0000 0.0000 0.0000 25.6306
#
#
#
# Elastic Compliance Matrix: (Units=1/GPa)
#
#
# Indices 1 2 3 4 5 6 
#
# 1 0.010838 -0.003196 -0.005070 0.000000 0.000000 0.000000
# 2 -0.003196 0.012411 -0.004409 0.000000 0.000000 0.000000
# 3 -0.005070 -0.004409 0.020060 0.000000 0.000000 0.000000
# 4 0.000000 0.000000 0.000000 0.030536 0.000000 0.000000
# 5 0.000000 0.000000 0.000000 0.000000 0.024147 0.000000
# 6 0.000000 0.000000 0.000000 0.000000 0.000000 0.039016
#
#
# Mechanical properties :
#
#
# Convention : Reuss Voigt Hill
#
# Bulk Modulus (GPa) = 55.67979 61.04923 58.36451
# Shear Modulus (GPa) = 29.70121 31.60393 30.65257
#
# Velocity S-wave (km/s) = 3.86262 3.98442 3.92399
# Velocity P-wave (km/s) = 6.91829 7.19961 7.06035
#
# Compressibility (1/GPa) = 0.01795984
#
# Stress axis : x y z
#
# Youngs Moduli (GPa) = 92.26882 80.57568 49.84994
#
# Poissons Ratio (x) = 0.25750 0.25272
# Poissons Ratio (y) = 0.29487 0.21979
# Poissons Ratio (z) = 0.46778 0.35526
#
# Static dielectric constant tensor:
#      x y z
#    x 3.873540 0.000000 0.000000 
#    y 0.000000 3.448340 0.000000 
#    z 0.000000 0.000000 3.531510 
# 
# 
# High freq. dielectric constant tensor:
#      x y z
#    x 1.804770 0.000000 0.000000 
#    y 0.000000 1.754120 0.000000 
#    z 0.000000 0.000000 1.750070 
# 
# From -- ./inp_files/10254.got.cif
#   From: 2010.03.12/outbox.cif.g09.slc.cpg/sg23_6_cif.got.tgz:10254.got - 2010.04.14 02:50:06.
