data_PCOD8163334
_publ_section_title
;
Structure prediction by ZEFSAII (Michael W. Deem and Ramdas Pophale) SiO2 
 PCOD8163334
Probable space group: I 2 2 2
;
_chemical_formula_sum "Si O2"
_cell_formula_units_Z 52
_cell_length_a 19.638863
_cell_length_b 14.409137
_cell_length_c 8.751157
_cell_angle_alpha 90.000000
_cell_angle_beta 90.000000
_cell_angle_gamma 90.000000
_cell_volume 2476.394247
_symmetry_space_group_name_H-M "I 2 2 2"
_symmetry_group_IT_number 23
_symmetry_cell_setting 'orthorhombic'
loop_
_space_group_symop_operation_xyz
x,y,z
-x,-y,z
x,-y,-z
-x,y,-z
1/2+x,1/2+y,1/2+z
1/2-x,1/2-y,1/2+z
1/2+x,1/2-y,1/2-z
1/2-x,1/2+y,1/2-z
loop_
_atom_site_type_symbol
_atom_site_label
_atom_site_fract_x
_atom_site_fract_y
_atom_site_fract_z
Si Si1 0.710934 0.500000 0.000000
Si Si2 0.833331 0.000000 0.000000
Si Si3 0.500000 0.612395 0.000000
Si Si4 0.772361 0.136184 0.240481
Si Si5 0.900887 0.255350 0.345151
Si Si6 0.496442 0.892886 0.320495
Si Si7 0.607430 0.589101 0.784529
Si Si8 0.372758 0.796548 0.174822
O O1 0.748734 0.429015 0.885621
O O2 0.671997 0.568454 0.887658
O O3 0.885714 0.046923 0.882543
O O4 0.786273 0.926104 0.910603
O O5 0.450533 0.673835 0.896353
O O6 0.542712 0.548882 0.879621
O O7 0.836665 0.205243 0.262873
O O8 0.705885 0.197628 0.220191
O O9 0.875579 0.311388 0.492944
O O10 0.941238 0.330351 0.243313
O O11 0.500000 0.879117 0.500000
O O12 0.421916 0.868306 0.257726
O O13 0.500000 0.000000 0.272377
O O14 0.597916 0.698435 0.770784
#
# Coordination Sequence:
#
# PCOD8163334 Si02
#       8
#     4   4   4   8   8   8   8   8
#     4  10  20  43  62  92 137 174 222 266 332 406
#     4  10  26  42  59 108 139 162 226 290 328 412
#     4  10  18  41  69  88 122 182 222 262 329 407
#     4  11  25  42  69 101 139 182 222 284 345 411
#     4  11  22  44  71  95 132 182 226 275 343 407
#     4  11  26  46  70 102 134 173 229 290 342 406
#     4  10  21  41  66  93 136 173 221 275 333 406
#     4  11  24  44  71  96 134 184 229 275 348 404
#
# _framework density 20.998273000000001
#
# number of rings (size 3 to 8) (size 9 to 14) (size 15 to 20)
#    0.000    1.385    6.154    0.000    4.308    4.000 
#    2.769    0.769    0.000    0.000    0.000    0.000 
#    0.000    0.000    0.000    0.000    0.000    0.000 
#
# Total GULP energy -322162.698873 kJ/mol
# GULP energy per Si atom -12390.873034 kJ/mol
# Density = 2.095048 g / cm^3
# Si number density = 20.998273 Si / 1000 Ang^3
#
#
#
# Elastic Constant Matrix: (Units=GPa)
#
#
# Indices 1 2 3 4 5 6 
#
# 1 129.3476 43.0973 48.7325 0.0000 0.0000 0.0000
# 2 43.0973 100.5652 44.3968 0.0000 0.0000 0.0000
# 3 48.7325 44.3968 132.8264 0.0000 0.0000 0.0000
# 4 0.0000 0.0000 0.0000 29.9519 0.0000 0.0000
# 5 0.0000 0.0000 0.0000 0.0000 29.0349 0.0000
# 6 0.0000 0.0000 0.0000 0.0000 0.0000 20.0983
#
#
#
# Elastic Compliance Matrix: (Units=1/GPa)
#
#
# Indices 1 2 3 4 5 6 
#
# 1 0.009701 -0.003034 -0.002545 0.000000 0.000000 0.000000
# 2 -0.003034 0.012614 -0.003103 0.000000 0.000000 0.000000
# 3 -0.002545 -0.003103 0.009500 0.000000 0.000000 0.000000
# 4 0.000000 0.000000 0.000000 0.033387 0.000000 0.000000
# 5 0.000000 0.000000 0.000000 0.000000 0.034441 0.000000
# 6 0.000000 0.000000 0.000000 0.000000 0.000000 0.049755
#
#
# Mechanical properties :
#
#
# Convention : Reuss Voigt Hill
#
# Bulk Modulus (GPa) = 69.20219 70.57693 69.88956
# Shear Modulus (GPa) = 29.14120 30.91786 30.02953
#
# Velocity S-wave (km/s) = 3.72935 3.84135 3.78576
# Velocity P-wave (km/s) = 7.18135 7.30468 7.24328
#
# Compressibility (1/GPa) = 0.01445041
#
# Stress axis : x y z
#
# Youngs Moduli (GPa) = 103.08447 79.27816 105.26758
#
# Poissons Ratio (x) = 0.24050 0.26792
# Poissons Ratio (y) = 0.31272 0.32666
# Poissons Ratio (z) = 0.26236 0.24601
#
# Static dielectric constant tensor:
#      x y z
#    x 3.799530 0.000000 0.000000 
#    y 0.000000 3.988530 0.000000 
#    z 0.000000 0.000000 4.216380 
# 
# 
# High freq. dielectric constant tensor:
#      x y z
#    x 1.818140 0.000000 0.000000 
#    y 0.000000 1.832360 0.000000 
#    z 0.000000 0.000000 1.834120 
# 
# From -- ./inp_files/12025.got.cif
#   From: 2010.03.12/outbox.cif.g09.slc.cpg/sg23_7_cif.got.tgz:12025.got - 2010.04.14 02:50:06.
