data_PCOD8163966
_publ_section_title
;
Structure prediction by ZEFSAII (Michael W. Deem and Ramdas Pophale) SiO2 
 PCOD8163966
Probable space group: I 2 2 2
;
_chemical_formula_sum "Si O2"
_cell_formula_units_Z 60
_cell_length_a 10.857702
_cell_length_b 12.726375
_cell_length_c 21.573315
_cell_angle_alpha 90.000000
_cell_angle_beta 90.000000
_cell_angle_gamma 90.000000
_cell_volume 2980.983134
_symmetry_space_group_name_H-M "I 2 2 2"
_symmetry_group_IT_number 23
_symmetry_cell_setting 'orthorhombic'
loop_
_space_group_symop_operation_xyz
x,y,z
-x,-y,z
x,-y,-z
-x,y,-z
1/2+x,1/2+y,1/2+z
1/2-x,1/2-y,1/2+z
1/2+x,1/2-y,1/2-z
1/2-x,1/2+y,1/2-z
loop_
_atom_site_type_symbol
_atom_site_label
_atom_site_fract_x
_atom_site_fract_y
_atom_site_fract_z
Si Si1 0.775841 0.657686 0.141887
Si Si2 0.500166 0.119391 0.096578
Si Si3 0.379879 0.187016 0.218772
Si Si4 0.727836 0.734670 0.897521
Si Si5 0.625908 0.299416 0.975555
Si Si6 0.987398 0.780195 0.835749
Si Si7 0.220810 0.050899 0.305121
Si Si8 0.500000 0.500000 0.277381
O O1 0.700447 0.715097 0.195849
O O2 0.690798 0.642930 0.081253
O O3 0.805061 0.538397 0.162313
O O4 0.900421 0.723445 0.127928
O O5 0.440880 0.123554 0.163828
O O6 0.636836 0.165934 0.106117
O O7 0.418213 0.183563 0.046970
O O8 0.500000 0.000000 0.073009
O O9 0.480257 0.228204 0.267744
O O10 0.294771 0.103003 0.250660
O O11 0.864353 0.765799 0.876192
O O12 0.677360 0.638610 0.855166
O O13 0.727228 0.702201 0.969780
O O14 0.500000 0.357342 0.000000
O O15 0.011923 0.902698 0.824691
O O16 0.110830 0.991432 0.271019
#
# Coordination Sequence:
#
# PCOD8163966 Si02
#       8
#     8   8   8   8   8   8   8   4
#     4  11  23  41  61  93 123 170 211 257 327 383
#     4  10  22  37  66  91 124 171 213 263 321 380
#     4  10  22  36  56  91 129 160 202 257 315 391
#     4  10  24  42  60  93 125 168 217 269 314 374
#     4   9  22  44  63  88 125 161 220 270 307 375
#     4  11  24  38  62  91 134 165 211 261 324 395
#     4  11  24  37  64  94 130 169 206 265 331 390
#     4  12  22  36  62  96 130 166 198 264 332 392
#
# _framework density 20.127586999999998
#
# number of rings (size 3 to 8) (size 9 to 14) (size 15 to 20)
#    0.000    1.600    2.667    0.800    9.333    5.067 
#    0.000    2.000    0.000    4.000    0.000    0.000 
#    0.000    0.000    0.000    0.000    0.000    0.000 
#
# Total GULP energy -371890.332821 kJ/mol
# GULP energy per Si atom -12396.344427 kJ/mol
# Density = 2.008178 g / cm^3
# Si number density = 20.127587 Si / 1000 Ang^3
#
#
#
# Elastic Constant Matrix: (Units=GPa)
#
#
# Indices 1 2 3 4 5 6 
#
# 1 90.6010 31.5367 45.3661 0.0000 0.0000 0.0000
# 2 31.5367 85.5686 26.9024 0.0000 0.0000 0.0000
# 3 45.3661 26.9024 114.1158 0.0000 0.0000 0.0000
# 4 0.0000 0.0000 0.0000 -29.8598 0.0000 0.0000
# 5 0.0000 0.0000 0.0000 0.0000 21.5335 0.0000
# 6 0.0000 0.0000 0.0000 0.0000 0.0000 28.2931
#
#
#
# Elastic Compliance Matrix: (Units=1/GPa)
#
#
# Indices 1 2 3 4 5 6 
#
# 1 0.014907 -0.003921 -0.005002 0.000000 0.000000 0.000000
# 2 -0.003921 0.013654 -0.001660 0.000000 0.000000 0.000000
# 3 -0.005002 -0.001660 0.011143 0.000000 0.000000 0.000000
# 4 0.000000 0.000000 0.000000 -0.033490 0.000000 0.000000
# 5 0.000000 0.000000 0.000000 0.000000 0.046439 0.000000
# 6 0.000000 0.000000 0.000000 0.000000 0.000000 0.035344
#
#
# Mechanical properties :
#
#
# Convention : Reuss Voigt Hill
#
# Bulk Modulus (GPa) = 53.94541 55.32175 54.63358
# Shear Modulus (GPa) = 43.34935 16.42538 29.88737
#
# Velocity S-wave (km/s) = 4.64586 2.85978 3.85761
# Velocity P-wave (km/s) = 7.45913 6.20078 6.85887
#
# Compressibility (1/GPa) = 0.01853726
#
# Stress axis : x y z
#
# Youngs Moduli (GPa) = 67.08322 73.24037 89.74477
#
# Poissons Ratio (x) = 0.28721 0.44887
# Poissons Ratio (y) = 0.26307 0.14896
# Poissons Ratio (z) = 0.33553 0.12157
#
# Static dielectric constant tensor:
#      x y z
#    x 3.726820 0.000000 0.000000 
#    y 0.000000 3.645220 0.000000 
#    z 0.000000 0.000000 3.791280 
# 
# 
# High freq. dielectric constant tensor:
#      x y z
#    x 1.777600 0.000000 0.000000 
#    y 0.000000 1.784180 0.000000 
#    z 0.000000 0.000000 1.791100 
# 
# From -- ./inp_files/15975.got.cif
#   From: 2010.03.12/outbox.cif.g09.slc.cpg/sg23_8_cif.got.tgz:15975.got - 2010.04.14 02:50:06.
