data_PCOD8163245
_publ_section_title
;
Structure prediction by ZEFSAII (Michael W. Deem and Ramdas Pophale) SiO2 
 PCOD8163245
Probable space group: I 2 2 2
;
_chemical_formula_sum "Si O2"
_cell_formula_units_Z 64
_cell_length_a 14.345465
_cell_length_b 8.692577
_cell_length_c 24.973984
_cell_angle_alpha 90.000000
_cell_angle_beta 90.000000
_cell_angle_gamma 90.000000
_cell_volume 3114.232307
_symmetry_space_group_name_H-M "I 2 2 2"
_symmetry_group_IT_number 23
_symmetry_cell_setting 'orthorhombic'
loop_
_space_group_symop_operation_xyz
x,y,z
-x,-y,z
x,-y,-z
-x,y,-z
1/2+x,1/2+y,1/2+z
1/2-x,1/2-y,1/2+z
1/2+x,1/2-y,1/2-z
1/2-x,1/2+y,1/2-z
loop_
_atom_site_type_symbol
_atom_site_label
_atom_site_fract_x
_atom_site_fract_y
_atom_site_fract_z
Si Si1 0.791903 0.676455 0.304721
Si Si2 0.803416 0.313635 0.297560
Si Si3 0.260238 0.828753 0.003367
Si Si4 0.494213 0.817062 0.167159
Si Si5 0.208148 0.678809 0.899451
Si Si6 0.682663 0.820556 0.400493
Si Si7 0.541624 0.169656 0.051106
Si Si8 0.492331 0.819759 0.440571
O O1 0.793974 0.495226 0.297590
O O2 0.730660 0.754560 0.259359
O O3 0.743385 0.715306 0.361159
O O4 0.899907 0.734905 0.301809
O O5 0.910829 0.256163 0.305476
O O6 0.737183 0.247337 0.342981
O O7 0.194004 0.716474 0.036506
O O8 0.349520 0.843902 0.041467
O O9 0.276752 0.748847 0.945364
O O10 0.217071 0.000000 0.000000
O O11 0.483948 0.747598 0.106955
O O12 0.500000 0.000000 0.163754
O O13 0.213305 0.496180 0.892614
O O14 0.104354 0.734367 0.914153
O O15 0.572266 0.782218 0.395771
O O16 0.500000 0.000000 0.052337
O O17 0.500000 0.262731 0.000000
O O18 0.500000 0.741540 0.500000
O O19 0.500000 0.000000 0.449676
#
# Coordination Sequence:
#
# PCOD8163245 Si02
#       8
#     8   8   8   8   8   8   8   8
#     4  11  23  44  67  92 122 159 210 254 308 365
#     4  11  24  43  67  94 119 161 208 256 307 366
#     4  12  21  34  60  93 125 162 203 254 304 361
#     4   9  20  38  63  88 121 163 205 241 296 383
#     4  11  23  39  62  92 126 164 212 255 307 364
#     4  11  22  40  63  89 125 165 209 256 307 363
#     4  10  17  31  57  88 117 162 210 236 279 369
#     4   9  18  37  60  84 121 172 210 242 298 380
#
# _framework density 20.550813000000002
#
# number of rings (size 3 to 8) (size 9 to 14) (size 15 to 20)
#    0.000    1.500    3.750    2.625    1.750    1.000 
#    0.000   10.625    0.000    0.750    0.000    0.000 
#    0.000    0.000    0.000    0.000    0.000    0.000 
#
# Total GULP energy -396529.273072 kJ/mol
# GULP energy per Si atom -12391.539783 kJ/mol
# Density = 2.050404 g / cm^3
# Si number density = 20.550813 Si / 1000 Ang^3
#
#
#
# Elastic Constant Matrix: (Units=GPa)
#
#
# Indices 1 2 3 4 5 6 
#
# 1 135.4547 28.8245 42.7467 0.0000 0.0000 0.0000
# 2 28.8245 59.2263 24.3760 0.0000 0.0000 0.0000
# 3 42.7467 24.3760 103.0979 0.0000 0.0000 0.0000
# 4 0.0000 0.0000 0.0000 37.7966 0.0000 0.0000
# 5 0.0000 0.0000 0.0000 0.0000 27.0478 0.0000
# 6 0.0000 0.0000 0.0000 0.0000 0.0000 21.7478
#
#
#
# Elastic Compliance Matrix: (Units=1/GPa)
#
#
# Indices 1 2 3 4 5 6 
#
# 1 0.008995 -0.003149 -0.002985 0.000000 0.000000 0.000000
# 2 -0.003149 0.019807 -0.003377 0.000000 0.000000 0.000000
# 3 -0.002985 -0.003377 0.011736 0.000000 0.000000 0.000000
# 4 0.000000 0.000000 0.000000 0.026457 0.000000 0.000000
# 5 0.000000 0.000000 0.000000 0.000000 0.036972 0.000000
# 6 0.000000 0.000000 0.000000 0.000000 0.000000 0.045982
#
#
# Mechanical properties :
#
#
# Convention : Reuss Voigt Hill
#
# Bulk Modulus (GPa) = 46.47987 54.40815 50.44401
# Shear Modulus (GPa) = 28.38617 30.77389 29.58003
#
# Velocity S-wave (km/s) = 3.72057 3.87389 3.79801
# Velocity P-wave (km/s) = 6.41272 6.82216 6.62061
#
# Compressibility (1/GPa) = 0.02151469
#
# Stress axis : x y z
#
# Youngs Moduli (GPa) = 111.17775 50.48713 85.21058
#
# Poissons Ratio (x) = 0.15899 0.25434
# Poissons Ratio (y) = 0.35011 0.28779
# Poissons Ratio (z) = 0.33185 0.17052
#
# Static dielectric constant tensor:
#      x y z
#    x 4.081740 0.000000 0.000000 
#    y 0.000000 3.389010 0.000000 
#    z 0.000000 0.000000 3.944720 
# 
# 
# High freq. dielectric constant tensor:
#      x y z
#    x 1.819070 0.000000 0.000000 
#    y 0.000000 1.770430 0.000000 
#    z 0.000000 0.000000 1.805660 
# 
# From -- ./inp_files/28561.got.cif
#   From: 2010.03.12/outbox.cif.g09.slc.cpg/sg23_15_cif.got.tgz:28561.got - 2010.04.14 02:50:06.
