data_PCOD8163430
_publ_section_title
;
Structure prediction by ZEFSAII (Michael W. Deem and Ramdas Pophale) SiO2 
 PCOD8163430
Probable space group: I 2 2 2
;
_chemical_formula_sum "Si O2"
_cell_formula_units_Z 40
_cell_length_a 9.293259
_cell_length_b 15.376284
_cell_length_c 14.677669
_cell_angle_alpha 90.000000
_cell_angle_beta 90.000000
_cell_angle_gamma 90.000000
_cell_volume 2097.377102
_symmetry_space_group_name_H-M "I 2 2 2"
_symmetry_group_IT_number 23
_symmetry_cell_setting 'orthorhombic'
loop_
_space_group_symop_operation_xyz
x,y,z
-x,-y,z
x,-y,-z
-x,y,-z
1/2+x,1/2+y,1/2+z
1/2-x,1/2-y,1/2+z
1/2+x,1/2-y,1/2-z
1/2-x,1/2+y,1/2-z
loop_
_atom_site_type_symbol
_atom_site_label
_atom_site_fract_x
_atom_site_fract_y
_atom_site_fract_z
Si Si1 0.651821 0.580124 0.450362
Si Si2 0.139327 0.821723 0.703374
Si Si3 0.155471 0.991182 0.251432
Si Si4 0.836738 0.251890 0.514506
Si Si5 0.697542 0.681058 0.180611
O O1 0.732539 0.500000 0.500000
O O2 0.500000 0.597873 0.500000
O O3 0.630018 0.550127 0.347470
O O4 0.747095 0.664733 0.457040
O O5 0.176094 0.817693 0.596049
O O6 0.205534 0.740782 0.756063
O O7 0.967305 0.814680 0.715661
O O8 0.214579 0.909583 0.745065
O O9 0.248877 0.920234 0.308150
O O10 0.000000 0.000000 0.300248
O O11 0.776528 0.207966 0.423409
O O12 0.000000 0.282700 0.500000
#
# Coordination Sequence:
#
# PCOD8163430 Si02
#       5
#     8   8   8   8   8
#     4  11  20  33  58  86 110 141 196 238 280 328
#     4  10  21  38  57  82 117 148 191 232 283 339
#     4  10  19  35  57  84 110 148 192 234 272 335
#     4  10  22  37  54  84 118 149 180 234 294 335
#     4  10  21  36  58  82 114 151 189 234 282 338
#
# _framework density 19.071439999999999
#
# number of rings (size 3 to 8) (size 9 to 14) (size 15 to 20)
#    0.000    1.800    4.000    1.200    2.800    1.200 
#    0.000    5.000    0.000    0.000    0.000    4.200 
#    0.000    0.000    0.000    0.000    0.000    0.000 
#
# Total GULP energy -247823.362393 kJ/mol
# GULP energy per Si atom -12391.168120 kJ/mol
# Density = 1.902803 g / cm^3
# Si number density = 19.071440 Si / 1000 Ang^3
#
#
#
# Elastic Constant Matrix: (Units=GPa)
#
#
# Indices 1 2 3 4 5 6 
#
# 1 40.5365 36.4341 28.8142 0.0000 0.0000 0.0000
# 2 36.4341 146.4665 38.7735 0.0000 0.0000 0.0000
# 3 28.8142 38.7735 107.5748 0.0000 0.0000 0.0000
# 4 0.0000 0.0000 0.0000 37.2773 0.0000 0.0000
# 5 0.0000 0.0000 0.0000 0.0000 12.5798 0.0000
# 6 0.0000 0.0000 0.0000 0.0000 0.0000 27.8961
#
#
#
# Elastic Compliance Matrix: (Units=1/GPa)
#
#
# Indices 1 2 3 4 5 6 
#
# 1 0.036105 -0.007098 -0.007112 0.000000 0.000000 0.000000
# 2 -0.007098 0.008943 -0.001322 0.000000 0.000000 0.000000
# 3 -0.007112 -0.001322 0.011677 0.000000 0.000000 0.000000
# 4 0.000000 0.000000 0.000000 0.026826 0.000000 0.000000
# 5 0.000000 0.000000 0.000000 0.000000 0.079493 0.000000
# 6 0.000000 0.000000 0.000000 0.000000 0.000000 0.035847
#
#
# Mechanical properties :
#
#
# Convention : Reuss Voigt Hill
#
# Bulk Modulus (GPa) = 38.97140 55.84681 47.40910
# Shear Modulus (GPa) = 20.96351 28.25438 24.60894
#
# Velocity S-wave (km/s) = 3.31903 3.85320 3.59605
# Velocity P-wave (km/s) = 5.93015 7.01019 6.49267
#
# Compressibility (1/GPa) = 0.02565984
#
# Stress axis : x y z
#
# Youngs Moduli (GPa) = 27.69731 111.81623 85.63539
#
# Poissons Ratio (x) = 0.79371 0.60906
# Poissons Ratio (y) = 0.19661 0.11322
# Poissons Ratio (z) = 0.19699 0.14784
#
# Static dielectric constant tensor:
#      x y z
#    x 3.247450 0.000000 0.000000 
#    y 0.000000 3.953560 0.000000 
#    z 0.000000 0.000000 3.692240 
# 
# 
# High freq. dielectric constant tensor:
#      x y z
#    x 1.703060 0.000000 0.000000 
#    y 0.000000 1.757390 0.000000 
#    z 0.000000 0.000000 1.753650 
# 
# From -- ./inp_files/9557.got.cif
#   From: 2010.03.12/outbox.cif.g09.slc.cpg/sg23_5_cif.got.tgz:9557.got - 2010.04.14 02:50:06.
