data_PCOD8163896
_publ_section_title
;
Structure prediction by ZEFSAII (Michael W. Deem and Ramdas Pophale) SiO2 
 PCOD8163896
Probable space group: I 2 2 2
;
_chemical_formula_sum "Si O2"
_cell_formula_units_Z 48
_cell_length_a 9.546457
_cell_length_b 14.465923
_cell_length_c 16.701832
_cell_angle_alpha 90.000000
_cell_angle_beta 90.000000
_cell_angle_gamma 90.000000
_cell_volume 2306.494805
_symmetry_space_group_name_H-M "I 2 2 2"
_symmetry_group_IT_number 23
_symmetry_cell_setting 'orthorhombic'
loop_
_space_group_symop_operation_xyz
x,y,z
-x,-y,z
x,-y,-z
-x,y,-z
1/2+x,1/2+y,1/2+z
1/2-x,1/2-y,1/2+z
1/2+x,1/2-y,1/2-z
1/2-x,1/2+y,1/2-z
loop_
_atom_site_type_symbol
_atom_site_label
_atom_site_fract_x
_atom_site_fract_y
_atom_site_fract_z
Si Si1 0.738162 0.500000 0.500000
Si Si2 0.857310 0.545928 0.335796
Si Si3 0.457810 0.232389 0.354850
Si Si4 0.637567 0.041579 0.588201
Si Si5 0.147495 0.047208 0.283206
Si Si6 0.814687 0.740353 0.266345
Si Si7 0.000000 0.136743 0.000000
O O1 0.840337 0.530896 0.429645
O O2 0.635940 0.581401 0.528505
O O3 0.731728 0.491711 0.292386
O O4 0.864911 0.656593 0.322874
O O5 0.000000 0.500000 0.304857
O O6 0.390720 0.150664 0.407848
O O7 0.355269 0.254489 0.277760
O O8 0.616886 0.215849 0.321173
O O9 0.456477 0.312562 0.419152
O O10 0.774817 0.013218 0.636672
O O11 0.500000 0.000000 0.630748
O O12 0.654631 0.000000 0.500000
O O13 0.125864 0.157781 0.286009
O O14 0.000000 0.000000 0.281736
#
# Coordination Sequence:
#
# PCOD8163896 Si02
#       7
#     4   8   8   8   8   8   4
#     4  11  25  40  64  92 134 174 226 274 338 410
#     4  12  24  43  66  94 136 177 227 286 343 413
#     4  11  22  40  67  95 134 172 224 283 333 409
#     4  10  21  40  63  94 129 171 220 266 339 404
#     4  11  24  40  68  99 133 178 224 287 346 409
#     4  11  23  41  64 100 131 174 234 277 340 415
#     4  11  22  40  65  98 130 178 225 276 346 417
#
# _framework density 20.8108
#
# number of rings (size 3 to 8) (size 9 to 14) (size 15 to 20)
#    0.000    1.000    1.667    6.750    2.333    0.333 
#    0.000    1.667    3.667    0.000    0.000    0.000 
#    0.000    0.000    0.000    0.000    0.000    0.000 
#
# Total GULP energy -297337.809878 kJ/mol
# GULP energy per Si atom -12389.075412 kJ/mol
# Density = 2.076343 g / cm^3
# Si number density = 20.810800 Si / 1000 Ang^3
#
#
#
# Elastic Constant Matrix: (Units=GPa)
#
#
# Indices 1 2 3 4 5 6 
#
# 1 127.2035 56.5497 46.6135 0.0000 0.0000 0.0000
# 2 56.5497 144.8438 52.3602 0.0000 0.0000 0.0000
# 3 46.6135 52.3602 111.5862 0.0000 0.0000 0.0000
# 4 0.0000 0.0000 0.0000 28.5079 0.0000 0.0000
# 5 0.0000 0.0000 0.0000 0.0000 32.0144 0.0000
# 6 0.0000 0.0000 0.0000 0.0000 0.0000 25.9100
#
#
#
# Elastic Compliance Matrix: (Units=1/GPa)
#
#
# Indices 1 2 3 4 5 6 
#
# 1 0.010232 -0.002950 -0.002890 0.000000 0.000000 0.000000
# 2 -0.002950 0.009165 -0.003068 0.000000 0.000000 0.000000
# 3 -0.002890 -0.003068 0.011609 0.000000 0.000000 0.000000
# 4 0.000000 0.000000 0.000000 0.035078 0.000000 0.000000
# 5 0.000000 0.000000 0.000000 0.000000 0.031236 0.000000
# 6 0.000000 0.000000 0.000000 0.000000 0.000000 0.038595
#
#
# Mechanical properties :
#
#
# Convention : Reuss Voigt Hill
#
# Bulk Modulus (GPa) = 75.82025 77.18669 76.50347
# Shear Modulus (GPa) = 31.62013 32.49379 32.05696
#
# Velocity S-wave (km/s) = 3.90219 3.95573 3.92905
# Velocity P-wave (km/s) = 7.53757 7.61800 7.57789
#
# Compressibility (1/GPa) = 0.01318909
#
# Stress axis : x y z
#
# Youngs Moduli (GPa) = 97.73347 109.11259 86.14298
#
# Poissons Ratio (x) = 0.32188 0.24895
# Poissons Ratio (y) = 0.28832 0.26430
# Poissons Ratio (z) = 0.28245 0.33477
#
# Static dielectric constant tensor:
#      x y z
#    x 4.110590 0.000000 0.000000 
#    y 0.000000 4.133390 0.000000 
#    z 0.000000 0.000000 3.765580 
# 
# 
# High freq. dielectric constant tensor:
#      x y z
#    x 1.818520 0.000000 0.000000 
#    y 0.000000 1.833800 0.000000 
#    z 0.000000 0.000000 1.803500 
# 
# From -- ./inp_files/23757.got.cif
#   From: 2010.03.12/outbox.cif.g09.slc.cpg/sg23_12_cif.got.tgz:23757.got - 2010.04.14 02:50:06.
