data_PCOD8163891
_publ_section_title
;
Structure prediction by ZEFSAII (Michael W. Deem and Ramdas Pophale) SiO2 
 PCOD8163891
Probable space group: I 2 2 2
;
_chemical_formula_sum "Si O2"
_cell_formula_units_Z 52
_cell_length_a 14.638067
_cell_length_b 9.143468
_cell_length_c 20.217884
_cell_angle_alpha 90.000000
_cell_angle_beta 90.000000
_cell_angle_gamma 90.000000
_cell_volume 2706.016126
_symmetry_space_group_name_H-M "I 2 2 2"
_symmetry_group_IT_number 23
_symmetry_cell_setting 'orthorhombic'
loop_
_space_group_symop_operation_xyz
x,y,z
-x,-y,z
x,-y,-z
-x,y,-z
1/2+x,1/2+y,1/2+z
1/2-x,1/2-y,1/2+z
1/2+x,1/2-y,1/2-z
1/2-x,1/2+y,1/2-z
loop_
_atom_site_type_symbol
_atom_site_label
_atom_site_fract_x
_atom_site_fract_y
_atom_site_fract_z
Si Si1 0.000000 0.713172 0.000000
Si Si2 0.690942 0.871181 0.296812
Si Si3 0.081102 0.891509 0.889103
Si Si4 0.675082 0.890285 0.444019
Si Si5 0.747301 0.927952 0.932374
Si Si6 0.161101 0.626932 0.697809
Si Si7 0.508423 0.834220 0.709357
O O1 0.068093 0.817791 0.960098
O O2 0.935394 0.616457 0.952577
O O3 0.694742 0.946502 0.369855
O O4 0.775190 0.764598 0.287428
O O5 0.596241 0.776643 0.287997
O O6 0.698810 0.995229 0.242279
O O7 0.077188 0.762540 0.834911
O O8 0.175658 0.979134 0.893289
O O9 0.000000 0.000000 0.870777
O O10 0.716923 0.730469 0.452763
O O11 0.716007 0.000000 0.500000
O O12 0.664213 0.914836 0.879975
O O13 0.711606 0.000000 0.000000
O O14 0.056296 0.662662 0.717941
O O15 0.500000 0.000000 0.681581
#
# Coordination Sequence:
#
# PCOD8163891 Si02
#       7
#     4   8   8   8   8   8   8
#     4  12  20  30  48  80 114 142 180 204 264 354
#     4  10  21  40  54  84 115 149 185 232 277 337
#     4  12  19  33  52  79 113 152 181 220 270 353
#     4  11  23  32  51  81 116 146 182 218 279 353
#     4  11  21  36  53  76 109 146 188 236 285 328
#     4  10  22  36  55  80 109 148 192 232 275 343
#     4  10  22  36  56  79 115 148 187 229 284 330
#
# _framework density 19.216442000000001
#
# number of rings (size 3 to 8) (size 9 to 14) (size 15 to 20)
#    0.000    1.231    4.615    2.308    4.308    1.231 
#    0.000    0.000    0.000    4.154    0.000    0.000 
#    0.000    1.231    0.000    0.000    0.000    0.000 
#
# Total GULP energy -322236.235389 kJ/mol
# GULP energy per Si atom -12393.701361 kJ/mol
# Density = 1.917270 g / cm^3
# Si number density = 19.216442 Si / 1000 Ang^3
#
#
#
# Elastic Constant Matrix: (Units=GPa)
#
#
# Indices 1 2 3 4 5 6 
#
# 1 49.5189 13.2892 35.5605 0.0000 0.0000 0.0000
# 2 13.2892 75.0225 47.0457 0.0000 0.0000 0.0000
# 3 35.5605 47.0457 134.3320 0.0000 0.0000 0.0000
# 4 0.0000 0.0000 0.0000 27.8877 0.0000 0.0000
# 5 0.0000 0.0000 0.0000 0.0000 36.5557 0.0000
# 6 0.0000 0.0000 0.0000 0.0000 0.0000 15.5783
#
#
#
# Elastic Compliance Matrix: (Units=1/GPa)
#
#
# Indices 1 2 3 4 5 6 
#
# 1 0.024942 -0.000356 -0.006478 0.000000 0.000000 0.000000
# 2 -0.000356 0.017086 -0.005890 0.000000 0.000000 0.000000
# 3 -0.006478 -0.005890 0.011222 0.000000 0.000000 0.000000
# 4 0.000000 0.000000 0.000000 0.035858 0.000000 0.000000
# 5 0.000000 0.000000 0.000000 0.000000 0.027355 0.000000
# 6 0.000000 0.000000 0.000000 0.000000 0.000000 0.064192
#
#
# Mechanical properties :
#
#
# Convention : Reuss Voigt Hill
#
# Bulk Modulus (GPa) = 35.96805 50.07379 43.02092
# Shear Modulus (GPa) = 23.21601 26.86956 25.04279
#
# Velocity S-wave (km/s) = 3.47959 3.74339 3.61390
# Velocity P-wave (km/s) = 5.90774 6.69315 6.31267
#
# Compressibility (1/GPa) = 0.02780245
#
# Stress axis : x y z
#
# Youngs Moduli (GPa) = 40.09340 58.52876 89.11277
#
# Poissons Ratio (x) = 0.02082 0.57727
# Poissons Ratio (y) = 0.01427 0.52483
# Poissons Ratio (z) = 0.25972 0.34471
#
# Static dielectric constant tensor:
#      x y z
#    x 3.330720 0.000000 0.000000 
#    y 0.000000 3.615220 0.000000 
#    z 0.000000 0.000000 3.651170 
# 
# 
# High freq. dielectric constant tensor:
#      x y z
#    x 1.707540 0.000000 0.000000 
#    y 0.000000 1.755370 0.000000 
#    z 0.000000 0.000000 1.748730 
# 
# From -- ./inp_files/10148.got.cif
#   From: 2010.03.12/outbox.cif.g09.slc.cpg/sg23_6_cif.got.tgz:10148.got - 2010.04.14 02:50:06.
