data_PCOD8163069
_publ_section_title
;
Structure prediction by ZEFSAII (Michael W. Deem and Ramdas Pophale) SiO2 
 PCOD8163069
Probable space group: F 2 2 2
;
_chemical_formula_sum "Si O2"
_cell_formula_units_Z 100
_cell_length_a 23.003620
_cell_length_b 14.584494
_cell_length_c 12.626740
_cell_angle_alpha 90.000000
_cell_angle_beta 90.000000
_cell_angle_gamma 90.000000
_cell_volume 4236.222756
_symmetry_space_group_name_H-M "F 2 2 2"
_symmetry_group_IT_number 22
_symmetry_cell_setting 'orthorhombic'
loop_
_space_group_symop_operation_xyz
x,y,z
-x,-y,z
x,-y,-z
-x,y,-z
x,1/2+y,1/2+z
-x,1/2-y,1/2+z
x,1/2-y,1/2-z
-x,1/2+y,1/2-z
1/2+x,y,1/2+z
1/2-x,-y,1/2+z
1/2+x,-y,1/2-z
1/2-x,y,1/2-z
1/2+x,1/2+y,z
1/2-x,1/2-y,z
1/2+x,1/2-y,-z
1/2-x,1/2+y,-z
loop_
_atom_site_type_symbol
_atom_site_label
_atom_site_fract_x
_atom_site_fract_y
_atom_site_fract_z
Si Si1 0.219579 0.342874 0.065338
Si Si2 0.150593 0.141820 0.630826
Si Si3 0.750000 0.250000 0.250000
Si Si4 0.432397 0.343900 0.119937
Si Si5 0.303147 0.500000 0.000000
Si Si6 0.059589 0.300777 0.617362
Si Si7 0.885463 0.029273 0.192794
Si Si8 0.163355 0.250000 0.250000
O O1 0.250000 0.250000 0.023645
O O2 0.266763 0.422218 0.058498
O O3 0.201258 0.327189 0.189082
O O4 0.164464 0.372108 0.993372
O O5 0.208290 0.187310 0.679144
O O6 0.093301 0.206391 0.634719
O O7 0.142948 0.041248 0.688905
O O8 0.491042 0.286554 0.143175
O O9 0.429138 0.443748 0.176664
O O10 0.375328 0.292050 0.157593
O O11 0.428454 0.351376 0.994122
O O12 0.340575 0.539572 0.096532
O O13 0.079459 0.375892 0.700860
#
# Coordination Sequence:
#
# PCOD8163069 Si02
#       8
#    16  16   4  16   8  16  16   8
#     4  12  26  48  68 102 150 203 250 307 378 461
#     4  12  24  41  71 107 143 187 246 305 372 439
#     4  12  20  38  68  94 142 186 228 292 362 446
#     4  11  25  43  74 100 140 190 243 301 381 439
#     4  12  26  44  75 108 153 194 254 310 388 452
#     4  11  22  47  71 104 140 185 236 308 369 451
#     4  12  23  43  70 107 142 180 242 312 365 444
#     4  12  27  47  68  98 147 195 254 300 372 460
#
# _framework density 23.605934999999999
#
# number of rings (size 3 to 8) (size 9 to 14) (size 15 to 20)
#    0.000    0.320    5.600    3.600    4.480    1.280 
#    0.000    0.000    0.000    0.000    0.000    5.600 
#    0.000    0.000    0.000    0.000    0.000    0.000 
#
# Total GULP energy -309727.489347 kJ/mol
# GULP energy per Si atom -12389.099574 kJ/mol
# Density = 2.355221 g / cm^3
# Si number density = 23.605935 Si / 1000 Ang^3
#
#
#
# Elastic Constant Matrix: (Units=GPa)
#
#
# Indices 1 2 3 4 5 6 
#
# 1 135.5469 45.6010 51.2156 0.0000 0.0000 0.0000
# 2 45.6010 73.0665 33.1095 0.0000 0.0000 0.0000
# 3 51.2156 33.1095 129.4052 0.0000 0.0000 0.0000
# 4 0.0000 0.0000 0.0000 46.9733 0.0000 0.0000
# 5 0.0000 0.0000 0.0000 0.0000 33.5451 0.0000
# 6 0.0000 0.0000 0.0000 0.0000 0.0000 18.7084
#
#
#
# Elastic Compliance Matrix: (Units=1/GPa)
#
#
# Indices 1 2 3 4 5 6 
#
# 1 0.010108 -0.005085 -0.002700 0.000000 0.000000 0.000000
# 2 -0.005085 0.018039 -0.002603 0.000000 0.000000 0.000000
# 3 -0.002700 -0.002603 0.009462 0.000000 0.000000 0.000000
# 4 0.000000 0.000000 0.000000 0.021289 0.000000 0.000000
# 5 0.000000 0.000000 0.000000 0.000000 0.029811 0.000000
# 6 0.000000 0.000000 0.000000 0.000000 0.000000 0.053452
#
#
# Mechanical properties :
#
#
# Convention : Reuss Voigt Hill
#
# Bulk Modulus (GPa) = 59.40260 66.43008 62.91634
# Shear Modulus (GPa) = 29.66513 33.71819 31.69166
#
# Velocity S-wave (km/s) = 3.54882 3.78349 3.66803
# Velocity P-wave (km/s) = 6.48159 6.87668 6.68206
#
# Compressibility (1/GPa) = 0.01683428
#
# Stress axis : x y z
#
# Youngs Moduli (GPa) = 98.92810 55.43412 105.68550
#
# Poissons Ratio (x) = 0.28190 0.28530
# Poissons Ratio (y) = 0.50309 0.27509
# Poissons Ratio (z) = 0.26706 0.14429
#
# Static dielectric constant tensor:
#      x y z
#    x 4.453810 0.000000 0.000000 
#    y 0.000000 4.145910 0.000000 
#    z 0.000000 0.000000 4.637100 
# 
# 
# High freq. dielectric constant tensor:
#      x y z
#    x 1.940220 0.000000 0.000000 
#    y 0.000000 1.917110 0.000000 
#    z 0.000000 0.000000 1.951450 
# 
# From -- ./inp_files/33147.got.cif
#   From: 2010.03.12/outbox.cif.g09.slc.cpg/sg22_17_cif.got.tgz:33147.got - 2010.04.14 02:24:06.
