data_PCOD8163155
_publ_section_title
;
Structure prediction by ZEFSAII (Michael W. Deem and Ramdas Pophale) SiO2 
 PCOD8163155
Probable space group: F 2 2 2
;
_chemical_formula_sum "Si O2"
_cell_formula_units_Z 88
_cell_length_a 12.780289
_cell_length_b 12.726381
_cell_length_c 23.148843
_cell_angle_alpha 90.000000
_cell_angle_beta 90.000000
_cell_angle_gamma 90.000000
_cell_volume 3765.085865
_symmetry_space_group_name_H-M "F 2 2 2"
_symmetry_group_IT_number 22
_symmetry_cell_setting 'orthorhombic'
loop_
_space_group_symop_operation_xyz
x,y,z
-x,-y,z
x,-y,-z
-x,y,-z
x,1/2+y,1/2+z
-x,1/2-y,1/2+z
x,1/2-y,1/2-z
-x,1/2+y,1/2-z
1/2+x,y,1/2+z
1/2-x,-y,1/2+z
1/2+x,-y,1/2-z
1/2-x,y,1/2-z
1/2+x,1/2+y,z
1/2-x,1/2-y,z
1/2+x,1/2-y,-z
1/2-x,1/2+y,-z
loop_
_atom_site_type_symbol
_atom_site_label
_atom_site_fract_x
_atom_site_fract_y
_atom_site_fract_z
Si Si1 0.500000 0.000000 0.366259
Si Si2 0.000000 0.773366 0.000000
Si Si3 0.250000 0.525173 0.250000
Si Si4 0.422721 0.678921 0.198983
Si Si5 0.344365 0.937611 0.863631
Si Si6 0.666487 0.067993 0.553252
Si Si7 0.938218 0.844172 0.609891
O O1 0.513502 0.895647 0.327041
O O2 0.602403 0.012709 0.405877
O O3 0.087535 0.841553 0.967399
O O4 0.942241 0.697679 0.955073
O O5 0.332464 0.601839 0.220244
O O6 0.301950 0.449897 0.298261
O O7 0.469772 0.750000 0.250000
O O8 0.380855 0.757526 0.149573
O O9 0.260779 0.885547 0.907994
O O10 0.446452 0.864551 0.863096
O O11 0.369836 0.051466 0.890124
O O12 0.710374 0.000000 0.500000
#
# Coordination Sequence:
#
# PCOD8163155 Si02
#       7
#     8   8   8  16  16  16  16
#     4  12  23  46  70 110 152 183 246 312 368 440
#     4  12  25  49  72 102 146 188 250 302 372 452
#     4  12  25  44  74 111 142 192 255 306 361 434
#     4  12  25  42  73 106 147 191 251 303 365 437
#     4  11  28  47  73 108 152 194 244 306 373 440
#     4  12  23  45  75 106 137 186 244 304 367 430
#     4  11  27  49  70 107 150 199 243 300 382 441
#
# _framework density 23.372641000000002
#
# number of rings (size 3 to 8) (size 9 to 14) (size 15 to 20)
#    0.000    0.364    7.273    0.273    5.091    1.455 
#    0.000    0.000    0.000    1.091    0.000    0.000 
#    0.000    0.000    0.000    0.000    0.000    0.000 
#
# Total GULP energy -272824.662296 kJ/mol
# GULP energy per Si atom -12401.121013 kJ/mol
# Density = 2.331944 g / cm^3
# Si number density = 23.372641 Si / 1000 Ang^3
#
#
#
# Elastic Constant Matrix: (Units=GPa)
#
#
# Indices 1 2 3 4 5 6 
#
# 1 89.7552 8.5733 37.2802 0.0000 0.0000 0.0000
# 2 8.5733 77.8408 37.5615 0.0000 0.0000 0.0000
# 3 37.2802 37.5615 155.8905 0.0000 0.0000 0.0000
# 4 0.0000 0.0000 0.0000 41.1809 0.0000 0.0000
# 5 0.0000 0.0000 0.0000 0.0000 31.3134 0.0000
# 6 0.0000 0.0000 0.0000 0.0000 0.0000 21.9259
#
#
#
# Elastic Compliance Matrix: (Units=1/GPa)
#
#
# Indices 1 2 3 4 5 6 
#
# 1 0.012371 0.000074 -0.002976 0.000000 0.000000 0.000000
# 2 0.000074 0.014537 -0.003520 0.000000 0.000000 0.000000
# 3 -0.002976 -0.003520 0.007975 0.000000 0.000000 0.000000
# 4 0.000000 0.000000 0.000000 0.024283 0.000000 0.000000
# 5 0.000000 0.000000 0.000000 0.000000 0.031935 0.000000
# 6 0.000000 0.000000 0.000000 0.000000 0.000000 0.045608
#
#
# Mechanical properties :
#
#
# Convention : Reuss Voigt Hill
#
# Bulk Modulus (GPa) = 45.37836 54.47961 49.92899
# Shear Modulus (GPa) = 31.86738 34.88880 33.37809
#
# Velocity S-wave (km/s) = 3.69650 3.86776 3.78310
# Velocity P-wave (km/s) = 6.13808 6.58072 6.36325
#
# Compressibility (1/GPa) = 0.02203693
#
# Stress axis : x y z
#
# Youngs Moduli (GPa) = 80.83743 68.78831 125.39680
#
# Poissons Ratio (x) = -0.00506 0.37319
# Poissons Ratio (y) = -0.00595 0.44144
# Poissons Ratio (z) = 0.24058 0.24216
#
# Static dielectric constant tensor:
#      x y z
#    x 4.153740 0.000000 0.000000 
#    y 0.000000 4.179160 0.000000 
#    z 0.000000 0.000000 4.762490 
# 
# 
# High freq. dielectric constant tensor:
#      x y z
#    x 1.908030 0.000000 0.000000 
#    y 0.000000 1.920880 0.000000 
#    z 0.000000 0.000000 1.948030 
# 
# From -- ./inp_files/48817.got.cif
#   From: 2010.03.12/outbox.cif.g09.slc.cpg/sg22_25_cif.got.tgz:48817.got - 2010.04.14 02:24:06.
