data_PCOD8163059
_publ_section_title
;
Structure prediction by ZEFSAII (Michael W. Deem and Ramdas Pophale) SiO2 
 PCOD8163059
Probable space group: F 2 2 2
;
_chemical_formula_sum "Si O2"
_cell_formula_units_Z 84
_cell_length_a 7.147706
_cell_length_b 22.931414
_cell_length_c 23.282914
_cell_angle_alpha 90.000000
_cell_angle_beta 90.000000
_cell_angle_gamma 90.000000
_cell_volume 3816.232712
_symmetry_space_group_name_H-M "F 2 2 2"
_symmetry_group_IT_number 22
_symmetry_cell_setting 'orthorhombic'
loop_
_space_group_symop_operation_xyz
x,y,z
-x,-y,z
x,-y,-z
-x,y,-z
x,1/2+y,1/2+z
-x,1/2-y,1/2+z
x,1/2-y,1/2-z
-x,1/2+y,1/2-z
1/2+x,y,1/2+z
1/2-x,-y,1/2+z
1/2+x,-y,1/2-z
1/2-x,y,1/2-z
1/2+x,1/2+y,z
1/2-x,1/2-y,z
1/2+x,1/2-y,-z
1/2-x,1/2+y,-z
loop_
_atom_site_type_symbol
_atom_site_label
_atom_site_fract_x
_atom_site_fract_y
_atom_site_fract_z
Si Si1 0.618591 0.365499 0.370563
Si Si2 0.500000 0.684112 0.000000
Si Si3 0.000000 0.000000 0.500000
Si Si4 0.036338 0.064749 0.266368
Si Si5 0.029086 0.065767 0.861364
Si Si6 0.785498 0.601876 0.060031
Si Si7 0.750000 0.750000 0.911297
O O1 0.529197 0.386578 0.310854
O O2 0.472575 0.364859 0.422458
O O3 0.683907 0.299041 0.366223
O O4 0.789868 0.406563 0.391620
O O5 0.673251 0.641889 0.015534
O O6 0.422885 0.725648 0.050544
O O7 0.145441 0.960686 0.536532
O O8 0.250000 0.073530 0.250000
O O9 0.925423 0.071826 0.206505
O O10 0.000000 0.000000 0.292598
O O11 0.839915 0.096587 0.882318
O O12 0.000000 0.000000 0.880837
#
# Coordination Sequence:
#
# PCOD8163059 Si02
#       7
#    16   8   4  16  16  16   8
#     4  12  25  46  72 106 138 187 242 295 353 429
#     4  12  26  50  74  96 141 197 256 300 350 422
#     4  12  28  40  68 112 154 190 228 306 366 430
#     4  11  22  42  72 108 147 184 228 287 367 446
#     4  11  23  43  71 106 146 185 222 289 361 439
#     4  12  26  45  69 104 147 184 243 290 360 424
#     4  12  26  48  75 100 136 193 252 298 348 416
#
# _framework density 22.011234999999999
#
# number of rings (size 3 to 8) (size 9 to 14) (size 15 to 20)
#    0.000    0.381    3.810    6.286    4.000    0.000 
#    0.000    1.905    0.000    1.143    0.000    0.000 
#    0.000    0.000    0.000    0.000    0.000    0.000 
#
# Total GULP energy -260367.521205 kJ/mol
# GULP energy per Si atom -12398.453391 kJ/mol
# Density = 2.196114 g / cm^3
# Si number density = 22.011235 Si / 1000 Ang^3
#
#
#
# Elastic Constant Matrix: (Units=GPa)
#
#
# Indices 1 2 3 4 5 6 
#
# 1 154.1621 75.6207 39.1305 0.0000 0.0000 0.0000
# 2 75.6207 156.7331 60.0331 0.0000 0.0000 0.0000
# 3 39.1305 60.0331 81.5859 0.0000 0.0000 0.0000
# 4 0.0000 0.0000 0.0000 38.4641 0.0000 0.0000
# 5 0.0000 0.0000 0.0000 0.0000 12.4761 0.0000
# 6 0.0000 0.0000 0.0000 0.0000 0.0000 41.1325
#
#
#
# Elastic Compliance Matrix: (Units=1/GPa)
#
#
# Indices 1 2 3 4 5 6 
#
# 1 0.008627 -0.003589 -0.001497 0.000000 0.000000 0.000000
# 2 -0.003589 0.010377 -0.005915 0.000000 0.000000 0.000000
# 3 -0.001497 -0.005915 0.017327 0.000000 0.000000 0.000000
# 4 0.000000 0.000000 0.000000 0.025998 0.000000 0.000000
# 5 0.000000 0.000000 0.000000 0.000000 0.080153 0.000000
# 6 0.000000 0.000000 0.000000 0.000000 0.000000 0.024312
#
#
# Mechanical properties :
#
#
# Convention : Reuss Voigt Hill
#
# Bulk Modulus (GPa) = 69.78072 82.44997 76.11535
# Shear Modulus (GPa) = 25.83011 32.92765 29.37888
#
# Velocity S-wave (km/s) = 3.42935 3.87194 3.65735
# Velocity P-wave (km/s) = 6.88852 7.58477 7.24501
#
# Compressibility (1/GPa) = 0.01433061
#
# Stress axis : x y z
#
# Youngs Moduli (GPa) = 115.91276 96.36344 57.71343
#
# Poissons Ratio (x) = 0.34586 0.08639
# Poissons Ratio (y) = 0.41603 0.34135
# Poissons Ratio (z) = 0.17350 0.56994
#
# Static dielectric constant tensor:
#      x y z
#    x 4.244080 0.000000 0.000000 
#    y 0.000000 3.978790 0.000000 
#    z 0.000000 0.000000 3.939780 
# 
# 
# High freq. dielectric constant tensor:
#      x y z
#    x 1.894360 0.000000 0.000000 
#    y 0.000000 1.854110 0.000000 
#    z 0.000000 0.000000 1.858230 
# 
# From -- ./inp_files/47230.got.cif
#   From: 2010.03.12/outbox.cif.g09.slc.cpg/sg22_24_cif.got.tgz:47230.got - 2010.04.14 02:24:06.
