data_PCOD8163931
_publ_section_title
;
Structure prediction by ZEFSAII (Michael W. Deem and Ramdas Pophale) SiO2 
 PCOD8163931
Probable space group: I 2 2 2
;
_chemical_formula_sum "Si O2"
_cell_formula_units_Z 40
_cell_length_a 28.201752
_cell_length_b 12.809869
_cell_length_c 5.107777
_cell_angle_alpha 90.000000
_cell_angle_beta 90.000000
_cell_angle_gamma 90.000000
_cell_volume 1845.239343
_symmetry_space_group_name_H-M "I 2 2 2"
_symmetry_group_IT_number 23
_symmetry_cell_setting 'orthorhombic'
loop_
_space_group_symop_operation_xyz
x,y,z
-x,-y,z
x,-y,-z
-x,y,-z
1/2+x,1/2+y,1/2+z
1/2-x,1/2-y,1/2+z
1/2+x,1/2-y,1/2-z
1/2-x,1/2+y,1/2-z
loop_
_atom_site_type_symbol
_atom_site_label
_atom_site_fract_x
_atom_site_fract_y
_atom_site_fract_z
Si Si1 0.447450 0.878142 0.062384
Si Si2 0.309807 0.293046 0.457199
Si Si3 0.584834 0.232866 0.590291
Si Si4 0.765420 0.881855 0.457124
Si Si5 0.052607 0.952023 0.243780
O O1 0.436847 0.839526 0.358796
O O2 0.500000 0.836206 0.000000
O O3 0.409408 0.833752 0.854997
O O4 0.445203 0.000000 0.000000
O O5 0.365003 0.274674 0.506783
O O6 0.283060 0.182824 0.477823
O O7 0.289985 0.370951 0.676214
O O8 0.302841 0.344656 0.174611
O O9 0.551482 0.328015 0.694727
O O10 0.749981 0.000000 0.500000
O O11 0.078775 0.000000 0.500000
O O12 0.000000 0.000000 0.248124
O O13 0.081514 0.000000 0.000000
#
# Coordination Sequence:
#
# PCOD8163931 Si02
#       5
#     8   8   8   8   8
#     4  11  26  44  66  94 126 174 223 270 335 387
#     4  10  23  40  62 102 123 164 223 253 328 393
#     4  12  24  42  69  93 135 169 215 290 312 389
#     4  10  21  41  66  88 134 169 201 265 328 398
#     4  10  23  38  58  91 124 168 218 256 317 389
#
# _framework density 21.677403999999999
#
# number of rings (size 3 to 8) (size 9 to 14) (size 15 to 20)
#    0.000    1.400    0.000    4.200    8.400    5.600 
#    0.000    0.000    0.000    0.000    0.000    0.000 
#    0.000    0.000    0.000    0.000    0.000    0.000 
#
# Total GULP energy -247838.432997 kJ/mol
# GULP energy per Si atom -12391.921650 kJ/mol
# Density = 2.162807 g / cm^3
# Si number density = 21.677404 Si / 1000 Ang^3
#
#
#
# Elastic Constant Matrix: (Units=GPa)
#
#
# Indices 1 2 3 4 5 6 
#
# 1 81.0838 29.9415 11.0909 0.0002 0.0000 0.0000
# 2 29.9415 143.4972 51.7627 0.0004 0.0001 0.0001
# 3 11.0909 51.7627 161.1034 -0.0017 -0.0006 -0.0002
# 4 0.0002 0.0004 -0.0017 43.5256 -0.0002 -0.0001
# 5 0.0000 0.0001 -0.0006 -0.0002 21.7024 0.0001
# 6 0.0000 0.0001 -0.0002 -0.0001 0.0001 12.4146
#
#
#
# Elastic Compliance Matrix: (Units=1/GPa)
#
#
# Indices 1 2 3 4 5 6 
#
# 1 0.013363 -0.002778 -0.000027 0.000000 0.000000 0.000000
# 2 -0.002778 0.008460 -0.002527 0.000000 0.000000 0.000000
# 3 -0.000027 -0.002527 0.007021 0.000000 0.000000 0.000000
# 4 0.000000 0.000000 0.000000 0.022975 0.000000 0.000000
# 5 0.000000 0.000000 0.000000 0.000000 0.046078 0.000000
# 6 0.000000 0.000000 0.000000 0.000000 0.000000 0.080550
#
#
# Mechanical properties :
#
#
# Convention : Reuss Voigt Hill
#
# Bulk Modulus (GPa) = 55.00995 63.47496 59.24245
# Shear Modulus (GPa) = 25.61855 35.05449 30.33652
#
# Velocity S-wave (km/s) = 3.44147 4.02568 3.74499
# Velocity P-wave (km/s) = 6.42054 7.13816 6.78884
#
# Compressibility (1/GPa) = 0.01817853
#
# Stress axis : x y z
#
# Youngs Moduli (GPa) = 74.83571 118.20300 142.43030
#
# Poissons Ratio (x) = 0.32841 0.00388
# Poissons Ratio (y) = 0.20792 0.35991
# Poissons Ratio (z) = 0.00204 0.29869
#
# Static dielectric constant tensor:
#      x y z
#    x 3.468690 0.000000 0.000030 
#    y 0.000000 4.047450 0.000010 
#    z 0.000030 0.000010 0.021650 
# 
# 
# High freq. dielectric constant tensor:
#      x y z
#    x 1.824470 0.000000 0.000000 
#    y 0.000000 1.861900 0.000000 
#    z 0.000000 0.000000 1.880750 
# 
# From -- ./inp_files/1843.got.cif
#   From: 2010.03.12/outbox.cif.g09.slc.cpg/sg23_1_cif.got.tgz:1843.got - 2010.04.14 02:50:06.
