data_PCOD8163039
_publ_section_title
;
Structure prediction by ZEFSAII (Michael W. Deem and Ramdas Pophale) SiO2 
 PCOD8163039
Probable space group: F 2 2 2
;
_chemical_formula_sum "Si O2"
_cell_formula_units_Z 88
_cell_length_a 12.274191
_cell_length_b 29.780045
_cell_length_c 11.622634
_cell_angle_alpha 90.000000
_cell_angle_beta 90.000000
_cell_angle_gamma 90.000000
_cell_volume 4248.374454
_symmetry_space_group_name_H-M "F 2 2 2"
_symmetry_group_IT_number 22
_symmetry_cell_setting 'orthorhombic'
loop_
_space_group_symop_operation_xyz
x,y,z
-x,-y,z
x,-y,-z
-x,y,-z
x,1/2+y,1/2+z
-x,1/2-y,1/2+z
x,1/2-y,1/2-z
-x,1/2+y,1/2-z
1/2+x,y,1/2+z
1/2-x,-y,1/2+z
1/2+x,-y,1/2-z
1/2-x,y,1/2-z
1/2+x,1/2+y,z
1/2-x,1/2-y,z
1/2+x,1/2-y,-z
1/2-x,1/2+y,-z
loop_
_atom_site_type_symbol
_atom_site_label
_atom_site_fract_x
_atom_site_fract_y
_atom_site_fract_z
Si Si1 0.087774 0.062024 0.282270
Si Si2 0.903261 0.626157 0.412018
Si Si3 0.178835 0.605538 0.992813
Si Si4 0.879653 0.699032 0.228061
Si Si5 0.654087 0.464128 0.327713
Si Si6 0.500000 0.833475 0.000000
O O1 0.115598 0.078611 0.154112
O O2 0.127624 0.102121 0.364809
O O3 0.959768 0.054635 0.284742
O O4 0.153590 0.017854 0.320855
O O5 0.793022 0.631897 0.486360
O O6 0.933009 0.666293 0.323866
O O7 0.000000 0.621139 0.500000
O O8 0.180790 0.555186 0.045706
O O9 0.092653 0.636102 0.063914
O O10 0.912751 0.750000 0.250000
O O11 0.750000 0.691845 0.250000
O O12 0.930478 0.692435 0.099197
O O13 0.750000 0.444117 0.250000
#
# Coordination Sequence:
#
# PCOD8163039 Si02
#       6
#    16  16  16  16  16   8
#     4  11  22  39  58  88 129 176 231 274 340 412
#     4  12  24  42  66  98 140 185 226 292 363 416
#     4  12  21  39  66  92 127 178 228 276 334 413
#     4  11  24  45  73 104 139 181 233 289 359 437
#     4  11  22  36  57  90 129 172 229 286 332 394
#     4  12  22  42  75 100 130 180 230 285 342 434
#
# _framework density 20.713806000000002
#
# number of rings (size 3 to 8) (size 9 to 14) (size 15 to 20)
#    0.000    0.545    5.455    3.273    1.273    1.455 
#    0.000    5.455    0.000    1.091    0.000    0.000 
#    0.000    0.000    0.000    0.000    0.000    0.000 
#
# Total GULP energy -272570.249745 kJ/mol
# GULP energy per Si atom -12389.556807 kJ/mol
# Density = 2.066666 g / cm^3
# Si number density = 20.713806 Si / 1000 Ang^3
#
#
#
# Elastic Constant Matrix: (Units=GPa)
#
#
# Indices 1 2 3 4 5 6 
#
# 1 142.8426 30.3246 52.6603 0.0000 0.0000 0.0000
# 2 30.3246 107.9652 52.5965 0.0000 0.0000 0.0000
# 3 52.6603 52.5965 111.8406 0.0000 0.0000 0.0000
# 4 0.0000 0.0000 0.0000 32.2391 0.0000 0.0000
# 5 0.0000 0.0000 0.0000 0.0000 38.1987 0.0000
# 6 0.0000 0.0000 0.0000 0.0000 0.0000 14.9478
#
#
#
# Elastic Compliance Matrix: (Units=1/GPa)
#
#
# Indices 1 2 3 4 5 6 
#
# 1 0.008498 -0.000568 -0.003734 0.000000 0.000000 0.000000
# 2 -0.000568 0.012053 -0.005401 0.000000 0.000000 0.000000
# 3 -0.003734 -0.005401 0.013240 0.000000 0.000000 0.000000
# 4 0.000000 0.000000 0.000000 0.031018 0.000000 0.000000
# 5 0.000000 0.000000 0.000000 0.000000 0.026179 0.000000
# 6 0.000000 0.000000 0.000000 0.000000 0.000000 0.066899
#
#
# Mechanical properties :
#
#
# Convention : Reuss Voigt Hill
#
# Bulk Modulus (GPa) = 69.51915 70.42347 69.97131
# Shear Modulus (GPa) = 27.45936 32.21493 29.83714
#
# Velocity S-wave (km/s) = 3.64490 3.94793 3.79944
# Velocity P-wave (km/s) = 7.16578 7.40633 7.28704
#
# Compressibility (1/GPa) = 0.01438453
#
# Stress axis : x y z
#
# Youngs Moduli (GPa) = 117.67610 82.96832 75.53129
#
# Poissons Ratio (x) = 0.04710 0.28206
# Poissons Ratio (y) = 0.06680 0.40794
# Poissons Ratio (z) = 0.43944 0.44811
#
# Static dielectric constant tensor:
#      x y z
#    x 3.885140 0.000000 0.000000 
#    y 0.000000 3.785830 0.000000 
#    z 0.000000 0.000000 3.693860 
# 
# 
# High freq. dielectric constant tensor:
#      x y z
#    x 1.824570 0.000000 0.000000 
#    y 0.000000 1.802620 0.000000 
#    z 0.000000 0.000000 1.798630 
# 
# From -- ./inp_files/18389.got.cif
#   From: 2010.03.12/outbox.cif.g09.slc.cpg/sg22_10_cif.got.tgz:18389.got - 2010.04.14 02:24:06.
