data_PCOD8163572
_publ_section_title
;
Structure prediction by ZEFSAII (Michael W. Deem and Ramdas Pophale) SiO2 
 PCOD8163572
Probable space group: I 2 2 2
;
_chemical_formula_sum "Si O2"
_cell_formula_units_Z 40
_cell_length_a 12.904915
_cell_length_b 11.538000
_cell_length_c 15.246772
_cell_angle_alpha 90.000000
_cell_angle_beta 90.000000
_cell_angle_gamma 90.000000
_cell_volume 2270.197227
_symmetry_space_group_name_H-M "I 2 2 2"
_symmetry_group_IT_number 23
_symmetry_cell_setting 'orthorhombic'
loop_
_space_group_symop_operation_xyz
x,y,z
-x,-y,z
x,-y,-z
-x,y,-z
1/2+x,1/2+y,1/2+z
1/2-x,1/2-y,1/2+z
1/2+x,1/2-y,1/2-z
1/2-x,1/2+y,1/2-z
loop_
_atom_site_type_symbol
_atom_site_label
_atom_site_fract_x
_atom_site_fract_y
_atom_site_fract_z
Si Si1 0.720325 0.737100 0.174203
Si Si2 0.960350 0.374281 0.368765
Si Si3 0.119014 0.995777 0.396024
Si Si4 0.774369 0.628423 0.513341
Si Si5 0.168665 0.756356 0.649516
O O1 0.623939 0.822074 0.200874
O O2 0.675717 0.616051 0.140857
O O3 0.781179 0.801012 0.092968
O O4 0.796834 0.714750 0.254464
O O5 0.898561 0.381564 0.462367
O O6 0.000000 0.500000 0.337853
O O7 0.052643 0.282877 0.372251
O O8 0.177902 0.105860 0.355526
O O9 0.127926 0.000000 0.500000
O O10 0.000000 0.000000 0.365617
O O11 0.727124 0.500000 0.500000
O O12 0.757513 0.696998 0.422845
#
# Coordination Sequence:
#
# PCOD8163572 Si02
#       5
#     8   8   8   8   8
#     4  10  24  33  50  90 108 145 179 214 283 322
#     4  10  20  35  55  83 108 138 184 223 268 318
#     4  11  20  36  55  80 115 140 173 233 281 314
#     4  10  20  35  55  83 108 138 184 223 268 318
#     4  12  21  34  56  79 120 141 174 229 267 327
#
# _framework density 17.619613000000001
#
# number of rings (size 3 to 8) (size 9 to 14) (size 15 to 20)
#    1.200    0.200    6.000    0.600    8.400    0.000 
#    0.000    0.000    0.000    1.200    0.000    5.600 
#    0.000    0.000    0.000    0.000    0.000    0.000 
#
# Total GULP energy -247806.457565 kJ/mol
# GULP energy per Si atom -12390.322878 kJ/mol
# Density = 1.757951 g / cm^3
# Si number density = 17.619613 Si / 1000 Ang^3
#
#
#
# Elastic Constant Matrix: (Units=GPa)
#
#
# Indices 1 2 3 4 5 6 
#
# 1 16.6654 15.4442 20.0722 0.0000 0.0000 0.0000
# 2 15.4442 137.7433 36.7523 0.0000 0.0000 0.0000
# 3 20.0722 36.7523 106.9985 0.0000 0.0000 0.0000
# 4 0.0000 0.0000 0.0000 23.9050 0.0000 0.0000
# 5 0.0000 0.0000 0.0000 0.0000 25.8732 0.0000
# 6 0.0000 0.0000 0.0000 0.0000 0.0000 2.9836
#
#
#
# Elastic Compliance Matrix: (Units=1/GPa)
#
#
# Indices 1 2 3 4 5 6 
#
# 1 0.081197 -0.005548 -0.013326 0.000000 0.000000 0.000000
# 2 -0.005548 0.008371 -0.001835 0.000000 0.000000 0.000000
# 3 -0.013326 -0.001835 0.012476 0.000000 0.000000 0.000000
# 4 0.000000 0.000000 0.000000 0.041832 0.000000 0.000000
# 5 0.000000 0.000000 0.000000 0.000000 0.038650 0.000000
# 6 0.000000 0.000000 0.000000 0.000000 0.000000 0.335169
#
#
# Mechanical properties :
#
#
# Convention : Reuss Voigt Hill
#
# Bulk Modulus (GPa) = 16.49460 45.10494 30.79977
# Shear Modulus (GPa) = 8.63077 23.16159 15.89618
#
# Velocity S-wave (km/s) = 2.21563 3.62958 3.00690
# Velocity P-wave (km/s) = 3.99089 6.57419 5.43816
#
# Compressibility (1/GPa) = 0.06062590
#
# Stress axis : x y z
#
# Youngs Moduli (GPa) = 12.31575 119.45305 80.15387
#
# Poissons Ratio (x) = 0.66277 1.06815
# Poissons Ratio (y) = 0.06833 0.14705
# Poissons Ratio (z) = 0.16412 0.21915
#
# Static dielectric constant tensor:
#      x y z
#    x 2.808970 0.000000 0.000000 
#    y 0.000000 3.407510 0.000000 
#    z 0.000000 0.000000 3.103150 
# 
# 
# High freq. dielectric constant tensor:
#      x y z
#    x 1.625220 0.000000 0.000000 
#    y 0.000000 1.709210 0.000000 
#    z 0.000000 0.000000 1.664430 
# 
# From -- ./inp_files/20734.got.cif
#   From: 2010.03.12/outbox.cif.g09.slc.cpg/sg23_11_cif.got.tgz:20734.got - 2010.04.14 02:50:06.
