data_PCOD8163063
_publ_section_title
;
Structure prediction by ZEFSAII (Michael W. Deem and Ramdas Pophale) SiO2 
 PCOD8163063
Probable space group: F 2 2 2
;
_chemical_formula_sum "Si O2"
_cell_formula_units_Z 48
_cell_length_a 9.586825
_cell_length_b 14.686969
_cell_length_c 15.914897
_cell_angle_alpha 90.000000
_cell_angle_beta 90.000000
_cell_angle_gamma 90.000000
_cell_volume 2240.839804
_symmetry_space_group_name_H-M "F 2 2 2"
_symmetry_group_IT_number 22
_symmetry_cell_setting 'orthorhombic'
loop_
_space_group_symop_operation_xyz
x,y,z
-x,-y,z
x,-y,-z
-x,y,-z
x,1/2+y,1/2+z
-x,1/2-y,1/2+z
x,1/2-y,1/2-z
-x,1/2+y,1/2-z
1/2+x,y,1/2+z
1/2-x,-y,1/2+z
1/2+x,-y,1/2-z
1/2-x,y,1/2-z
1/2+x,1/2+y,z
1/2-x,1/2-y,z
1/2+x,1/2-y,-z
1/2-x,1/2+y,-z
loop_
_atom_site_type_symbol
_atom_site_label
_atom_site_fract_x
_atom_site_fract_y
_atom_site_fract_z
Si Si1 0.500000 0.500000 0.354676
Si Si2 0.091052 0.146917 0.232465
Si Si3 0.720815 0.000000 0.000000
Si Si4 0.630599 0.674350 0.048709
O O1 0.492850 0.586886 0.292763
O O2 0.633986 0.504246 0.414070
O O3 0.051492 0.250000 0.250000
O O4 0.250000 0.121823 0.250000
O O5 0.068490 0.130709 0.133728
O O6 0.811511 0.091474 0.006890
O O7 0.750000 0.750000 0.067101
O O8 0.500000 0.720622 0.000000
#
# Coordination Sequence:
#
# PCOD8163063 Si02
#       4
#     8  16   8  16
#     4  11  24  40  75 100 138 180 231 276 340 411
#     4  11  22  44  68  95 136 185 223 277 343 401
#     4  11  25  44  66 104 138 180 226 282 342 402
#     4  12  27  45  72  99 140 181 229 284 343 405
#
# _framework density 21.420541
#
# number of rings (size 3 to 8) (size 9 to 14) (size 15 to 20)
#    0.000    0.667    6.667    0.500   14.000    0.000 
#    0.000    0.000    0.000    0.000    0.000    0.000 
#    0.000    0.000    0.000    0.000    0.000    0.000 
#
# Total GULP energy -148799.322486 kJ/mol
# GULP energy per Si atom -12399.943541 kJ/mol
# Density = 2.137179 g / cm^3
# Si number density = 21.420541 Si / 1000 Ang^3
#
#
#
# Elastic Constant Matrix: (Units=GPa)
#
#
# Indices 1 2 3 4 5 6 
#
# 1 74.4846 29.0593 47.7868 0.0000 0.0000 0.0000
# 2 29.0593 106.8892 35.8419 0.0000 0.0000 0.0000
# 3 47.7868 35.8419 153.9916 0.0000 0.0000 0.0000
# 4 0.0000 0.0000 0.0000 40.5570 0.0000 0.0000
# 5 0.0000 0.0000 0.0000 0.0000 19.6306 0.0000
# 6 0.0000 0.0000 0.0000 0.0000 0.0000 29.4216
#
#
#
# Elastic Compliance Matrix: (Units=1/GPa)
#
#
# Indices 1 2 3 4 5 6 
#
# 1 0.017733 -0.003228 -0.004752 0.000000 0.000000 0.000000
# 2 -0.003228 0.010735 -0.001497 0.000000 0.000000 0.000000
# 3 -0.004752 -0.001497 0.008317 0.000000 0.000000 0.000000
# 4 0.000000 0.000000 0.000000 0.024657 0.000000 0.000000
# 5 0.000000 0.000000 0.000000 0.000000 0.050941 0.000000
# 6 0.000000 0.000000 0.000000 0.000000 0.000000 0.033989
#
#
# Mechanical properties :
#
#
# Convention : Reuss Voigt Hill
#
# Bulk Modulus (GPa) = 56.07799 62.30459 59.19129
# Shear Modulus (GPa) = 29.19393 32.76700 30.98046
#
# Velocity S-wave (km/s) = 3.69574 3.91538 3.80715
# Velocity P-wave (km/s) = 6.66691 7.04200 6.85702
#
# Compressibility (1/GPa) = 0.01783231
#
# Stress axis : x y z
#
# Youngs Moduli (GPa) = 56.39059 93.15377 120.23760
#
# Poissons Ratio (x) = 0.30067 0.57135
# Poissons Ratio (y) = 0.18201 0.17999
# Poissons Ratio (z) = 0.26796 0.13945
#
# Static dielectric constant tensor:
#      x y z
#    x 3.694790 0.000000 0.000000 
#    y 0.000000 3.820280 0.000000 
#    z 0.000000 0.000000 4.130270 
# 
# 
# High freq. dielectric constant tensor:
#      x y z
#    x 1.819050 0.000000 0.000000 
#    y 0.000000 1.841000 0.000000 
#    z 0.000000 0.000000 1.863340 
# 
# From -- ./inp_files/9212.got.cif
#   From: 2010.03.12/outbox.cif.g09.slc.cpg/sg22_5_cif.got.tgz:9212.got - 2010.04.14 02:24:06.
