data_PCOD8163539
_publ_section_title
;
Structure prediction by ZEFSAII (Michael W. Deem and Ramdas Pophale) SiO2 
 PCOD8163539
Probable space group: I 2 2 2
;
_chemical_formula_sum "Si O2"
_cell_formula_units_Z 40
_cell_length_a 21.442149
_cell_length_b 7.671668
_cell_length_c 13.574968
_cell_angle_alpha 90.000000
_cell_angle_beta 90.000000
_cell_angle_gamma 90.000000
_cell_volume 2233.042167
_symmetry_space_group_name_H-M "I 2 2 2"
_symmetry_group_IT_number 23
_symmetry_cell_setting 'orthorhombic'
loop_
_space_group_symop_operation_xyz
x,y,z
-x,-y,z
x,-y,-z
-x,y,-z
1/2+x,1/2+y,1/2+z
1/2-x,1/2-y,1/2+z
1/2+x,1/2-y,1/2-z
1/2-x,1/2+y,1/2-z
loop_
_atom_site_type_symbol
_atom_site_label
_atom_site_fract_x
_atom_site_fract_y
_atom_site_fract_z
Si Si1 0.225458 0.702807 0.610143
Si Si2 0.150517 0.695452 0.203803
Si Si3 0.849483 0.304548 0.796197
Si Si4 0.573598 0.500000 0.386709
Si Si5 0.774542 0.702807 0.610143
O O1 0.288264 0.806250 0.635253
O O2 0.170098 0.752642 0.685313
O O3 0.242396 0.500000 0.620707
O O4 0.203220 0.750965 0.500000
O O5 0.122341 0.500000 0.202949
O O6 0.170098 0.752642 0.314687
O O7 0.098432 0.826448 0.165367
O O8 0.901568 0.173552 0.834633
O O9 0.788264 0.306250 0.864747
O O10 0.500000 0.500000 0.376907
O O11 0.595502 0.500000 0.500000
#
# Coordination Sequence:
#
# PCOD8163539 Si02
#       5
#     8   8   8   8   8
#     4   9  17  31  53  81 113 140 165 212 271 320
#     4  10  20  34  53  80 108 138 177 216 262 314
#     4  10  20  34  53  80 108 138 177 216 262 314
#     4  11  24  40  55  73 105 145 181 220 262 310
#     4   9  17  31  53  81 113 140 165 212 271 320
#
# _framework density 17.912783000000001
#
# number of rings (size 3 to 8) (size 9 to 14) (size 15 to 20)
#    0.000    2.200    2.000    1.200    2.800    4.000 
#    0.000    2.000    0.000    2.400    0.000    5.600 
#    0.000    0.000    0.000    0.000    0.000    0.000 
#
# Total GULP energy -248007.747506 kJ/mol
# GULP energy per Si atom -12400.387375 kJ/mol
# Density = 1.787201 g / cm^3
# Si number density = 17.912783 Si / 1000 Ang^3
#
#
#
# Elastic Constant Matrix: (Units=GPa)
#
#
# Indices 1 2 3 4 5 6 
#
# 1 61.8708 44.1156 46.6854 0.0000 0.0000 0.0000
# 2 44.1156 92.2811 41.0564 0.0000 0.0000 0.0000
# 3 46.6854 41.0564 156.8826 0.0000 0.0000 0.0000
# 4 0.0000 0.0000 0.0000 24.7485 0.0000 0.0000
# 5 0.0000 0.0000 0.0000 0.0000 23.2557 0.0000
# 6 0.0000 0.0000 0.0000 0.0000 0.0000 16.3061
#
#
#
# Elastic Compliance Matrix: (Units=1/GPa)
#
#
# Indices 1 2 3 4 5 6 
#
# 1 0.028170 -0.011020 -0.005499 0.000000 0.000000 0.000000
# 2 -0.011020 0.016576 -0.001058 0.000000 0.000000 0.000000
# 3 -0.005499 -0.001058 0.008288 0.000000 0.000000 0.000000
# 4 0.000000 0.000000 0.000000 0.040407 0.000000 0.000000
# 5 0.000000 0.000000 0.000000 0.000000 0.043000 0.000000
# 6 0.000000 0.000000 0.000000 0.000000 0.000000 0.061327
#
#
# Mechanical properties :
#
#
# Convention : Reuss Voigt Hill
#
# Bulk Modulus (GPa) = 55.93496 63.86104 59.89800
# Shear Modulus (GPa) = 20.93094 24.80717 22.86906
#
# Velocity S-wave (km/s) = 3.42203 3.72544 3.57696
# Velocity P-wave (km/s) = 6.84893 7.36436 7.11131
#
# Compressibility (1/GPa) = 0.01787791
#
# Stress axis : x y z
#
# Youngs Moduli (GPa) = 35.49920 60.32931 120.66335
#
# Poissons Ratio (x) = 0.66485 0.66350
# Poissons Ratio (y) = 0.39121 0.12772
# Poissons Ratio (z) = 0.19520 0.06386
#
# Static dielectric constant tensor:
#      x y z
#    x 2.858790 0.000000 0.000000 
#    y 0.000000 3.417160 0.000000 
#    z 0.000000 0.000000 3.635560 
# 
# 
# High freq. dielectric constant tensor:
#      x y z
#    x 1.643040 0.000000 0.000000 
#    y 0.000000 1.704970 0.000000 
#    z 0.000000 0.000000 1.706090 
# 
# From -- ./inp_files/22292.got.cif
#   From: 2010.03.12/outbox.cif.g09.slc.cpg/sg23_12_cif.got.tgz:22292.got - 2010.04.14 02:50:06.
