data_PCOD8163824
_publ_section_title
;
Structure prediction by ZEFSAII (Michael W. Deem and Ramdas Pophale) SiO2 
 PCOD8163824
Probable space group: I 2 2 2
;
_chemical_formula_sum "Si O2"
_cell_formula_units_Z 42
_cell_length_a 9.941602
_cell_length_b 12.218939
_cell_length_c 15.294306
_cell_angle_alpha 90.000000
_cell_angle_beta 90.000000
_cell_angle_gamma 90.000000
_cell_volume 1857.888491
_symmetry_space_group_name_H-M "I 2 2 2"
_symmetry_group_IT_number 23
_symmetry_cell_setting 'orthorhombic'
loop_
_space_group_symop_operation_xyz
x,y,z
-x,-y,z
x,-y,-z
-x,y,-z
1/2+x,1/2+y,1/2+z
1/2-x,1/2-y,1/2+z
1/2+x,1/2-y,1/2-z
1/2-x,1/2+y,1/2-z
loop_
_atom_site_type_symbol
_atom_site_label
_atom_site_fract_x
_atom_site_fract_y
_atom_site_fract_z
Si Si1 0.504577 0.665975 0.326194
Si Si2 0.500000 0.500000 0.000000
Si Si3 0.584287 0.109920 0.275771
Si Si4 0.129935 0.135282 0.650975
Si Si5 0.286709 0.891882 0.104073
Si Si6 0.279292 0.138199 0.090749
O O1 0.502682 0.798455 0.325412
O O2 0.518552 0.617071 0.227189
O O3 0.629116 0.621261 0.379866
O O4 0.373853 0.625760 0.377123
O O5 0.589486 0.578306 0.060758
O O6 0.725326 0.084621 0.323971
O O7 0.622350 0.161595 0.180063
O O8 0.500000 0.000000 0.272647
O O9 0.144801 0.267495 0.643660
O O10 0.337955 0.017804 0.106364
O O11 0.305199 0.833553 0.011068
#
# Coordination Sequence:
#
# PCOD8163824 Si02
#       6
#     8   2   8   8   8   8
#     4  10  21  38  63  92 125 171 213 266 319 394
#     4  12  28  44  66  94 134 172 220 274 324 406
#     4  10  22  41  65  95 131 171 217 265 328 395
#     4  10  25  42  63  94 127 178 214 267 331 390
#     4  10  21  37  65  95 125 166 209 274 327 377
#     4  10  21  40  61  94 125 160 221 267 327 382
#
# _framework density 22.606307000000001
#
# number of rings (size 3 to 8) (size 9 to 14) (size 15 to 20)
#    0.000    1.905    0.000    2.286    8.000    3.048 
#    0.000    3.333    0.000    0.000    0.000    0.000 
#    0.000    0.000    0.000    0.000    0.000    0.000 
#
# Total GULP energy -260250.617217 kJ/mol
# GULP energy per Si atom -12392.886534 kJ/mol
# Density = 2.255485 g / cm^3
# Si number density = 22.606307 Si / 1000 Ang^3
#
#
#
# Elastic Constant Matrix: (Units=GPa)
#
#
# Indices 1 2 3 4 5 6 
#
# 1 76.0430 32.9946 38.1469 0.0000 0.0000 0.0000
# 2 32.9946 67.7073 18.2112 0.0000 0.0000 0.0000
# 3 38.1469 18.2112 105.5071 0.0000 0.0000 0.0000
# 4 0.0000 0.0000 0.0000 32.5258 0.0000 0.0000
# 5 0.0000 0.0000 0.0000 0.0000 16.4408 0.0000
# 6 0.0000 0.0000 0.0000 0.0000 0.0000 24.6402
#
#
#
# Elastic Compliance Matrix: (Units=1/GPa)
#
#
# Indices 1 2 3 4 5 6 
#
# 1 0.019437 -0.007951 -0.005655 0.000000 0.000000 0.000000
# 2 -0.007951 0.018741 -0.000360 0.000000 0.000000 0.000000
# 3 -0.005655 -0.000360 0.011585 0.000000 0.000000 0.000000
# 4 0.000000 0.000000 0.000000 0.030745 0.000000 0.000000
# 5 0.000000 0.000000 0.000000 0.000000 0.060824 0.000000
# 6 0.000000 0.000000 0.000000 0.000000 0.000000 0.040584
#
#
# Mechanical properties :
#
#
# Convention : Reuss Voigt Hill
#
# Bulk Modulus (GPa) = 45.80758 47.55143 46.67950
# Shear Modulus (GPa) = 23.02811 25.38168 24.20490
#
# Velocity S-wave (km/s) = 3.19511 3.35441 3.27573
# Velocity P-wave (km/s) = 5.82398 6.00691 5.91616
#
# Compressibility (1/GPa) = 0.02183045
#
# Stress axis : x y z
#
# Youngs Moduli (GPa) = 51.44743 53.35918 86.31921
#
# Poissons Ratio (x) = 0.42426 0.48816
# Poissons Ratio (y) = 0.40906 0.03108
# Poissons Ratio (z) = 0.29095 0.01921
#
# Static dielectric constant tensor:
#      x y z
#    x 4.036160 0.000000 0.000000 
#    y 0.000000 4.006740 0.000000 
#    z 0.000000 0.000000 4.301930 
# 
# 
# High freq. dielectric constant tensor:
#      x y z
#    x 1.892990 0.000000 0.000000 
#    y 0.000000 1.889050 0.000000 
#    z 0.000000 0.000000 1.896470 
# 
# From -- ./inp_files/15699.got.cif
#   From: 2010.03.12/outbox.cif.g09.slc.cpg/sg23_8_cif.got.tgz:15699.got - 2010.04.14 02:50:06.
