data_PCOD8163683
_publ_section_title
;
Structure prediction by ZEFSAII (Michael W. Deem and Ramdas Pophale) SiO2 
 PCOD8163683
Probable space group: I 2 2 2
;
_chemical_formula_sum "Si O2"
_cell_formula_units_Z 40
_cell_length_a 30.158286
_cell_length_b 4.898066
_cell_length_c 11.849557
_cell_angle_alpha 90.000000
_cell_angle_beta 90.000000
_cell_angle_gamma 90.000000
_cell_volume 1750.384273
_symmetry_space_group_name_H-M "I 2 2 2"
_symmetry_group_IT_number 23
_symmetry_cell_setting 'orthorhombic'
loop_
_space_group_symop_operation_xyz
x,y,z
-x,-y,z
x,-y,-z
-x,y,-z
1/2+x,1/2+y,1/2+z
1/2-x,1/2-y,1/2+z
1/2+x,1/2-y,1/2-z
1/2-x,1/2+y,1/2-z
loop_
_atom_site_type_symbol
_atom_site_label
_atom_site_fract_x
_atom_site_fract_y
_atom_site_fract_z
Si Si1 0.192864 0.997875 0.728625
Si Si2 0.786675 0.492456 0.870053
Si Si3 0.448155 0.020858 0.233314
Si Si4 0.119210 0.744371 0.571699
Si Si5 0.552048 0.472291 0.376999
O O1 0.200295 0.810245 0.836239
O O2 0.233793 0.969780 0.642010
O O3 0.150293 0.891753 0.662312
O O4 0.187731 0.298097 0.784942
O O5 0.800964 0.500000 0.000000
O O6 0.432629 0.316788 0.278966
O O7 0.500000 0.000000 0.202435
O O8 0.421551 0.925253 0.123964
O O9 0.435482 0.827619 0.337378
O O10 0.144097 0.500000 0.500000
O O11 0.100331 0.000000 0.500000
O O12 0.500000 0.500000 0.392614
O O13 0.575143 0.500000 0.500000
#
# Coordination Sequence:
#
# PCOD8163683 Si02
#       5
#     8   8   8   8   8
#     4  10  22  38  61  94 127 163 211 253 300 374
#     4  10  20  38  64  93 127 165 205 253 305 363
#     4  10  21  38  59  88 121 154 204 257 302 366
#     4  12  25  42  63  87 123 167 211 262 317 370
#     4   9  17  33  59  87 115 149 190 242 306 371
#
# _framework density 22.852126999999999
#
# number of rings (size 3 to 8) (size 9 to 14) (size 15 to 20)
#    0.000    1.800    0.000    4.200    0.000    6.000 
#    0.000    5.000    0.000    0.000    0.000    0.000 
#    0.000    0.000    0.000    0.000    0.000    0.000 
#
# Total GULP energy -247865.362125 kJ/mol
# GULP energy per Si atom -12393.268106 kJ/mol
# Density = 2.280011 g / cm^3
# Si number density = 22.852127 Si / 1000 Ang^3
#
#
#
# Elastic Constant Matrix: (Units=GPa)
#
#
# Indices 1 2 3 4 5 6 
#
# 1 64.1441 16.5406 34.6547 0.0000 0.0000 0.0000
# 2 16.5406 92.4932 16.7185 0.0000 0.0000 0.0000
# 3 34.6547 16.7185 114.6152 0.0000 0.0000 0.0000
# 4 0.0000 0.0000 0.0000 86.8484 0.0000 0.0000
# 5 0.0000 0.0000 0.0000 0.0000 3.3866 0.0000
# 6 0.0000 0.0000 0.0000 0.0000 0.0000 21.1464
#
#
#
# Elastic Compliance Matrix: (Units=1/GPa)
#
#
# Indices 1 2 3 4 5 6 
#
# 1 0.019157 -0.002443 -0.005436 0.000000 0.000000 0.000000
# 2 -0.002443 0.011416 -0.000926 0.000000 0.000000 0.000000
# 3 -0.005436 -0.000926 0.010504 0.000000 0.000000 0.000000
# 4 0.000000 0.000000 0.000000 0.011514 0.000000 0.000000
# 5 0.000000 0.000000 0.000000 0.000000 0.295279 0.000000
# 6 0.000000 0.000000 0.000000 0.000000 0.000000 0.047289
#
#
# Mechanical properties :
#
#
# Convention : Reuss Voigt Hill
#
# Bulk Modulus (GPa) = 42.61629 45.23113 43.92371
# Shear Modulus (GPa) = 11.88802 35.83220 23.86011
#
# Velocity S-wave (km/s) = 2.28330 3.96410 3.23477
# Velocity P-wave (km/s) = 5.06364 6.38655 5.76318
#
# Compressibility (1/GPa) = 0.02346521
#
# Stress axis : x y z
#
# Youngs Moduli (GPa) = 52.20113 87.59633 95.20613
#
# Poissons Ratio (x) = 0.21402 0.51752
# Poissons Ratio (y) = 0.12754 0.08821
# Poissons Ratio (z) = 0.28375 0.08116
#
# Static dielectric constant tensor:
#      x y z
#    x 3.565730 0.000000 0.000000 
#    y 0.000000 4.545780 0.000000 
#    z 0.000000 0.000000 4.119010 
# 
# 
# High freq. dielectric constant tensor:
#      x y z
#    x 1.866390 0.000000 0.000000 
#    y 0.000000 1.924690 0.000000 
#    z 0.000000 0.000000 1.909750 
# 
# From -- ./inp_files/18489.got.cif
#   From: 2010.03.12/outbox.cif.g09.slc.cpg/sg23_10_cif.got.tgz:18489.got - 2010.04.14 02:50:06.
