data_PCOD8163942
_publ_section_title
;
Structure prediction by ZEFSAII (Michael W. Deem and Ramdas Pophale) SiO2 
 PCOD8163942
Probable space group: I 2 2 2
;
_chemical_formula_sum "Si O2"
_cell_formula_units_Z 48
_cell_length_a 8.707558
_cell_length_b 29.120410
_cell_length_c 8.951979
_cell_angle_alpha 90.000000
_cell_angle_beta 90.000000
_cell_angle_gamma 90.000000
_cell_volume 2269.932359
_symmetry_space_group_name_H-M "I 2 2 2"
_symmetry_group_IT_number 23
_symmetry_cell_setting 'orthorhombic'
loop_
_space_group_symop_operation_xyz
x,y,z
-x,-y,z
x,-y,-z
-x,y,-z
1/2+x,1/2+y,1/2+z
1/2-x,1/2-y,1/2+z
1/2+x,1/2-y,1/2-z
1/2-x,1/2+y,1/2-z
loop_
_atom_site_type_symbol
_atom_site_label
_atom_site_fract_x
_atom_site_fract_y
_atom_site_fract_z
Si Si1 0.220955 0.211723 0.394369
Si Si2 0.633207 0.382990 0.098793
Si Si3 0.616941 0.714945 0.214807
Si Si4 0.917099 0.120658 0.143290
Si Si5 0.845454 0.548806 0.067610
Si Si6 0.342866 0.047890 0.918619
O O1 0.256149 0.157113 0.363884
O O2 0.350269 0.244168 0.329278
O O3 0.218969 0.222721 0.569079
O O4 0.061497 0.221514 0.313208
O O5 0.546562 0.402996 0.246509
O O6 0.500000 0.357489 0.000000
O O7 0.702490 0.420596 0.985906
O O8 0.661934 0.664344 0.278158
O O9 0.794702 0.084409 0.076414
O O10 0.000000 0.141388 0.000000
O O11 0.871559 0.541440 0.242962
O O12 0.810305 0.500000 0.000000
O O13 0.000000 0.570764 0.000000
O O14 0.500000 0.065705 0.000000
O O15 0.294438 0.000000 0.000000
#
# Coordination Sequence:
#
# PCOD8163942 Si02
#       6
#     8   8   8   8   8   8
#     4  10  21  42  64  92 131 164 216 263 325 384
#     4  11  21  47  67  92 131 175 222 278 326 395
#     4  10  22  42  63  93 127 170 210 268 320 391
#     4  11  25  43  68  95 133 174 223 279 340 396
#     4  11  24  43  69  95 130 177 225 270 333 403
#     4  11  24  45  65  96 137 171 217 280 338 398
#
# _framework density 21.146004000000001
#
# number of rings (size 3 to 8) (size 9 to 14) (size 15 to 20)
#    0.000    1.333    5.000    2.000    9.333    0.667 
#    9.000    0.000    0.000    0.000    0.000    0.000 
#    0.000    0.000    0.000    0.000    0.000    0.000 
#
# Total GULP energy -297346.803702 kJ/mol
# GULP energy per Si atom -12389.450154 kJ/mol
# Density = 2.109788 g / cm^3
# Si number density = 21.146004 Si / 1000 Ang^3
#
#
#
# Elastic Constant Matrix: (Units=GPa)
#
#
# Indices 1 2 3 4 5 6 
#
# 1 50.6926 48.7313 46.1283 0.0000 0.0006 0.0002
# 2 48.7313 107.8795 55.7302 -0.0007 0.0010 0.0008
# 3 46.1283 55.7302 160.5854 0.0016 0.0078 0.0045
# 4 0.0000 -0.0007 0.0016 38.4283 0.0019 0.0019
# 5 0.0006 0.0010 0.0078 0.0019 44.8963 0.0006
# 6 0.0002 0.0008 0.0045 0.0019 0.0006 29.6801
#
#
#
# Elastic Compliance Matrix: (Units=1/GPa)
#
#
# Indices 1 2 3 4 5 6 
#
# 1 0.039450 -0.014580 -0.006272 0.000000 0.000001 0.000001
# 2 -0.014580 0.016683 -0.001602 0.000000 0.000000 0.000000
# 3 -0.006272 -0.001602 0.008585 0.000000 -0.000001 -0.000001
# 4 0.000000 0.000000 0.000000 0.026022 -0.000001 -0.000002
# 5 0.000001 0.000000 -0.000001 -0.000001 0.022274 0.000000
# 6 0.000001 0.000000 -0.000001 -0.000002 0.000000 0.033693
#
#
# Mechanical properties :
#
#
# Convention : Reuss Voigt Hill
#
# Bulk Modulus (GPa) = 50.47914 68.92635 59.70275
# Shear Modulus (GPa) = 25.22468 33.83879 29.53173
#
# Velocity S-wave (km/s) = 3.45756 4.00465 3.74112
# Velocity P-wave (km/s) = 6.31373 7.35181 6.85246
#
# Compressibility (1/GPa) = 0.01981016
#
# Stress axis : x y z
#
# Youngs Moduli (GPa) = 25.34825 59.94044 116.48605
#
# Poissons Ratio (x) = 0.87395 0.73062
# Poissons Ratio (y) = 0.36959 0.18656
# Poissons Ratio (z) = 0.15899 0.09600
#
# Static dielectric constant tensor:
#      x y z
#    x 3.713050 0.000000 -0.000020 
#    y 0.000000 3.717740 0.000000 
#    z -0.000020 0.000000 3.948840 
# 
# 
# High freq. dielectric constant tensor:
#      x y z
#    x 1.810020 0.000000 0.000000 
#    y 0.000000 1.822410 0.000000 
#    z 0.000000 0.000000 1.856340 
# 
# From -- ./inp_files/7374.got.cif
#   From: 2010.03.12/outbox.cif.g09.slc.cpg/sg23_4_cif.got.tgz:7374.got - 2010.04.14 02:50:06.
