data_PCOD8163732
_publ_section_title
;
Structure prediction by ZEFSAII (Michael W. Deem and Ramdas Pophale) SiO2 
 PCOD8163732
Probable space group: I 2 2 2
;
_chemical_formula_sum "Si O2"
_cell_formula_units_Z 54
_cell_length_a 18.430034
_cell_length_b 6.448066
_cell_length_c 23.892123
_cell_angle_alpha 90.000000
_cell_angle_beta 90.000000
_cell_angle_gamma 90.000000
_cell_volume 2839.293920
_symmetry_space_group_name_H-M "I 2 2 2"
_symmetry_group_IT_number 23
_symmetry_cell_setting 'orthorhombic'
loop_
_space_group_symop_operation_xyz
x,y,z
-x,-y,z
x,-y,-z
-x,y,-z
1/2+x,1/2+y,1/2+z
1/2-x,1/2-y,1/2+z
1/2+x,1/2-y,1/2-z
1/2-x,1/2+y,1/2-z
loop_
_atom_site_type_symbol
_atom_site_label
_atom_site_fract_x
_atom_site_fract_y
_atom_site_fract_z
Si Si1 0.875391 0.326483 0.069078
Si Si2 0.311785 0.379187 0.176648
Si Si3 0.500000 0.000000 0.500000
Si Si4 0.832632 0.783134 0.233634
Si Si5 0.428619 0.392648 0.326078
Si Si6 0.210805 0.000000 0.000000
Si Si7 0.426490 0.097290 0.226367
Si Si8 0.742336 0.388359 0.945223
O O1 0.889982 0.270016 0.133089
O O2 0.825190 0.531297 0.064203
O O3 0.951880 0.356816 0.039498
O O4 0.837276 0.133871 0.040890
O O5 0.244543 0.266930 0.206270
O O6 0.324394 0.598127 0.207286
O O7 0.380541 0.223861 0.180330
O O8 0.302191 0.430769 0.111110
O O9 0.876929 0.574936 0.244389
O O10 0.871747 0.928934 0.188844
O O11 0.500000 0.500000 0.352697
O O12 0.453453 0.262509 0.272270
O O13 0.258716 0.855806 0.959161
O O14 0.500000 0.000000 0.199484
O O15 0.707497 0.500000 0.000000
#
# Coordination Sequence:
#
# PCOD8163732 Si02
#       8
#     8   8   2   8   8   4   8   8
#     4  11  24  36  52  79 117 161 214 264 293 358
#     4  11  23  37  66  92 119 165 208 262 318 374
#     4  12  24  38  48  80 118 168 216 252 300 346
#     4  11  22  39  59  95 123 159 210 256 312 378
#     4  11  24  36  59  84 121 173 206 249 314 370
#     4  10  20  41  56  76 115 160 206 260 316 352
#     4  11  23  41  58  89 132 157 200 257 315 389
#     4  10  22  42  59  86 120 156 209 274 310 368
#
# _framework density 19.018813999999999
#
# number of rings (size 3 to 8) (size 9 to 14) (size 15 to 20)
#    0.000    1.185    5.185    1.778    5.185    3.556 
#    0.000    0.000    0.000    0.000    0.000    7.778 
#    0.000    0.000    0.000    0.000    0.000    0.000 
#
# Total GULP energy -334802.999856 kJ/mol
# GULP energy per Si atom -12400.111106 kJ/mol
# Density = 1.897553 g / cm^3
# Si number density = 19.018814 Si / 1000 Ang^3
#
#
#
# Elastic Constant Matrix: (Units=GPa)
#
#
# Indices 1 2 3 4 5 6 
#
# 1 75.2229 19.1720 28.7796 0.0000 0.0000 0.0000
# 2 19.1720 88.3572 23.4099 0.0000 0.0000 0.0000
# 3 28.7796 23.4099 109.0539 0.0000 0.0000 0.0000
# 4 0.0000 0.0000 0.0000 22.0228 0.0000 0.0000
# 5 0.0000 0.0000 0.0000 0.0000 31.5761 0.0000
# 6 0.0000 0.0000 0.0000 0.0000 0.0000 20.7322
#
#
#
# Elastic Compliance Matrix: (Units=1/GPa)
#
#
# Indices 1 2 3 4 5 6 
#
# 1 0.015244 -0.002377 -0.003513 0.000000 0.000000 0.000000
# 2 -0.002377 0.012371 -0.002028 0.000000 0.000000 0.000000
# 3 -0.003513 -0.002028 0.010532 0.000000 0.000000 0.000000
# 4 0.000000 0.000000 0.000000 0.045408 0.000000 0.000000
# 5 0.000000 0.000000 0.000000 0.000000 0.031670 0.000000
# 6 0.000000 0.000000 0.000000 0.000000 0.000000 0.048234
#
#
# Mechanical properties :
#
#
# Convention : Reuss Voigt Hill
#
# Bulk Modulus (GPa) = 44.82110 46.15079 45.48595
# Shear Modulus (GPa) = 26.77660 28.28438 27.53049
#
# Velocity S-wave (km/s) = 3.75627 3.86058 3.80878
# Velocity P-wave (km/s) = 6.51388 6.64760 6.58108
#
# Compressibility (1/GPa) = 0.02231092
#
# Stress axis : x y z
#
# Youngs Moduli (GPa) = 65.60171 80.83531 94.94729
#
# Poissons Ratio (x) = 0.19214 0.33351
# Poissons Ratio (y) = 0.15593 0.19258
# Poissons Ratio (z) = 0.23043 0.16396
#
# Static dielectric constant tensor:
#      x y z
#    x 3.426350 0.000000 0.000000 
#    y 0.000000 3.736240 0.000000 
#    z 0.000000 0.000000 3.465110 
# 
# 
# High freq. dielectric constant tensor:
#      x y z
#    x 1.718170 0.000000 0.000000 
#    y 0.000000 1.758910 0.000000 
#    z 0.000000 0.000000 1.727750 
# 
# From -- ./inp_files/4037.got.cif
#   From: 2010.03.12/outbox.cif.g09.slc.cpg/sg23_3_cif.got.tgz:4037.got - 2010.04.14 02:50:06.
