data_PCOD8163010
_publ_section_title
;
Structure prediction by ZEFSAII (Michael W. Deem and Ramdas Pophale) SiO2 
 PCOD8163010
Probable space group: F 2 2 2
;
_chemical_formula_sum "Si O2"
_cell_formula_units_Z 128
_cell_length_a 10.008100
_cell_length_b 24.405394
_cell_length_c 24.990471
_cell_angle_alpha 90.000000
_cell_angle_beta 90.000000
_cell_angle_gamma 90.000000
_cell_volume 6103.963119
_symmetry_space_group_name_H-M "F 2 2 2"
_symmetry_group_IT_number 22
_symmetry_cell_setting 'orthorhombic'
loop_
_space_group_symop_operation_xyz
x,y,z
-x,-y,z
x,-y,-z
-x,y,-z
x,1/2+y,1/2+z
-x,1/2-y,1/2+z
x,1/2-y,1/2-z
-x,1/2+y,1/2-z
1/2+x,y,1/2+z
1/2-x,-y,1/2+z
1/2+x,-y,1/2-z
1/2-x,y,1/2-z
1/2+x,1/2+y,z
1/2-x,1/2-y,z
1/2+x,1/2-y,-z
1/2-x,1/2+y,-z
loop_
_atom_site_type_symbol
_atom_site_label
_atom_site_fract_x
_atom_site_fract_y
_atom_site_fract_z
Si Si1 0.279870 0.078917 0.875819
Si Si2 0.871978 0.358388 0.288923
Si Si3 0.873189 0.881608 0.968288
Si Si4 0.256565 0.688753 0.941259
Si Si5 0.121882 0.869178 0.720087
Si Si6 0.499666 0.326603 0.619643
Si Si7 0.476934 0.704203 0.116234
Si Si8 0.648366 0.509632 0.296184
O O1 0.176218 0.096027 0.830222
O O2 0.203932 0.071879 0.933224
O O3 0.393248 0.124825 0.883939
O O4 0.337052 0.021576 0.853556
O O5 0.750000 0.339811 0.250000
O O6 0.995944 0.384378 0.257354
O O7 0.929458 0.307786 0.323324
O O8 0.904063 0.832393 0.927670
O O9 0.783527 0.854979 0.013277
O O10 0.000000 0.907207 0.000000
O O11 0.250000 0.750000 0.965927
O O12 0.116673 0.664499 0.922391
O O13 0.364660 0.692507 0.892593
O O14 0.250000 0.843168 0.750000
O O15 0.069164 0.825119 0.677807
O O16 0.171334 0.925885 0.692462
O O17 0.434734 0.267488 0.607860
O O18 0.500000 0.500000 0.274034
O O19 0.750000 0.488201 0.250000
#
# Coordination Sequence:
#
# PCOD8163010 Si02
#       8
#    16  16  16  16  16  16  16  16
#     4  11  22  36  60  88 124 153 203 260 307 358
#     4  11  20  39  56  85 124 165 199 246 295 362
#     4   9  20  38  59  86 117 163 198 251 301 364
#     4   9  19  36  57  81 119 157 204 248 295 357
#     4  11  23  38  60  87 122 161 207 249 299 361
#     4  11  21  36  54  90 123 160 206 251 298 363
#     4   9  21  36  56  83 125 166 205 244 297 362
#     4  11  21  39  63  91 123 158 204 257 308 362
#
# _framework density 20.969982000000002
#
# number of rings (size 3 to 8) (size 9 to 14) (size 15 to 20)
#    0.000    1.750    2.500    1.875    1.750    2.500 
#    2.250    0.625    0.000    0.750    0.000    6.125 
#    0.000    0.000    0.000    0.000    0.000    0.000 
#
# Total GULP energy -396558.108263 kJ/mol
# GULP energy per Si atom -12392.440883 kJ/mol
# Density = 2.092225 g / cm^3
# Si number density = 20.969982 Si / 1000 Ang^3
#
#
#
# Elastic Constant Matrix: (Units=GPa)
#
#
# Indices 1 2 3 4 5 6 
#
# 1 113.2966 25.9735 48.6072 0.0000 0.0000 0.0000
# 2 25.9735 45.7099 30.5638 0.0000 0.0000 0.0000
# 3 48.6072 30.5638 109.4781 0.0000 0.0000 0.0000
# 4 0.0000 0.0000 0.0000 11.9320 0.0000 0.0000
# 5 0.0000 0.0000 0.0000 0.0000 41.2338 0.0000
# 6 0.0000 0.0000 0.0000 0.0000 0.0000 21.0113
#
#
#
# Elastic Compliance Matrix: (Units=1/GPa)
#
#
# Indices 1 2 3 4 5 6 
#
# 1 0.011418 -0.003810 -0.004006 0.000000 0.000000 0.000000
# 2 -0.003810 0.028169 -0.006173 0.000000 0.000000 0.000000
# 3 -0.004006 -0.006173 0.012636 0.000000 0.000000 0.000000
# 4 0.000000 0.000000 0.000000 0.083809 0.000000 0.000000
# 5 0.000000 0.000000 0.000000 0.000000 0.024252 0.000000
# 6 0.000000 0.000000 0.000000 0.000000 0.000000 0.047593
#
#
# Mechanical properties :
#
#
# Convention : Reuss Voigt Hill
#
# Bulk Modulus (GPa) = 41.24236 53.19708 47.21972
# Shear Modulus (GPa) = 20.49707 25.72475 23.11091
#
# Velocity S-wave (km/s) = 3.12981 3.50629 3.32338
# Velocity P-wave (km/s) = 5.72459 6.46648 6.10681
#
# Compressibility (1/GPa) = 0.02424691
#
# Stress axis : x y z
#
# Youngs Moduli (GPa) = 87.57732 35.49972 79.13749
#
# Poissons Ratio (x) = 0.13524 0.31704
# Poissons Ratio (y) = 0.33363 0.48850
# Poissons Ratio (z) = 0.35085 0.21913
#
# Static dielectric constant tensor:
#      x y z
#    x 4.094840 0.000000 0.000000 
#    y 0.000000 3.517560 0.000000 
#    z 0.000000 0.000000 3.972670 
# 
# 
# High freq. dielectric constant tensor:
#      x y z
#    x 1.837830 0.000000 0.000000 
#    y 0.000000 1.789460 0.000000 
#    z 0.000000 0.000000 1.814950 
# 
# From -- ./inp_files/48410.got.cif
#   From: 2010.03.12/outbox.cif.g09.slc.cpg/sg22_25_cif.got.tgz:48410.got - 2010.04.14 02:24:06.
