data_PCOD8163738
_publ_section_title
;
Structure prediction by ZEFSAII (Michael W. Deem and Ramdas Pophale) SiO2 
 PCOD8163738
Probable space group: I 2 2 2
;
_chemical_formula_sum "Si O2"
_cell_formula_units_Z 32
_cell_length_a 12.264022
_cell_length_b 9.245547
_cell_length_c 12.128983
_cell_angle_alpha 90.000000
_cell_angle_beta 90.000000
_cell_angle_gamma 90.000000
_cell_volume 1375.276173
_symmetry_space_group_name_H-M "I 2 2 2"
_symmetry_group_IT_number 23
_symmetry_cell_setting 'orthorhombic'
loop_
_space_group_symop_operation_xyz
x,y,z
-x,-y,z
x,-y,-z
-x,y,-z
1/2+x,1/2+y,1/2+z
1/2-x,1/2-y,1/2+z
1/2+x,1/2-y,1/2-z
1/2-x,1/2+y,1/2-z
loop_
_atom_site_type_symbol
_atom_site_label
_atom_site_fract_x
_atom_site_fract_y
_atom_site_fract_z
Si Si1 0.163870 0.384894 0.089906
Si Si2 0.395039 0.573272 0.384943
Si Si3 0.329747 0.978909 0.168718
Si Si4 0.380169 0.232481 0.020510
O O1 0.089728 0.241737 0.087206
O O2 0.132704 0.449936 0.208231
O O3 0.292551 0.347310 0.068145
O O4 0.123451 0.500000 0.000000
O O5 0.500000 0.500000 0.327393
O O6 0.369886 0.500000 0.500000
O O7 0.291378 0.541732 0.310049
O O8 0.400991 0.104412 0.110165
O O9 0.331883 0.834198 0.093361
O O10 0.500000 0.303732 0.000000
#
# Coordination Sequence:
#
# PCOD8163738 Si02
#       4
#     8   8   8   8
#     4  11  25  41  70 102 138 174 238 296 340 421
#     4  10  21  42  67  91 134 181 216 278 358 416
#     4  10  20  41  70  92 135 187 222 287 352 416
#     4  10  22  43  69  98 139 185 230 284 358 419
#
# _framework density 23.268052000000001
#
# number of rings (size 3 to 8) (size 9 to 14) (size 15 to 20)
#    0.000    1.750    5.000    1.500    7.000    2.500 
#    0.000   10.000    0.000    0.000    0.000    0.000 
#    0.000    0.000    0.000    0.000    0.000    0.000 
#
# Total GULP energy -198285.663967 kJ/mol
# GULP energy per Si atom -12392.853998 kJ/mol
# Density = 2.321509 g / cm^3
# Si number density = 23.268052 Si / 1000 Ang^3
#
#
#
# Elastic Constant Matrix: (Units=GPa)
#
#
# Indices 1 2 3 4 5 6 
#
# 1 101.1858 22.4967 -8.6099 0.0000 0.0000 0.0000
# 2 22.4967 119.2801 51.8766 0.0000 0.0000 0.0000
# 3 -8.6099 51.8766 162.0154 0.0000 0.0000 0.0000
# 4 0.0000 0.0000 0.0000 26.1585 0.0000 0.0000
# 5 0.0000 0.0000 0.0000 0.0000 5.2504 0.0000
# 6 0.0000 0.0000 0.0000 0.0000 0.0000 8.3921
#
#
#
# Elastic Compliance Matrix: (Units=1/GPa)
#
#
# Indices 1 2 3 4 5 6 
#
# 1 0.010580 -0.002602 0.001396 0.000000 0.000000 0.000000
# 2 -0.002602 0.010380 -0.003462 0.000000 0.000000 0.000000
# 3 0.001396 -0.003462 0.007355 0.000000 0.000000 0.000000
# 4 0.000000 0.000000 0.000000 0.038228 0.000000 0.000000
# 5 0.000000 0.000000 0.000000 0.000000 0.190463 0.000000
# 6 0.000000 0.000000 0.000000 0.000000 0.000000 0.119160
#
#
# Mechanical properties :
#
#
# Convention : Reuss Voigt Hill
#
# Bulk Modulus (GPa) = 52.69394 57.11203 54.90298
# Shear Modulus (GPa) = 12.76062 29.07472 20.91767
#
# Velocity S-wave (km/s) = 2.34437 3.53874 3.00156
# Velocity P-wave (km/s) = 5.47939 6.42615 5.97157
#
# Compressibility (1/GPa) = 0.01897752
#
# Stress axis : x y z
#
# Youngs Moduli (GPa) = 94.51667 96.33814 135.96344
#
# Poissons Ratio (x) = 0.25071 -0.18974
# Poissons Ratio (y) = 0.24597 0.47070
# Poissons Ratio (z) = -0.13190 0.33352
#
# Static dielectric constant tensor:
#      x y z
#    x 4.496210 0.000000 0.000000 
#    y 0.000000 4.220620 0.000000 
#    z 0.000000 0.000000 3.904810 
# 
# 
# High freq. dielectric constant tensor:
#      x y z
#    x 1.919750 0.000000 0.000000 
#    y 0.000000 1.907030 0.000000 
#    z 0.000000 0.000000 1.904600 
# 
# From -- ./inp_files/16297.got.cif
#   From: 2010.03.12/outbox.cif.g09.slc.cpg/sg23_9_cif.got.tgz:16297.got - 2010.04.14 02:50:06.
