data_PCOD8163331
_publ_section_title
;
Structure prediction by ZEFSAII (Michael W. Deem and Ramdas Pophale) SiO2 
 PCOD8163331
Probable space group: I 2 2 2
;
_chemical_formula_sum "Si O2"
_cell_formula_units_Z 24
_cell_length_a 7.346234
_cell_length_b 6.024534
_cell_length_c 21.966508
_cell_angle_alpha 90.000000
_cell_angle_beta 90.000000
_cell_angle_gamma 90.000000
_cell_volume 972.185726
_symmetry_space_group_name_H-M "I 2 2 2"
_symmetry_group_IT_number 23
_symmetry_cell_setting 'orthorhombic'
loop_
_space_group_symop_operation_xyz
x,y,z
-x,-y,z
x,-y,-z
-x,y,-z
1/2+x,1/2+y,1/2+z
1/2-x,1/2-y,1/2+z
1/2+x,1/2-y,1/2-z
1/2-x,1/2+y,1/2-z
loop_
_atom_site_type_symbol
_atom_site_label
_atom_site_fract_x
_atom_site_fract_y
_atom_site_fract_z
Si Si1 0.000000 0.500000 0.269676
Si Si2 0.759729 0.832995 0.329543
Si Si3 0.000000 0.000000 0.897627
Si Si4 0.303192 0.102498 0.561010
O O1 0.946759 0.708139 0.312500
O O2 0.821489 0.449963 0.230074
O O3 0.606502 0.666685 0.354225
O O4 0.810271 0.019016 0.380358
O O5 0.154223 0.868712 0.938346
O O6 0.500000 0.000000 0.566189
O O7 0.208377 0.000000 0.500000
#
# Coordination Sequence:
#
# PCOD8163331 Si02
#       4
#     4   8   4   8
#     4  12  24  42  65  99 140 178 230 286 348 418
#     4  11  23  40  61 100 132 181 231 283 345 412
#     4  10  18  41  64  94 132 178 233 282 348 402
#     4   9  19  36  63  98 130 176 235 286 341 413
#
# _framework density 24.686640000000001
#
# number of rings (size 3 to 8) (size 9 to 14) (size 15 to 20)
#    0.000    1.667    5.000    2.000    0.000   10.667 
#    0.000    0.000    0.000    6.000    0.000    0.000 
#    0.000    0.000    0.000    0.000    0.000    0.000 
#
# Total GULP energy -148695.271288 kJ/mol
# GULP energy per Si atom -12391.272607 kJ/mol
# Density = 2.463045 g / cm^3
# Si number density = 24.686640 Si / 1000 Ang^3
#
#
#
# Elastic Constant Matrix: (Units=GPa)
#
#
# Indices 1 2 3 4 5 6 
#
# 1 44.3441 12.4356 36.2776 0.0000 0.0000 0.0000
# 2 12.4356 126.2067 68.9986 0.0000 0.0000 0.0000
# 3 36.2776 68.9986 160.6717 0.0000 0.0000 0.0000
# 4 0.0000 0.0000 0.0000 36.1816 0.0000 0.0000
# 5 0.0000 0.0000 0.0000 0.0000 1.3162 0.0000
# 6 0.0000 0.0000 0.0000 0.0000 0.0000 49.3744
#
#
#
# Elastic Compliance Matrix: (Units=1/GPa)
#
#
# Indices 1 2 3 4 5 6 
#
# 1 0.027739 0.000903 -0.006651 0.000000 0.000000 0.000000
# 2 0.000903 0.010384 -0.004663 0.000000 0.000000 0.000000
# 3 -0.006651 -0.004663 0.009728 0.000000 0.000000 0.000000
# 4 0.000000 0.000000 0.000000 0.027638 0.000000 0.000000
# 5 0.000000 0.000000 0.000000 0.000000 0.759738 0.000000
# 6 0.000000 0.000000 0.000000 0.000000 0.000000 0.020253
#
#
# Mechanical properties :
#
#
# Convention : Reuss Voigt Hill
#
# Bulk Modulus (GPa) = 36.99782 62.96067 49.97924
# Shear Modulus (GPa) = 5.64773 31.60850 18.62811
#
# Velocity S-wave (km/s) = 1.51418 3.58213 2.74995
# Velocity P-wave (km/s) = 4.25165 6.53209 5.51111
#
# Compressibility (1/GPa) = 0.02702862
#
# Stress axis : x y z
#
# Youngs Moduli (GPa) = 36.05075 96.30276 102.79567
#
# Poissons Ratio (x) = -0.08695 0.68367
# Poissons Ratio (y) = -0.03255 0.47935
# Poissons Ratio (z) = 0.23976 0.44907
#
# Static dielectric constant tensor:
#      x y z
#    x 4.106130 0.000000 0.000000 
#    y 0.000000 6.543870 0.000000 
#    z 0.000000 0.000000 5.865840 
# 
# 
# High freq. dielectric constant tensor:
#      x y z
#    x 1.935830 0.000000 0.000000 
#    y 0.000000 1.993440 0.000000 
#    z 0.000000 0.000000 1.987100 
# 
# From -- ./inp_files/433.got.cif
#   From: 2010.03.12/outbox.cif.g09.slc.cpg/sg23_1_cif.got.tgz:433.got - 2010.04.14 02:50:06.
