data_PCOD8163944
_publ_section_title
;
Structure prediction by ZEFSAII (Michael W. Deem and Ramdas Pophale) SiO2 
 PCOD8163944
Probable space group: I 2 2 2
;
_chemical_formula_sum "Si O2"
_cell_formula_units_Z 54
_cell_length_a 12.113321
_cell_length_b 10.491926
_cell_length_c 20.670909
_cell_angle_alpha 90.000000
_cell_angle_beta 90.000000
_cell_angle_gamma 90.000000
_cell_volume 2627.108563
_symmetry_space_group_name_H-M "I 2 2 2"
_symmetry_group_IT_number 23
_symmetry_cell_setting 'orthorhombic'
loop_
_space_group_symop_operation_xyz
x,y,z
-x,-y,z
x,-y,-z
-x,y,-z
1/2+x,1/2+y,1/2+z
1/2-x,1/2-y,1/2+z
1/2+x,1/2-y,1/2-z
1/2-x,1/2+y,1/2-z
loop_
_atom_site_type_symbol
_atom_site_label
_atom_site_fract_x
_atom_site_fract_y
_atom_site_fract_z
Si Si1 0.384845 0.445281 0.911257
Si Si2 0.825181 0.930446 0.266336
Si Si3 0.702637 0.688280 0.306847
Si Si4 0.469521 0.638209 0.352182
Si Si5 0.201429 0.500000 0.000000
Si Si6 0.320807 0.829136 0.061355
Si Si7 0.000000 0.500000 0.500000
Si Si8 0.618442 0.270506 0.478224
O O1 0.500000 0.500000 0.936621
O O2 0.386114 0.444369 0.834273
O O3 0.279213 0.524638 0.936984
O O4 0.370574 0.310513 0.946271
O O5 0.729538 0.823463 0.272697
O O6 0.913392 0.875623 0.216957
O O7 0.785589 0.070579 0.243328
O O8 0.582848 0.713308 0.338628
O O9 0.784302 0.650558 0.364855
O O10 0.500000 0.500000 0.381517
O O11 0.385109 0.712126 0.400213
O O12 0.124675 0.624439 0.002665
O O13 0.421522 0.921856 0.047421
O O14 0.219279 0.849234 0.010548
O O15 0.500000 0.326190 0.500000
#
# Coordination Sequence:
#
# PCOD8163944 Si02
#       8
#     8   8   8   8   4   8   2   8
#     4  10  21  42  66  91 129 173 218 261 328 395
#     4  10  23  41  65  94 128 167 219 269 318 395
#     4  10  21  46  63  96 129 169 217 269 327 392
#     4  10  22  40  66  96 124 172 225 257 322 408
#     4  10  24  36  64 102 128 165 213 274 332 392
#     4  10  25  42  64  96 131 167 215 278 325 388
#     4  12  28  44  60  96 136 168 220 278 328 388
#     4  11  22  41  67  97 129 168 211 275 331 392
#
# _framework density 20.554919000000002
#
# number of rings (size 3 to 8) (size 9 to 14) (size 15 to 20)
#    0.000    1.778    1.481    1.778   10.370    0.296 
#    8.000    0.000    0.000    0.000    0.000    0.000 
#    0.000    0.000    0.000    0.000    0.000    0.000 
#
# Total GULP energy -334679.016840 kJ/mol
# GULP energy per Si atom -12395.519142 kJ/mol
# Density = 2.050813 g / cm^3
# Si number density = 20.554919 Si / 1000 Ang^3
#
#
#
# Elastic Constant Matrix: (Units=GPa)
#
#
# Indices 1 2 3 4 5 6 
#
# 1 124.1706 47.1331 41.3033 0.0000 0.0000 0.0000
# 2 47.1331 79.1941 29.8039 0.0000 0.0000 0.0000
# 3 41.3033 29.8039 118.0503 0.0000 0.0000 0.0000
# 4 0.0000 0.0000 0.0000 31.8101 0.0000 0.0000
# 5 0.0000 0.0000 0.0000 0.0000 28.0302 0.0000
# 6 0.0000 0.0000 0.0000 0.0000 0.0000 37.9203
#
#
#
# Elastic Compliance Matrix: (Units=1/GPa)
#
#
# Indices 1 2 3 4 5 6 
#
# 1 0.010999 -0.005633 -0.002426 0.000000 0.000000 0.000000
# 2 -0.005633 0.016838 -0.002280 0.000000 0.000000 0.000000
# 3 -0.002426 -0.002280 0.009895 0.000000 0.000000 0.000000
# 4 0.000000 0.000000 0.000000 0.031437 0.000000 0.000000
# 5 0.000000 0.000000 0.000000 0.000000 0.035676 0.000000
# 6 0.000000 0.000000 0.000000 0.000000 0.000000 0.026371
#
#
# Mechanical properties :
#
#
# Convention : Reuss Voigt Hill
#
# Bulk Modulus (GPa) = 58.63861 61.98841 60.31351
# Shear Modulus (GPa) = 31.73033 33.09711 32.41372
#
# Velocity S-wave (km/s) = 3.93324 4.01706 3.97537
# Velocity P-wave (km/s) = 7.01547 7.19295 7.10477
#
# Compressibility (1/GPa) = 0.01705361
#
# Stress axis : x y z
#
# Youngs Moduli (GPa) = 90.92095 59.39029 101.05651
#
# Poissons Ratio (x) = 0.33454 0.24517
# Poissons Ratio (y) = 0.51215 0.23043
# Poissons Ratio (z) = 0.22058 0.13542
#
# Static dielectric constant tensor:
#      x y z
#    x 3.827190 0.000000 0.000000 
#    y 0.000000 3.766360 0.000000 
#    z 0.000000 0.000000 3.784300 
# 
# 
# High freq. dielectric constant tensor:
#      x y z
#    x 1.805500 0.000000 0.000000 
#    y 0.000000 1.797660 0.000000 
#    z 0.000000 0.000000 1.812150 
# 
# From -- ./inp_files/26730.got.cif
#   From: 2010.03.12/outbox.cif.g09.slc.cpg/sg23_14_cif.got.tgz:26730.got - 2010.04.14 02:50:06.
