data_PCOD8163333
_publ_section_title
;
Structure prediction by ZEFSAII (Michael W. Deem and Ramdas Pophale) SiO2 
 PCOD8163333
Probable space group: I 2 2 2
;
_chemical_formula_sum "Si O2"
_cell_formula_units_Z 52
_cell_length_a 12.496144
_cell_length_b 22.156539
_cell_length_c 8.520159
_cell_angle_alpha 90.000000
_cell_angle_beta 90.000000
_cell_angle_gamma 90.000000
_cell_volume 2358.987515
_symmetry_space_group_name_H-M "I 2 2 2"
_symmetry_group_IT_number 23
_symmetry_cell_setting 'orthorhombic'
loop_
_space_group_symop_operation_xyz
x,y,z
-x,-y,z
x,-y,-z
-x,y,-z
1/2+x,1/2+y,1/2+z
1/2-x,1/2-y,1/2+z
1/2+x,1/2-y,1/2-z
1/2-x,1/2+y,1/2-z
loop_
_atom_site_type_symbol
_atom_site_label
_atom_site_fract_x
_atom_site_fract_y
_atom_site_fract_z
Si Si1 0.641631 0.263656 0.770252
Si Si2 0.721619 0.500000 0.000000
Si Si3 0.816498 0.162930 0.808048
Si Si4 0.660482 0.904409 0.979166
Si Si5 0.000000 0.793659 0.000000
Si Si6 0.617441 0.008242 0.757578
Si Si7 0.500000 0.805568 0.000000
Si Si8 0.624326 0.623188 0.027437
O O1 0.748987 0.225063 0.795661
O O2 0.599372 0.260105 0.589127
O O3 0.542283 0.236640 0.864122
O O4 0.664649 0.331787 0.833542
O O5 0.799044 0.530551 0.871278
O O6 0.649744 0.553666 0.073179
O O7 0.940193 0.170498 0.860628
O O8 0.813863 0.135920 0.634647
O O9 0.770674 0.117285 0.940571
O O10 0.673444 0.948083 0.830403
O O11 0.595613 0.940512 0.113018
O O12 0.594221 0.845914 0.926053
O O13 0.500000 0.000000 0.681704
O O14 0.500000 0.631538 0.000000
#
# Coordination Sequence:
#
# PCOD8163333 Si02
#       8
#     8   4   8   8   4   8   4   8
#     4  11  24  42  71 101 140 177 225 287 350 416
#     4  12  28  42  68  98 132 188 240 288 342 402
#     4  11  24  43  68 102 135 178 228 284 351 421
#     4  10  20  38  69  96 136 175 224 270 350 420
#     4  12  24  44  68  99 132 181 236 284 338 418
#     4  11  21  42  64  99 139 177 222 290 338 409
#     4  10  18  41  66 103 134 184 210 270 364 418
#     4  12  24  50  66  91 139 186 226 288 347 400
#
# _framework density 22.043354999999998
#
# number of rings (size 3 to 8) (size 9 to 14) (size 15 to 20)
#    0.000    0.923    5.385    1.846    2.154    1.231 
#    2.769    0.000    0.000    0.923    0.000    0.000 
#    0.000    0.000    0.000    0.000    0.000    0.000 
#
# Total GULP energy -322244.182170 kJ/mol
# GULP energy per Si atom -12394.007007 kJ/mol
# Density = 2.199318 g / cm^3
# Si number density = 22.043355 Si / 1000 Ang^3
#
#
#
# Elastic Constant Matrix: (Units=GPa)
#
#
# Indices 1 2 3 4 5 6 
#
# 1 83.2747 28.1879 14.1353 0.0006 0.0001 0.0000
# 2 28.1879 116.6724 19.6580 0.0025 0.0002 -0.0002
# 3 14.1353 19.6580 72.8743 0.0086 -0.0009 0.0000
# 4 0.0006 0.0025 0.0086 25.3322 0.0001 -0.0002
# 5 0.0001 0.0002 -0.0009 0.0001 40.2763 0.0000
# 6 0.0000 -0.0002 0.0000 -0.0002 0.0000 27.7400
#
#
#
# Elastic Compliance Matrix: (Units=1/GPa)
#
#
# Indices 1 2 3 4 5 6 
#
# 1 0.013298 -0.002911 -0.001794 0.000001 0.000000 0.000000
# 2 -0.002911 0.009616 -0.002029 0.000000 0.000000 0.000000
# 3 -0.001794 -0.002029 0.014618 -0.000005 0.000000 0.000000
# 4 0.000001 0.000000 -0.000005 0.039475 0.000000 0.000000
# 5 0.000000 0.000000 0.000000 0.000000 0.024829 0.000000
# 6 0.000000 0.000000 0.000000 0.000000 0.000000 0.036049
#
#
# Mechanical properties :
#
#
# Convention : Reuss Voigt Hill
#
# Bulk Modulus (GPa) = 41.55657 44.08708 42.82183
# Shear Modulus (GPa) = 31.37263 32.72573 32.04918
#
# Velocity S-wave (km/s) = 3.77666 3.85724 3.81716
# Velocity P-wave (km/s) = 6.15716 6.31517 6.23666
#
# Compressibility (1/GPa) = 0.02406358
#
# Stress axis : x y z
#
# Youngs Moduli (GPa) = 75.19814 103.99212 68.41003
#
# Poissons Ratio (x) = 0.30267 0.12275
# Poissons Ratio (y) = 0.21886 0.13883
# Poissons Ratio (z) = 0.13493 0.21104
#
# Static dielectric constant tensor:
#      x y z
#    x 3.816690 0.000000 0.000000 
#    y 0.000000 4.030550 0.000000 
#    z 0.000000 0.000000 4.083650 
# 
# 
# High freq. dielectric constant tensor:
#      x y z
#    x 1.870030 0.000000 0.000000 
#    y 0.000000 1.861030 0.000000 
#    z 0.000000 0.000000 1.863420 
# 
# From -- ./inp_files/10195.got.cif
#   From: 2010.03.12/outbox.cif.g09.slc.cpg/sg23_6_cif.got.tgz:10195.got - 2010.04.14 02:50:06.
