data_PCOD8163526
_publ_section_title
;
Structure prediction by ZEFSAII (Michael W. Deem and Ramdas Pophale) SiO2 
 PCOD8163526
Probable space group: I 2 2 2
;
_chemical_formula_sum "Si O2"
_cell_formula_units_Z 56
_cell_length_a 19.589284
_cell_length_b 9.597253
_cell_length_c 15.849215
_cell_angle_alpha 90.000000
_cell_angle_beta 90.000000
_cell_angle_gamma 90.000000
_cell_volume 2979.704954
_symmetry_space_group_name_H-M "I 2 2 2"
_symmetry_group_IT_number 23
_symmetry_cell_setting 'orthorhombic'
loop_
_space_group_symop_operation_xyz
x,y,z
-x,-y,z
x,-y,-z
-x,y,-z
1/2+x,1/2+y,1/2+z
1/2-x,1/2-y,1/2+z
1/2+x,1/2-y,1/2-z
1/2-x,1/2+y,1/2-z
loop_
_atom_site_type_symbol
_atom_site_label
_atom_site_fract_x
_atom_site_fract_y
_atom_site_fract_z
Si Si1 0.313355 0.660072 0.662561
Si Si2 0.574858 0.150461 0.598791
Si Si3 0.814196 0.839279 0.360034
Si Si4 0.186645 0.160072 0.162561
Si Si5 0.314196 0.660721 0.860034
Si Si6 0.077881 0.164241 0.500000
Si Si7 0.425142 0.849539 0.401209
O O1 0.381532 0.715850 0.621394
O O2 0.251317 0.744809 0.619959
O O3 0.301416 0.500000 0.639682
O O4 0.327041 0.682453 0.761427
O O5 0.568077 0.142618 0.500000
O O6 0.500000 0.172236 0.639002
O O7 0.604734 1.000000 0.631488
O O8 0.827041 0.817547 0.261427
O O9 0.879344 0.789498 0.416204
O O10 0.797059 0.000000 0.381661
O O11 0.248683 0.244809 0.119959
O O12 0.118468 0.215850 0.121394
O O13 0.379344 0.710502 0.916204
O O14 0.000000 0.228368 0.500000
O O15 0.069905 0.000000 0.500000
#
# Coordination Sequence:
#
# PCOD8163526 Si02
#       7
#     8   8   8   8   8   8   8
#     4  10  20  33  52  79 109 138 172 219 268 312
#     4   9  19  35  53  74 102 138 177 213 255 314
#     4   9  19  35  54  77 105 139 177 216 261 315
#     4  10  20  33  52  79 109 138 172 219 268 312
#     4   9  19  35  54  77 105 139 177 216 261 315
#     4   9  18  34  57  81 102 133 182 227 259 306
#     4   9  19  35  53  74 102 138 177 213 255 314
#
# _framework density 18.793807000000001
#
# number of rings (size 3 to 8) (size 9 to 14) (size 15 to 20)
#    0.000    2.714    0.000    1.714    2.000    3.429 
#    0.000    4.286    0.000    1.714    0.000    0.000 
#    0.000    0.000    0.000    0.000    0.000    0.000 
#
# Total GULP energy -346910.859889 kJ/mol
# GULP energy per Si atom -12389.673567 kJ/mol
# Density = 1.875103 g / cm^3
# Si number density = 18.793807 Si / 1000 Ang^3
#
#
#
# Elastic Constant Matrix: (Units=GPa)
#
#
# Indices 1 2 3 4 5 6 
#
# 1 146.7451 67.2114 53.4034 0.0000 0.0000 0.0000
# 2 67.2114 80.9237 30.0440 0.0000 0.0000 0.0000
# 3 53.4034 30.0440 52.5071 0.0000 0.0000 0.0000
# 4 0.0000 0.0000 0.0000 23.7117 0.0000 0.0000
# 5 0.0000 0.0000 0.0000 0.0000 -66.2218 0.0000
# 6 0.0000 0.0000 0.0000 0.0000 0.0000 -249.3637
#
#
#
# Elastic Compliance Matrix: (Units=1/GPa)
#
#
# Indices 1 2 3 4 5 6 
#
# 1 0.014016 -0.008061 -0.009643 0.000000 0.000000 0.000000
# 2 -0.008061 0.020326 -0.003432 0.000000 0.000000 0.000000
# 3 -0.009643 -0.003432 0.030816 0.000000 0.000000 0.000000
# 4 0.000000 0.000000 0.000000 0.042173 0.000000 0.000000
# 5 0.000000 0.000000 0.000000 0.000000 -0.015101 0.000000
# 6 0.000000 0.000000 0.000000 0.000000 0.000000 -0.004010
#
#
# Mechanical properties :
#
#
# Convention : Reuss Voigt Hill
#
# Bulk Modulus (GPa) = 43.69285 64.61039 54.15162
# Shear Modulus (GPa) = 36.20029 -49.74028 -6.76999
#
# Velocity S-wave (km/s) = 4.39359 -5.15012 -1.90002
# Velocity P-wave (km/s) = 7.00266 0.95490 4.90537
#
# Compressibility (1/GPa) = 0.02288704
#
# Stress axis : x y z
#
# Youngs Moduli (GPa) = 71.34910 49.19697 32.45062
#
# Poissons Ratio (x) = 0.39656 0.31291
# Poissons Ratio (y) = 0.57513 0.11138
# Poissons Ratio (z) = 0.68799 0.16885
#
# Static dielectric constant tensor:
#      x y z
#    x 3.652850 0.000000 0.000000 
#    y 0.000000 3.424990 0.000000 
#    z 0.000000 0.000000 3.353700 
# 
# 
# High freq. dielectric constant tensor:
#      x y z
#    x 1.732110 0.000000 0.000000 
#    y 0.000000 1.717850 0.000000 
#    z 0.000000 0.000000 1.718520 
# 
# From -- ./inp_files/10217.got.cif
#   From: 2010.03.12/outbox.cif.g09.slc.cpg/sg23_6_cif.got.tgz:10217.got - 2010.04.14 02:50:06.
