data_PCOD8163815
_publ_section_title
;
Structure prediction by ZEFSAII (Michael W. Deem and Ramdas Pophale) SiO2 
 PCOD8163815
Probable space group: I 2 2 2
;
_chemical_formula_sum "Si O2"
_cell_formula_units_Z 64
_cell_length_a 23.138880
_cell_length_b 8.421250
_cell_length_c 16.936495
_cell_angle_alpha 90.000000
_cell_angle_beta 90.000000
_cell_angle_gamma 90.000000
_cell_volume 3300.216508
_symmetry_space_group_name_H-M "I 2 2 2"
_symmetry_group_IT_number 23
_symmetry_cell_setting 'orthorhombic'
loop_
_space_group_symop_operation_xyz
x,y,z
-x,-y,z
x,-y,-z
-x,y,-z
1/2+x,1/2+y,1/2+z
1/2-x,1/2-y,1/2+z
1/2+x,1/2-y,1/2-z
1/2-x,1/2+y,1/2-z
loop_
_atom_site_type_symbol
_atom_site_label
_atom_site_fract_x
_atom_site_fract_y
_atom_site_fract_z
Si Si1 0.627721 0.680782 0.659384
Si Si2 0.001676 0.682667 0.844937
Si Si3 0.309251 0.181832 0.981264
Si Si4 0.128451 0.183174 0.338831
Si Si5 0.397639 0.613038 0.928497
Si Si6 0.092573 0.887829 0.071725
Si Si7 0.813994 0.683302 0.012314
Si Si8 0.001978 0.181784 0.681604
O O1 0.567163 0.765640 0.644517
O O2 0.649556 0.701307 0.748883
O O3 0.617979 0.494122 0.642920
O O4 0.675106 0.760637 0.602401
O O5 0.962205 0.784140 0.903511
O O6 0.979555 0.708274 0.755097
O O7 0.000000 0.500000 0.869015
O O8 0.333003 0.200102 0.892178
O O9 0.355720 0.248343 0.043131
O O10 0.251617 0.283326 0.989357
O O11 0.296069 0.000000 0.000000
O O12 0.061210 0.232808 0.349062
O O13 0.135826 0.999510 0.365935
O O14 0.452797 0.699569 0.889655
O O15 0.418842 0.500000 0.000000
O O16 0.144608 0.775264 0.046921
O O17 0.072671 0.000000 0.000000
O O18 0.827289 0.500000 0.000000
O O19 0.000000 0.000000 0.712618
#
# Coordination Sequence:
#
# PCOD8163815 Si02
#       8
#     8   8   8   8   8   8   8   8
#     4  10  21  39  61  85 115 150 188 230 282 339
#     4  11  21  34  54  86 122 150 183 229 279 333
#     4  11  23  40  58  81 114 151 191 235 282 335
#     4   9  19  37  59  84 114 149 189 232 278 335
#     4   9  18  33  57  84 113 150 192 232 277 330
#     4  10  21  37  59  83 113 150 190 230 279 335
#     4  11  23  42  62  83 111 145 189 239 285 333
#     4   9  18  34  57  84 116 151 188 229 281 336
#
# _framework density 19.392668
#
# number of rings (size 3 to 8) (size 9 to 14) (size 15 to 20)
#    0.000    2.000    0.000    5.625    0.000   11.250 
#    0.000   11.250    0.000    0.000    0.000    0.000 
#    0.000    0.000    0.000    0.000    0.000    0.000 
#
# Total GULP energy -396858.682153 kJ/mol
# GULP energy per Si atom -12401.833817 kJ/mol
# Density = 1.934853 g / cm^3
# Si number density = 19.392668 Si / 1000 Ang^3
#
#
#
# Elastic Constant Matrix: (Units=GPa)
#
#
# Indices 1 2 3 4 5 6 
#
# 1 85.3234 31.2153 56.3725 0.0000 0.0000 0.0000
# 2 31.2153 114.3613 43.0698 0.0000 0.0000 0.0000
# 3 56.3725 43.0698 107.9950 0.0000 0.0000 0.0000
# 4 0.0000 0.0000 0.0000 27.2016 0.0000 0.0000
# 5 0.0000 0.0000 0.0000 0.0000 22.8101 0.0000
# 6 0.0000 0.0000 0.0000 0.0000 0.0000 28.8465
#
#
#
# Elastic Compliance Matrix: (Units=1/GPa)
#
#
# Indices 1 2 3 4 5 6 
#
# 1 0.018145 -0.001631 -0.008821 0.000000 0.000000 0.000000
# 2 -0.001631 0.010436 -0.003311 0.000000 0.000000 0.000000
# 3 -0.008821 -0.003311 0.015185 0.000000 0.000000 0.000000
# 4 0.000000 0.000000 0.000000 0.036762 0.000000 0.000000
# 5 0.000000 0.000000 0.000000 0.000000 0.043840 0.000000
# 6 0.000000 0.000000 0.000000 0.000000 0.000000 0.034666
#
#
# Mechanical properties :
#
#
# Convention : Reuss Voigt Hill
#
# Bulk Modulus (GPa) = 61.57488 63.22165 62.39826
# Shear Modulus (GPa) = 26.04529 27.57311 26.80920
#
# Velocity S-wave (km/s) = 3.66874 3.77481 3.72215
# Velocity P-wave (km/s) = 7.05455 7.18822 7.12170
#
# Compressibility (1/GPa) = 0.01624039
#
# Stress axis : x y z
#
# Youngs Moduli (GPa) = 55.11256 95.82010 65.85573
#
# Poissons Ratio (x) = 0.15624 0.58092
# Poissons Ratio (y) = 0.08986 0.21805
# Poissons Ratio (z) = 0.48615 0.31726
#
# Static dielectric constant tensor:
#      x y z
#    x 3.435360 0.000000 0.000000 
#    y 0.000000 3.503360 0.000000 
#    z 0.000000 0.000000 3.744800 
# 
# 
# High freq. dielectric constant tensor:
#      x y z
#    x 1.746840 0.000000 0.000000 
#    y 0.000000 1.748880 0.000000 
#    z 0.000000 0.000000 1.760800 
# 
# From -- ./inp_files/25266.got.cif
#   From: 2010.03.12/outbox.cif.g09.slc.cpg/sg23_13_cif.got.tgz:25266.got - 2010.04.14 02:50:06.
