data_PCOD8163802
_publ_section_title
;
Structure prediction by ZEFSAII (Michael W. Deem and Ramdas Pophale) SiO2 
 PCOD8163802
Probable space group: I 2 2 2
;
_chemical_formula_sum "Si O2"
_cell_formula_units_Z 60
_cell_length_a 10.466073
_cell_length_b 22.923926
_cell_length_c 12.031506
_cell_angle_alpha 90.000000
_cell_angle_beta 90.000000
_cell_angle_gamma 90.000000
_cell_volume 2886.640825
_symmetry_space_group_name_H-M "I 2 2 2"
_symmetry_group_IT_number 23
_symmetry_cell_setting 'orthorhombic'
loop_
_space_group_symop_operation_xyz
x,y,z
-x,-y,z
x,-y,-z
-x,y,-z
1/2+x,1/2+y,1/2+z
1/2-x,1/2-y,1/2+z
1/2+x,1/2-y,1/2-z
1/2-x,1/2+y,1/2-z
loop_
_atom_site_type_symbol
_atom_site_label
_atom_site_fract_x
_atom_site_fract_y
_atom_site_fract_z
Si Si1 0.000000 0.894800 0.000000
Si Si2 0.918095 0.683290 0.782272
Si Si3 0.359661 0.821282 0.965966
Si Si4 0.237217 0.556663 0.437234
Si Si5 0.852361 0.194563 0.137153
Si Si6 0.650414 0.005396 0.719357
Si Si7 0.192056 0.375481 0.196143
Si Si8 0.855456 0.404718 0.042368
O O1 0.046947 0.853287 0.098494
O O2 0.888687 0.935492 0.047625
O O3 0.843080 0.689811 0.665409
O O4 0.931810 0.747507 0.834454
O O5 0.833469 0.644441 0.864691
O O6 0.054426 0.651478 0.771871
O O7 0.340530 0.889852 0.990694
O O8 0.500000 0.799997 0.000000
O O9 0.252719 0.789348 0.041494
O O10 0.186551 0.500000 0.500000
O O11 0.207063 0.550842 0.307413
O O12 0.791913 0.168296 0.249273
O O13 0.683677 0.032702 0.597290
O O14 0.500000 0.000000 0.732658
O O15 0.708302 0.941393 0.742066
O O16 0.223476 0.382969 0.064898
O O17 0.000000 0.410343 0.000000
#
# Coordination Sequence:
#
# PCOD8163802 Si02
#       8
#     4   8   8   8   8   8   8   8
#     4  10  25  48  62  96 130 183 230 266 332 414
#     4  11  23  40  61  92 131 176 216 274 329 394
#     4  11  22  43  60  98 130 162 221 279 330 391
#     4  11  24  37  67  93 135 173 214 272 339 398
#     4  11  26  42  70  91 132 182 226 276 329 405
#     4  12  20  36  62 104 133 170 209 279 334 394
#     4  11  23  39  63  96 134 170 222 265 336 387
#     4  10  21  36  62  95 135 165 205 266 339 398
#
# _framework density 20.785404
#
# number of rings (size 3 to 8) (size 9 to 14) (size 15 to 20)
#    0.000    1.067    5.333    2.200    6.533    1.067 
#    0.000    0.000    0.000    0.000    0.000    1.867 
#    0.000    0.000    0.000    0.000    0.000    0.000 
#
# Total GULP energy -371885.882647 kJ/mol
# GULP energy per Si atom -12396.196088 kJ/mol
# Density = 2.073810 g / cm^3
# Si number density = 20.785404 Si / 1000 Ang^3
#
#
#
# Elastic Constant Matrix: (Units=GPa)
#
#
# Indices 1 2 3 4 5 6 
#
# 1 32.7565 6.4369 19.7719 -0.0004 0.0003 0.0001
# 2 6.4369 91.3177 19.8829 -0.0003 0.0002 0.0001
# 3 19.7719 19.8829 107.8045 -0.0027 0.0019 0.0008
# 4 -0.0004 -0.0003 -0.0027 31.5412 0.0004 0.0001
# 5 0.0003 0.0002 0.0019 0.0004 21.5421 -0.0002
# 6 0.0001 0.0001 0.0008 0.0001 -0.0002 23.1415
#
#
#
# Elastic Compliance Matrix: (Units=1/GPa)
#
#
# Indices 1 2 3 4 5 6 
#
# 1 0.034434 -0.001096 -0.006113 0.000000 0.000000 0.000000
# 2 -0.001096 0.011444 -0.001910 0.000000 0.000000 0.000000
# 3 -0.006113 -0.001910 0.010749 0.000001 -0.000001 0.000000
# 4 0.000000 0.000000 0.000001 0.031705 -0.000001 0.000000
# 5 0.000000 0.000000 -0.000001 -0.000001 0.046421 0.000000
# 6 0.000000 0.000000 0.000000 0.000000 0.000000 0.043212
#
#
# Mechanical properties :
#
#
# Convention : Reuss Voigt Hill
#
# Bulk Modulus (GPa) = 26.04907 36.00689 31.02798
# Shear Modulus (GPa) = 23.92361 27.63077 25.77719
#
# Velocity S-wave (km/s) = 3.39629 3.64996 3.52541
# Velocity P-wave (km/s) = 5.28577 5.92653 5.61529
#
# Compressibility (1/GPa) = 0.03838909
#
# Stress axis : x y z
#
# Youngs Moduli (GPa) = 29.04141 87.38339 93.02832
#
# Poissons Ratio (x) = 0.09579 0.56869
# Poissons Ratio (y) = 0.03183 0.17765
# Poissons Ratio (z) = 0.17753 0.16687
#
# Static dielectric constant tensor:
#      x y z
#    x 3.549910 0.000000 0.000000 
#    y 0.000000 3.887840 0.000000 
#    z 0.000000 0.000000 4.574490 
# 
# 
# High freq. dielectric constant tensor:
#      x y z
#    x 1.766130 0.000000 0.000000 
#    y 0.000000 1.822840 0.000000 
#    z 0.000000 0.000000 1.832710 
# 
# From -- ./inp_files/15962.got.cif
#   From: 2010.03.12/outbox.cif.g09.slc.cpg/sg23_8_cif.got.tgz:15962.got - 2010.04.14 02:50:06.
