data_PCOD8163716
_publ_section_title
;
Structure prediction by ZEFSAII (Michael W. Deem and Ramdas Pophale) SiO2 
 PCOD8163716
Probable space group: I 2 2 2
;
_chemical_formula_sum "Si O2"
_cell_formula_units_Z 58
_cell_length_a 23.770497
_cell_length_b 8.288448
_cell_length_c 15.445705
_cell_angle_alpha 90.000000
_cell_angle_beta 90.000000
_cell_angle_gamma 90.000000
_cell_volume 3043.120959
_symmetry_space_group_name_H-M "I 2 2 2"
_symmetry_group_IT_number 23
_symmetry_cell_setting 'orthorhombic'
loop_
_space_group_symop_operation_xyz
x,y,z
-x,-y,z
x,-y,-z
-x,y,-z
1/2+x,1/2+y,1/2+z
1/2-x,1/2-y,1/2+z
1/2+x,1/2-y,1/2-z
1/2-x,1/2+y,1/2-z
loop_
_atom_site_type_symbol
_atom_site_label
_atom_site_fract_x
_atom_site_fract_y
_atom_site_fract_z
Si Si1 0.319940 0.819271 0.010625
Si Si2 0.000000 0.000000 0.500000
Si Si3 0.551105 0.103852 0.265162
Si Si4 0.412574 0.673698 0.113939
Si Si5 0.988542 0.183927 0.101302
Si Si6 0.735931 0.912238 0.409544
Si Si7 0.124737 0.686055 0.181586
Si Si8 0.329420 0.387369 0.158253
O O1 0.380017 0.806532 0.057587
O O2 0.273704 0.743735 0.073835
O O3 0.325041 0.744130 0.916186
O O4 0.300651 0.000000 0.000000
O O5 0.033871 0.119454 0.439102
O O6 0.568447 0.247806 0.203068
O O7 0.530754 0.189961 0.353394
O O8 0.500000 0.000000 0.224512
O O9 0.602949 0.982758 0.279463
O O10 0.375316 0.517028 0.130555
O O11 0.924293 0.224447 0.127812
O O12 0.000000 0.000000 0.130466
O O13 0.000000 0.205632 0.000000
O O14 0.674606 0.858920 0.382027
O O15 0.729407 0.000000 0.500000
O O16 0.767974 0.024472 0.337486
O O17 0.151281 0.804167 0.253387
#
# Coordination Sequence:
#
# PCOD8163716 Si02
#       8
#     8   2   8   8   8   8   8   8
#     4  10  20  40  61  85 125 158 196 259 311 366
#     4  12  24  32  66  84 118 164 206 236 298 396
#     4  10  24  37  58  91 122 160 206 262 310 364
#     4  11  22  38  59  88 122 164 202 244 316 370
#     4  10  23  43  62  89 130 170 212 268 322 378
#     4   9  22  41  62  90 121 162 209 258 319 389
#     4  11  23  39  66  92 121 172 211 265 322 376
#     4  10  21  40  59  87 124 159 203 252 317 374
#
# _framework density 19.059380000000001
#
# number of rings (size 3 to 8) (size 9 to 14) (size 15 to 20)
#    0.000    1.793    1.379    2.483    6.759    6.345 
#    2.483    1.379    0.000    0.000    0.000    0.000 
#    0.000    0.000    0.000    0.000    0.000    0.000 
#
# Total GULP energy -359551.827105 kJ/mol
# GULP energy per Si atom -12398.338866 kJ/mol
# Density = 1.901600 g / cm^3
# Si number density = 19.059380 Si / 1000 Ang^3
#
#
#
# Elastic Constant Matrix: (Units=GPa)
#
#
# Indices 1 2 3 4 5 6 
#
# 1 134.6207 57.2261 56.9807 0.0000 0.0000 0.0000
# 2 57.2261 128.2841 47.3533 0.0000 0.0000 0.0000
# 3 56.9807 47.3533 72.3599 0.0000 0.0000 0.0000
# 4 0.0000 0.0000 0.0000 23.7454 0.0000 0.0000
# 5 0.0000 0.0000 0.0000 0.0000 28.3094 0.0000
# 6 0.0000 0.0000 0.0000 0.0000 0.0000 22.3606
#
#
#
# Elastic Compliance Matrix: (Units=1/GPa)
#
#
# Indices 1 2 3 4 5 6 
#
# 1 0.011673 -0.002392 -0.007627 0.000000 0.000000 0.000000
# 2 -0.002392 0.010768 -0.005163 0.000000 0.000000 0.000000
# 3 -0.007627 -0.005163 0.023205 0.000000 0.000000 0.000000
# 4 0.000000 0.000000 0.000000 0.042113 0.000000 0.000000
# 5 0.000000 0.000000 0.000000 0.000000 0.035324 0.000000
# 6 0.000000 0.000000 0.000000 0.000000 0.000000 0.044722
#
#
# Mechanical properties :
#
#
# Convention : Reuss Voigt Hill
#
# Bulk Modulus (GPa) = 65.43747 73.15389 69.29568
# Shear Modulus (GPa) = 24.59864 26.46338 25.53101
#
# Velocity S-wave (km/s) = 3.59643 3.73026 3.66396
# Velocity P-wave (km/s) = 7.18706 7.55106 7.37131
#
# Compressibility (1/GPa) = 0.01528176
#
# Stress axis : x y z
#
# Youngs Moduli (GPa) = 85.66516 92.86659 43.09494
#
# Poissons Ratio (x) = 0.22214 0.32868
# Poissons Ratio (y) = 0.20491 0.22251
# Poissons Ratio (z) = 0.65336 0.47949
#
# Static dielectric constant tensor:
#      x y z
#    x 3.609330 0.000000 0.000000 
#    y 0.000000 3.635780 0.000000 
#    z 0.000000 0.000000 3.419970 
# 
# 
# High freq. dielectric constant tensor:
#      x y z
#    x 1.747240 0.000000 0.000000 
#    y 0.000000 1.754420 0.000000 
#    z 0.000000 0.000000 1.738320 
# 
# From -- ./inp_files/12698.got.cif
#   From: 2010.03.12/outbox.cif.g09.slc.cpg/sg23_7_cif.got.tgz:12698.got - 2010.04.14 02:50:06.
