data_PCOD8163735
_publ_section_title
;
Structure prediction by ZEFSAII (Michael W. Deem and Ramdas Pophale) SiO2 
 PCOD8163735
Probable space group: I 2 2 2
;
_chemical_formula_sum "Si O2"
_cell_formula_units_Z 38
_cell_length_a 8.290676
_cell_length_b 10.547891
_cell_length_c 21.940768
_cell_angle_alpha 90.000000
_cell_angle_beta 90.000000
_cell_angle_gamma 90.000000
_cell_volume 1918.701441
_symmetry_space_group_name_H-M "I 2 2 2"
_symmetry_group_IT_number 23
_symmetry_cell_setting 'orthorhombic'
loop_
_space_group_symop_operation_xyz
x,y,z
-x,-y,z
x,-y,-z
-x,y,-z
1/2+x,1/2+y,1/2+z
1/2-x,1/2-y,1/2+z
1/2+x,1/2-y,1/2-z
1/2-x,1/2+y,1/2-z
loop_
_atom_site_type_symbol
_atom_site_label
_atom_site_fract_x
_atom_site_fract_y
_atom_site_fract_z
Si Si1 0.343477 0.260559 0.180960
Si Si2 0.519719 0.851910 0.930135
Si Si3 0.277733 0.842211 0.591932
Si Si4 0.500000 0.500000 0.145407
Si Si5 0.009288 0.352185 0.796869
Si Si6 0.500000 0.000000 0.500000
O O1 0.384384 0.215925 0.112065
O O2 0.425513 0.396848 0.191028
O O3 0.154497 0.274421 0.192699
O O4 0.422429 0.165158 0.229075
O O5 0.698759 0.795294 0.920834
O O6 0.500000 0.000000 0.916241
O O7 0.500000 0.818644 0.000000
O O8 0.368321 0.801824 0.653142
O O9 0.393856 0.903385 0.540813
O O10 0.138570 0.945846 0.601702
O O11 0.000000 0.500000 0.809694
#
# Coordination Sequence:
#
# PCOD8163735 Si02
#       6
#     8   8   8   4   8   2
#     4  11  23  40  67  90 130 171 212 271 333 386
#     4  10  24  45  67  94 130 174 222 263 326 402
#     4  11  24  40  67  99 132 169 220 273 330 392
#     4  10  20  41  62 100 122 169 216 268 328 394
#     4  12  24  43  62  96 133 164 221 269 324 404
#     4  12  24  38  68 106 136 174 214 282 336 386
#
# _framework density 19.805060999999998
#
# number of rings (size 3 to 8) (size 9 to 14) (size 15 to 20)
#    0.000    1.053    3.158    3.158    8.842    0.000 
#    0.000    0.000    0.000    0.000    0.000    0.000 
#    0.000    0.000    0.000    0.000    0.000    0.000 
#
# Total GULP energy -235479.596647 kJ/mol
# GULP energy per Si atom -12393.662981 kJ/mol
# Density = 1.975998 g / cm^3
# Si number density = 19.805061 Si / 1000 Ang^3
#
#
#
# Elastic Constant Matrix: (Units=GPa)
#
#
# Indices 1 2 3 4 5 6 
#
# 1 141.8728 50.1200 58.0173 0.0000 0.0000 0.0000
# 2 50.1200 94.2985 37.5445 0.0000 0.0000 0.0000
# 3 58.0173 37.5445 118.0522 0.0000 0.0000 0.0000
# 4 0.0000 0.0000 0.0000 12.3629 0.0000 0.0000
# 5 0.0000 0.0000 0.0000 0.0000 31.8387 0.0000
# 6 0.0000 0.0000 0.0000 0.0000 0.0000 34.9076
#
#
#
# Elastic Compliance Matrix: (Units=1/GPa)
#
#
# Indices 1 2 3 4 5 6 
#
# 1 0.009883 -0.003800 -0.003648 0.000000 0.000000 0.000000
# 2 -0.003800 0.013603 -0.002459 0.000000 0.000000 0.000000
# 3 -0.003648 -0.002459 0.011046 0.000000 0.000000 0.000000
# 4 0.000000 0.000000 0.000000 0.080887 0.000000 0.000000
# 5 0.000000 0.000000 0.000000 0.000000 0.031408 0.000000
# 6 0.000000 0.000000 0.000000 0.000000 0.000000 0.028647
#
#
# Mechanical properties :
#
#
# Convention : Reuss Voigt Hill
#
# Bulk Modulus (GPa) = 67.94645 71.73189 69.83917
# Shear Modulus (GPa) = 24.97555 29.72460 27.35007
#
# Velocity S-wave (km/s) = 3.55501 3.87829 3.72016
# Velocity P-wave (km/s) = 7.15771 7.50683 7.33435
#
# Compressibility (1/GPa) = 0.01471747
#
# Stress axis : x y z
#
# Youngs Moduli (GPa) = 101.18264 73.51103 90.53184
#
# Poissons Ratio (x) = 0.27936 0.33030
# Poissons Ratio (y) = 0.38452 0.22259
# Poissons Ratio (z) = 0.36916 0.18074
#
# Static dielectric constant tensor:
#      x y z
#    x 3.814970 0.000000 0.000000 
#    y 0.000000 3.727380 0.000000 
#    z 0.000000 0.000000 3.663010 
# 
# 
# High freq. dielectric constant tensor:
#      x y z
#    x 1.782110 0.000000 0.000000 
#    y 0.000000 1.772890 0.000000 
#    z 0.000000 0.000000 1.780580 
# 
# From -- ./inp_files/6934.got.cif
#   From: 2010.03.12/outbox.cif.g09.slc.cpg/sg23_4_cif.got.tgz:6934.got - 2010.04.14 02:50:06.
