data_PCOD8163487
_publ_section_title
;
Structure prediction by ZEFSAII (Michael W. Deem and Ramdas Pophale) SiO2 
 PCOD8163487
Probable space group: I 2 2 2
;
_chemical_formula_sum "Si O2"
_cell_formula_units_Z 58
_cell_length_a 18.904892
_cell_length_b 9.007485
_cell_length_c 16.598248
_cell_angle_alpha 90.000000
_cell_angle_beta 90.000000
_cell_angle_gamma 90.000000
_cell_volume 2826.441476
_symmetry_space_group_name_H-M "I 2 2 2"
_symmetry_group_IT_number 23
_symmetry_cell_setting 'orthorhombic'
loop_
_space_group_symop_operation_xyz
x,y,z
-x,-y,z
x,-y,-z
-x,y,-z
1/2+x,1/2+y,1/2+z
1/2-x,1/2-y,1/2+z
1/2+x,1/2-y,1/2-z
1/2-x,1/2+y,1/2-z
loop_
_atom_site_type_symbol
_atom_site_label
_atom_site_fract_x
_atom_site_fract_y
_atom_site_fract_z
Si Si1 0.975651 0.670815 0.414323
Si Si2 0.524999 0.334631 0.239749
Si Si3 0.429610 0.814754 0.637518
Si Si4 0.315971 0.018492 0.260115
Si Si5 0.327386 0.924843 0.084862
Si Si6 0.671066 0.556087 0.414109
Si Si7 0.182995 0.180665 0.221515
Si Si8 0.500000 0.000000 0.500000
O O1 0.008833 0.769585 0.342716
O O2 0.890532 0.693012 0.406911
O O3 0.000000 0.500000 0.404529
O O4 0.000000 0.736071 0.500000
O O5 0.500000 0.500000 0.254682
O O6 0.500105 0.230939 0.314038
O O7 0.609188 0.331933 0.232381
O O8 0.383165 0.923613 0.691572
O O9 0.386539 0.665404 0.621227
O O10 0.450508 0.896107 0.554993
O O11 0.245399 0.114166 0.277612
O O12 0.332968 0.029613 0.164218
O O13 0.299130 0.853133 0.291285
O O14 0.247436 0.859788 0.081368
O O15 0.344681 0.000000 0.000000
O O16 0.644648 0.500000 0.500000
O O17 0.678601 0.406982 0.362130
#
# Coordination Sequence:
#
# PCOD8163487 Si02
#       8
#     8   8   8   8   8   8   8   2
#     4  11  22  39  69  98 134 175 219 270 338 403
#     4  12  26  43  68 100 142 174 229 276 350 400
#     4  12  27  46  69  98 136 185 231 289 344 414
#     4  11  23  42  74  98 141 173 239 271 341 406
#     4  10  19  38  65 101 127 168 219 272 323 400
#     4  10  24  43  69  95 134 175 231 281 347 404
#     4  11  23  43  68 105 130 181 219 286 332 411
#     4  12  32  44  70 100 142 168 244 292 352 396
#
# _framework density 20.520503000000001
#
# number of rings (size 3 to 8) (size 9 to 14) (size 15 to 20)
#    0.000    0.966    4.138    3.310    4.828    0.276 
#    0.000    0.000    0.000    0.000    0.000    0.000 
#    0.000    0.000    0.000    0.000    0.000    0.000 
#
# Total GULP energy -359467.877803 kJ/mol
# GULP energy per Si atom -12395.444062 kJ/mol
# Density = 2.047380 g / cm^3
# Si number density = 20.520503 Si / 1000 Ang^3
#
#
#
# Elastic Constant Matrix: (Units=GPa)
#
#
# Indices 1 2 3 4 5 6 
#
# 1 117.0244 36.9328 33.0185 0.0000 0.0000 0.0000
# 2 36.9328 111.1271 46.7473 0.0000 0.0000 0.0000
# 3 33.0185 46.7473 140.8816 0.0000 0.0000 0.0000
# 4 0.0000 0.0000 0.0000 30.0732 0.0000 0.0000
# 5 0.0000 0.0000 0.0000 0.0000 31.3792 0.0000
# 6 0.0000 0.0000 0.0000 0.0000 0.0000 29.1081
#
#
#
# Elastic Compliance Matrix: (Units=1/GPa)
#
#
# Indices 1 2 3 4 5 6 
#
# 1 0.009782 -0.002658 -0.001411 0.000000 0.000000 0.000000
# 2 -0.002658 0.011181 -0.003087 0.000000 0.000000 0.000000
# 3 -0.001411 -0.003087 0.008453 0.000000 0.000000 0.000000
# 4 0.000000 0.000000 0.000000 0.033252 0.000000 0.000000
# 5 0.000000 0.000000 0.000000 0.000000 0.031868 0.000000
# 6 0.000000 0.000000 0.000000 0.000000 0.000000 0.034355
#
#
# Mechanical properties :
#
#
# Convention : Reuss Voigt Hill
#
# Bulk Modulus (GPa) = 66.20371 66.93668 66.57020
# Shear Modulus (GPa) = 33.72986 34.93441 34.33214
#
# Velocity S-wave (km/s) = 4.05867 4.13051 4.09475
# Velocity P-wave (km/s) = 7.36858 7.44569 7.40724
#
# Compressibility (1/GPa) = 0.01510489
#
# Stress axis : x y z
#
# Youngs Moduli (GPa) = 102.22855 89.44098 118.29904
#
# Poissons Ratio (x) = 0.23769 0.16689
# Poissons Ratio (y) = 0.27168 0.36520
# Poissons Ratio (z) = 0.14422 0.27611
#
# Static dielectric constant tensor:
#      x y z
#    x 4.065810 0.000000 0.000000 
#    y 0.000000 3.862230 0.000000 
#    z 0.000000 0.000000 3.928860 
# 
# 
# High freq. dielectric constant tensor:
#      x y z
#    x 1.820270 0.000000 0.000000 
#    y 0.000000 1.780720 0.000000 
#    z 0.000000 0.000000 1.812680 
# 
# From -- ./inp_files/25092.got.cif
#   From: 2010.03.12/outbox.cif.g09.slc.cpg/sg23_13_cif.got.tgz:25092.got - 2010.04.14 02:50:06.
