data_PCOD8163217
_publ_section_title
;
Structure prediction by ZEFSAII (Michael W. Deem and Ramdas Pophale) SiO2 
 PCOD8163217
Probable space group: I 2 2 2
;
_chemical_formula_sum "Si O2"
_cell_formula_units_Z 44
_cell_length_a 8.716942
_cell_length_b 8.280429
_cell_length_c 29.987873
_cell_angle_alpha 90.000000
_cell_angle_beta 90.000000
_cell_angle_gamma 90.000000
_cell_volume 2164.525253
_symmetry_space_group_name_H-M "I 2 2 2"
_symmetry_group_IT_number 23
_symmetry_cell_setting 'orthorhombic'
loop_
_space_group_symop_operation_xyz
x,y,z
-x,-y,z
x,-y,-z
-x,y,-z
1/2+x,1/2+y,1/2+z
1/2-x,1/2-y,1/2+z
1/2+x,1/2-y,1/2-z
1/2-x,1/2+y,1/2-z
loop_
_atom_site_type_symbol
_atom_site_label
_atom_site_fract_x
_atom_site_fract_y
_atom_site_fract_z
Si Si1 0.749707 0.122243 0.561999
Si Si2 0.500000 0.500000 0.000000
Si Si3 0.713158 0.407276 0.857287
Si Si4 0.790529 0.775401 0.298833
Si Si5 0.063480 0.666685 0.621711
Si Si6 0.547763 0.817093 0.710640
Si Si7 0.500000 0.000000 0.500000
O O1 0.791641 0.280994 0.590746
O O2 0.722601 0.975355 0.596253
O O3 0.600567 0.123213 0.530237
O O4 0.897614 0.111919 0.530906
O O5 0.673790 0.551019 0.822198
O O6 0.566245 0.303978 0.872233
O O7 0.847624 0.303375 0.833881
O O8 0.869076 0.636492 0.328815
O O9 0.611957 0.726534 0.297481
O O10 0.861304 0.772594 0.249778
O O11 0.000000 0.500000 0.602015
O O12 0.500000 0.000000 0.723167
#
# Coordination Sequence:
#
# PCOD8163217 Si02
#       7
#     8   2   8   8   8   8   2
#     4  10  20  38  66  97 123 160 201 258 309 370
#     4  10  16  38  66  98 108 154 214 242 300 370
#     4  10  21  39  63  87 125 162 207 256 305 368
#     4  10  20  35  57  84 118 162 216 254 306 361
#     4  11  22  39  61  89 127 169 203 252 309 370
#     4  10  21  35  57  86 120 162 209 267 309 364
#     4  10  24  34  76 100 128 146 216 264 308 390
#
# _framework density 20.327783
#
# number of rings (size 3 to 8) (size 9 to 14) (size 15 to 20)
#    0.000    1.818    1.818    3.273    6.364    2.909 
#    0.000    5.000    0.000    1.091    0.000    0.000 
#    0.000    0.000    0.000    0.000    0.000    0.000 
#
# Total GULP energy -272577.054218 kJ/mol
# GULP energy per Si atom -12389.866101 kJ/mol
# Density = 2.028152 g / cm^3
# Si number density = 20.327783 Si / 1000 Ang^3
#
#
#
# Elastic Constant Matrix: (Units=GPa)
#
#
# Indices 1 2 3 4 5 6 
#
# 1 135.6948 38.2017 61.5688 0.0000 0.0000 0.0000
# 2 38.2017 53.6645 35.0058 0.0000 0.0000 0.0000
# 3 61.5688 35.0058 130.1570 0.0000 0.0000 0.0000
# 4 0.0000 0.0000 0.0000 12.3149 0.0000 0.0000
# 5 0.0000 0.0000 0.0000 0.0000 75.7688 0.0000
# 6 0.0000 0.0000 0.0000 0.0000 0.0000 22.0093
#
#
#
# Elastic Compliance Matrix: (Units=1/GPa)
#
#
# Indices 1 2 3 4 5 6 
#
# 1 0.010418 -0.005096 -0.003558 0.000000 0.000000 0.000000
# 2 -0.005096 0.025091 -0.004338 0.000000 0.000000 0.000000
# 3 -0.003558 -0.004338 0.010533 0.000000 0.000000 0.000000
# 4 0.000000 0.000000 0.000000 0.081202 0.000000 0.000000
# 5 0.000000 0.000000 0.000000 0.000000 0.013198 0.000000
# 6 0.000000 0.000000 0.000000 0.000000 0.000000 0.045435
#
#
# Mechanical properties :
#
#
# Convention : Reuss Voigt Hill
#
# Bulk Modulus (GPa) = 49.85119 65.45209 57.65164
# Shear Modulus (GPa) = 22.87838 34.33462 28.60650
#
# Velocity S-wave (km/s) = 3.35845 4.11426 3.75542
# Velocity P-wave (km/s) = 6.29411 7.40525 6.87218
#
# Compressibility (1/GPa) = 0.02005970
#
# Stress axis : x y z
#
# Youngs Moduli (GPa) = 95.98512 39.85436 94.94288
#
# Poissons Ratio (x) = 0.20308 0.33778
# Poissons Ratio (y) = 0.48911 0.41185
# Poissons Ratio (z) = 0.34149 0.17289
#
# Static dielectric constant tensor:
#      x y z
#    x 4.070240 0.000000 0.000000 
#    y 0.000000 3.208960 0.000000 
#    z 0.000000 0.000000 4.027430 
# 
# 
# High freq. dielectric constant tensor:
#      x y z
#    x 1.810530 0.000000 0.000000 
#    y 0.000000 1.743560 0.000000 
#    z 0.000000 0.000000 1.806890 
# 
# From -- ./inp_files/13296.got.cif
#   From: 2010.03.12/outbox.cif.g09.slc.cpg/sg23_7_cif.got.tgz:13296.got - 2010.04.14 02:50:06.
