data_PCOD8163752
_publ_section_title
;
Structure prediction by ZEFSAII (Michael W. Deem and Ramdas Pophale) SiO2 
 PCOD8163752
Probable space group: I 2 2 2
;
_chemical_formula_sum "Si O2"
_cell_formula_units_Z 48
_cell_length_a 28.982725
_cell_length_b 7.862678
_cell_length_c 10.025241
_cell_angle_alpha 90.000000
_cell_angle_beta 90.000000
_cell_angle_gamma 90.000000
_cell_volume 2284.570308
_symmetry_space_group_name_H-M "I 2 2 2"
_symmetry_group_IT_number 23
_symmetry_cell_setting 'orthorhombic'
loop_
_space_group_symop_operation_xyz
x,y,z
-x,-y,z
x,-y,-z
-x,y,-z
1/2+x,1/2+y,1/2+z
1/2-x,1/2-y,1/2+z
1/2+x,1/2-y,1/2-z
1/2-x,1/2+y,1/2-z
loop_
_atom_site_type_symbol
_atom_site_label
_atom_site_fract_x
_atom_site_fract_y
_atom_site_fract_z
Si Si1 0.553665 0.304301 0.035525
Si Si2 0.340077 0.690365 0.445476
Si Si3 0.695600 0.120575 0.197682
Si Si4 0.500000 0.500000 0.500000
Si Si5 0.000000 0.500000 0.000000
Si Si6 0.617515 0.000000 0.000000
Si Si7 0.732827 0.131986 0.603768
Si Si8 0.560347 0.746895 0.652559
O O1 0.585346 0.163458 0.958143
O O2 0.564717 0.264461 0.188977
O O3 0.567958 0.500000 0.000000
O O4 0.500000 0.274211 0.000000
O O5 0.335240 0.500000 0.500000
O O6 0.315186 0.730390 0.304695
O O7 0.317801 0.810446 0.556483
O O8 0.392166 0.746737 0.426559
O O9 0.649710 0.054843 0.123898
O O10 0.732061 0.210257 0.100317
O O11 0.722929 0.958167 0.255475
O O12 0.531872 0.588238 0.605796
O O13 0.032352 0.408337 0.105148
O O14 0.755097 0.000000 0.500000
#
# Coordination Sequence:
#
# PCOD8163752 Si02
#       8
#     8   8   8   2   2   4   8   8
#     4  11  26  48  70 103 146 191 232 284 355 425
#     4  11  23  43  70  97 135 173 228 286 341 416
#     4  11  25  45  67 103 134 181 230 280 355 417
#     4  10  20  42  68  98 132 176 220 296 332 418
#     4  10  28  38  74  94 144 170 232 296 340 422
#     4  12  27  42  73 104 144 179 242 283 350 420
#     4  10  25  43  70  94 133 177 224 286 346 411
#     4  11  23  44  66 104 133 180 233 279 356 411
#
# _framework density 21.010515999999999
#
# number of rings (size 3 to 8) (size 9 to 14) (size 15 to 20)
#    0.000    1.167    2.500    2.250   11.667    2.000 
#    3.000    0.000    0.000    0.000    0.000    0.000 
#    0.000    0.000    0.000    0.000    0.000    0.000 
#
# Total GULP energy -297395.755816 kJ/mol
# GULP energy per Si atom -12391.489826 kJ/mol
# Density = 2.096269 g / cm^3
# Si number density = 21.010516 Si / 1000 Ang^3
#
#
#
# Elastic Constant Matrix: (Units=GPa)
#
#
# Indices 1 2 3 4 5 6 
#
# 1 142.4734 73.1379 41.5903 0.0000 0.0000 0.0000
# 2 73.1379 144.9622 58.3389 0.0000 0.0000 0.0000
# 3 41.5903 58.3389 96.7850 0.0000 0.0000 0.0000
# 4 0.0000 0.0000 0.0000 45.2802 0.0000 0.0000
# 5 0.0000 0.0000 0.0000 0.0000 19.2932 0.0000
# 6 0.0000 0.0000 0.0000 0.0000 0.0000 46.7606
#
#
#
# Elastic Compliance Matrix: (Units=1/GPa)
#
#
# Indices 1 2 3 4 5 6 
#
# 1 0.009657 -0.004228 -0.001601 0.000000 0.000000 0.000000
# 2 -0.004228 0.010958 -0.004789 0.000000 0.000000 0.000000
# 3 -0.001601 -0.004789 0.013907 0.000000 0.000000 0.000000
# 4 0.000000 0.000000 0.000000 0.022085 0.000000 0.000000
# 5 0.000000 0.000000 0.000000 0.000000 0.051832 0.000000
# 6 0.000000 0.000000 0.000000 0.000000 0.000000 0.021386
#
#
# Mechanical properties :
#
#
# Convention : Reuss Voigt Hill
#
# Bulk Modulus (GPa) = 75.26446 81.15052 78.20749
# Shear Modulus (GPa) = 32.15682 36.34368 34.25025
#
# Velocity S-wave (km/s) = 3.91642 4.16358 4.04189
# Velocity P-wave (km/s) = 7.50674 7.86266 7.68676
#
# Compressibility (1/GPa) = 0.01328648
#
# Stress axis : x y z
#
# Youngs Moduli (GPa) = 103.55713 91.25358 71.90714
#
# Poissons Ratio (x) = 0.38578 0.11515
# Poissons Ratio (y) = 0.43779 0.34435
# Poissons Ratio (z) = 0.16583 0.43699
#
# Static dielectric constant tensor:
#      x y z
#    x 3.930720 0.000000 0.000000 
#    y 0.000000 4.270660 0.000000 
#    z 0.000000 0.000000 3.690570 
# 
# 
# High freq. dielectric constant tensor:
#      x y z
#    x 1.838960 0.000000 0.000000 
#    y 0.000000 1.835140 0.000000 
#    z 0.000000 0.000000 1.819670 
# 
# From -- ./inp_files/13415.got.cif
#   From: 2010.03.12/outbox.cif.g09.slc.cpg/sg23_7_cif.got.tgz:13415.got - 2010.04.14 02:50:06.
