data_PCOD8163841
_publ_section_title
;
Structure prediction by ZEFSAII (Michael W. Deem and Ramdas Pophale) SiO2 
 PCOD8163841
Probable space group: I 2 2 2
;
_chemical_formula_sum "Si O2"
_cell_formula_units_Z 64
_cell_length_a 8.802241
_cell_length_b 15.234577
_cell_length_c 23.713608
_cell_angle_alpha 90.000000
_cell_angle_beta 90.000000
_cell_angle_gamma 90.000000
_cell_volume 3179.957325
_symmetry_space_group_name_H-M "I 2 2 2"
_symmetry_group_IT_number 23
_symmetry_cell_setting 'orthorhombic'
loop_
_space_group_symop_operation_xyz
x,y,z
-x,-y,z
x,-y,-z
-x,y,-z
1/2+x,1/2+y,1/2+z
1/2-x,1/2-y,1/2+z
1/2+x,1/2-y,1/2-z
1/2-x,1/2+y,1/2-z
loop_
_atom_site_type_symbol
_atom_site_label
_atom_site_fract_x
_atom_site_fract_y
_atom_site_fract_z
Si Si1 0.661797 0.601913 0.351847
Si Si2 0.686109 0.407517 0.361007
Si Si3 0.814077 0.666296 0.245324
Si Si4 0.170712 0.352276 0.751899
Si Si5 0.656951 0.389216 0.868413
Si Si6 0.809883 0.913004 0.362126
Si Si7 0.838770 0.739151 0.929847
Si Si8 0.692667 0.748365 0.558365
O O1 0.695302 0.508416 0.381881
O O2 0.483337 0.614248 0.339523
O O3 0.750304 0.600690 0.292665
O O4 0.719483 0.680024 0.391803
O O5 0.798640 0.393885 0.308834
O O6 0.734523 0.344466 0.412418
O O7 0.761055 0.762947 0.261585
O O8 0.754394 0.639606 0.184735
O O9 0.993831 0.664969 0.242810
O O10 0.224729 0.416287 0.801927
O O11 0.480672 0.379014 0.853018
O O12 0.694659 0.488592 0.886707
O O13 0.698347 0.325423 0.919836
O O14 0.727680 0.851673 0.407347
O O15 0.019255 0.728131 0.928284
O O16 0.778058 0.760104 0.992071
#
# Coordination Sequence:
#
# PCOD8163841 Si02
#       8
#     8   8   8   8   8   8   8   8
#     4  10  21  38  61  90 124 160 198 242 294 355
#     4  10  21  38  61  90 124 160 198 242 294 355
#     4  12  23  37  61  91 123 158 196 242 300 360
#     4  12  23  37  61  91 123 158 196 242 300 360
#     4  11  24  41  62  89 121 159 201 246 301 360
#     4  11  24  41  62  89 121 159 201 246 301 360
#     4  10  22  40  62  88 119 160 207 251 296 349
#     4  10  22  40  62  88 119 160 207 251 296 349
#
# _framework density 20.126056999999999
#
# number of rings (size 3 to 8) (size 9 to 14) (size 15 to 20)
#    0.000    1.250    2.500    3.750    0.000    7.000 
#    0.000    5.000    0.000    0.000    0.000    3.500 
#    0.000    0.000    0.000    0.000    0.000    0.000 
#
# Total GULP energy -396958.103242 kJ/mol
# GULP energy per Si atom -12404.940726 kJ/mol
# Density = 2.008025 g / cm^3
# Si number density = 20.126057 Si / 1000 Ang^3
#
#
#
# Elastic Constant Matrix: (Units=GPa)
#
#
# Indices 1 2 3 4 5 6 
#
# 1 68.0060 1.0225 6.0254 0.0000 0.0000 0.0000
# 2 1.0225 78.8369 4.1468 0.0000 0.0000 0.0000
# 3 6.0254 4.1468 84.7906 0.0000 0.0000 0.0000
# 4 0.0000 0.0000 0.0000 14.8991 0.0000 0.0000
# 5 0.0000 0.0000 0.0000 0.0000 27.8065 0.0000
# 6 0.0000 0.0000 0.0000 0.0000 0.0000 25.7310
#
#
#
# Elastic Compliance Matrix: (Units=1/GPa)
#
#
# Indices 1 2 3 4 5 6 
#
# 1 0.014799 -0.000137 -0.001045 0.000000 0.000000 0.000000
# 2 -0.000137 0.012718 -0.000612 0.000000 0.000000 0.000000
# 3 -0.001045 -0.000612 0.011898 0.000000 0.000000 0.000000
# 4 0.000000 0.000000 0.000000 0.067118 0.000000 0.000000
# 5 0.000000 0.000000 0.000000 0.000000 0.035963 0.000000
# 6 0.000000 0.000000 0.000000 0.000000 0.000000 0.038864
#
#
# Mechanical properties :
#
#
# Convention : Reuss Voigt Hill
#
# Bulk Modulus (GPa) = 27.91181 28.22478 28.06829
# Shear Modulus (GPa) = 25.39474 28.38322 26.88898
#
# Velocity S-wave (km/s) = 3.55601 3.75943 3.65914
# Velocity P-wave (km/s) = 5.54607 5.73576 5.64171
#
# Compressibility (1/GPa) = 0.03582713
#
# Stress axis : x y z
#
# Youngs Moduli (GPa) = 67.57110 78.62625 84.04802
#
# Poissons Ratio (x) = 0.01077 0.08783
# Poissons Ratio (y) = 0.00926 0.05146
# Poissons Ratio (z) = 0.07061 0.04814
#
# Static dielectric constant tensor:
#      x y z
#    x 3.669540 0.000000 0.000000 
#    y 0.000000 3.848940 0.000000 
#    z 0.000000 0.000000 3.614550 
# 
# 
# High freq. dielectric constant tensor:
#      x y z
#    x 1.784120 0.000000 0.000000 
#    y 0.000000 1.799030 0.000000 
#    z 0.000000 0.000000 1.777330 
# 
# From -- ./inp_files/12715.got.cif
#   From: 2010.03.12/outbox.cif.g09.slc.cpg/sg23_7_cif.got.tgz:12715.got - 2010.04.14 02:50:06.
