data_PCOD8163819
_publ_section_title
;
Structure prediction by ZEFSAII (Michael W. Deem and Ramdas Pophale) SiO2 
 PCOD8163819
Probable space group: I 2 2 2
;
_chemical_formula_sum "Si O2"
_cell_formula_units_Z 64
_cell_length_a 8.669226
_cell_length_b 20.749759
_cell_length_c 18.143398
_cell_angle_alpha 90.000000
_cell_angle_beta 90.000000
_cell_angle_gamma 90.000000
_cell_volume 3263.713360
_symmetry_space_group_name_H-M "I 2 2 2"
_symmetry_group_IT_number 23
_symmetry_cell_setting 'orthorhombic'
loop_
_space_group_symop_operation_xyz
x,y,z
-x,-y,z
x,-y,-z
-x,y,-z
1/2+x,1/2+y,1/2+z
1/2-x,1/2-y,1/2+z
1/2+x,1/2-y,1/2-z
1/2-x,1/2+y,1/2-z
loop_
_atom_site_type_symbol
_atom_site_label
_atom_site_fract_x
_atom_site_fract_y
_atom_site_fract_z
Si Si1 0.951974 0.673982 0.775929
Si Si2 0.063176 0.709106 0.922774
Si Si3 0.084014 0.806994 0.723785
Si Si4 0.855402 0.638140 0.568639
Si Si5 0.427324 0.281695 0.074418
Si Si6 0.441389 0.064923 0.832724
Si Si7 0.463426 0.649704 0.373263
Si Si8 0.696823 0.436625 0.552366
O O1 0.767636 0.681173 0.771449
O O2 0.995836 0.661337 0.860885
O O3 0.046653 0.735162 0.748266
O O4 0.031270 0.618907 0.727616
O O5 0.246888 0.704819 0.921474
O O6 0.994600 0.780995 0.908835
O O7 0.000000 0.683572 0.000000
O O8 0.997149 0.852367 0.785240
O O9 0.015198 0.816904 0.642151
O O10 0.953367 0.704328 0.572162
O O11 0.720017 0.643172 0.627545
O O12 0.790370 0.621097 0.487792
O O13 0.961908 0.579166 0.593025
O O14 0.500000 0.311495 0.000000
O O15 0.270500 0.053118 0.866210
O O16 0.500000 0.000000 0.794521
O O17 0.529818 0.592003 0.424157
O O18 0.681536 0.500000 0.500000
#
# Coordination Sequence:
#
# PCOD8163819 Si02
#       8
#     8   8   8   8   8   8   8   8
#     4  11  23  38  61  86 122 161 208 272 329 391
#     4  10  21  37  60  93 122 153 196 258 324 390
#     4  11  21  37  58  89 121 161 211 262 335 383
#     4  11  21  39  51  81 113 162 207 256 302 370
#     4  11  21  35  60  87 123 159 198 248 328 391
#     4  12  24  41  57  81 120 166 217 260 308 374
#     4  10  22  37  56  82 124 157 204 260 315 366
#     4  12  25  37  59  82 118 172 222 261 299 363
#
# _framework density 19.609566000000001
#
# number of rings (size 3 to 8) (size 9 to 14) (size 15 to 20)
#    0.000    1.000    3.750    5.250    5.250    1.000 
#    0.000    0.000    0.000    0.375    0.000    0.000 
#    0.000    0.000    0.000    0.000    0.000    0.000 
#
# Total GULP energy -396454.865472 kJ/mol
# GULP energy per Si atom -12389.214546 kJ/mol
# Density = 1.956493 g / cm^3
# Si number density = 19.609566 Si / 1000 Ang^3
#
#
#
# Elastic Constant Matrix: (Units=GPa)
#
#
# Indices 1 2 3 4 5 6 
#
# 1 70.8104 33.9175 55.9636 0.0000 0.0000 0.0000
# 2 33.9175 59.2641 41.9076 0.0000 0.0000 0.0000
# 3 55.9636 41.9076 172.6023 0.0000 0.0000 0.0000
# 4 0.0000 0.0000 0.0000 33.5465 0.0000 0.0000
# 5 0.0000 0.0000 0.0000 0.0000 33.4712 0.0000
# 6 0.0000 0.0000 0.0000 0.0000 0.0000 19.4195
#
#
#
# Elastic Compliance Matrix: (Units=1/GPa)
#
#
# Indices 1 2 3 4 5 6 
#
# 1 0.022601 -0.009360 -0.005055 0.000000 0.000000 0.000000
# 2 -0.009360 0.024247 -0.002852 0.000000 0.000000 0.000000
# 3 -0.005055 -0.002852 0.008125 0.000000 0.000000 0.000000
# 4 0.000000 0.000000 0.000000 0.029809 0.000000 0.000000
# 5 0.000000 0.000000 0.000000 0.000000 0.029876 0.000000
# 6 0.000000 0.000000 0.000000 0.000000 0.000000 0.051495
#
#
# Mechanical properties :
#
#
# Convention : Reuss Voigt Hill
#
# Bulk Modulus (GPa) = 48.92793 62.91712 55.92252
# Shear Modulus (GPa) = 24.09610 28.68000 26.38805
#
# Velocity S-wave (km/s) = 3.50922 3.82848 3.67232
# Velocity P-wave (km/s) = 6.43620 7.19010 6.82357
#
# Compressibility (1/GPa) = 0.02043822
#
# Stress axis : x y z
#
# Youngs Moduli (GPa) = 44.24583 41.24145 123.07114
#
# Poissons Ratio (x) = 0.38602 0.62218
# Poissons Ratio (y) = 0.41414 0.35105
# Poissons Ratio (z) = 0.22368 0.11764
#
# Static dielectric constant tensor:
#      x y z
#    x 3.716420 0.000000 0.000000 
#    y 0.000000 3.302460 0.000000 
#    z 0.000000 0.000000 3.991780 
# 
# 
# High freq. dielectric constant tensor:
#      x y z
#    x 1.778430 0.000000 0.000000 
#    y 0.000000 1.708630 0.000000 
#    z 0.000000 0.000000 1.775190 
# 
# From -- ./inp_files/23986.got.cif
#   From: 2010.03.12/outbox.cif.g09.slc.cpg/sg23_12_cif.got.tgz:23986.got - 2010.04.14 02:50:06.
