data_PCOD8163326
_publ_section_title
;
Structure prediction by ZEFSAII (Michael W. Deem and Ramdas Pophale) SiO2 
 PCOD8163326
Probable space group: I 2 2 2
;
_chemical_formula_sum "Si O2"
_cell_formula_units_Z 38
_cell_length_a 13.330376
_cell_length_b 6.214534
_cell_length_c 22.102443
_cell_angle_alpha 90.000000
_cell_angle_beta 90.000000
_cell_angle_gamma 90.000000
_cell_volume 1831.012238
_symmetry_space_group_name_H-M "I 2 2 2"
_symmetry_group_IT_number 23
_symmetry_cell_setting 'orthorhombic'
loop_
_space_group_symop_operation_xyz
x,y,z
-x,-y,z
x,-y,-z
-x,y,-z
1/2+x,1/2+y,1/2+z
1/2-x,1/2-y,1/2+z
1/2+x,1/2-y,1/2-z
1/2-x,1/2+y,1/2-z
loop_
_atom_site_type_symbol
_atom_site_label
_atom_site_fract_x
_atom_site_fract_y
_atom_site_fract_z
Si Si1 0.756967 0.109864 0.684577
Si Si2 0.189888 0.226551 0.104174
Si Si3 0.676937 0.840485 0.926444
Si Si4 0.000000 0.500000 0.500000
Si Si5 0.304563 0.000000 0.500000
Si Si6 0.388488 0.468036 0.293154
O O1 0.825956 0.269027 0.643911
O O2 0.647856 0.221500 0.697031
O O3 0.744736 0.882737 0.651698
O O4 0.811738 0.084282 0.748268
O O5 0.133420 0.362626 0.050424
O O6 0.272352 0.076947 0.070626
O O7 0.110913 0.084151 0.141119
O O8 0.566998 0.852495 0.955741
O O9 0.737875 0.662069 0.961959
O O10 0.500000 0.500000 0.266747
#
# Coordination Sequence:
#
# PCOD8163326 Si02
#       6
#     8   8   8   2   4   8
#     4  10  22  42  62  90 132 171 212 280 327 394
#     4  10  20  40  62  89 126 170 214 267 331 388
#     4  10  22  36  59  89 130 170 212 270 326 399
#     4  12  20  38  56 100 132 164 220 268 328 428
#     4  10  18  39  64  83 120 180 206 266 344 368
#     4  11  23  41  66  95 129 172 223 271 337 404
#
# _framework density 20.753546
#
# number of rings (size 3 to 8) (size 9 to 14) (size 15 to 20)
#    0.000    1.684    4.211    0.000    0.000    2.947 
#    0.000    0.000    0.000   36.632    0.000    0.000 
#    0.000    0.000    0.000    0.000    0.000    0.000 
#
# Total GULP energy -235439.332557 kJ/mol
# GULP energy per Si atom -12391.543819 kJ/mol
# Density = 2.070631 g / cm^3
# Si number density = 20.753546 Si / 1000 Ang^3
#
#
#
# Elastic Constant Matrix: (Units=GPa)
#
#
# Indices 1 2 3 4 5 6 
#
# 1 73.5154 30.2763 12.3696 0.0000 0.0000 0.0000
# 2 30.2763 112.9463 40.6768 0.0000 0.0000 0.0000
# 3 12.3696 40.6768 94.2280 0.0000 0.0000 0.0000
# 4 0.0000 0.0000 0.0000 55.1218 0.0000 0.0000
# 5 0.0000 0.0000 0.0000 0.0000 27.5855 0.0000
# 6 0.0000 0.0000 0.0000 0.0000 0.0000 12.4034
#
#
#
# Elastic Compliance Matrix: (Units=1/GPa)
#
#
# Indices 1 2 3 4 5 6 
#
# 1 0.015297 -0.003999 -0.000282 0.000000 0.000000 0.000000
# 2 -0.003999 0.011529 -0.004452 0.000000 0.000000 0.000000
# 3 -0.000282 -0.004452 0.012571 0.000000 0.000000 0.000000
# 4 0.000000 0.000000 0.000000 0.018142 0.000000 0.000000
# 5 0.000000 0.000000 0.000000 0.000000 0.036251 0.000000
# 6 0.000000 0.000000 0.000000 0.000000 0.000000 0.080623
#
#
# Mechanical properties :
#
#
# Convention : Reuss Voigt Hill
#
# Bulk Modulus (GPa) = 45.59562 49.70390 47.64976
# Shear Modulus (GPa) = 25.10172 32.17992 28.64082
#
# Velocity S-wave (km/s) = 3.48158 3.94201 3.71893
# Velocity P-wave (km/s) = 6.17896 6.68736 6.43818
#
# Compressibility (1/GPa) = 0.02193193
#
# Stress axis : x y z
#
# Youngs Moduli (GPa) = 65.37253 86.73712 79.54565
#
# Poissons Ratio (x) = 0.34686 0.02241
# Poissons Ratio (y) = 0.26143 0.35414
# Poissons Ratio (z) = 0.01842 0.38615
#
# Static dielectric constant tensor:
#      x y z
#    x 3.188130 0.000000 0.000000 
#    y 0.000000 4.103880 0.000000 
#    z 0.000000 0.000000 4.269090 
# 
# 
# High freq. dielectric constant tensor:
#      x y z
#    x 1.748960 0.000000 0.000000 
#    y 0.000000 1.831250 0.000000 
#    z 0.000000 0.000000 1.844140 
# 
# From -- ./inp_files/1749.got.cif
#   From: 2010.03.12/outbox.cif.g09.slc.cpg/sg23_1_cif.got.tgz:1749.got - 2010.04.14 02:50:06.
