data_PCOD8163895
_publ_section_title
;
Structure prediction by ZEFSAII (Michael W. Deem and Ramdas Pophale) SiO2 
 PCOD8163895
Probable space group: I 2 2 2
;
_chemical_formula_sum "Si O2"
_cell_formula_units_Z 34
_cell_length_a 11.959916
_cell_length_b 8.561064
_cell_length_c 16.194276
_cell_angle_alpha 90.000000
_cell_angle_beta 90.000000
_cell_angle_gamma 90.000000
_cell_volume 1658.125544
_symmetry_space_group_name_H-M "I 2 2 2"
_symmetry_group_IT_number 23
_symmetry_cell_setting 'orthorhombic'
loop_
_space_group_symop_operation_xyz
x,y,z
-x,-y,z
x,-y,-z
-x,y,-z
1/2+x,1/2+y,1/2+z
1/2-x,1/2-y,1/2+z
1/2+x,1/2-y,1/2-z
1/2-x,1/2+y,1/2-z
loop_
_atom_site_type_symbol
_atom_site_label
_atom_site_fract_x
_atom_site_fract_y
_atom_site_fract_z
Si Si1 0.783931 0.633189 0.059434
Si Si2 0.126800 0.043375 0.317862
Si Si3 0.684920 0.821955 0.920080
Si Si4 0.000000 0.500000 0.500000
Si Si5 0.878263 0.055216 0.876106
O O1 0.715879 0.569032 0.137764
O O2 0.868766 0.763887 0.094979
O O3 0.843481 0.500000 0.000000
O O4 0.694775 0.710925 0.999112
O O5 0.164892 0.219882 0.338356
O O6 0.139159 0.029883 0.220519
O O7 0.000000 0.000000 0.345574
O O8 0.788038 0.942077 0.918197
O O9 0.570737 0.909133 0.933073
O O10 0.000000 0.000000 0.904860
#
# Coordination Sequence:
#
# PCOD8163895 Si02
#       5
#     8   8   8   2   8
#     4  10  21  40  63  92 125 161 214 264 310 370
#     4  10  22  39  64  93 130 165 207 268 320 376
#     4  11  22  38  63  93 123 164 209 263 315 376
#     4  12  20  36  64  92 116 152 212 262 320 356
#     4  11  23  42  63  90 130 175 210 256 320 382
#
# _framework density 20.505082000000002
#
# number of rings (size 3 to 8) (size 9 to 14) (size 15 to 20)
#    0.000    1.412    2.353    2.824    0.000    5.176 
#    0.000    8.235    0.000    0.000    0.000    0.000 
#    0.000    0.000    0.000    0.000    0.000    0.000 
#
# Total GULP energy -210668.707055 kJ/mol
# GULP energy per Si atom -12392.276886 kJ/mol
# Density = 2.045841 g / cm^3
# Si number density = 20.505082 Si / 1000 Ang^3
#
#
#
# Elastic Constant Matrix: (Units=GPa)
#
#
# Indices 1 2 3 4 5 6 
#
# 1 127.1446 72.9255 35.2300 0.0000 0.0000 0.0000
# 2 72.9255 150.2362 45.1951 0.0000 0.0000 0.0000
# 3 35.2300 45.1951 90.5748 0.0000 0.0000 0.0000
# 4 0.0000 0.0000 0.0000 4.9730 0.0000 0.0000
# 5 0.0000 0.0000 0.0000 0.0000 26.1708 0.0000
# 6 0.0000 0.0000 0.0000 0.0000 0.0000 27.0179
#
#
#
# Elastic Compliance Matrix: (Units=1/GPa)
#
#
# Indices 1 2 3 4 5 6 
#
# 1 0.011179 -0.004846 -0.001930 0.000000 0.000000 0.000000
# 2 -0.004846 0.009932 -0.003071 0.000000 0.000000 0.000000
# 3 -0.001930 -0.003071 0.013324 0.000000 0.000000 0.000000
# 4 0.000000 0.000000 0.000000 0.201084 0.000000 0.000000
# 5 0.000000 0.000000 0.000000 0.000000 0.038211 0.000000
# 6 0.000000 0.000000 0.000000 0.000000 0.000000 0.037013
#
#
# Mechanical properties :
#
#
# Convention : Reuss Voigt Hill
#
# Bulk Modulus (GPa) = 67.83893 74.96187 71.40040
# Shear Modulus (GPa) = 14.90974 25.93933 20.42453
#
# Velocity S-wave (km/s) = 2.69945 3.56057 3.15948
# Velocity P-wave (km/s) = 6.54766 7.31715 6.94307
#
# Compressibility (1/GPa) = 0.01474080
#
# Stress axis : x y z
#
# Youngs Moduli (GPa) = 89.45103 100.68196 75.05311
#
# Poissons Ratio (x) = 0.48788 0.14488
# Poissons Ratio (y) = 0.43346 0.23050
# Poissons Ratio (z) = 0.17267 0.30921
#
# Static dielectric constant tensor:
#      x y z
#    x 31.138790 0.000000 0.000000 
#    y 0.000000 4.214270 0.000000 
#    z 0.000000 0.000000 3.767200 
# 
# 
# High freq. dielectric constant tensor:
#      x y z
#    x 1.788090 0.000000 0.000000 
#    y 0.000000 1.817170 0.000000 
#    z 0.000000 0.000000 1.815480 
# 
# From -- ./inp_files/7956.got.cif
#   From: 2010.03.12/outbox.cif.g09.slc.cpg/sg23_4_cif.got.tgz:7956.got - 2010.04.14 02:50:06.
