data_PCOD8163879
_publ_section_title
;
Structure prediction by ZEFSAII (Michael W. Deem and Ramdas Pophale) SiO2 
 PCOD8163879
Probable space group: I 2 2 2
;
_chemical_formula_sum "Si O2"
_cell_formula_units_Z 26
_cell_length_a 30.834005
_cell_length_b 5.053543
_cell_length_c 8.701733
_cell_angle_alpha 90.000000
_cell_angle_beta 90.000000
_cell_angle_gamma 90.000000
_cell_volume 1355.912478
_symmetry_space_group_name_H-M "I 2 2 2"
_symmetry_group_IT_number 23
_symmetry_cell_setting 'orthorhombic'
loop_
_space_group_symop_operation_xyz
x,y,z
-x,-y,z
x,-y,-z
-x,y,-z
1/2+x,1/2+y,1/2+z
1/2-x,1/2-y,1/2+z
1/2+x,1/2-y,1/2-z
1/2-x,1/2+y,1/2-z
loop_
_atom_site_type_symbol
_atom_site_label
_atom_site_fract_x
_atom_site_fract_y
_atom_site_fract_z
Si Si1 0.136732 0.759087 0.603821
Si Si2 0.500000 0.000000 0.500000
Si Si3 0.916700 0.738110 0.094434
Si Si4 0.767505 0.912185 0.329536
O O1 0.140015 0.500000 0.500000
O O2 0.100911 0.734252 0.734264
O O3 0.182978 0.818778 0.680488
O O4 0.121065 0.000000 0.500000
O O5 0.531153 0.813797 0.604855
O O6 0.893982 0.500000 0.000000
O O7 0.905686 0.000000 0.000000
O O8 0.737593 0.665472 0.281224
O O9 0.753775 0.000000 0.500000
#
# Coordination Sequence:
#
# PCOD8163879 Si02
#       4
#     8   2   8   8
#     4  11  23  41  61  90 127 160 199 254 305 354
#     4   8  22  40  68  84 130 144 208 256 298 352
#     4  10  21  39  66  88 118 159 201 248 300 361
#     4  11  23  40  60  87 125 162 205 253 300 351
#
# _framework density 19.175277000000001
#
# number of rings (size 3 to 8) (size 9 to 14) (size 15 to 20)
#    0.923    0.615    0.000    6.923    0.000    3.692 
#    0.000    0.769    0.000    0.000    0.000    0.000 
#    0.000    0.000    0.000    0.000    0.000    0.000 
#
# Total GULP energy -161163.157895 kJ/mol
# GULP energy per Si atom -12397.165992 kJ/mol
# Density = 1.913163 g / cm^3
# Si number density = 19.175277 Si / 1000 Ang^3
#
#
#
# Elastic Constant Matrix: (Units=GPa)
#
#
# Indices 1 2 3 4 5 6 
#
# 1 109.9822 56.9893 88.6360 0.0000 0.0000 0.0000
# 2 56.9893 173.9457 70.1523 0.0000 0.0000 0.0000
# 3 88.6360 70.1523 124.9497 0.0000 0.0000 0.0000
# 4 0.0000 0.0000 0.0000 51.8604 0.0000 0.0000
# 5 0.0000 0.0000 0.0000 0.0000 30.2671 0.0000
# 6 0.0000 0.0000 0.0000 0.0000 0.0000 0.4041
#
#
#
# Elastic Compliance Matrix: (Units=1/GPa)
#
#
# Indices 1 2 3 4 5 6 
#
# 1 0.021405 -0.001149 -0.014539 0.000000 0.000000 0.000000
# 2 -0.001149 0.007493 -0.003392 0.000000 0.000000 0.000000
# 3 -0.014539 -0.003392 0.020221 0.000000 0.000000 0.000000
# 4 0.000000 0.000000 0.000000 0.019283 0.000000 0.000000
# 5 0.000000 0.000000 0.000000 0.000000 0.033039 0.000000
# 6 0.000000 0.000000 0.000000 0.000000 0.000000 2.474652
#
#
# Mechanical properties :
#
#
# Convention : Reuss Voigt Hill
#
# Bulk Modulus (GPa) = 91.24592 93.38142 92.31367
# Shear Modulus (GPa) = 1.90992 29.37966 15.64479
#
# Velocity S-wave (km/s) = 0.99910 3.91853 2.85947
# Velocity P-wave (km/s) = 7.00139 8.32333 7.69081
#
# Compressibility (1/GPa) = 0.01095939
#
# Stress axis : x y z
#
# Youngs Moduli (GPa) = 46.71826 133.45096 49.45363
#
# Poissons Ratio (x) = 0.15338 0.71900
# Poissons Ratio (y) = 0.05369 0.16774
# Poissons Ratio (z) = 0.67923 0.45264
#
# Static dielectric constant tensor:
#      x y z
#    x 3.321050 0.000000 0.000000 
#    y 0.000000 3.963950 0.000000 
#    z 0.000000 0.000000 3.440600 
# 
# 
# High freq. dielectric constant tensor:
#      x y z
#    x 1.731850 0.000000 0.000000 
#    y 0.000000 1.773280 0.000000 
#    z 0.000000 0.000000 1.740790 
# 
# From -- ./inp_files/5692.got.cif
#   From: 2010.03.12/outbox.cif.g09.slc.cpg/sg23_3_cif.got.tgz:5692.got - 2010.04.14 02:50:06.
