data_PCOD8163258
_publ_section_title
;
Structure prediction by ZEFSAII (Michael W. Deem and Ramdas Pophale) SiO2 
 PCOD8163258
Probable space group: I 2 2 2
;
_chemical_formula_sum "Si O2"
_cell_formula_units_Z 56
_cell_length_a 17.736380
_cell_length_b 8.632237
_cell_length_c 22.197513
_cell_angle_alpha 90.000000
_cell_angle_beta 90.000000
_cell_angle_gamma 90.000000
_cell_volume 3398.542141
_symmetry_space_group_name_H-M "I 2 2 2"
_symmetry_group_IT_number 23
_symmetry_cell_setting 'orthorhombic'
loop_
_space_group_symop_operation_xyz
x,y,z
-x,-y,z
x,-y,-z
-x,y,-z
1/2+x,1/2+y,1/2+z
1/2-x,1/2-y,1/2+z
1/2+x,1/2-y,1/2-z
1/2-x,1/2+y,1/2-z
loop_
_atom_site_type_symbol
_atom_site_label
_atom_site_fract_x
_atom_site_fract_y
_atom_site_fract_z
Si Si1 0.000000 0.822375 0.071121
Si Si2 0.726548 0.183401 0.185615
Si Si3 0.226549 0.316599 0.685615
Si Si4 0.127332 0.317040 0.850919
Si Si5 0.584621 0.320897 0.224036
Si Si6 0.584622 0.679102 0.224037
Si Si7 0.372668 0.182959 0.649081
O O1 0.074854 0.739802 0.095169
O O2 0.925146 0.739801 0.095170
O O3 0.000000 0.000000 0.092766
O O4 0.000000 0.807066 0.000000
O O5 0.750000 0.250000 0.250000
O O6 0.788783 0.245491 0.138436
O O7 0.641947 0.248713 0.174212
O O8 0.725075 1.000000 0.185134
O O9 0.141948 0.251286 0.674212
O O10 0.288783 0.254509 0.638436
O O11 0.091727 0.265075 0.787724
O O12 0.133462 0.500000 0.852073
O O13 0.604452 0.499999 0.234768
O O14 0.500000 0.299184 0.199072
O O15 0.591727 0.234924 0.287724
#
# Coordination Sequence:
#
# PCOD8163258 Si02
#       7
#     8   8   8   8   8   8   8
#     4  11  23  37  51  67  89 119 157 197 236 275
#     4  10  18  28  43  62  88 118 153 187 224 272
#     4  10  18  28  43  62  88 118 153 187 224 272
#     4  11  20  31  47  64  88 118 153 191 231 274
#     4  10  18  28  44  65  93 123 154 187 225 272
#     4  10  18  28  44  65  93 123 154 187 225 272
#     4  11  20  31  47  64  88 118 153 191 231 274
#
# _framework density 16.477651999999999
#
# number of rings (size 3 to 8) (size 9 to 14) (size 15 to 20)
#    0.000    1.571    1.429    9.857    0.000    2.857 
#    0.000    0.000    0.000    0.000    0.000    0.000 
#    0.000    1.143    0.000   12.000    0.000    5.143 
#
# Total GULP energy -347112.109693 kJ/mol
# GULP energy per Si atom -12396.861060 kJ/mol
# Density = 1.644015 g / cm^3
# Si number density = 16.477652 Si / 1000 Ang^3
#
#
#
# Elastic Constant Matrix: (Units=GPa)
#
#
# Indices 1 2 3 4 5 6 
#
# 1 155.3495 73.4930 34.2040 0.0000 0.0000 0.0000
# 2 73.4930 169.1395 25.0035 0.0000 0.0000 0.0000
# 3 34.2040 25.0035 30.9902 0.0000 0.0000 0.0000
# 4 0.0000 0.0000 0.0000 15.6544 0.0000 0.0000
# 5 0.0000 0.0000 0.0000 0.0000 15.4160 0.0000
# 6 0.0000 0.0000 0.0000 0.0000 0.0000 33.2395
#
#
#
# Elastic Compliance Matrix: (Units=1/GPa)
#
#
# Indices 1 2 3 4 5 6 
#
# 1 0.009666 -0.002978 -0.008265 0.000000 0.000000 0.000000
# 2 -0.002978 0.007630 -0.002870 0.000000 0.000000 0.000000
# 3 -0.008265 -0.002870 0.043706 0.000000 0.000000 0.000000
# 4 0.000000 0.000000 0.000000 0.063880 0.000000 0.000000
# 5 0.000000 0.000000 0.000000 0.000000 0.064868 0.000000
# 6 0.000000 0.000000 0.000000 0.000000 0.000000 0.030085
#
#
# Mechanical properties :
#
#
# Convention : Reuss Voigt Hill
#
# Bulk Modulus (GPa) = 30.50982 68.98667 49.74825
# Shear Modulus (GPa) = 19.30605 27.71389 23.50997
#
# Velocity S-wave (km/s) = 3.42665 4.10556 3.78137
# Velocity P-wave (km/s) = 5.84910 8.02694 7.02296
#
# Compressibility (1/GPa) = 0.03277633
#
# Stress axis : x y z
#
# Youngs Moduli (GPa) = 103.45759 131.05362 22.88009
#
# Poissons Ratio (x) = 0.39028 0.18911
# Poissons Ratio (y) = 0.30810 0.06566
# Poissons Ratio (z) = 0.85512 0.37606
#
# Static dielectric constant tensor:
#      x y z
#    x 3.448920 0.000000 0.000000 
#    y 0.000000 3.326310 0.000000 
#    z 0.000000 0.000000 2.540940 
# 
# 
# High freq. dielectric constant tensor:
#      x y z
#    x 1.660090 0.000000 0.000000 
#    y 0.000000 1.662200 0.000000 
#    z 0.000000 0.000000 1.548890 
# 
# From -- ./inp_files/27163.got.cif
#   From: 2010.03.12/outbox.cif.g09.slc.cpg/sg23_14_cif.got.tgz:27163.got - 2010.04.14 02:50:06.
