data_PCOD8163164
_publ_section_title
;
Structure prediction by ZEFSAII (Michael W. Deem and Ramdas Pophale) SiO2 
 PCOD8163164
Probable space group: F 2 2 2
;
_chemical_formula_sum "Si O2"
_cell_formula_units_Z 88
_cell_length_a 20.834256
_cell_length_b 20.834249
_cell_length_c 9.236161
_cell_angle_alpha 90.000000
_cell_angle_beta 90.000000
_cell_angle_gamma 90.000000
_cell_volume 4009.104174
_symmetry_space_group_name_H-M "F 2 2 2"
_symmetry_group_IT_number 22
_symmetry_cell_setting 'orthorhombic'
loop_
_space_group_symop_operation_xyz
x,y,z
-x,-y,z
x,-y,-z
-x,y,-z
x,1/2+y,1/2+z
-x,1/2-y,1/2+z
x,1/2-y,1/2-z
-x,1/2+y,1/2-z
1/2+x,y,1/2+z
1/2-x,-y,1/2+z
1/2+x,-y,1/2-z
1/2-x,y,1/2-z
1/2+x,1/2+y,z
1/2-x,1/2-y,z
1/2+x,1/2-y,-z
1/2-x,1/2+y,-z
loop_
_atom_site_type_symbol
_atom_site_label
_atom_site_fract_x
_atom_site_fract_y
_atom_site_fract_z
Si Si1 0.680894 0.180894 0.490609
Si Si2 0.500000 0.500000 0.000000
Si Si3 0.129613 0.022798 0.661886
Si Si4 0.750000 0.750000 0.250000
Si Si5 0.606990 0.250000 0.250000
Si Si6 0.908745 0.591255 0.338662
Si Si7 0.750000 0.106990 0.250000
Si Si8 0.977202 0.629613 0.838114
O O1 0.706818 0.206818 0.644024
O O2 0.649683 0.236839 0.393016
O O3 0.628396 0.128396 0.535426
O O4 0.736839 0.149684 0.393016
O O5 0.456978 0.543022 0.904942
O O6 0.187857 0.065945 0.715154
O O7 0.062847 0.062847 0.683019
O O8 0.137943 0.000000 0.500000
O O9 0.136681 0.955074 0.745172
O O10 0.565945 0.312143 0.284845
O O11 0.955074 0.636681 0.245172
O O12 0.000000 0.637943 0.000000
#
# Coordination Sequence:
#
# PCOD8163164 Si02
#       8
#    16   4  16   4   8  16   8  16
#     4  12  29  51  75 109 147 204 256 312 368 442
#     4  12  20  40  66 100 148 184 224 302 372 444
#     4  12  26  47  76 111 151 199 245 307 380 448
#     4  12  32  46  80 104 148 206 268 312 348 446
#     4  12  28  52  76 106 151 201 248 308 380 442
#     4  12  26  43  73 112 150 187 247 304 377 442
#     4  12  28  52  76 106 151 201 248 308 380 442
#     4  12  26  47  76 111 151 199 245 307 380 448
#
# _framework density 21.950039
#
# number of rings (size 3 to 8) (size 9 to 14) (size 15 to 20)
#    0.000    0.000    5.455    3.273   10.182    0.000 
#    0.000    0.000    0.000    0.000    0.000    0.000 
#    0.000    0.000    0.000    0.000    0.000    0.000 
#
# Total GULP energy -272672.772694 kJ/mol
# GULP energy per Si atom -12394.216941 kJ/mol
# Density = 2.190008 g / cm^3
# Si number density = 21.950039 Si / 1000 Ang^3
#
#
#
# Elastic Constant Matrix: (Units=GPa)
#
#
# Indices 1 2 3 4 5 6 
#
# 1 97.5068 38.9331 58.0406 0.0001 -0.0001 0.0000
# 2 38.9331 97.5076 58.0409 0.0001 -0.0001 0.0000
# 3 58.0406 58.0409 150.1033 0.0001 -0.0002 -0.0002
# 4 0.0001 0.0001 0.0001 59.6867 0.0000 -0.0001
# 5 -0.0001 -0.0001 -0.0002 0.0000 59.6870 0.0001
# 6 0.0000 0.0000 -0.0002 -0.0001 0.0001 48.0611
#
#
#
# Elastic Compliance Matrix: (Units=1/GPa)
#
#
# Indices 1 2 3 4 5 6 
#
# 1 0.013997 -0.003075 -0.004223 0.000000 0.000000 0.000000
# 2 -0.003075 0.013997 -0.004223 0.000000 0.000000 0.000000
# 3 -0.004223 -0.004223 0.009928 0.000000 0.000000 0.000000
# 4 0.000000 0.000000 0.000000 0.016754 0.000000 0.000000
# 5 0.000000 0.000000 0.000000 0.000000 0.016754 0.000000
# 6 0.000000 0.000000 0.000000 0.000000 0.000000 0.020807
#
#
# Mechanical properties :
#
#
# Convention : Reuss Voigt Hill
#
# Bulk Modulus (GPa) = 67.20665 72.79409 70.00037
# Shear Modulus (GPa) = 41.58301 46.16051 43.87176
#
# Velocity S-wave (km/s) = 4.35724 4.59080 4.47554
# Velocity P-wave (km/s) = 7.48321 7.83174 7.65946
#
# Compressibility (1/GPa) = 0.01487948
#
# Stress axis : x y z
#
# Youngs Moduli (GPa) = 71.44158 71.44215 100.72305
#
# Poissons Ratio (x) = 0.21968 0.42539
# Poissons Ratio (y) = 0.21968 0.42539
# Poissons Ratio (z) = 0.30173 0.30173
#
# Static dielectric constant tensor:
#      x y z
#    x 3.714200 0.000000 0.000000 
#    y 0.000000 3.714190 0.000000 
#    z 0.000000 0.000000 4.052080 
# 
# 
# High freq. dielectric constant tensor:
#      x y z
#    x 1.871050 0.000000 0.000000 
#    y 0.000000 1.871050 0.000000 
#    z 0.000000 0.000000 1.888470 
# 
# From -- ./inp_files/13814.got.cif
#   From: 2010.03.12/outbox.cif.g09.slc.cpg/sg22_7_cif.got.tgz:13814.got - 2010.04.14 02:24:06.
