data_PCOD8163401
_publ_section_title
;
Structure prediction by ZEFSAII (Michael W. Deem and Ramdas Pophale) SiO2 
 PCOD8163401
Probable space group: I 2 2 2
;
_chemical_formula_sum "Si O2"
_cell_formula_units_Z 64
_cell_length_a 8.856326
_cell_length_b 18.213037
_cell_length_c 19.615162
_cell_angle_alpha 90.000000
_cell_angle_beta 90.000000
_cell_angle_gamma 90.000000
_cell_volume 3163.937265
_symmetry_space_group_name_H-M "I 2 2 2"
_symmetry_group_IT_number 23
_symmetry_cell_setting 'orthorhombic'
loop_
_space_group_symop_operation_xyz
x,y,z
-x,-y,z
x,-y,-z
-x,y,-z
1/2+x,1/2+y,1/2+z
1/2-x,1/2-y,1/2+z
1/2+x,1/2-y,1/2-z
1/2-x,1/2+y,1/2-z
loop_
_atom_site_type_symbol
_atom_site_label
_atom_site_fract_x
_atom_site_fract_y
_atom_site_fract_z
Si Si1 0.236460 0.374912 0.876679
Si Si2 0.823987 0.285038 0.481160
Si Si3 0.563122 0.418787 0.241102
Si Si4 0.830552 0.367547 0.981019
Si Si5 0.833309 0.191444 0.847874
Si Si6 0.273973 0.331139 0.238788
Si Si7 0.070416 0.422215 0.154562
Si Si8 0.676461 0.714008 0.384197
O O1 0.333857 0.425280 0.826344
O O2 0.275578 0.289379 0.883684
O O3 0.066805 0.365946 0.848803
O O4 0.236068 0.411135 0.952772
O O5 0.775866 0.201302 0.464809
O O6 0.781158 0.326259 0.410312
O O7 0.724673 0.320791 0.542989
O O8 0.000000 0.291986 0.500000
O O9 0.500000 0.500000 0.259047
O O10 0.653440 0.385017 0.305693
O O11 0.442240 0.356764 0.220405
O O12 0.832000 0.420802 0.915571
O O13 0.000000 0.339760 0.000000
O O14 0.765618 0.254832 0.798401
O O15 0.994500 0.218802 0.877834
O O16 0.169512 0.398892 0.218129
O O17 0.256982 0.329595 0.320203
O O18 0.000000 0.500000 0.168678
#
# Coordination Sequence:
#
# PCOD8163401 Si02
#       8
#     8   8   8   8   8   8   8   8
#     4  10  19  34  56  80 121 166 207 259 308 373
#     4  11  22  34  60  96 122 152 204 276 321 370
#     4  11  25  41  60  93 135 166 205 267 330 383
#     4   9  19  34  52  79 122 169 210 251 312 371
#     4  11  21  40  65  89 122 169 214 258 326 388
#     4  11  22  38  63  91 116 167 215 259 315 383
#     4  11  21  35  56  84 123 172 220 257 307 375
#     4  10  21  37  60  87 124 159 206 268 320 372
#
# _framework density 20.227959999999999
#
# number of rings (size 3 to 8) (size 9 to 14) (size 15 to 20)
#    0.000    1.500    3.750    2.625    3.500    3.250 
#    0.000    0.000    0.000    6.750    0.000    3.500 
#    0.000    0.000    0.000    0.000    0.000    0.000 
#
# Total GULP energy -396446.868490 kJ/mol
# GULP energy per Si atom -12388.964640 kJ/mol
# Density = 2.018192 g / cm^3
# Si number density = 20.227960 Si / 1000 Ang^3
#
#
#
# Elastic Constant Matrix: (Units=GPa)
#
#
# Indices 1 2 3 4 5 6 
#
# 1 81.4373 31.8461 61.0645 0.0000 0.0000 0.0000
# 2 31.8461 75.1508 56.1714 0.0000 0.0000 0.0000
# 3 61.0645 56.1714 144.6992 0.0000 0.0000 0.0000
# 4 0.0000 0.0000 0.0000 1.0838 0.0000 0.0000
# 5 0.0000 0.0000 0.0000 0.0000 41.7230 0.0000
# 6 0.0000 0.0000 0.0000 0.0000 0.0000 24.5043
#
#
#
# Elastic Compliance Matrix: (Units=1/GPa)
#
#
# Indices 1 2 3 4 5 6 
#
# 1 0.018374 -0.002804 -0.006665 0.000000 0.000000 0.000000
# 2 -0.002804 0.019174 -0.006260 0.000000 0.000000 0.000000
# 3 -0.006665 -0.006260 0.012154 0.000000 0.000000 0.000000
# 4 0.000000 0.000000 0.000000 0.922676 0.000000 0.000000
# 5 0.000000 0.000000 0.000000 0.000000 0.023968 0.000000
# 6 0.000000 0.000000 0.000000 0.000000 0.000000 0.040809
#
#
# Mechanical properties :
#
#
# Convention : Reuss Voigt Hill
#
# Bulk Modulus (GPa) = 54.81618 66.60570 60.71094
# Shear Modulus (GPa) = 4.65249 23.60924 14.13086
#
# Velocity S-wave (km/s) = 1.51823 3.42008 2.64594
# Velocity P-wave (km/s) = 5.49831 6.97101 6.27799
#
# Compressibility (1/GPa) = 0.01824279
#
# Stress axis : x y z
#
# Youngs Moduli (GPa) = 54.42497 52.15476 82.27889
#
# Poissons Ratio (x) = 0.14625 0.54843
# Poissons Ratio (y) = 0.15261 0.51505
# Poissons Ratio (z) = 0.36277 0.32648
#
# Static dielectric constant tensor:
#      x y z
#    x 3.938990 0.000000 0.000000 
#    y 0.000000 3.314850 0.000000 
#    z 0.000000 0.000000 4.068500 
# 
# 
# High freq. dielectric constant tensor:
#      x y z
#    x 1.786370 0.000000 0.000000 
#    y 0.000000 1.744830 0.000000 
#    z 0.000000 0.000000 1.805850 
# 
# From -- ./inp_files/26350.got.cif
#   From: 2010.03.12/outbox.cif.g09.slc.cpg/sg23_14_cif.got.tgz:26350.got - 2010.04.14 02:50:06.
