data_PCOD8163158
_publ_section_title
;
Structure prediction by ZEFSAII (Michael W. Deem and Ramdas Pophale) SiO2 
 PCOD8163158
Probable space group: F 2 2 2
;
_chemical_formula_sum "Si O2"
_cell_formula_units_Z 64
_cell_length_a 24.100172
_cell_length_b 10.187210
_cell_length_c 12.192711
_cell_angle_alpha 90.000000
_cell_angle_beta 90.000000
_cell_angle_gamma 90.000000
_cell_volume 2993.475313
_symmetry_space_group_name_H-M "F 2 2 2"
_symmetry_group_IT_number 22
_symmetry_cell_setting 'orthorhombic'
loop_
_space_group_symop_operation_xyz
x,y,z
-x,-y,z
x,-y,-z
-x,y,-z
x,1/2+y,1/2+z
-x,1/2-y,1/2+z
x,1/2-y,1/2-z
-x,1/2+y,1/2-z
1/2+x,y,1/2+z
1/2-x,-y,1/2+z
1/2+x,-y,1/2-z
1/2-x,y,1/2-z
1/2+x,1/2+y,z
1/2-x,1/2-y,z
1/2+x,1/2-y,-z
1/2-x,1/2+y,-z
loop_
_atom_site_type_symbol
_atom_site_label
_atom_site_fract_x
_atom_site_fract_y
_atom_site_fract_z
Si Si1 0.185952 0.099821 0.223788
Si Si2 0.951532 0.800249 0.915226
Si Si3 0.862967 0.000000 0.000000
Si Si4 0.899366 0.471489 0.124040
Si Si5 0.500000 0.000000 0.753638
O O1 0.167160 0.250000 0.250000
O O2 0.250000 0.082721 0.250000
O O3 0.154176 0.998223 0.302416
O O4 0.175266 0.054614 0.098727
O O5 0.902280 0.879771 0.971066
O O6 0.921958 0.675290 0.862340
O O7 0.978952 0.881956 0.819257
O O8 0.000000 0.761151 0.000000
O O9 0.950569 0.559433 0.170003
O O10 0.883419 0.500000 0.000000
#
# Coordination Sequence:
#
# PCOD8163158 Si02
#       5
#    16  16   8  16   8
#     4  11  27  51  76 106 144 194 254 318 382 444
#     4  12  22  43  69 104 146 191 235 296 373 454
#     4  12  23  48  76 102 146 195 240 306 378 446
#     4  12  26  42  68 107 144 187 245 305 367 453
#     4  12  22  40  64 102 146 189 231 292 372 448
#
# _framework density 21.379830999999999
#
# number of rings (size 3 to 8) (size 9 to 14) (size 15 to 20)
#    0.000    0.250    5.000    4.125    1.750    2.000 
#    0.000    1.250    0.000    0.000    0.000    0.000 
#    0.000    0.000    0.000    0.000    0.000    0.000 
#
# Total GULP energy -198363.590265 kJ/mol
# GULP energy per Si atom -12397.724392 kJ/mol
# Density = 2.133117 g / cm^3
# Si number density = 21.379831 Si / 1000 Ang^3
#
#
#
# Elastic Constant Matrix: (Units=GPa)
#
#
# Indices 1 2 3 4 5 6 
#
# 1 141.3384 65.1551 69.2230 0.0000 0.0000 0.0000
# 2 65.1551 130.7782 68.1562 0.0000 0.0000 0.0000
# 3 69.2230 68.1562 173.1856 0.0000 0.0000 0.0000
# 4 0.0000 0.0000 0.0000 25.9141 0.0000 0.0000
# 5 0.0000 0.0000 0.0000 0.0000 41.7732 0.0000
# 6 0.0000 0.0000 0.0000 0.0000 0.0000 20.9506
#
#
#
# Elastic Compliance Matrix: (Units=1/GPa)
#
#
# Indices 1 2 3 4 5 6 
#
# 1 0.010016 -0.003653 -0.002566 0.000000 0.000000 0.000000
# 2 -0.003653 0.010952 -0.002850 0.000000 0.000000 0.000000
# 3 -0.002566 -0.002850 0.007921 0.000000 0.000000 0.000000
# 4 0.000000 0.000000 0.000000 0.038589 0.000000 0.000000
# 5 0.000000 0.000000 0.000000 0.000000 0.023939 0.000000
# 6 0.000000 0.000000 0.000000 0.000000 0.000000 0.047731
#
#
# Mechanical properties :
#
#
# Convention : Reuss Voigt Hill
#
# Bulk Modulus (GPa) = 93.00878 94.48565 93.74721
# Shear Modulus (GPa) = 31.08125 33.91211 32.49668
#
# Velocity S-wave (km/s) = 3.81696 3.98700 3.90291
# Velocity P-wave (km/s) = 7.93871 8.09226 8.01585
#
# Compressibility (1/GPa) = 0.01075167
#
# Stress axis : x y z
#
# Youngs Moduli (GPa) = 99.84286 91.31052 126.24198
#
# Poissons Ratio (x) = 0.33353 0.32391
# Poissons Ratio (y) = 0.36470 0.35978
# Poissons Ratio (z) = 0.25618 0.26023
#
# Static dielectric constant tensor:
#      x y z
#    x 4.089110 0.000000 0.000000 
#    y 0.000000 3.942780 0.000000 
#    z 0.000000 0.000000 7.042280 
# 
# 
# High freq. dielectric constant tensor:
#      x y z
#    x 1.836270 0.000000 0.000000 
#    y 0.000000 1.842290 0.000000 
#    z 0.000000 0.000000 1.867370 
# 
# From -- ./inp_files/23397.got.cif
#   From: 2010.03.12/outbox.cif.g09.slc.cpg/sg22_12_cif.got.tgz:23397.got - 2010.04.14 02:24:06.
