data_PCOD8163520
_publ_section_title
;
Structure prediction by ZEFSAII (Michael W. Deem and Ramdas Pophale) SiO2 
 PCOD8163520
Probable space group: I 2 2 2
;
_chemical_formula_sum "Si O2"
_cell_formula_units_Z 48
_cell_length_a 7.941496
_cell_length_b 18.865894
_cell_length_c 15.458439
_cell_angle_alpha 90.000000
_cell_angle_beta 90.000000
_cell_angle_gamma 90.000000
_cell_volume 2316.036226
_symmetry_space_group_name_H-M "I 2 2 2"
_symmetry_group_IT_number 23
_symmetry_cell_setting 'orthorhombic'
loop_
_space_group_symop_operation_xyz
x,y,z
-x,-y,z
x,-y,-z
-x,y,-z
1/2+x,1/2+y,1/2+z
1/2-x,1/2-y,1/2+z
1/2+x,1/2-y,1/2-z
1/2-x,1/2+y,1/2-z
loop_
_atom_site_type_symbol
_atom_site_label
_atom_site_fract_x
_atom_site_fract_y
_atom_site_fract_z
Si Si1 0.840125 0.097072 0.760912
Si Si2 0.733710 0.500000 0.500000
Si Si3 0.861969 0.296254 0.167060
Si Si4 0.500000 0.256939 0.500000
Si Si5 0.910087 0.318736 0.671667
Si Si6 0.691504 0.552220 0.317278
Si Si7 0.799799 0.351338 0.435326
O O1 0.767796 0.136970 0.675289
O O2 0.777804 0.144778 0.839865
O O3 0.042361 0.093666 0.767484
O O4 0.763674 0.018114 0.762930
O O5 0.630506 0.527743 0.414824
O O6 0.838097 0.430238 0.472145
O O7 0.759348 0.224035 0.161660
O O8 0.973000 0.297036 0.079817
O O9 0.990720 0.291004 0.245813
O O10 0.667361 0.306365 0.491897
O O11 0.859393 0.401162 0.682853
O O12 0.017797 0.313780 0.581572
#
# Coordination Sequence:
#
# PCOD8163520 Si02
#       7
#     8   4   8   4   8   8   8
#     4   9  20  37  57  85 117 156 194 237 299 375
#     4  10  20  32  54  92 128 154 186 230 292 376
#     4  11  23  38  58  83 116 157 207 253 299 358
#     4  12  24  39  56  85 118 156 208 264 306 344
#     4  11  22  39  60  85 120 162 200 244 305 382
#     4  10  20  35  59  87 122 160 193 236 301 375
#     4  10  21  34  55  85 122 158 191 239 303 371
#
# _framework density 20.725064
#
# number of rings (size 3 to 8) (size 9 to 14) (size 15 to 20)
#    0.000    1.667    0.000    6.000    0.000   15.667 
#    0.000    0.000    0.000    2.000    0.000    2.333 
#    0.000    0.000    0.000    0.000    0.000    0.000 
#
# Total GULP energy -297346.890538 kJ/mol
# GULP energy per Si atom -12389.453772 kJ/mol
# Density = 2.067789 g / cm^3
# Si number density = 20.725064 Si / 1000 Ang^3
#
#
#
# Elastic Constant Matrix: (Units=GPa)
#
#
# Indices 1 2 3 4 5 6 
#
# 1 85.6426 35.1099 35.1254 0.0000 0.0000 0.0000
# 2 35.1099 91.1854 51.6934 0.0000 0.0000 0.0000
# 3 35.1254 51.6934 106.0313 0.0000 0.0000 0.0000
# 4 0.0000 0.0000 0.0000 25.7832 0.0000 0.0000
# 5 0.0000 0.0000 0.0000 0.0000 17.1074 0.0000
# 6 0.0000 0.0000 0.0000 0.0000 0.0000 41.4624
#
#
#
# Elastic Compliance Matrix: (Units=1/GPa)
#
#
# Indices 1 2 3 4 5 6 
#
# 1 0.014471 -0.003944 -0.002871 0.000000 0.000000 0.000000
# 2 -0.003944 0.016230 -0.006606 0.000000 0.000000 0.000000
# 3 -0.002871 -0.006606 0.013603 0.000000 0.000000 0.000000
# 4 0.000000 0.000000 0.000000 0.038785 0.000000 0.000000
# 5 0.000000 0.000000 0.000000 0.000000 0.058454 0.000000
# 6 0.000000 0.000000 0.000000 0.000000 0.000000 0.024118
#
#
# Mechanical properties :
#
#
# Convention : Reuss Voigt Hill
#
# Bulk Modulus (GPa) = 57.26873 58.52409 57.89641
# Shear Modulus (GPa) = 25.21113 27.59930 26.40522
#
# Velocity S-wave (km/s) = 3.49156 3.65319 3.57329
# Velocity P-wave (km/s) = 6.62927 6.78926 6.70974
#
# Compressibility (1/GPa) = 0.01746154
#
# Stress axis : x y z
#
# Youngs Moduli (GPa) = 69.10423 61.61248 73.51365
#
# Poissons Ratio (x) = 0.24302 0.21105
# Poissons Ratio (y) = 0.27257 0.48564
# Poissons Ratio (z) = 0.19839 0.40702
#
# Static dielectric constant tensor:
#      x y z
#    x 3.884020 0.000000 0.000000 
#    y 0.000000 3.757280 0.000000 
#    z 0.000000 0.000000 3.809450 
# 
# 
# High freq. dielectric constant tensor:
#      x y z
#    x 1.823120 0.000000 0.000000 
#    y 0.000000 1.800240 0.000000 
#    z 0.000000 0.000000 1.785080 
# 
# From -- ./inp_files/20025.got.cif
#   From: 2010.03.12/outbox.cif.g09.slc.cpg/sg23_11_cif.got.tgz:20025.got - 2010.04.14 02:50:06.
