data_PCOD8163143
_publ_section_title
;
Structure prediction by ZEFSAII (Michael W. Deem and Ramdas Pophale) SiO2 
 PCOD8163143
Probable space group: F 2 2 2
;
_chemical_formula_sum "Si O2"
_cell_formula_units_Z 56
_cell_length_a 21.914034
_cell_length_b 9.315466
_cell_length_c 11.412357
_cell_angle_alpha 90.000000
_cell_angle_beta 90.000000
_cell_angle_gamma 90.000000
_cell_volume 2329.712152
_symmetry_space_group_name_H-M "F 2 2 2"
_symmetry_group_IT_number 22
_symmetry_cell_setting 'orthorhombic'
loop_
_space_group_symop_operation_xyz
x,y,z
-x,-y,z
x,-y,-z
-x,y,-z
x,1/2+y,1/2+z
-x,1/2-y,1/2+z
x,1/2-y,1/2-z
-x,1/2+y,1/2-z
1/2+x,y,1/2+z
1/2-x,-y,1/2+z
1/2+x,-y,1/2-z
1/2-x,y,1/2-z
1/2+x,1/2+y,z
1/2-x,1/2-y,z
1/2+x,1/2-y,-z
1/2-x,1/2+y,-z
loop_
_atom_site_type_symbol
_atom_site_label
_atom_site_fract_x
_atom_site_fract_y
_atom_site_fract_z
Si Si1 0.089514 0.904290 0.103635
Si Si2 0.003368 0.250000 0.250000
Si Si3 0.408179 0.136758 0.052116
Si Si4 0.819336 0.920076 0.260727
O O1 0.039229 0.880077 0.204716
O O2 0.145553 0.992276 0.159676
O O3 0.110675 0.751448 0.048561
O O4 0.061018 0.000000 0.000000
O O5 0.046230 0.208211 0.356579
O O6 0.348779 0.059397 0.111212
O O7 0.444002 0.000000 0.000000
O O8 0.825711 0.750000 0.250000
O O9 0.750000 0.973073 0.250000
#
# Coordination Sequence:
#
# PCOD8163143 Si02
#       4
#    16   8  16  16
#     4  12  26  47  75 108 144 196 244 295 370 433
#     4  12  28  48  74 108 156 184 244 300 360 442
#     4  12  27  49  73 111 148 197 242 296 371 438
#     4  11  25  51  74 105 149 189 247 312 361 432
#
# _framework density 24.037303999999999
#
# number of rings (size 3 to 8) (size 9 to 14) (size 15 to 20)
#    0.000    0.286    4.286    2.571    0.000   18.286 
#    0.000    5.000    0.000    0.000    0.000    0.000 
#    0.000    0.000    0.000    0.000    0.000    0.000 
#
# Total GULP energy -173493.594918 kJ/mol
# GULP energy per Si atom -12392.399637 kJ/mol
# Density = 2.398259 g / cm^3
# Si number density = 24.037304 Si / 1000 Ang^3
#
#
#
# Elastic Constant Matrix: (Units=GPa)
#
#
# Indices 1 2 3 4 5 6 
#
# 1 163.2756 42.3844 52.4244 0.0000 0.0000 0.0000
# 2 42.3844 142.6734 53.5819 0.0000 0.0000 0.0000
# 3 52.4244 53.5819 109.6788 0.0000 0.0000 0.0000
# 4 0.0000 0.0000 0.0000 55.6277 0.0000 0.0000
# 5 0.0000 0.0000 0.0000 0.0000 -4.9570 0.0000
# 6 0.0000 0.0000 0.0000 0.0000 0.0000 -34.0465
#
#
#
# Elastic Compliance Matrix: (Units=1/GPa)
#
#
# Indices 1 2 3 4 5 6 
#
# 1 0.007364 -0.001060 -0.003002 0.000000 0.000000 0.000000
# 2 -0.001060 0.008737 -0.003761 0.000000 0.000000 0.000000
# 3 -0.003002 -0.003761 0.012390 0.000000 0.000000 0.000000
# 4 0.000000 0.000000 0.000000 0.017977 0.000000 0.000000
# 5 0.000000 0.000000 0.000000 0.000000 -0.201734 0.000000
# 6 0.000000 0.000000 0.000000 0.000000 0.000000 -0.029372
#
#
# Mechanical properties :
#
#
# Convention : Reuss Voigt Hill
#
# Bulk Modulus (GPa) = 77.86062 79.15657 78.50859
# Shear Modulus (GPa) = -30.35626 21.14064 -4.60781
#
# Velocity S-wave (km/s) = -3.55756 2.96884 -1.38604
# Velocity P-wave (km/s) = 3.94803 6.68986 5.49278
#
# Compressibility (1/GPa) = 0.01284346
#
# Stress axis : x y z
#
# Youngs Moduli (GPa) = 135.80273 114.46131 80.71119
#
# Poissons Ratio (x) = 0.12135 0.24227
# Poissons Ratio (y) = 0.14398 0.30358
# Poissons Ratio (z) = 0.40764 0.43053
#
# Static dielectric constant tensor:
#      x y z
#    x 4.452290 0.000000 0.000000 
#    y 0.000000 4.568420 0.000000 
#    z 0.000000 0.000000 6.424890 
# 
# 
# High freq. dielectric constant tensor:
#      x y z
#    x 1.934080 0.000000 0.000000 
#    y 0.000000 1.974760 0.000000 
#    z 0.000000 0.000000 1.972920 
# 
# From -- ./inp_files/24300.got.cif
#   From: 2010.03.12/outbox.cif.g09.slc.cpg/sg22_13_cif.got.tgz:24300.got - 2010.04.14 02:24:06.
