data_PCOD8163048
_publ_section_title
;
Structure prediction by ZEFSAII (Michael W. Deem and Ramdas Pophale) SiO2 
 PCOD8163048
Probable space group: F 2 2 2
;
_chemical_formula_sum "Si O2"
_cell_formula_units_Z 72
_cell_length_a 8.617763
_cell_length_b 22.919723
_cell_length_c 18.079741
_cell_angle_alpha 90.000000
_cell_angle_beta 90.000000
_cell_angle_gamma 90.000000
_cell_volume 3571.051518
_symmetry_space_group_name_H-M "F 2 2 2"
_symmetry_group_IT_number 22
_symmetry_cell_setting 'orthorhombic'
loop_
_space_group_symop_operation_xyz
x,y,z
-x,-y,z
x,-y,-z
-x,y,-z
x,1/2+y,1/2+z
-x,1/2-y,1/2+z
x,1/2-y,1/2-z
-x,1/2+y,1/2-z
1/2+x,y,1/2+z
1/2-x,-y,1/2+z
1/2+x,-y,1/2-z
1/2-x,y,1/2-z
1/2+x,1/2+y,z
1/2-x,1/2-y,z
1/2+x,1/2-y,-z
1/2-x,1/2+y,-z
loop_
_atom_site_type_symbol
_atom_site_label
_atom_site_fract_x
_atom_site_fract_y
_atom_site_fract_z
Si Si1 0.006350 0.184800 0.246946
Si Si2 0.750000 0.408782 0.250000
Si Si3 0.759168 0.314441 0.626546
Si Si4 0.676911 0.918932 0.026871
Si Si5 0.324066 0.021665 0.604335
O O1 0.931347 0.250000 0.250000
O O2 0.073184 0.172758 0.164172
O O3 0.138609 0.180989 0.307426
O O4 0.890541 0.133779 0.269385
O O5 0.712703 0.451413 0.183114
O O6 0.750000 0.250000 0.591670
O O7 0.721190 0.356573 0.559193
O O8 0.705791 0.967920 0.089793
O O9 0.500000 0.920923 0.000000
O O10 0.793736 0.929983 0.958661
O O11 0.500000 0.000000 0.600384
#
# Coordination Sequence:
#
# PCOD8163048 Si02
#       5
#    16   8  16  16  16
#     4   9  19  36  60  89 122 151 186 241 291 334
#     4  12  23  38  62  88 111 152 204 238 280 352
#     4   9  19  39  63  87 117 156 192 230 289 352
#     4  11  22  40  61  85 118 154 194 242 290 340
#     4  11  25  40  57  84 120 156 192 243 296 339
#
# _framework density 20.162127999999999
#
# number of rings (size 3 to 8) (size 9 to 14) (size 15 to 20)
#    0.000    1.778    0.000    7.000    0.000    5.333 
#    0.000    8.889    0.000    0.000    0.000    0.000 
#    0.000    0.000    0.000    0.000    0.000    0.000 
#
# Total GULP energy -223160.767545 kJ/mol
# GULP energy per Si atom -12397.820419 kJ/mol
# Density = 2.011624 g / cm^3
# Si number density = 20.162128 Si / 1000 Ang^3
#
#
#
# Elastic Constant Matrix: (Units=GPa)
#
#
# Indices 1 2 3 4 5 6 
#
# 1 120.3641 69.0667 55.0554 0.0000 0.0000 0.0000
# 2 69.0667 145.4416 89.4837 0.0000 0.0000 0.0000
# 3 55.0554 89.4837 118.8664 0.0000 0.0000 0.0000
# 4 0.0000 0.0000 0.0000 162.6869 0.0000 0.0000
# 5 0.0000 0.0000 0.0000 0.0000 17.4614 0.0000
# 6 0.0000 0.0000 0.0000 0.0000 0.0000 49.8567
#
#
#
# Elastic Compliance Matrix: (Units=1/GPa)
#
#
# Indices 1 2 3 4 5 6 
#
# 1 0.011752 -0.004157 -0.002313 0.000000 0.000000 0.000000
# 2 -0.004157 0.014278 -0.008823 0.000000 0.000000 0.000000
# 3 -0.002313 -0.008823 0.016127 0.000000 0.000000 0.000000
# 4 0.000000 0.000000 0.000000 0.006147 0.000000 0.000000
# 5 0.000000 0.000000 0.000000 0.000000 0.057269 0.000000
# 6 0.000000 0.000000 0.000000 0.000000 0.000000 0.020057
#
#
# Mechanical properties :
#
#
# Convention : Reuss Voigt Hill
#
# Bulk Modulus (GPa) = 86.44059 90.20930 88.32495
# Shear Modulus (GPa) = 31.23539 57.40542 44.32041
#
# Velocity S-wave (km/s) = 3.94027 5.34170 4.69358
# Velocity P-wave (km/s) = 7.97915 9.10407 8.56011
#
# Compressibility (1/GPa) = 0.01156864
#
# Stress axis : x y z
#
# Youngs Moduli (GPa) = 85.09309 70.03557 62.00906
#
# Poissons Ratio (x) = 0.29116 0.14346
# Poissons Ratio (y) = 0.35376 0.54713
# Poissons Ratio (z) = 0.19686 0.61795
#
# Static dielectric constant tensor:
#      x y z
#    x 2.934020 0.000000 0.000000 
#    y 0.000000 3.992120 0.000000 
#    z 0.000000 0.000000 3.711230 
# 
# 
# High freq. dielectric constant tensor:
#      x y z
#    x 1.789410 0.000000 0.000000 
#    y 0.000000 1.798390 0.000000 
#    z 0.000000 0.000000 1.778660 
# 
# From -- ./inp_files/12486.got.cif
#   From: 2010.03.12/outbox.cif.g09.slc.cpg/sg22_7_cif.got.tgz:12486.got - 2010.04.14 02:24:06.
