data_PCOD8163979
_publ_section_title
;
Structure prediction by ZEFSAII (Michael W. Deem and Ramdas Pophale) SiO2 
 PCOD8163979
Probable space group: I 2 2 2
;
_chemical_formula_sum "Si O2"
_cell_formula_units_Z 26
_cell_length_a 8.579560
_cell_length_b 8.937180
_cell_length_c 17.018598
_cell_angle_alpha 90.000000
_cell_angle_beta 90.000000
_cell_angle_gamma 90.000000
_cell_volume 1304.936265
_symmetry_space_group_name_H-M "I 2 2 2"
_symmetry_group_IT_number 23
_symmetry_cell_setting 'orthorhombic'
loop_
_space_group_symop_operation_xyz
x,y,z
-x,-y,z
x,-y,-z
-x,y,-z
1/2+x,1/2+y,1/2+z
1/2-x,1/2-y,1/2+z
1/2+x,1/2-y,1/2-z
1/2-x,1/2+y,1/2-z
loop_
_atom_site_type_symbol
_atom_site_label
_atom_site_fract_x
_atom_site_fract_y
_atom_site_fract_z
Si Si1 0.366253 0.102444 0.270392
Si Si2 0.205437 0.583283 0.925529
Si Si3 0.000000 0.000000 0.500000
Si Si4 0.571646 0.653463 0.661081
O O1 0.437236 0.265771 0.288170
O O2 0.220267 0.120632 0.214674
O O3 0.500000 0.000000 0.229445
O O4 0.315822 0.021745 0.350487
O O5 0.390372 0.604090 0.944466
O O6 0.126060 0.744146 0.911950
O O7 0.125641 0.500000 0.000000
O O8 0.500000 0.500000 0.627651
#
# Coordination Sequence:
#
# PCOD8163979 Si02
#       4
#     8   8   2   8
#     4  10  22  37  61  94 127 166 202 255 315 377
#     4   9  21  40  64  85 119 169 211 245 318 377
#     4   8  20  40  70  86 112 180 202 260 300 416
#     4  11  22  37  61  96 129 161 208 265 308 367
#
# _framework density 19.924344000000001
#
# number of rings (size 3 to 8) (size 9 to 14) (size 15 to 20)
#    0.923    1.231    0.000    3.692    6.462    5.538 
#    0.000    3.077    0.000    1.846    0.000    0.000 
#    0.000    0.000    0.000    0.000    0.000    0.000 
#
# Total GULP energy -161089.554356 kJ/mol
# GULP energy per Si atom -12391.504181 kJ/mol
# Density = 1.987900 g / cm^3
# Si number density = 19.924344 Si / 1000 Ang^3
#
#
#
# Elastic Constant Matrix: (Units=GPa)
#
#
# Indices 1 2 3 4 5 6 
#
# 1 144.5699 72.5186 49.1354 0.0000 0.0000 0.0000
# 2 72.5186 169.3367 59.0309 0.0000 0.0000 0.0000
# 3 49.1354 59.0309 97.0523 0.0000 0.0000 0.0000
# 4 0.0000 0.0000 0.0000 25.4646 0.0000 0.0000
# 5 0.0000 0.0000 0.0000 0.0000 47.3937 0.0000
# 6 0.0000 0.0000 0.0000 0.0000 0.0000 34.0695
#
#
#
# Elastic Compliance Matrix: (Units=1/GPa)
#
#
# Indices 1 2 3 4 5 6 
#
# 1 0.009428 -0.003012 -0.002941 0.000000 0.000000 0.000000
# 2 -0.003012 0.008457 -0.003619 0.000000 0.000000 0.000000
# 3 -0.002941 -0.003619 0.013994 0.000000 0.000000 0.000000
# 4 0.000000 0.000000 0.000000 0.039270 0.000000 0.000000
# 5 0.000000 0.000000 0.000000 0.000000 0.021100 0.000000
# 6 0.000000 0.000000 0.000000 0.000000 0.000000 0.029352
#
#
# Mechanical properties :
#
#
# Convention : Reuss Voigt Hill
#
# Bulk Modulus (GPa) = 78.52687 85.81431 82.17059
# Shear Modulus (GPa) = 34.48553 36.73717 35.61135
#
# Velocity S-wave (km/s) = 4.16483 4.29865 4.23227
# Velocity P-wave (km/s) = 7.91365 8.23416 8.07549
#
# Compressibility (1/GPa) = 0.01273449
#
# Stress axis : x y z
#
# Youngs Moduli (GPa) = 106.07228 118.24698 71.46074
#
# Poissons Ratio (x) = 0.35618 0.21015
# Poissons Ratio (y) = 0.31951 0.25860
# Poissons Ratio (z) = 0.31194 0.42791
#
# Static dielectric constant tensor:
#      x y z
#    x 3.958670 0.000000 0.000000 
#    y 0.000000 3.527910 0.000000 
#    z 0.000000 0.000000 3.390500 
# 
# 
# High freq. dielectric constant tensor:
#      x y z
#    x 1.804050 0.000000 0.000000 
#    y 0.000000 1.770810 0.000000 
#    z 0.000000 0.000000 1.751210 
# 
# From -- ./inp_files/6359.got.cif
#   From: 2010.03.12/outbox.cif.g09.slc.cpg/sg23_4_cif.got.tgz:6359.got - 2010.04.14 02:50:06.
