data_PCOD8163454
_publ_section_title
;
Structure prediction by ZEFSAII (Michael W. Deem and Ramdas Pophale) SiO2 
 PCOD8163454
Probable space group: I 2 2 2
;
_chemical_formula_sum "Si O2"
_cell_formula_units_Z 64
_cell_length_a 13.671693
_cell_length_b 27.223900
_cell_length_c 9.262772
_cell_angle_alpha 90.000000
_cell_angle_beta 90.000000
_cell_angle_gamma 90.000000
_cell_volume 3447.574126
_symmetry_space_group_name_H-M "I 2 2 2"
_symmetry_group_IT_number 23
_symmetry_cell_setting 'orthorhombic'
loop_
_space_group_symop_operation_xyz
x,y,z
-x,-y,z
x,-y,-z
-x,y,-z
1/2+x,1/2+y,1/2+z
1/2-x,1/2-y,1/2+z
1/2+x,1/2-y,1/2-z
1/2-x,1/2+y,1/2-z
loop_
_atom_site_type_symbol
_atom_site_label
_atom_site_fract_x
_atom_site_fract_y
_atom_site_fract_z
Si Si1 0.926214 0.919465 0.624735
Si Si2 0.396506 0.450395 0.428158
Si Si3 0.746542 0.213933 0.228639
Si Si4 0.668142 0.822128 0.252993
Si Si5 0.789973 0.150715 0.502691
Si Si6 0.691508 0.647305 0.521809
Si Si7 0.977903 0.722972 0.332364
Si Si8 0.546698 0.670617 0.770991
O O1 0.910107 0.958632 0.753923
O O2 0.821843 0.903402 0.555153
O O3 0.000000 0.939729 0.500000
O O4 0.965316 0.870305 0.702331
O O5 0.354312 0.500000 0.500000
O O6 0.500000 0.437542 0.500000
O O7 0.318945 0.407264 0.456664
O O8 0.772836 0.270914 0.235358
O O9 0.769063 0.190416 0.381690
O O10 0.631904 0.206521 0.197967
O O11 0.808724 0.187009 0.105494
O O12 0.694386 0.854304 0.395090
O O13 0.707610 0.850576 0.111723
O O14 0.551885 0.815362 0.244114
O O15 0.879402 0.172174 0.595239
O O16 0.598815 0.659268 0.620798
O O17 0.003645 0.776109 0.264119
O O18 0.000000 0.723503 0.500000
#
# Coordination Sequence:
#
# PCOD8163454 Si02
#       8
#     8   8   8   8   8   8   8   8
#     4  10  19  36  60  79 111 159 189 228 298 356
#     4  11  23  39  61  90 117 147 200 255 294 356
#     4  12  21  35  54  79 113 160 202 241 294 351
#     4  11  23  35  51  79 116 153 205 246 282 356
#     4  10  20  34  50  75 111 152 196 233 282 357
#     4  11  21  38  56  79 114 160 192 244 299 342
#     4  12  22  34  53  79 115 160 206 249 286 342
#     4  10  20  33  55  77 111 161 200 232 294 352
#
# _framework density 18.563777000000002
#
# number of rings (size 3 to 8) (size 9 to 14) (size 15 to 20)
#    0.000    1.125    6.250    3.375    0.000    0.500 
#    0.000    1.250    0.000    0.000    0.000    1.750 
#    0.000    0.000    8.500    0.000    0.000    0.000 
#
# Total GULP energy -396798.881582 kJ/mol
# GULP energy per Si atom -12399.965049 kJ/mol
# Density = 1.852153 g / cm^3
# Si number density = 18.563777 Si / 1000 Ang^3
#
#
#
# Elastic Constant Matrix: (Units=GPa)
#
#
# Indices 1 2 3 4 5 6 
#
# 1 72.2485 21.4167 25.1812 -0.0005 0.0007 0.0000
# 2 21.4167 58.5114 40.4491 -0.0008 -0.0008 -0.0001
# 3 25.1812 40.4491 116.2276 -0.0075 0.0038 -0.0012
# 4 -0.0005 -0.0008 -0.0075 26.5902 0.0007 0.0002
# 5 0.0007 -0.0008 0.0038 0.0007 20.7779 -0.0002
# 6 0.0000 -0.0001 -0.0012 0.0002 -0.0002 14.9340
#
#
#
# Elastic Compliance Matrix: (Units=1/GPa)
#
#
# Indices 1 2 3 4 5 6 
#
# 1 0.015825 -0.004506 -0.001860 0.000000 0.000000 0.000000
# 2 -0.004506 0.023788 -0.007302 -0.000001 0.000002 0.000000
# 3 -0.001860 -0.007302 0.011548 0.000003 -0.000002 0.000001
# 4 0.000000 -0.000001 0.000003 0.037608 -0.000001 -0.000001
# 5 0.000000 0.000002 -0.000002 -0.000001 0.048128 0.000001
# 6 0.000000 0.000000 0.000001 -0.000001 0.000001 0.066961
#
#
# Mechanical properties :
#
#
# Convention : Reuss Voigt Hill
#
# Bulk Modulus (GPa) = 41.97520 46.78682 44.38101
# Shear Modulus (GPa) = 20.90839 23.12313 22.01576
#
# Velocity S-wave (km/s) = 3.35968 3.53314 3.44750
# Velocity P-wave (km/s) = 6.14088 6.47318 6.30922
#
# Compressibility (1/GPa) = 0.02382359
#
# Stress axis : x y z
#
# Youngs Moduli (GPa) = 63.18978 42.03745 86.59363
#
# Poissons Ratio (x) = 0.18944 0.16109
# Poissons Ratio (y) = 0.28476 0.63234
# Poissons Ratio (z) = 0.11755 0.30697
#
# Static dielectric constant tensor:
#      x y z
#    x 3.558960 0.000000 0.000000 
#    y 0.000000 3.155490 0.000000 
#    z 0.000000 0.000000 3.844490 
# 
# 
# High freq. dielectric constant tensor:
#      x y z
#    x 1.700140 0.000000 0.000000 
#    y 0.000000 1.674690 0.000000 
#    z 0.000000 0.000000 1.747810 
# 
# From -- ./inp_files/10436.got.cif
#   From: 2010.03.12/outbox.cif.g09.slc.cpg/sg23_6_cif.got.tgz:10436.got - 2010.04.14 02:50:06.
