data_PCOD8163492
_publ_section_title
;
Structure prediction by ZEFSAII (Michael W. Deem and Ramdas Pophale) SiO2 
 PCOD8163492
Probable space group: I 2 2 2
;
_chemical_formula_sum "Si O2"
_cell_formula_units_Z 42
_cell_length_a 26.005956
_cell_length_b 5.051724
_cell_length_c 14.947719
_cell_angle_alpha 90.000000
_cell_angle_beta 90.000000
_cell_angle_gamma 90.000000
_cell_volume 1963.755269
_symmetry_space_group_name_H-M "I 2 2 2"
_symmetry_group_IT_number 23
_symmetry_cell_setting 'orthorhombic'
loop_
_space_group_symop_operation_xyz
x,y,z
-x,-y,z
x,-y,-z
-x,y,-z
1/2+x,1/2+y,1/2+z
1/2-x,1/2-y,1/2+z
1/2+x,1/2-y,1/2-z
1/2-x,1/2+y,1/2-z
loop_
_atom_site_type_symbol
_atom_site_label
_atom_site_fract_x
_atom_site_fract_y
_atom_site_fract_z
Si Si1 0.144650 0.941449 0.143694
Si Si2 0.419425 0.049882 0.633308
Si Si3 0.500000 0.000000 0.500000
Si Si4 0.377236 0.559959 0.845542
Si Si5 0.942712 0.454448 0.667313
Si Si6 0.229844 0.000000 0.000000
Si Si7 0.299630 0.500000 0.000000
O O1 0.105674 0.727312 0.099972
O O2 0.197437 0.928756 0.088792
O O3 0.125396 0.239024 0.135906
O O4 0.150799 0.887838 0.249970
O O5 0.445717 0.987090 0.727419
O O6 0.462565 0.164798 0.565479
O O7 0.403535 0.834689 0.878010
O O8 0.422959 0.344089 0.844689
O O9 0.334713 0.455092 0.913361
O O10 0.000000 0.500000 0.627121
O O11 0.265153 0.751661 0.978753
#
# Coordination Sequence:
#
# PCOD8163492 Si02
#       7
#     8   8   2   8   8   4   4
#     4  10  22  41  58  87 116 165 184 250 287 360
#     4  10  21  33  56  85 127 153 202 221 290 337
#     4  12  20  32  52  90 124 164 186 242 264 366
#     4  10  23  40  63  84 128 148 199 249 302 338
#     4  10  19  39  60  89 117 165 193 235 283 365
#     4  12  24  40  66  85 121 146 210 238 308 372
#     4  12  26  43  61  92 108 155 201 270 300 348
#
# _framework density 21.387592000000001
#
# number of rings (size 3 to 8) (size 9 to 14) (size 15 to 20)
#    0.000    1.524    0.952    4.000    0.000    3.048 
#    0.000    2.857    0.000    0.000    0.000    0.000 
#    0.000    0.000    0.000    0.000    0.000    0.000 
#
# Total GULP energy -260327.983691 kJ/mol
# GULP energy per Si atom -12396.570652 kJ/mol
# Density = 2.133891 g / cm^3
# Si number density = 21.387592 Si / 1000 Ang^3
#
#
#
# Elastic Constant Matrix: (Units=GPa)
#
#
# Indices 1 2 3 4 5 6 
#
# 1 109.5115 24.0498 46.3454 0.0000 0.0000 0.0000
# 2 24.0498 102.6338 8.1551 0.0000 0.0000 0.0000
# 3 46.3454 8.1551 80.3312 0.0000 0.0000 0.0000
# 4 0.0000 0.0000 0.0000 19.0214 0.0000 0.0000
# 5 0.0000 0.0000 0.0000 0.0000 26.6499 0.0000
# 6 0.0000 0.0000 0.0000 0.0000 0.0000 24.2115
#
#
#
# Elastic Compliance Matrix: (Units=1/GPa)
#
#
# Indices 1 2 3 4 5 6 
#
# 1 0.012643 -0.002402 -0.007050 0.000000 0.000000 0.000000
# 2 -0.002402 0.010279 0.000342 0.000000 0.000000 0.000000
# 3 -0.007050 0.000342 0.016481 0.000000 0.000000 0.000000
# 4 0.000000 0.000000 0.000000 0.052572 0.000000 0.000000
# 5 0.000000 0.000000 0.000000 0.000000 0.037524 0.000000
# 6 0.000000 0.000000 0.000000 0.000000 0.000000 0.041303
#
#
# Mechanical properties :
#
#
# Convention : Reuss Voigt Hill
#
# Bulk Modulus (GPa) = 47.20766 49.95301 48.58034
# Shear Modulus (GPa) = 25.49952 28.23831 26.86892
#
# Velocity S-wave (km/s) = 3.45665 3.63755 3.54826
# Velocity P-wave (km/s) = 6.16860 6.40696 6.28891
#
# Compressibility (1/GPa) = 0.02118300
#
# Stress axis : x y z
#
# Youngs Moduli (GPa) = 79.09767 97.28485 60.67578
#
# Poissons Ratio (x) = 0.23371 0.42776
# Poissons Ratio (y) = 0.19002 -0.02078
# Poissons Ratio (z) = 0.55764 -0.03332
#
# Static dielectric constant tensor:
#      x y z
#    x 3.770870 0.000000 0.000000 
#    y 0.000000 3.976240 0.000000 
#    z 0.000000 0.000000 3.877800 
# 
# 
# High freq. dielectric constant tensor:
#      x y z
#    x 1.834330 0.000000 0.000000 
#    y 0.000000 1.844720 0.000000 
#    z 0.000000 0.000000 1.833540 
# 
# From -- ./inp_files/25196.got.cif
#   From: 2010.03.12/outbox.cif.g09.slc.cpg/sg23_13_cif.got.tgz:25196.got - 2010.04.14 02:50:06.
