data_PCOD8163708
_publ_section_title
;
Structure prediction by ZEFSAII (Michael W. Deem and Ramdas Pophale) SiO2 
 PCOD8163708
Probable space group: I 2 2 2
;
_chemical_formula_sum "Si O2"
_cell_formula_units_Z 34
_cell_length_a 11.493360
_cell_length_b 5.325631
_cell_length_c 23.271714
_cell_angle_alpha 90.000000
_cell_angle_beta 90.000000
_cell_angle_gamma 90.000000
_cell_volume 1424.447518
_symmetry_space_group_name_H-M "I 2 2 2"
_symmetry_group_IT_number 23
_symmetry_cell_setting 'orthorhombic'
loop_
_space_group_symop_operation_xyz
x,y,z
-x,-y,z
x,-y,-z
-x,y,-z
1/2+x,1/2+y,1/2+z
1/2-x,1/2-y,1/2+z
1/2+x,1/2-y,1/2-z
1/2-x,1/2+y,1/2-z
loop_
_atom_site_type_symbol
_atom_site_label
_atom_site_fract_x
_atom_site_fract_y
_atom_site_fract_z
Si Si1 0.450678 0.753902 0.563769
Si Si2 0.187424 0.664660 0.555953
Si Si3 0.236886 0.515896 0.326039
Si Si4 0.133734 0.514431 0.204018
Si Si5 0.500000 0.500000 0.000000
O O1 0.500000 0.500000 0.594536
O O2 0.500000 0.750836 0.500000
O O3 0.312464 0.794293 0.563301
O O4 0.500000 0.000000 0.596843
O O5 0.196892 0.500000 0.500000
O O6 0.163981 0.505077 0.614281
O O7 0.080222 0.849664 0.544850
O O8 0.150088 0.503198 0.272555
O O9 0.302021 0.781864 0.326419
O O10 0.324608 0.278785 0.322724
O O11 0.000000 0.500000 0.190792
#
# Coordination Sequence:
#
# PCOD8163708 Si02
#       5
#     8   8   8   8   2
#     4  10  20  39  65  94 132 187 229 295 350 411
#     4  12  27  48  69 108 154 197 253 293 369 452
#     4  10  25  44  74 107 143 190 245 307 356 442
#     4  10  22  48  73 106 141 186 247 308 376 421
#     4  12  30  48  70 102 152 212 242 294 352 472
#
# _framework density 23.868905000000002
#
# number of rings (size 3 to 8) (size 9 to 14) (size 15 to 20)
#    0.000    1.412    2.353    2.471    3.294    4.706 
#    8.471    0.000    0.000    0.000    0.000    0.000 
#    0.000    0.000    0.000    0.000    0.000    0.000 
#
# Total GULP energy -210709.699677 kJ/mol
# GULP energy per Si atom -12394.688216 kJ/mol
# Density = 2.381458 g / cm^3
# Si number density = 23.868905 Si / 1000 Ang^3
#
#
#
# Elastic Constant Matrix: (Units=GPa)
#
#
# Indices 1 2 3 4 5 6 
#
# 1 140.0209 46.9117 34.8687 0.0000 0.0000 0.0000
# 2 46.9117 168.4886 36.2916 0.0000 0.0000 0.0000
# 3 34.8687 36.2916 178.3998 0.0000 0.0000 0.0000
# 4 0.0000 0.0000 0.0000 67.6484 0.0000 0.0000
# 5 0.0000 0.0000 0.0000 0.0000 -13.2753 0.0000
# 6 0.0000 0.0000 0.0000 0.0000 0.0000 29.6391
#
#
#
# Elastic Compliance Matrix: (Units=1/GPa)
#
#
# Indices 1 2 3 4 5 6 
#
# 1 0.008106 -0.002003 -0.001177 0.000000 0.000000 0.000000
# 2 -0.002003 0.006702 -0.000972 0.000000 0.000000 0.000000
# 3 -0.001177 -0.000972 0.006033 0.000000 0.000000 0.000000
# 4 0.000000 0.000000 0.000000 0.014782 0.000000 0.000000
# 5 0.000000 0.000000 0.000000 0.000000 -0.075328 0.000000
# 6 0.000000 0.000000 0.000000 0.000000 0.000000 0.033739
#
#
# Mechanical properties :
#
#
# Convention : Reuss Voigt Hill
#
# Bulk Modulus (GPa) = 79.76252 80.33926 80.05089
# Shear Modulus (GPa) = 767.02831 41.39158 404.20995
#
# Velocity S-wave (km/s) = 17.94570 4.16880 13.02741
# Velocity P-wave (km/s) = 21.51481 7.54344 16.12126
#
# Compressibility (1/GPa) = 0.01253722
#
# Stress axis : x y z
#
# Youngs Moduli (GPa) = 123.36432 149.20310 165.75235
#
# Poissons Ratio (x) = 0.29892 0.19506
# Poissons Ratio (y) = 0.24716 0.16109
# Poissons Ratio (z) = 0.14517 0.14500
#
# Static dielectric constant tensor:
#      x y z
#    x 3.820030 0.000000 0.000000 
#    y 0.000000 8.535430 0.000000 
#    z 0.000000 0.000000 4.422070 
# 
# 
# High freq. dielectric constant tensor:
#      x y z
#    x 1.936750 0.000000 0.000000 
#    y 0.000000 1.956500 0.000000 
#    z 0.000000 0.000000 1.977100 
# 
# From -- ./inp_files/29344.got.cif
#   From: 2010.03.12/outbox.cif.g09.slc.cpg/sg23_15_cif.got.tgz:29344.got - 2010.04.14 02:50:06.
