data_PCOD8163986
_publ_section_title
;
Structure prediction by ZEFSAII (Michael W. Deem and Ramdas Pophale) SiO2 
 PCOD8163986
Probable space group: I 2 2 2
;
_chemical_formula_sum "Si O2"
_cell_formula_units_Z 64
_cell_length_a 16.765765
_cell_length_b 22.943831
_cell_length_c 7.409017
_cell_angle_alpha 90.000000
_cell_angle_beta 90.000000
_cell_angle_gamma 90.000000
_cell_volume 2850.033080
_symmetry_space_group_name_H-M "I 2 2 2"
_symmetry_group_IT_number 23
_symmetry_cell_setting 'orthorhombic'
loop_
_space_group_symop_operation_xyz
x,y,z
-x,-y,z
x,-y,-z
-x,y,-z
1/2+x,1/2+y,1/2+z
1/2-x,1/2-y,1/2+z
1/2+x,1/2-y,1/2-z
1/2-x,1/2+y,1/2-z
loop_
_atom_site_type_symbol
_atom_site_label
_atom_site_fract_x
_atom_site_fract_y
_atom_site_fract_z
Si Si1 0.879266 0.667187 0.330412
Si Si2 0.344723 0.777340 0.552813
Si Si3 0.540139 0.871775 0.314208
Si Si4 0.667647 0.282765 0.080742
Si Si5 0.544221 0.651308 0.690205
Si Si6 0.875692 0.840613 0.769299
Si Si7 0.159971 0.935339 0.955187
Si Si8 0.338668 0.063896 0.066384
O O1 0.862123 0.717781 0.479281
O O2 0.836854 0.608243 0.396731
O O3 0.971487 0.649629 0.319734
O O4 0.841750 0.696513 0.150346
O O5 0.409441 0.814154 0.658105
O O6 0.258692 0.783133 0.651195
O O7 0.370824 0.709605 0.573652
O O8 0.500000 0.896314 0.500000
O O9 0.597410 0.919792 0.222011
O O10 0.606437 0.300718 0.238863
O O11 0.672650 0.324236 0.907813
O O12 0.500000 0.666454 0.500000
O O13 0.465060 0.647587 0.813128
O O14 0.593782 0.591044 0.679900
O O15 0.838839 0.898236 0.859108
O O16 0.247492 0.936317 0.860354
O O17 0.131833 0.000000 0.000000
O O18 0.363831 0.000000 0.000000
#
# Coordination Sequence:
#
# PCOD8163986 Si02
#       8
#     8   8   8   8   8   8   8   8
#     4  11  23  39  60  90 126 166 207 258 320 380
#     4  11  22  39  62  92 129 165 209 261 320 383
#     4  10  23  41  62  90 126 163 205 258 319 382
#     4  12  22  37  63  93 128 165 208 263 322 382
#     4  10  22  38  60  88 122 162 206 255 317 382
#     4  11  23  38  60  93 127 163 210 261 319 385
#     4  10  22  42  66  89 119 163 211 260 316 378
#     4  11  23  42  66  91 120 161 214 262 312 380
#
# _framework density 22.455880000000001
#
# number of rings (size 3 to 8) (size 9 to 14) (size 15 to 20)
#    0.000    1.250    0.000    6.750    0.000    7.250 
#    0.000    5.000    0.000   10.500    0.000    0.000 
#    0.000    0.000    0.000    0.000    0.000    0.000 
#
# Total GULP energy -396435.354642 kJ/mol
# GULP energy per Si atom -12388.604833 kJ/mol
# Density = 2.240477 g / cm^3
# Si number density = 22.455880 Si / 1000 Ang^3
#
#
#
# Elastic Constant Matrix: (Units=GPa)
#
#
# Indices 1 2 3 4 5 6 
#
# 1 162.7433 48.3210 19.7675 0.0000 0.0000 0.0000
# 2 48.3210 166.7681 37.6999 0.0000 0.0000 0.0000
# 3 19.7675 37.6999 59.1762 0.0000 0.0000 0.0000
# 4 0.0000 0.0000 0.0000 21.1519 0.0000 0.0000
# 5 0.0000 0.0000 0.0000 0.0000 39.0067 0.0000
# 6 0.0000 0.0000 0.0000 0.0000 0.0000 24.6204
#
#
#
# Elastic Compliance Matrix: (Units=1/GPa)
#
#
# Indices 1 2 3 4 5 6 
#
# 1 0.006794 -0.001700 -0.001186 0.000000 0.000000 0.000000
# 2 -0.001700 0.007431 -0.004166 0.000000 0.000000 0.000000
# 3 -0.001186 -0.004166 0.019949 0.000000 0.000000 0.000000
# 4 0.000000 0.000000 0.000000 0.047277 0.000000 0.000000
# 5 0.000000 0.000000 0.000000 0.000000 0.025637 0.000000
# 6 0.000000 0.000000 0.000000 0.000000 0.000000 0.040617
#
#
# Mechanical properties :
#
#
# Convention : Reuss Voigt Hill
#
# Bulk Modulus (GPa) = 49.82949 66.69604 58.26276
# Shear Modulus (GPa) = 29.67393 35.81575 32.74484
#
# Velocity S-wave (km/s) = 3.63910 3.99800 3.82276
# Velocity P-wave (km/s) = 6.31629 7.14685 6.74436
#
# Compressibility (1/GPa) = 0.02006844
#
# Stress axis : x y z
#
# Youngs Moduli (GPa) = 147.19823 134.57521 50.12789
#
# Poissons Ratio (x) = 0.22882 0.05946
# Poissons Ratio (y) = 0.25028 0.20883
# Poissons Ratio (z) = 0.17460 0.56064
#
# Static dielectric constant tensor:
#      x y z
#    x 4.626580 0.000000 0.000000 
#    y 0.000000 3.929860 0.000000 
#    z 0.000000 0.000000 4.230870 
# 
# 
# High freq. dielectric constant tensor:
#      x y z
#    x 1.918190 0.000000 0.000000 
#    y 0.000000 1.868350 0.000000 
#    z 0.000000 0.000000 1.869770 
# 
# From -- ./inp_files/11412.got.cif
#   From: 2010.03.12/outbox.cif.g09.slc.cpg/sg23_6_cif.got.tgz:11412.got - 2010.04.14 02:50:06.
