data_PCOD8163692
_publ_section_title
;
Structure prediction by ZEFSAII (Michael W. Deem and Ramdas Pophale) SiO2 
 PCOD8163692
Probable space group: I 2 2 2
;
_chemical_formula_sum "Si O2"
_cell_formula_units_Z 52
_cell_length_a 10.467029
_cell_length_b 9.648078
_cell_length_c 25.593953
_cell_angle_alpha 90.000000
_cell_angle_beta 90.000000
_cell_angle_gamma 90.000000
_cell_volume 2584.649166
_symmetry_space_group_name_H-M "I 2 2 2"
_symmetry_group_IT_number 23
_symmetry_cell_setting 'orthorhombic'
loop_
_space_group_symop_operation_xyz
x,y,z
-x,-y,z
x,-y,-z
-x,y,-z
1/2+x,1/2+y,1/2+z
1/2-x,1/2-y,1/2+z
1/2+x,1/2-y,1/2-z
1/2-x,1/2+y,1/2-z
loop_
_atom_site_type_symbol
_atom_site_label
_atom_site_fract_x
_atom_site_fract_y
_atom_site_fract_z
Si Si1 0.388663 0.811341 0.898147
Si Si2 0.185435 0.162555 0.791871
Si Si3 0.132532 0.419631 0.718073
Si Si4 0.350325 0.477952 0.058213
Si Si5 0.000000 0.000000 0.139573
Si Si6 0.200224 0.997272 0.057991
Si Si7 0.182110 0.250992 0.390841
O O1 0.351991 0.869897 0.841392
O O2 0.319352 0.667600 0.913975
O O3 0.335160 0.921799 0.939916
O O4 0.539412 0.798769 0.904349
O O5 0.142229 0.278122 0.750900
O O6 0.293454 0.226801 0.829607
O O7 0.250942 0.024368 0.766978
O O8 0.058694 0.119710 0.823828
O O9 0.000000 0.500000 0.728529
O O10 0.500000 0.500000 0.054168
O O11 0.290442 0.591776 0.096522
O O12 0.291619 0.500000 0.000000
O O13 0.105239 0.067560 0.100503
O O14 0.220286 0.837980 0.073943
O O15 0.142077 0.000000 0.000000
#
# Coordination Sequence:
#
# PCOD8163692 Si02
#       7
#     8   8   8   8   4   8   8
#     4  11  20  38  62  90 130 159 207 274 317 390
#     4  11  26  42  67  90 130 169 222 277 334 403
#     4  12  25  45  66  97 127 168 224 280 340 405
#     4   9  19  33  55  88 124 159 198 243 316 381
#     4  10  23  44  58  88 130 166 217 264 322 392
#     4  11  21  36  64  89 123 172 213 263 323 388
#     4  10  20  39  57  91 126 158 208 270 320 386
#
# _framework density 20.118784999999999
#
# number of rings (size 3 to 8) (size 9 to 14) (size 15 to 20)
#    0.000    1.385    4.615    1.615    4.308    2.462 
#    1.385    0.000    0.000    0.000    0.000    3.231 
#    0.000    0.000    0.000    0.000    0.000    0.000 
#
# Total GULP energy -322279.644918 kJ/mol
# GULP energy per Si atom -12395.370958 kJ/mol
# Density = 2.007299 g / cm^3
# Si number density = 20.118785 Si / 1000 Ang^3
#
#
#
# Elastic Constant Matrix: (Units=GPa)
#
#
# Indices 1 2 3 4 5 6 
#
# 1 70.0022 34.2507 31.0473 0.0000 0.0000 0.0000
# 2 34.2507 132.7021 53.0349 0.0000 0.0000 0.0000
# 3 31.0473 53.0349 94.7896 0.0000 0.0000 0.0000
# 4 0.0000 0.0000 0.0000 36.8962 0.0000 0.0000
# 5 0.0000 0.0000 0.0000 0.0000 17.8485 0.0000
# 6 0.0000 0.0000 0.0000 0.0000 0.0000 24.6462
#
#
#
# Elastic Compliance Matrix: (Units=1/GPa)
#
#
# Indices 1 2 3 4 5 6 
#
# 1 0.017523 -0.002871 -0.004133 0.000000 0.000000 0.000000
# 2 -0.002871 0.010176 -0.004753 0.000000 0.000000 0.000000
# 3 -0.004133 -0.004753 0.014563 0.000000 0.000000 0.000000
# 4 0.000000 0.000000 0.000000 0.027103 0.000000 0.000000
# 5 0.000000 0.000000 0.000000 0.000000 0.056027 0.000000
# 6 0.000000 0.000000 0.000000 0.000000 0.000000 0.040574
#
#
# Mechanical properties :
#
#
# Convention : Reuss Voigt Hill
#
# Bulk Modulus (GPa) = 53.34047 59.35107 56.34577
# Shear Modulus (GPa) = 25.54528 27.82225 26.68376
#
# Velocity S-wave (km/s) = 3.56718 3.72277 3.64581
# Velocity P-wave (km/s) = 6.59824 6.93131 6.76682
#
# Compressibility (1/GPa) = 0.01874749
#
# Stress axis : x y z
#
# Youngs Moduli (GPa) = 57.06750 98.26701 68.66727
#
# Poissons Ratio (x) = 0.28211 0.28382
# Poissons Ratio (y) = 0.16383 0.32640
# Poissons Ratio (z) = 0.23587 0.46710
#
# Static dielectric constant tensor:
#      x y z
#    x 3.605460 0.000000 0.000000 
#    y 0.000000 3.886340 0.000000 
#    z 0.000000 0.000000 3.693980 
# 
# 
# High freq. dielectric constant tensor:
#      x y z
#    x 1.768010 0.000000 0.000000 
#    y 0.000000 1.789580 0.000000 
#    z 0.000000 0.000000 1.784280 
# 
# From -- ./inp_files/8813.got.cif
#   From: 2010.03.12/outbox.cif.g09.slc.cpg/sg23_5_cif.got.tgz:8813.got - 2010.04.14 02:50:06.
