data_PCOD8163867
_publ_section_title
;
Structure prediction by ZEFSAII (Michael W. Deem and Ramdas Pophale) SiO2 
 PCOD8163867
Probable space group: I 2 2 2
;
_chemical_formula_sum "Si O2"
_cell_formula_units_Z 48
_cell_length_a 23.736064
_cell_length_b 13.901068
_cell_length_c 6.584553
_cell_angle_alpha 90.000000
_cell_angle_beta 90.000000
_cell_angle_gamma 90.000000
_cell_volume 2172.616982
_symmetry_space_group_name_H-M "I 2 2 2"
_symmetry_group_IT_number 23
_symmetry_cell_setting 'orthorhombic'
loop_
_space_group_symop_operation_xyz
x,y,z
-x,-y,z
x,-y,-z
-x,y,-z
1/2+x,1/2+y,1/2+z
1/2-x,1/2-y,1/2+z
1/2+x,1/2-y,1/2-z
1/2-x,1/2+y,1/2-z
loop_
_atom_site_type_symbol
_atom_site_label
_atom_site_fract_x
_atom_site_fract_y
_atom_site_fract_z
Si Si1 0.000000 0.254234 0.500000
Si Si2 0.193998 0.671358 0.261355
Si Si3 0.126928 0.730949 0.878411
Si Si4 0.597034 0.106890 0.030352
Si Si5 0.802900 0.163328 0.550796
Si Si6 0.458076 0.388521 0.671508
Si Si7 0.108630 0.000000 0.500000
O O1 0.946772 0.318342 0.429433
O O2 0.990894 0.184531 0.686863
O O3 0.158980 0.608903 0.424006
O O4 0.216328 0.771039 0.360802
O O5 0.247818 0.615456 0.160597
O O6 0.150860 0.693916 0.085418
O O7 0.097634 0.638775 0.767926
O O8 0.172066 0.765772 0.716130
O O9 0.089318 0.823647 0.934962
O O10 0.573021 0.000000 0.000000
O O11 0.849609 0.089773 0.465578
O O12 0.500000 0.430722 0.500000
O O13 0.430897 0.477916 0.802484
#
# Coordination Sequence:
#
# PCOD8163867 Si02
#       7
#     4   8   8   8   8   8   4
#     4  10  21  43  66  90 128 172 208 271 333 394
#     4  11  20  39  64  86 126 176 213 255 325 398
#     4   9  20  38  61  90 121 165 215 257 319 392
#     4  10  22  37  61  96 127 161 216 270 326 389
#     4  10  21  39  62  88 127 173 211 266 326 384
#     4  10  21  42  67  90 125 171 214 266 335 396
#     4  10  24  43  62 104 134 160 227 294 322 382
#
# _framework density 22.093173
#
# number of rings (size 3 to 8) (size 9 to 14) (size 15 to 20)
#    0.000    2.000    1.667    2.250    0.000    2.333 
#    0.000   11.667    0.000    3.000    0.000    0.000 
#    0.000    0.000    0.000    0.000    0.000    0.000 
#
# Total GULP energy -297335.497031 kJ/mol
# GULP energy per Si atom -12388.979043 kJ/mol
# Density = 2.204289 g / cm^3
# Si number density = 22.093173 Si / 1000 Ang^3
#
#
#
# Elastic Constant Matrix: (Units=GPa)
#
#
# Indices 1 2 3 4 5 6 
#
# 1 114.1202 36.6063 45.2062 0.0000 0.0000 0.0000
# 2 36.6063 104.5565 37.7039 0.0000 0.0000 0.0000
# 3 45.2062 37.7039 79.9273 0.0000 0.0000 0.0000
# 4 0.0000 0.0000 0.0000 29.3536 0.0000 0.0000
# 5 0.0000 0.0000 0.0000 0.0000 46.5761 0.0000
# 6 0.0000 0.0000 0.0000 0.0000 0.0000 213.5013
#
#
#
# Elastic Compliance Matrix: (Units=1/GPa)
#
#
# Indices 1 2 3 4 5 6 
#
# 1 0.011647 -0.002051 -0.005620 0.000000 0.000000 0.000000
# 2 -0.002051 0.011886 -0.004447 0.000000 0.000000 0.000000
# 3 -0.005620 -0.004447 0.017788 0.000000 0.000000 0.000000
# 4 0.000000 0.000000 0.000000 0.034067 0.000000 0.000000
# 5 0.000000 0.000000 0.000000 0.000000 0.021470 0.000000
# 6 0.000000 0.000000 0.000000 0.000000 0.000000 0.004684
#
#
# Mechanical properties :
#
#
# Convention : Reuss Voigt Hill
#
# Bulk Modulus (GPa) = 58.53141 59.73741 59.13441
# Shear Modulus (GPa) = 38.03095 69.82537 53.92816
#
# Velocity S-wave (km/s) = 4.15346 5.62793 4.94595
# Velocity P-wave (km/s) = 7.03933 8.32640 7.70977
#
# Compressibility (1/GPa) = 0.01708485
#
# Stress axis : x y z
#
# Youngs Moduli (GPa) = 85.86076 84.13346 56.21919
#
# Poissons Ratio (x) = 0.17257 0.31594
# Poissons Ratio (y) = 0.17611 0.25000
# Poissons Ratio (z) = 0.48251 0.37412
#
# Static dielectric constant tensor:
#      x y z
#    x 3.526980 0.000000 0.000000 
#    y 0.000000 3.896550 0.000000 
#    z 0.000000 0.000000 3.841490 
# 
# 
# High freq. dielectric constant tensor:
#      x y z
#    x 1.880220 0.000000 0.000000 
#    y 0.000000 1.853900 0.000000 
#    z 0.000000 0.000000 1.864690 
# 
# From -- ./inp_files/4928.got.cif
#   From: 2010.03.12/outbox.cif.g09.slc.cpg/sg23_3_cif.got.tgz:4928.got - 2010.04.14 02:50:06.
