data_PCOD8163429
_publ_section_title
;
Structure prediction by ZEFSAII (Michael W. Deem and Ramdas Pophale) SiO2 
 PCOD8163429
Probable space group: I 2 2 2
;
_chemical_formula_sum "Si O2"
_cell_formula_units_Z 52
_cell_length_a 6.922309
_cell_length_b 24.218295
_cell_length_c 14.848055
_cell_angle_alpha 90.000000
_cell_angle_beta 90.000000
_cell_angle_gamma 90.000000
_cell_volume 2489.224771
_symmetry_space_group_name_H-M "I 2 2 2"
_symmetry_group_IT_number 23
_symmetry_cell_setting 'orthorhombic'
loop_
_space_group_symop_operation_xyz
x,y,z
-x,-y,z
x,-y,-z
-x,y,-z
1/2+x,1/2+y,1/2+z
1/2-x,1/2-y,1/2+z
1/2+x,1/2-y,1/2-z
1/2-x,1/2+y,1/2-z
loop_
_atom_site_type_symbol
_atom_site_label
_atom_site_fract_x
_atom_site_fract_y
_atom_site_fract_z
Si Si1 0.163762 0.785523 0.882056
Si Si2 0.294835 0.025444 0.410253
Si Si3 0.226387 0.258731 0.430470
Si Si4 0.280334 0.144441 0.364701
Si Si5 0.502360 0.619167 0.282277
Si Si6 0.869438 0.691390 0.253839
Si Si7 0.500000 0.500000 0.757847
O O1 0.223772 0.742702 0.802420
O O2 0.945845 0.771690 0.907388
O O3 0.146995 0.849216 0.849714
O O4 0.312338 0.779987 0.967171
O O5 0.337970 0.090983 0.422308
O O6 0.500000 0.000000 0.396773
O O7 0.194012 0.000000 0.500000
O O8 0.184231 0.007825 0.320851
O O9 0.214508 0.192427 0.432604
O O10 0.080437 0.284534 0.354548
O O11 0.445179 0.164979 0.294180
O O12 0.087520 0.124592 0.315798
O O13 0.714383 0.644437 0.274367
O O14 0.521927 0.554048 0.306539
#
# Coordination Sequence:
#
# PCOD8163429 Si02
#       7
#     8   8   8   8   8   8   4
#     4   9  18  32  54  79 110 145 183 230 277 339
#     4  10  21  35  53  77 111 147 195 230 271 331
#     4   9  18  32  54  82 110 144 181 226 289 332
#     4  10  20  34  54  78 111 147 180 228 275 339
#     4  10  20  35  54  77 110 146 187 227 277 333
#     4  10  19  35  57  77 113 146 181 231 286 335
#     4  10  21  36  54  77 108 154 188 234 276 328
#
# _framework density 20.890039000000002
#
# number of rings (size 3 to 8) (size 9 to 14) (size 15 to 20)
#    0.000    2.308    1.538    1.154    0.000    6.154 
#    0.000    4.615    0.000    7.385    0.000    0.000 
#    0.000   11.077    0.000    0.000    0.000    0.000 
#
# Total GULP energy -322120.638630 kJ/mol
# GULP energy per Si atom -12389.255332 kJ/mol
# Density = 2.084249 g / cm^3
# Si number density = 20.890039 Si / 1000 Ang^3
#
#
#
# Elastic Constant Matrix: (Units=GPa)
#
#
# Indices 1 2 3 4 5 6 
#
# 1 22.5387 19.9895 14.7193 0.0001 0.0000 0.0000
# 2 19.9895 208.5764 61.9380 0.0001 0.0000 0.0000
# 3 14.7193 61.9380 111.7344 0.0005 0.0001 0.0001
# 4 0.0001 0.0001 0.0005 -1.4283 0.0000 0.0000
# 5 0.0000 0.0000 0.0001 0.0000 25.0103 0.0000
# 6 0.0000 0.0000 0.0001 0.0000 0.0000 22.6193
#
#
#
# Elastic Compliance Matrix: (Units=1/GPa)
#
#
# Indices 1 2 3 4 5 6 
#
# 1 0.050514 -0.003430 -0.004753 0.000002 0.000000 0.000000
# 2 -0.003430 0.005972 -0.002859 -0.000001 0.000000 0.000000
# 3 -0.004753 -0.002859 0.011161 0.000004 0.000000 0.000000
# 4 0.000002 -0.000001 0.000004 -0.700127 0.000000 0.000000
# 5 0.000000 0.000000 0.000000 0.000000 0.039983 0.000000
# 6 0.000000 0.000000 0.000000 0.000000 0.000000 0.044210
#
#
# Mechanical properties :
#
#
# Convention : Reuss Voigt Hill
#
# Bulk Modulus (GPa) = 21.94743 59.57147 40.75945
# Shear Modulus (GPa) = -9.78442 25.65377 7.93467
#
# Velocity S-wave (km/s) = -2.16655 3.50814 1.95104
# Velocity P-wave (km/s) = 2.06649 6.70731 4.96278
#
# Compressibility (1/GPa) = 0.04556343
#
# Stress axis : x y z
#
# Youngs Moduli (GPa) = 19.79648 167.44838 89.60068
#
# Poissons Ratio (x) = 0.57428 0.42590
# Poissons Ratio (y) = 0.06789 0.25614
# Poissons Ratio (z) = 0.09410 0.47868
#
# Static dielectric constant tensor:
#      x y z
#    x 3.664060 0.000000 0.000000 
#    y 0.000000 4.153530 0.000000 
#    z 0.000000 0.000000 4.218920 
# 
# 
# High freq. dielectric constant tensor:
#      x y z
#    x 1.826570 0.000000 0.000000 
#    y 0.000000 1.815800 0.000000 
#    z 0.000000 0.000000 1.797410 
# 
# From -- ./inp_files/20281.got.cif
#   From: 2010.03.12/outbox.cif.g09.slc.cpg/sg23_11_cif.got.tgz:20281.got - 2010.04.14 02:50:06.
