data_PCOD8163650
_publ_section_title
;
Structure prediction by ZEFSAII (Michael W. Deem and Ramdas Pophale) SiO2 
 PCOD8163650
Probable space group: I 2 2 2
;
_chemical_formula_sum "Si O2"
_cell_formula_units_Z 48
_cell_length_a 11.597361
_cell_length_b 16.367481
_cell_length_c 12.170686
_cell_angle_alpha 90.000000
_cell_angle_beta 90.000000
_cell_angle_gamma 90.000000
_cell_volume 2310.234576
_symmetry_space_group_name_H-M "I 2 2 2"
_symmetry_group_IT_number 23
_symmetry_cell_setting 'orthorhombic'
loop_
_space_group_symop_operation_xyz
x,y,z
-x,-y,z
x,-y,-z
-x,y,-z
1/2+x,1/2+y,1/2+z
1/2-x,1/2-y,1/2+z
1/2+x,1/2-y,1/2-z
1/2-x,1/2+y,1/2-z
loop_
_atom_site_type_symbol
_atom_site_label
_atom_site_fract_x
_atom_site_fract_y
_atom_site_fract_z
Si Si1 0.746175 0.825985 0.188089
Si Si2 0.087033 0.849467 0.630431
Si Si3 0.635645 0.405457 0.514963
Si Si4 0.638871 0.423105 0.923363
Si Si5 0.005490 0.330707 0.371159
Si Si6 0.762833 0.640968 0.269976
O O1 0.817461 0.875754 0.280234
O O2 0.613765 0.855949 0.186875
O O3 0.753293 0.731239 0.220074
O O4 0.800974 0.845515 0.070218
O O5 0.144438 0.845585 0.508261
O O6 0.028333 0.763665 0.655814
O O7 0.988743 0.920162 0.632267
O O8 0.673959 0.500000 0.500000
O O9 0.500000 0.395632 0.500000
O O10 0.668588 0.372683 0.635234
O O11 0.736688 0.420104 0.830745
O O12 0.660376 0.500000 0.000000
O O13 0.110625 0.380979 0.316761
O O14 0.000000 0.350281 0.500000
#
# Coordination Sequence:
#
# PCOD8163650 Si02
#       6
#     8   8   8   8   8   8
#     4  11  23  41  68  97 136 181 233 281 331 417
#     4  10  20  37  63  95 131 172 233 281 342 393
#     4  11  26  45  67 104 141 173 224 300 356 397
#     4  11  22  39  65  98 133 172 221 291 344 402
#     4  11  19  40  64  96 132 177 231 278 333 413
#     4  11  24  41  67 101 137 182 237 273 341 416
#
# _framework density 20.77711
#
# number of rings (size 3 to 8) (size 9 to 14) (size 15 to 20)
#    0.000    1.167    5.000    2.000    7.000    0.000 
#    3.000    2.500    0.000    2.000    0.000    0.000 
#    0.000    0.000    0.000    0.000    0.000    0.000 
#
# Total GULP energy -297496.157580 kJ/mol
# GULP energy per Si atom -12395.673232 kJ/mol
# Density = 2.072982 g / cm^3
# Si number density = 20.777110 Si / 1000 Ang^3
#
#
#
# Elastic Constant Matrix: (Units=GPa)
#
#
# Indices 1 2 3 4 5 6 
#
# 1 156.7518 37.7500 82.7819 0.0001 0.0000 0.0000
# 2 37.7500 80.2965 51.0247 0.0003 0.0000 0.0000
# 3 82.7819 51.0247 144.0867 0.0007 0.0000 -0.0001
# 4 0.0001 0.0003 0.0007 37.9588 0.0000 0.0000
# 5 0.0000 0.0000 0.0000 0.0000 52.7422 0.0000
# 6 0.0000 0.0000 -0.0001 0.0000 0.0000 17.0041
#
#
#
# Elastic Compliance Matrix: (Units=1/GPa)
#
#
# Indices 1 2 3 4 5 6 
#
# 1 0.009255 -0.001255 -0.004873 0.000000 0.000000 0.000000
# 2 -0.001255 0.016240 -0.005030 0.000000 0.000000 0.000000
# 3 -0.004873 -0.005030 0.011521 0.000000 0.000000 0.000000
# 4 0.000000 0.000000 0.000000 0.026344 0.000000 0.000000
# 5 0.000000 0.000000 0.000000 0.000000 0.018960 0.000000
# 6 0.000000 0.000000 0.000000 0.000000 0.000000 0.058809
#
#
# Mechanical properties :
#
#
# Convention : Reuss Voigt Hill
#
# Bulk Modulus (GPa) = 68.02326 80.47202 74.24764
# Shear Modulus (GPa) = 29.70065 35.51293 32.60679
#
# Velocity S-wave (km/s) = 3.78496 4.13877 3.96581
# Velocity P-wave (km/s) = 7.20499 7.85203 7.53546
#
# Compressibility (1/GPa) = 0.01470085
#
# Stress axis : x y z
#
# Youngs Moduli (GPa) = 108.04791 61.57580 86.79541
#
# Poissons Ratio (x) = 0.07725 0.42296
# Poissons Ratio (y) = 0.13555 0.43661
# Poissons Ratio (z) = 0.52653 0.30974
#
# Static dielectric constant tensor:
#      x y z
#    x 4.085700 0.000000 0.000000 
#    y 0.000000 3.676120 0.000000 
#    z 0.000000 0.000000 4.190210 
# 
# 
# High freq. dielectric constant tensor:
#      x y z
#    x 1.811750 0.000000 0.000000 
#    y 0.000000 1.792660 0.000000 
#    z 0.000000 0.000000 1.827070 
# 
# From -- ./inp_files/15739.got.cif
#   From: 2010.03.12/outbox.cif.g09.slc.cpg/sg23_8_cif.got.tgz:15739.got - 2010.04.14 02:50:06.
