data_PCOD8163628
_publ_section_title
;
Structure prediction by ZEFSAII (Michael W. Deem and Ramdas Pophale) SiO2 
 PCOD8163628
Probable space group: I 2 2 2
;
_chemical_formula_sum "Si O2"
_cell_formula_units_Z 56
_cell_length_a 8.362927
_cell_length_b 17.319596
_cell_length_c 20.216992
_cell_angle_alpha 90.000000
_cell_angle_beta 90.000000
_cell_angle_gamma 90.000000
_cell_volume 2928.280008
_symmetry_space_group_name_H-M "I 2 2 2"
_symmetry_group_IT_number 23
_symmetry_cell_setting 'orthorhombic'
loop_
_space_group_symop_operation_xyz
x,y,z
-x,-y,z
x,-y,-z
-x,y,-z
1/2+x,1/2+y,1/2+z
1/2-x,1/2-y,1/2+z
1/2+x,1/2-y,1/2-z
1/2-x,1/2+y,1/2-z
loop_
_atom_site_type_symbol
_atom_site_label
_atom_site_fract_x
_atom_site_fract_y
_atom_site_fract_z
Si Si1 0.401572 0.722722 0.060486
Si Si2 0.122492 0.063896 0.856981
Si Si3 0.843621 0.541298 0.725199
Si Si4 0.315046 0.648085 0.515626
Si Si5 0.756392 0.827038 0.312655
Si Si6 0.045572 0.783743 0.807764
Si Si7 0.664897 0.834226 0.114530
O O1 0.248214 0.766097 0.030630
O O2 0.335758 0.663061 0.114913
O O3 0.510306 0.785035 0.097733
O O4 0.500000 0.682308 0.000000
O O5 0.219036 0.093108 0.921500
O O6 0.032658 0.133051 0.820113
O O7 0.233492 0.026655 0.801755
O O8 0.000000 0.000000 0.883633
O O9 0.763565 0.586080 0.786324
O O10 0.885174 0.603451 0.668843
O O11 0.000000 0.500000 0.752741
O O12 0.500000 0.654299 0.500000
O O13 0.223349 0.617988 0.450301
O O14 0.878668 0.779443 0.265721
O O15 0.584682 0.783624 0.316554
O O16 0.192664 0.777240 0.859897
#
# Coordination Sequence:
#
# PCOD8163628 Si02
#       7
#     8   8   8   8   8   8   8
#     4  10  21  36  59  85 119 146 200 255 295 350
#     4  12  21  37  51  82 121 159 197 238 280 353
#     4  11  24  37  54  81 124 157 201 242 290 353
#     4  11  19  34  57  81 121 163 198 234 283 349
#     4  11  21  38  57  85 113 156 201 244 300 345
#     4  11  22  36  60  82 118 156 201 244 293 357
#     4  10  20  37  52  86 117 161 199 237 291 349
#
# _framework density 19.123854000000001
#
# number of rings (size 3 to 8) (size 9 to 14) (size 15 to 20)
#    0.000    1.143    5.714    2.571    2.000    2.000 
#    0.000    0.714    0.000    0.000    0.000    2.000 
#    0.000    0.000    0.000    0.000    0.000    0.000 
#
# Total GULP energy -347104.402207 kJ/mol
# GULP energy per Si atom -12396.585793 kJ/mol
# Density = 1.908033 g / cm^3
# Si number density = 19.123854 Si / 1000 Ang^3
#
#
#
# Elastic Constant Matrix: (Units=GPa)
#
#
# Indices 1 2 3 4 5 6 
#
# 1 79.4842 29.4166 34.2609 0.0000 0.0000 0.0000
# 2 29.4166 48.4133 44.2164 0.0000 0.0000 0.0000
# 3 34.2609 44.2164 108.9143 0.0000 0.0000 0.0000
# 4 0.0000 0.0000 0.0000 32.5185 0.0000 0.0000
# 5 0.0000 0.0000 0.0000 0.0000 24.8680 0.0000
# 6 0.0000 0.0000 0.0000 0.0000 0.0000 25.2793
#
#
#
# Elastic Compliance Matrix: (Units=1/GPa)
#
#
# Indices 1 2 3 4 5 6 
#
# 1 0.016444 -0.008371 -0.001774 0.000000 0.000000 0.000000
# 2 -0.008371 0.037089 -0.012424 0.000000 0.000000 0.000000
# 3 -0.001774 -0.012424 0.014783 0.000000 0.000000 0.000000
# 4 0.000000 0.000000 0.000000 0.030752 0.000000 0.000000
# 5 0.000000 0.000000 0.000000 0.000000 0.040212 0.000000
# 6 0.000000 0.000000 0.000000 0.000000 0.000000 0.039558
#
#
# Mechanical properties :
#
#
# Convention : Reuss Voigt Hill
#
# Bulk Modulus (GPa) = 43.14491 50.28885 46.71688
# Shear Modulus (GPa) = 21.57940 25.12769 23.35355
#
# Velocity S-wave (km/s) = 3.36281 3.62877 3.49832
# Velocity P-wave (km/s) = 6.13904 6.62652 6.38743
#
# Compressibility (1/GPa) = 0.02317770
#
# Stress axis : x y z
#
# Youngs Moduli (GPa) = 60.81250 26.96242 67.64347
#
# Poissons Ratio (x) = 0.22571 0.12002
# Poissons Ratio (y) = 0.50907 0.84039
# Poissons Ratio (z) = 0.10790 0.33498
#
# Static dielectric constant tensor:
#      x y z
#    x 3.815120 0.000000 0.000000 
#    y 0.000000 3.258260 0.000000 
#    z 0.000000 0.000000 3.878710 
# 
# 
# High freq. dielectric constant tensor:
#      x y z
#    x 1.761950 0.000000 0.000000 
#    y 0.000000 1.694940 0.000000 
#    z 0.000000 0.000000 1.747570 
# 
# From -- ./inp_files/10245.got.cif
#   From: 2010.03.12/outbox.cif.g09.slc.cpg/sg23_6_cif.got.tgz:10245.got - 2010.04.14 02:50:06.
