data_PCOD8163348
_publ_section_title
;
Structure prediction by ZEFSAII (Michael W. Deem and Ramdas Pophale) SiO2 
 PCOD8163348
Probable space group: I 2 2 2
;
_chemical_formula_sum "Si O2"
_cell_formula_units_Z 34
_cell_length_a 26.033783
_cell_length_b 13.778543
_cell_length_c 4.973035
_cell_angle_alpha 90.000000
_cell_angle_beta 90.000000
_cell_angle_gamma 90.000000
_cell_volume 1783.865442
_symmetry_space_group_name_H-M "I 2 2 2"
_symmetry_group_IT_number 23
_symmetry_cell_setting 'orthorhombic'
loop_
_space_group_symop_operation_xyz
x,y,z
-x,-y,z
x,-y,-z
-x,y,-z
1/2+x,1/2+y,1/2+z
1/2-x,1/2-y,1/2+z
1/2+x,1/2-y,1/2-z
1/2-x,1/2+y,1/2-z
loop_
_atom_site_type_symbol
_atom_site_label
_atom_site_fract_x
_atom_site_fract_y
_atom_site_fract_z
Si Si1 0.815333 0.610030 0.985548
Si Si2 0.357675 0.300272 0.615037
Si Si3 0.901254 0.901616 0.611657
Si Si4 0.500000 0.500000 0.000000
Si Si5 0.752111 0.890480 0.990290
O O1 0.861922 0.685193 0.048639
O O2 0.796322 0.628094 0.683217
O O3 0.836734 0.500000 0.000000
O O4 0.767296 0.628713 0.187520
O O5 0.384504 0.371156 0.404865
O O6 0.296924 0.320575 0.594965
O O7 0.385357 0.317667 0.900885
O O8 0.962043 0.925472 0.656532
O O9 0.873371 0.000000 0.500000
O O10 0.773059 0.000000 0.000000
#
# Coordination Sequence:
#
# PCOD8163348 Si02
#       5
#     8   8   8   2   8
#     4  10  21  34  48  73 112 150 182 221 254 289
#     4  12  20  33  55  80 101 145 186 215 256 326
#     4  10  22  36  56  79 107 129 166 218 281 343
#     4   8  24  42  56  82 118 126 160 230 308 334
#     4  10  19  31  48  72 110 147 181 221 260 298
#
# _framework density 19.059735
#
# number of rings (size 3 to 8) (size 9 to 14) (size 15 to 20)
#    0.706    0.941    0.000    6.353    0.000    3.765 
#    0.000    0.000    0.000    0.000    0.000    4.941 
#    0.000    0.000    0.000    0.000    0.000    0.000 
#
# Total GULP energy -210624.970167 kJ/mol
# GULP energy per Si atom -12389.704127 kJ/mol
# Density = 1.901635 g / cm^3
# Si number density = 19.059735 Si / 1000 Ang^3
#
#
#
# Elastic Constant Matrix: (Units=GPa)
#
#
# Indices 1 2 3 4 5 6 
#
# 1 51.8351 29.3483 0.3735 0.0000 0.0000 0.0000
# 2 29.3483 94.5967 -2.6704 0.0000 0.0000 0.0000
# 3 0.3735 -2.6704 58.8573 0.0000 0.0000 0.0000
# 4 0.0000 0.0000 0.0000 25.4243 0.0000 0.0000
# 5 0.0000 0.0000 0.0000 0.0000 -1.2496 0.0000
# 6 0.0000 0.0000 0.0000 0.0000 0.0000 19.6002
#
#
#
# Elastic Compliance Matrix: (Units=1/GPa)
#
#
# Indices 1 2 3 4 5 6 
#
# 1 0.023416 -0.007278 -0.000479 0.000000 0.000000 0.000000
# 2 -0.007278 0.012847 0.000629 0.000000 0.000000 0.000000
# 3 -0.000479 0.000629 0.017022 0.000000 0.000000 0.000000
# 4 0.000000 0.000000 0.000000 0.039333 0.000000 0.000000
# 5 0.000000 0.000000 0.000000 0.000000 -0.800237 0.000000
# 6 0.000000 0.000000 0.000000 0.000000 0.000000 0.051020
#
#
# Mechanical properties :
#
#
# Convention : Reuss Voigt Hill
#
# Bulk Modulus (GPa) = 25.62200 28.82133 27.22166
# Shear Modulus (GPa) = -7.94491 20.63749 6.34629
#
# Velocity S-wave (km/s) = -2.04389 3.29413 1.82672
# Velocity P-wave (km/s) = 2.81109 5.44268 4.33157
#
# Compressibility (1/GPa) = 0.03902896
#
# Stress axis : x y z
#
# Youngs Moduli (GPa) = 42.70536 77.83902 58.74811
#
# Poissons Ratio (x) = 0.56654 0.02813
# Poissons Ratio (y) = 0.31082 -0.03696
# Poissons Ratio (z) = 0.02045 -0.04897
#
# Static dielectric constant tensor:
#      x y z
#    x 3.033210 0.000000 0.000000 
#    y 0.000000 3.773130 0.000000 
#    z 0.000000 0.000000 3.459660 
# 
# 
# High freq. dielectric constant tensor:
#      x y z
#    x 1.679480 0.000000 0.000000 
#    y 0.000000 1.750520 0.000000 
#    z 0.000000 0.000000 1.753100 
# 
# From -- ./inp_files/2463.got.cif
#   From: 2010.03.12/outbox.cif.g09.slc.cpg/sg23_2_cif.got.tgz:2463.got - 2010.04.14 02:50:06.
