data_PCOD8163558
_publ_section_title
;
Structure prediction by ZEFSAII (Michael W. Deem and Ramdas Pophale) SiO2 
 PCOD8163558
Probable space group: I 2 2 2
;
_chemical_formula_sum "Si O2"
_cell_formula_units_Z 58
_cell_length_a 25.706008
_cell_length_b 13.613560
_cell_length_c 8.708540
_cell_angle_alpha 90.000000
_cell_angle_beta 90.000000
_cell_angle_gamma 90.000000
_cell_volume 3047.556031
_symmetry_space_group_name_H-M "I 2 2 2"
_symmetry_group_IT_number 23
_symmetry_cell_setting 'orthorhombic'
loop_
_space_group_symop_operation_xyz
x,y,z
-x,-y,z
x,-y,-z
-x,y,-z
1/2+x,1/2+y,1/2+z
1/2-x,1/2-y,1/2+z
1/2+x,1/2-y,1/2-z
1/2-x,1/2+y,1/2-z
loop_
_atom_site_type_symbol
_atom_site_label
_atom_site_fract_x
_atom_site_fract_y
_atom_site_fract_z
Si Si1 0.635890 0.687921 0.465500
Si Si2 0.337050 0.550664 0.261798
Si Si3 0.582708 0.616667 0.190993
Si Si4 0.770409 0.474993 0.168238
Si Si5 0.718949 0.242897 0.754781
Si Si6 0.500000 0.500000 0.000000
Si Si7 0.168628 0.663977 0.796568
Si Si8 0.149686 0.776182 0.530157
O O1 0.641666 0.596118 0.579915
O O2 0.582954 0.669023 0.361993
O O3 0.684780 0.682922 0.348382
O O4 0.636795 0.792223 0.556759
O O5 0.375008 0.468367 0.200404
O O6 0.278327 0.507962 0.283561
O O7 0.332906 0.630854 0.129218
O O8 0.530595 0.569121 0.121404
O O9 0.599248 0.700621 0.071020
O O10 0.790500 0.364249 0.181116
O O11 0.819143 0.548694 0.196152
O O12 0.748888 0.500000 0.000000
O O13 0.778751 0.272804 0.768507
O O14 0.698728 0.243643 0.928666
O O15 0.134569 0.686042 0.644177
#
# Coordination Sequence:
#
# PCOD8163558 Si02
#       8
#     8   8   8   8   8   2   8   8
#     4  10  21  36  51  76 113 159 187 234 294 336
#     4  11  20  34  55  76 113 161 197 230 291 328
#     4  11  22  39  60  79 109 140 182 231 303 362
#     4  12  21  31  53  81 115 162 217 244 258 311
#     4  11  20  33  50  76 114 155 212 249 265 312
#     4  12  24  40  66  96  96 138 194 244 292 400
#     4  11  21  32  50  74 112 156 210 236 269 325
#     4  10  20  35  51  70 110 158 185 231 292 338
#
# _framework density 19.031642000000002
#
# number of rings (size 3 to 8) (size 9 to 14) (size 15 to 20)
#    0.000    1.103    5.517    4.552    0.000    0.552 
#    0.000    1.379    0.000    0.000    0.000    0.000 
#    0.000    8.828   12.138    0.000    0.000    0.000 
#
# Total GULP energy -359270.043929 kJ/mol
# GULP energy per Si atom -12388.622204 kJ/mol
# Density = 1.898833 g / cm^3
# Si number density = 19.031642 Si / 1000 Ang^3
#
#
#
# Elastic Constant Matrix: (Units=GPa)
#
#
# Indices 1 2 3 4 5 6 
#
# 1 54.7386 20.0779 30.8238 0.0000 0.0000 0.0000
# 2 20.0779 77.5599 24.5881 0.0000 0.0000 0.0000
# 3 30.8238 24.5881 119.7873 0.0000 0.0000 0.0000
# 4 0.0000 0.0000 0.0000 29.2174 0.0000 0.0000
# 5 0.0000 0.0000 0.0000 0.0000 20.7106 0.0000
# 6 0.0000 0.0000 0.0000 0.0000 0.0000 19.3910
#
#
#
# Elastic Compliance Matrix: (Units=1/GPa)
#
#
# Indices 1 2 3 4 5 6 
#
# 1 0.022625 -0.004290 -0.004941 0.000000 0.000000 0.000000
# 2 -0.004290 0.014604 -0.001894 0.000000 0.000000 0.000000
# 3 -0.004941 -0.001894 0.010008 0.000000 0.000000 0.000000
# 4 0.000000 0.000000 0.000000 0.034226 0.000000 0.000000
# 5 0.000000 0.000000 0.000000 0.000000 0.048284 0.000000
# 6 0.000000 0.000000 0.000000 0.000000 0.000000 0.051570
#
#
# Mechanical properties :
#
#
# Convention : Reuss Voigt Hill
#
# Bulk Modulus (GPa) = 40.02121 44.78504 42.40313
# Shear Modulus (GPa) = 23.59629 25.63687 24.61658
#
# Velocity S-wave (km/s) = 3.52496 3.67422 3.60037
# Velocity P-wave (km/s) = 6.13527 6.44848 6.29382
#
# Compressibility (1/GPa) = 0.02498675
#
# Stress axis : x y z
#
# Youngs Moduli (GPa) = 44.19938 68.47318 99.91698
#
# Poissons Ratio (x) = 0.29378 0.49371
# Poissons Ratio (y) = 0.18963 0.18922
# Poissons Ratio (z) = 0.21840 0.12967
#
# Static dielectric constant tensor:
#      x y z
#    x 2.993870 0.000000 0.000000 
#    y 0.000000 3.747350 0.000000 
#    z 0.000000 0.000000 4.080530 
# 
# 
# High freq. dielectric constant tensor:
#      x y z
#    x 1.662000 0.000000 0.000000 
#    y 0.000000 1.738610 0.000000 
#    z 0.000000 0.000000 1.769500 
# 
# From -- ./inp_files/10411.got.cif
#   From: 2010.03.12/outbox.cif.g09.slc.cpg/sg23_6_cif.got.tgz:10411.got - 2010.04.14 02:50:06.
