data_PCOD8163006
_publ_section_title
;
Structure prediction by ZEFSAII (Michael W. Deem and Ramdas Pophale) SiO2 
 PCOD8163006
Probable space group: F 2 2 2
;
_chemical_formula_sum "Si O2"
_cell_formula_units_Z 100
_cell_length_a 14.386243
_cell_length_b 10.981487
_cell_length_c 30.328577
_cell_angle_alpha 90.000000
_cell_angle_beta 90.000000
_cell_angle_gamma 90.000000
_cell_volume 4791.379578
_symmetry_space_group_name_H-M "F 2 2 2"
_symmetry_group_IT_number 22
_symmetry_cell_setting 'orthorhombic'
loop_
_space_group_symop_operation_xyz
x,y,z
-x,-y,z
x,-y,-z
-x,y,-z
x,1/2+y,1/2+z
-x,1/2-y,1/2+z
x,1/2-y,1/2-z
-x,1/2+y,1/2-z
1/2+x,y,1/2+z
1/2-x,-y,1/2+z
1/2+x,-y,1/2-z
1/2-x,y,1/2-z
1/2+x,1/2+y,z
1/2-x,1/2-y,z
1/2+x,1/2-y,-z
1/2-x,1/2+y,-z
loop_
_atom_site_type_symbol
_atom_site_label
_atom_site_fract_x
_atom_site_fract_y
_atom_site_fract_z
Si Si1 0.470597 0.137581 0.047017
Si Si2 0.750000 0.250000 0.750000
Si Si3 0.662030 0.566923 0.317069
Si Si4 0.190596 0.628533 0.621210
Si Si5 0.763393 0.118091 0.530506
Si Si6 0.017388 0.766967 0.638419
Si Si7 0.853246 0.293741 0.201867
O O1 0.360819 0.136480 0.054889
O O2 0.516366 0.208686 0.087973
O O3 0.500000 0.000000 0.046492
O O4 0.500000 0.198746 0.000000
O O5 0.683852 0.334456 0.720562
O O6 0.752588 0.535148 0.347865
O O7 0.572893 0.614295 0.344380
O O8 0.636540 0.438912 0.295620
O O9 0.250000 0.750000 0.628399
O O10 0.188552 0.593216 0.569303
O O11 0.085388 0.648627 0.638351
O O12 0.750000 0.250000 0.505699
O O13 0.761955 0.000000 0.500000
O O14 0.926063 0.737966 0.666763
O O15 0.882546 0.250000 0.250000
O O16 0.750000 0.250000 0.188999
#
# Coordination Sequence:
#
# PCOD8163006 Si02
#       7
#    16   4  16  16  16  16  16
#     4  11  20  34  63 103 128 174 238 275 312 397
#     4  12  20  32  70 108 118 160 224 270 344 396
#     4  11  21  40  68  95 128 162 223 275 324 406
#     4   9  18  38  65  97 129 164 218 279 330 376
#     4  11  20  38  65 102 142 175 225 289 341 392
#     4  11  21  42  69  96 129 172 227 283 324 393
#     4  11  26  45  61  94 139 178 211 277 348 410
#
# _framework density 20.870815
#
# number of rings (size 3 to 8) (size 9 to 14) (size 15 to 20)
#    0.000    1.280    8.800    2.400    1.120    0.000 
#    0.000    4.000    0.000    0.480    0.000    0.000 
#    0.000    0.000    0.000    0.000    0.000    0.000 
#
# Total GULP energy -309836.756044 kJ/mol
# GULP energy per Si atom -12393.470242 kJ/mol
# Density = 2.082331 g / cm^3
# Si number density = 20.870815 Si / 1000 Ang^3
#
#
#
# Elastic Constant Matrix: (Units=GPa)
#
#
# Indices 1 2 3 4 5 6 
#
# 1 116.8575 17.5235 61.3843 0.0000 0.0000 0.0000
# 2 17.5235 70.0389 37.6898 0.0000 0.0000 0.0000
# 3 61.3843 37.6898 156.6026 0.0000 0.0000 0.0000
# 4 0.0000 0.0000 0.0000 55.3340 0.0000 0.0000
# 5 0.0000 0.0000 0.0000 0.0000 40.4730 0.0000
# 6 0.0000 0.0000 0.0000 0.0000 0.0000 23.0420
#
#
#
# Elastic Compliance Matrix: (Units=1/GPa)
#
#
# Indices 1 2 3 4 5 6 
#
# 1 0.010791 -0.000487 -0.004113 0.000000 0.000000 0.000000
# 2 -0.000487 0.016424 -0.003762 0.000000 0.000000 0.000000
# 3 -0.004113 -0.003762 0.008903 0.000000 0.000000 0.000000
# 4 0.000000 0.000000 0.000000 0.018072 0.000000 0.000000
# 5 0.000000 0.000000 0.000000 0.000000 0.024708 0.000000
# 6 0.000000 0.000000 0.000000 0.000000 0.000000 0.043399
#
#
# Mechanical properties :
#
#
# Convention : Reuss Voigt Hill
#
# Bulk Modulus (GPa) = 51.55926 64.07713 57.81820
# Shear Modulus (GPa) = 34.36797 38.89655 36.63226
#
# Velocity S-wave (km/s) = 4.06236 4.32172 4.19404
# Velocity P-wave (km/s) = 6.83822 7.46133 7.15656
#
# Compressibility (1/GPa) = 0.01939516
#
# Stress axis : x y z
#
# Youngs Moduli (GPa) = 92.67234 60.88652 112.32151
#
# Poissons Ratio (x) = 0.02964 0.46193
# Poissons Ratio (y) = 0.04511 0.42255
# Poissons Ratio (z) = 0.38112 0.22906
#
# Static dielectric constant tensor:
#      x y z
#    x 3.555370 0.000000 0.000000 
#    y 0.000000 3.514600 0.000000 
#    z 0.000000 0.000000 4.266030 
# 
# 
# High freq. dielectric constant tensor:
#      x y z
#    x 1.808910 0.000000 0.000000 
#    y 0.000000 1.789240 0.000000 
#    z 0.000000 0.000000 1.826860 
# 
# From -- ./inp_files/56412.got.cif
#   From: 2010.03.12/outbox.cif.g09.slc.cpg/sg22_29_cif.got.tgz:56412.got - 2010.04.14 02:24:06.
