data_PCOD8163341
_publ_section_title
;
Structure prediction by ZEFSAII (Michael W. Deem and Ramdas Pophale) SiO2 
 PCOD8163341
Probable space group: I 2 2 2
;
_chemical_formula_sum "Si O2"
_cell_formula_units_Z 64
_cell_length_a 26.730490
_cell_length_b 22.214672
_cell_length_c 5.193340
_cell_angle_alpha 90.000000
_cell_angle_beta 90.000000
_cell_angle_gamma 90.000000
_cell_volume 3083.852384
_symmetry_space_group_name_H-M "I 2 2 2"
_symmetry_group_IT_number 23
_symmetry_cell_setting 'orthorhombic'
loop_
_space_group_symop_operation_xyz
x,y,z
-x,-y,z
x,-y,-z
-x,y,-z
1/2+x,1/2+y,1/2+z
1/2-x,1/2-y,1/2+z
1/2+x,1/2-y,1/2-z
1/2-x,1/2+y,1/2-z
loop_
_atom_site_type_symbol
_atom_site_label
_atom_site_fract_x
_atom_site_fract_y
_atom_site_fract_z
Si Si1 0.230710 0.363070 0.506176
Si Si2 0.384519 0.727129 0.981955
Si Si3 0.612463 0.859334 0.001502
Si Si4 0.390354 0.067326 0.504233
Si Si5 0.886702 0.932498 0.030241
Si Si6 0.670659 0.311588 0.482945
Si Si7 0.772338 0.565843 0.009207
Si Si8 0.558481 0.606957 0.031455
O O1 0.172340 0.346895 0.497505
O O2 0.268594 0.305996 0.506964
O O3 0.247430 0.401798 0.261591
O O4 0.245411 0.399213 0.760140
O O5 0.348613 0.720435 0.226977
O O6 0.411228 0.792666 0.992672
O O7 0.351744 0.723876 0.724007
O O8 0.428059 0.677702 0.983245
O O9 0.594221 0.896973 0.247896
O O10 0.592038 0.895570 0.754573
O O11 0.331543 0.060201 0.518978
O O12 0.414391 0.000000 0.500000
O O13 0.913448 0.928717 0.306290
O O14 0.843224 0.882621 0.010081
O O15 0.926991 0.920253 0.806642
O O16 0.864517 0.000000 0.000000
O O17 0.747789 0.500000 0.000000
O O18 0.500000 0.599050 0.000000
#
# Coordination Sequence:
#
# PCOD8163341 Si02
#       8
#     8   8   8   8   8   8   8   8
#     4  10  19  30  45  66  90 127 170 199 241 288
#     4  10  21  36  51  70  98 127 160 203 246 292
#     4  10  19  31  50  72  96 130 167 202 240 286
#     4   9  17  30  47  70  99 124 154 199 241 275
#     4  10  21  35  52  76 102 129 164 206 255 305
#     4  10  21  35  47  66  99 132 164 205 245 286
#     4   9  17  28  42  62  88 119 160 205 239 277
#     4  10  21  37  56  76 100 128 160 207 259 304
#
# _framework density 20.753261999999999
#
# number of rings (size 3 to 8) (size 9 to 14) (size 15 to 20)
#    0.000    2.250    0.000    3.000    0.000    6.500 
#    0.000    0.000    0.000    0.000    0.000    0.000 
#    0.000    3.000    0.000    0.000    0.000    0.000 
#
# Total GULP energy -396743.786930 kJ/mol
# GULP energy per Si atom -12398.243342 kJ/mol
# Density = 2.070603 g / cm^3
# Si number density = 20.753262 Si / 1000 Ang^3
#
#
#
# Elastic Constant Matrix: (Units=GPa)
#
#
# Indices 1 2 3 4 5 6 
#
# 1 13.0423 -12.2350 -5.4455 0.0000 0.0000 0.0000
# 2 -12.2350 136.6329 30.4132 0.0000 0.0000 0.0000
# 3 -5.4455 30.4132 138.4096 0.0000 0.0000 0.0000
# 4 0.0000 0.0000 0.0000 2.9594 0.0000 0.0000
# 5 0.0000 0.0000 0.0000 0.0000 6.6322 0.0000
# 6 0.0000 0.0000 0.0000 0.0000 0.0000 7.7752
#
#
#
# Elastic Compliance Matrix: (Units=1/GPa)
#
#
# Indices 1 2 3 4 5 6 
#
# 1 0.084101 0.007144 0.001739 0.000000 0.000000 0.000000
# 2 0.007144 0.008302 -0.001543 0.000000 0.000000 0.000000
# 3 0.001739 -0.001543 0.007632 0.000000 0.000000 0.000000
# 4 0.000000 0.000000 0.000000 0.337902 0.000000 0.000000
# 5 0.000000 0.000000 0.000000 0.000000 0.150779 0.000000
# 6 0.000000 0.000000 0.000000 0.000000 0.000000 0.128615
#
#
# Mechanical properties :
#
#
# Convention : Reuss Voigt Hill
#
# Bulk Modulus (GPa) = 8.71723 34.83890 21.77807
# Shear Modulus (GPa) = 6.74864 21.83018 14.28941
#
# Velocity S-wave (km/s) = 1.80524 3.24681 2.62685
# Velocity P-wave (km/s) = 2.92485 5.55691 4.44039
#
# Compressibility (1/GPa) = 0.11471530
#
# Stress axis : x y z
#
# Youngs Moduli (GPa) = 11.89044 120.45168 131.01963
#
# Poissons Ratio (x) = -0.86049 -0.22786
# Poissons Ratio (y) = -0.08494 0.20219
# Poissons Ratio (z) = -0.02068 0.18588
#
# Static dielectric constant tensor:
#      x y z
#    x 3.109890 0.000000 0.000000 
#    y 0.000000 3.864180 0.000000 
#    z 0.000000 0.000000 4.111330 
# 
# 
# High freq. dielectric constant tensor:
#      x y z
#    x 1.754900 0.000000 0.000000 
#    y 0.000000 1.818140 0.000000 
#    z 0.000000 0.000000 1.836570 
# 
# From -- ./inp_files/5077.got.cif
#   From: 2010.03.12/outbox.cif.g09.slc.cpg/sg23_3_cif.got.tgz:5077.got - 2010.04.14 02:50:06.
