data_PCOD8163120
_publ_section_title
;
Structure prediction by ZEFSAII (Michael W. Deem and Ramdas Pophale) SiO2 
 PCOD8163120
Probable space group: F 2 2 2
;
_chemical_formula_sum "Si O2"
_cell_formula_units_Z 80
_cell_length_a 8.497315
_cell_length_b 26.190625
_cell_length_c 15.543061
_cell_angle_alpha 90.000000
_cell_angle_beta 90.000000
_cell_angle_gamma 90.000000
_cell_volume 3459.108081
_symmetry_space_group_name_H-M "F 2 2 2"
_symmetry_group_IT_number 22
_symmetry_cell_setting 'orthorhombic'
loop_
_space_group_symop_operation_xyz
x,y,z
-x,-y,z
x,-y,-z
-x,y,-z
x,1/2+y,1/2+z
-x,1/2-y,1/2+z
x,1/2-y,1/2-z
-x,1/2+y,1/2-z
1/2+x,y,1/2+z
1/2-x,-y,1/2+z
1/2+x,-y,1/2-z
1/2-x,y,1/2-z
1/2+x,1/2+y,z
1/2-x,1/2-y,z
1/2+x,1/2-y,-z
1/2-x,1/2+y,-z
loop_
_atom_site_type_symbol
_atom_site_label
_atom_site_fract_x
_atom_site_fract_y
_atom_site_fract_z
Si Si1 0.630398 0.288959 0.073775
Si Si2 0.194172 0.109141 0.585051
Si Si3 0.316413 0.489981 0.843168
Si Si4 0.495834 0.750000 0.750000
Si Si5 0.250000 0.663911 0.750000
Si Si6 0.346290 0.093092 0.109262
O O1 0.750000 0.250000 0.025957
O O2 0.711577 0.340101 0.111391
O O3 0.584398 0.257580 0.159878
O O4 0.500000 0.301037 0.000000
O O5 0.163666 0.115359 0.484897
O O6 0.030108 0.099676 0.637263
O O7 0.302774 0.060108 0.598887
O O8 0.500000 0.500000 0.837679
O O9 0.250000 0.477960 0.750000
O O10 0.213040 0.535007 0.885541
O O11 0.400512 0.698376 0.736531
O O12 0.231614 0.627196 0.667876
#
# Coordination Sequence:
#
# PCOD8163120 Si02
#       6
#    16  16  16   8   8  16
#     4  12  29  48  77 110 151 199 259 320 387 457
#     4  11  27  46  76 106 154 194 253 308 384 445
#     4  12  27  45  74 111 152 196 247 305 376 459
#     4  11  27  46  74 112 152 198 250 322 380 456
#     4  11  24  44  78 106 150 190 257 302 386 444
#     4  11  24  47  75 110 148 199 244 314 373 454
#
# _framework density 23.12735
#
# number of rings (size 3 to 8) (size 9 to 14) (size 15 to 20)
#    0.000    0.600    1.000    5.100   14.000    4.000 
#    0.000    0.000    0.000    0.000    0.000    0.000 
#    0.000    0.000    0.000    0.000    0.000    0.000 
#
# Total GULP energy -247948.264056 kJ/mol
# GULP energy per Si atom -12397.413203 kJ/mol
# Density = 2.307471 g / cm^3
# Si number density = 23.127350 Si / 1000 Ang^3
#
#
#
# Elastic Constant Matrix: (Units=GPa)
#
#
# Indices 1 2 3 4 5 6 
#
# 1 151.6617 74.6694 37.4656 0.0000 0.0000 0.0000
# 2 74.6694 186.1257 33.9539 0.0000 0.0000 0.0000
# 3 37.4656 33.9539 100.5895 0.0000 0.0000 0.0000
# 4 0.0000 0.0000 0.0000 22.6439 0.0000 0.0000
# 5 0.0000 0.0000 0.0000 0.0000 36.7808 0.0000
# 6 0.0000 0.0000 0.0000 0.0000 0.0000 99.5487
#
#
#
# Elastic Compliance Matrix: (Units=1/GPa)
#
#
# Indices 1 2 3 4 5 6 
#
# 1 0.008644 -0.003070 -0.002184 0.000000 0.000000 0.000000
# 2 -0.003070 0.006815 -0.001157 0.000000 0.000000 0.000000
# 3 -0.002184 -0.001157 0.011145 0.000000 0.000000 0.000000
# 4 0.000000 0.000000 0.000000 0.044162 0.000000 0.000000
# 5 0.000000 0.000000 0.000000 0.000000 0.027188 0.000000
# 6 0.000000 0.000000 0.000000 0.000000 0.000000 0.010045
#
#
# Mechanical properties :
#
#
# Convention : Reuss Voigt Hill
#
# Bulk Modulus (GPa) = 72.54649 81.17275 76.85962
# Shear Modulus (GPa) = 39.86745 51.28055 45.57400
#
# Velocity S-wave (km/s) = 4.15640 4.71394 4.44392
# Velocity P-wave (km/s) = 7.38042 8.05001 7.72248
#
# Compressibility (1/GPa) = 0.01378426
#
# Stress axis : x y z
#
# Youngs Moduli (GPa) = 115.68310 146.72966 89.72402
#
# Poissons Ratio (x) = 0.45040 0.19592
# Poissons Ratio (y) = 0.35510 0.10383
# Poissons Ratio (z) = 0.25260 0.16979
#
# Static dielectric constant tensor:
#      x y z
#    x 4.585410 0.000000 0.000000 
#    y 0.000000 4.240310 0.000000 
#    z 0.000000 0.000000 3.974640 
# 
# 
# High freq. dielectric constant tensor:
#      x y z
#    x 1.922910 0.000000 0.000000 
#    y 0.000000 1.933120 0.000000 
#    z 0.000000 0.000000 1.914260 
# 
# From -- ./inp_files/35140.got.cif
#   From: 2010.03.12/outbox.cif.g09.slc.cpg/sg22_18_cif.got.tgz:35140.got - 2010.04.14 02:24:06.
