data_PCOD8163174
_publ_section_title
;
Structure prediction by ZEFSAII (Michael W. Deem and Ramdas Pophale) SiO2 
 PCOD8163174
Probable space group: F 2 2 2
;
_chemical_formula_sum "Si O2"
_cell_formula_units_Z 92
_cell_length_a 21.815142
_cell_length_b 8.434507
_cell_length_c 22.948637
_cell_angle_alpha 90.000000
_cell_angle_beta 90.000000
_cell_angle_gamma 90.000000
_cell_volume 4222.548471
_symmetry_space_group_name_H-M "F 2 2 2"
_symmetry_group_IT_number 22
_symmetry_cell_setting 'orthorhombic'
loop_
_space_group_symop_operation_xyz
x,y,z
-x,-y,z
x,-y,-z
-x,y,-z
x,1/2+y,1/2+z
-x,1/2-y,1/2+z
x,1/2-y,1/2-z
-x,1/2+y,1/2-z
1/2+x,y,1/2+z
1/2-x,-y,1/2+z
1/2+x,-y,1/2-z
1/2-x,y,1/2-z
1/2+x,1/2+y,z
1/2-x,1/2-y,z
1/2+x,1/2-y,-z
1/2-x,1/2+y,-z
loop_
_atom_site_type_symbol
_atom_site_label
_atom_site_fract_x
_atom_site_fract_y
_atom_site_fract_z
Si Si1 0.194464 0.339499 0.867867
Si Si2 0.611225 0.591705 0.210631
Si Si3 0.000000 0.500000 0.362733
Si Si4 0.218015 0.594484 0.615098
Si Si5 0.500000 0.000000 0.000000
Si Si6 0.921525 0.254243 0.437957
Si Si7 0.146371 0.250000 0.750000
Si Si8 0.650213 0.000000 0.500000
O O1 0.250000 0.250000 0.902027
O O2 0.219812 0.515137 0.859595
O O3 0.130549 0.329383 0.900137
O O4 0.188198 0.251357 0.806524
O O5 0.614849 0.750000 0.250000
O O6 0.547316 0.600636 0.176045
O O7 0.667979 0.604087 0.165899
O O8 0.609994 0.421224 0.245991
O O9 0.961929 0.376271 0.401158
O O10 0.250000 0.750000 0.591429
O O11 0.189221 0.509055 0.558930
O O12 0.460530 0.107787 0.958224
O O13 0.892890 0.345163 0.493587
#
# Coordination Sequence:
#
# PCOD8163174 Si02
#       8
#    16  16   8  16   4  16   8   8
#     4  12  23  45  73 108 144 186 244 301 380 459
#     4  12  28  48  75 113 150 205 259 318 383 467
#     4  12  24  55  73 104 152 201 261 314 386 454
#     4  12  28  45  72 113 147 196 249 312 383 472
#     4  12  32  44  82 112 138 204 260 318 364 476
#     4  12  27  49  75 105 148 196 252 312 385 452
#     4  12  23  46  76 108 148 202 241 310 398 438
#     4  12  24  48  72 102 151 197 234 308 396 440
#
# _framework density 21.787790000000001
#
# number of rings (size 3 to 8) (size 9 to 14) (size 15 to 20)
#    0.000    0.000    6.957    2.348    6.087    3.130 
#    0.000    0.000    0.000    0.000    0.000    0.000 
#    0.000    0.000    0.000    0.000    0.000    0.000 
#
# Total GULP energy -284967.827850 kJ/mol
# GULP energy per Si atom -12389.905559 kJ/mol
# Density = 2.173820 g / cm^3
# Si number density = 21.787790 Si / 1000 Ang^3
#
#
#
# Elastic Constant Matrix: (Units=GPa)
#
#
# Indices 1 2 3 4 5 6 
#
# 1 163.8417 66.4961 66.9450 0.0000 0.0000 0.0000
# 2 66.4961 148.0081 56.5533 0.0000 0.0000 0.0000
# 3 66.9450 56.5533 112.4838 0.0000 0.0000 0.0000
# 4 0.0000 0.0000 0.0000 34.1323 0.0000 0.0000
# 5 0.0000 0.0000 0.0000 0.0000 54.3060 0.0000
# 6 0.0000 0.0000 0.0000 0.0000 0.0000 41.1103
#
#
#
# Elastic Compliance Matrix: (Units=1/GPa)
#
#
# Indices 1 2 3 4 5 6 
#
# 1 0.008697 -0.002388 -0.003975 0.000000 0.000000 0.000000
# 2 -0.002388 0.009019 -0.003113 0.000000 0.000000 0.000000
# 3 -0.003975 -0.003113 0.012821 0.000000 0.000000 0.000000
# 4 0.000000 0.000000 0.000000 0.029298 0.000000 0.000000
# 5 0.000000 0.000000 0.000000 0.000000 0.018414 0.000000
# 6 0.000000 0.000000 0.000000 0.000000 0.000000 0.024325
#
#
# Mechanical properties :
#
#
# Convention : Reuss Voigt Hill
#
# Bulk Modulus (GPa) = 86.32701 89.36914 87.84808
# Shear Modulus (GPa) = 39.87610 41.53233 40.70421
#
# Velocity S-wave (km/s) = 4.28273 4.37076 4.32697
# Velocity P-wave (km/s) = 8.01021 8.15956 8.08523
#
# Compressibility (1/GPa) = 0.01158386
#
# Stress axis : x y z
#
# Youngs Moduli (GPa) = 114.98108 110.87848 77.99621
#
# Poissons Ratio (x) = 0.26483 0.31005
# Poissons Ratio (y) = 0.27462 0.24280
# Poissons Ratio (z) = 0.45708 0.34516
#
# Static dielectric constant tensor:
#      x y z
#    x 4.201540 0.000000 0.000000 
#    y 0.000000 4.435190 0.000000 
#    z 0.000000 0.000000 3.992570 
# 
# 
# High freq. dielectric constant tensor:
#      x y z
#    x 1.871350 0.000000 0.000000 
#    y 0.000000 1.874680 0.000000 
#    z 0.000000 0.000000 1.853180 
# 
# From -- ./inp_files/49876.got.cif
#   From: 2010.03.12/outbox.cif.g09.slc.cpg/sg22_25_cif.got.tgz:49876.got - 2010.04.14 02:24:06.
