data_PCOD8163089
_publ_section_title
;
Structure prediction by ZEFSAII (Michael W. Deem and Ramdas Pophale) SiO2 
 PCOD8163089
Probable space group: F 2 2 2
;
_chemical_formula_sum "Si O2"
_cell_formula_units_Z 88
_cell_length_a 9.966977
_cell_length_b 16.556755
_cell_length_c 25.066146
_cell_angle_alpha 90.000000
_cell_angle_beta 90.000000
_cell_angle_gamma 90.000000
_cell_volume 4136.435373
_symmetry_space_group_name_H-M "F 2 2 2"
_symmetry_group_IT_number 22
_symmetry_cell_setting 'orthorhombic'
loop_
_space_group_symop_operation_xyz
x,y,z
-x,-y,z
x,-y,-z
-x,y,-z
x,1/2+y,1/2+z
-x,1/2-y,1/2+z
x,1/2-y,1/2-z
-x,1/2+y,1/2-z
1/2+x,y,1/2+z
1/2-x,-y,1/2+z
1/2+x,-y,1/2-z
1/2-x,y,1/2-z
1/2+x,1/2+y,z
1/2-x,1/2-y,z
1/2+x,1/2-y,-z
1/2-x,1/2+y,-z
loop_
_atom_site_type_symbol
_atom_site_label
_atom_site_fract_x
_atom_site_fract_y
_atom_site_fract_z
Si Si1 0.055174 0.670864 0.774437
Si Si2 0.849621 0.172536 0.480744
Si Si3 0.217203 0.000000 0.000000
Si Si4 0.500000 0.500000 0.091098
Si Si5 0.750000 0.452924 0.750000
Si Si6 0.840973 0.674158 0.857281
Si Si7 0.110319 0.917299 0.186905
O O1 0.125184 0.750000 0.750000
O O2 0.166254 0.604707 0.789514
O O3 0.983674 0.688408 0.830229
O O4 0.949997 0.645824 0.728095
O O5 0.750000 0.250000 0.493847
O O6 0.800537 0.084533 0.502395
O O7 0.863313 0.157946 0.418597
O O8 0.000000 0.193927 0.500000
O O9 0.129414 0.992988 0.946333
O O10 0.522515 0.424482 0.132087
O O11 0.866562 0.497326 0.716704
O O12 0.750000 0.750000 0.846684
O O13 0.764185 0.601090 0.828758
#
# Coordination Sequence:
#
# PCOD8163089 Si02
#       7
#    16  16   8   8   8  16  16
#     4  12  24  41  64  97 137 177 223 270 338 408
#     4  11  27  49  74 107 142 182 237 297 355 416
#     4  11  25  46  76 100 144 178 240 294 354 420
#     4  11  24  42  72 102 130 188 235 284 352 416
#     4  12  25  38  59  98 140 174 218 286 321 400
#     4  11  23  42  70  97 130 181 224 275 337 411
#     4  12  22  40  66  95 132 178 230 268 334 411
#
# _framework density 21.274356999999998
#
# number of rings (size 3 to 8) (size 9 to 14) (size 15 to 20)
#    0.000    0.545    7.273    0.545    2.545    1.455 
#    3.273    0.000    0.000    0.000    0.000    0.000 
#    0.000    0.000    0.000    0.000    0.000    0.000 
#
# Total GULP energy -272542.448861 kJ/mol
# GULP energy per Si atom -12388.293130 kJ/mol
# Density = 2.122594 g / cm^3
# Si number density = 21.274357 Si / 1000 Ang^3
#
#
#
# Elastic Constant Matrix: (Units=GPa)
#
#
# Indices 1 2 3 4 5 6 
#
# 1 85.5744 26.0002 30.2620 0.0000 0.0000 0.0000
# 2 26.0002 111.0465 28.2027 0.0000 0.0000 0.0000
# 3 30.2620 28.2027 84.0564 0.0000 0.0000 0.0000
# 4 0.0000 0.0000 0.0000 29.8176 0.0000 0.0000
# 5 0.0000 0.0000 0.0000 0.0000 71.7100 0.0000
# 6 0.0000 0.0000 0.0000 0.0000 0.0000 36.5877
#
#
#
# Elastic Compliance Matrix: (Units=1/GPa)
#
#
# Indices 1 2 3 4 5 6 
#
# 1 0.013849 -0.002160 -0.004261 0.000000 0.000000 0.000000
# 2 -0.002160 0.010181 -0.002638 0.000000 0.000000 0.000000
# 3 -0.004261 -0.002638 0.014316 0.000000 0.000000 0.000000
# 4 0.000000 0.000000 0.000000 0.033537 0.000000 0.000000
# 5 0.000000 0.000000 0.000000 0.000000 0.013945 0.000000
# 6 0.000000 0.000000 0.000000 0.000000 0.000000 0.027332
#
#
# Mechanical properties :
#
#
# Convention : Reuss Voigt Hill
#
# Bulk Modulus (GPa) = 49.43931 49.95635 49.69783
# Shear Modulus (GPa) = 36.22622 40.70387 38.46505
#
# Velocity S-wave (km/s) = 4.13099 4.37885 4.25673
# Velocity P-wave (km/s) = 6.78549 7.00705 6.89716
#
# Compressibility (1/GPa) = 0.02022682
#
# Stress axis : x y z
#
# Youngs Moduli (GPa) = 72.20745 98.22130 69.85188
#
# Poissons Ratio (x) = 0.21220 0.29764
# Poissons Ratio (y) = 0.15600 0.18428
# Poissons Ratio (z) = 0.30768 0.25913
#
# Static dielectric constant tensor:
#      x y z
#    x 3.486000 0.000000 0.000000 
#    y 0.000000 4.018730 0.000000 
#    z 0.000000 0.000000 4.139600 
# 
# 
# High freq. dielectric constant tensor:
#      x y z
#    x 1.841800 0.000000 0.000000 
#    y 0.000000 1.843130 0.000000 
#    z 0.000000 0.000000 1.831950 
# 
# From -- ./inp_files/48061.got.cif
#   From: 2010.03.12/outbox.cif.g09.slc.cpg/sg22_25_cif.got.tgz:48061.got - 2010.04.14 02:24:06.
