data_PCOD8163096
_publ_section_title
;
Structure prediction by ZEFSAII (Michael W. Deem and Ramdas Pophale) SiO2 
 PCOD8163096
Probable space group: F 2 2 2
;
_chemical_formula_sum "Si O2"
_cell_formula_units_Z 64
_cell_length_a 15.672073
_cell_length_b 17.144256
_cell_length_c 10.865104
_cell_angle_alpha 90.000000
_cell_angle_beta 90.000000
_cell_angle_gamma 90.000000
_cell_volume 2919.301676
_symmetry_space_group_name_H-M "F 2 2 2"
_symmetry_group_IT_number 22
_symmetry_cell_setting 'orthorhombic'
loop_
_space_group_symop_operation_xyz
x,y,z
-x,-y,z
x,-y,-z
-x,y,-z
x,1/2+y,1/2+z
-x,1/2-y,1/2+z
x,1/2-y,1/2-z
-x,1/2+y,1/2-z
1/2+x,y,1/2+z
1/2-x,-y,1/2+z
1/2+x,-y,1/2-z
1/2-x,y,1/2-z
1/2+x,1/2+y,z
1/2-x,1/2-y,z
1/2+x,1/2-y,-z
1/2-x,1/2+y,-z
loop_
_atom_site_type_symbol
_atom_site_label
_atom_site_fract_x
_atom_site_fract_y
_atom_site_fract_z
Si Si1 0.150624 0.262001 0.887994
Si Si2 0.097903 0.888432 0.987334
Si Si3 0.409880 0.430800 0.569715
Si Si4 0.344115 0.996245 0.305258
O O1 0.111263 0.250000 0.750000
O O2 0.250000 0.250000 0.881153
O O3 0.108897 0.203614 0.987746
O O4 0.135879 0.348202 0.939189
O O5 0.156317 0.934824 0.083711
O O6 0.128715 0.916801 0.851482
O O7 0.000000 0.912941 0.000000
O O8 0.356828 0.500000 0.500000
O O9 0.500000 0.423293 0.500000
O O10 0.414027 0.461349 0.709930
O O11 0.250000 0.998217 0.250000
#
# Coordination Sequence:
#
# PCOD8163096 Si02
#       4
#    16  16  16  16
#     4  11  23  45  72 104 138 186 238 287 355 426
#     4  11  25  44  73 103 144 186 238 297 359 418
#     4  11  26  42  70 103 141 182 235 290 350 420
#     4  11  24  43  71 105 139 187 237 291 350 425
#
# _framework density 21.923051999999998
#
# number of rings (size 3 to 8) (size 9 to 14) (size 15 to 20)
#    0.000    1.000    2.500    3.750   14.000    0.000 
#    0.000    1.250    0.000    0.000    0.000    0.000 
#    0.000    0.000    0.000    0.000    0.000    0.000 
#
# Total GULP energy -198285.834277 kJ/mol
# GULP energy per Si atom -12392.864642 kJ/mol
# Density = 2.187315 g / cm^3
# Si number density = 21.923052 Si / 1000 Ang^3
#
#
#
# Elastic Constant Matrix: (Units=GPa)
#
#
# Indices 1 2 3 4 5 6 
#
# 1 119.0997 46.0417 55.9843 0.0000 0.0000 0.0000
# 2 46.0417 222.6323 74.5459 0.0000 0.0000 0.0000
# 3 55.9843 74.5459 105.9428 0.0000 0.0000 0.0000
# 4 0.0000 0.0000 0.0000 45.9448 0.0000 0.0000
# 5 0.0000 0.0000 0.0000 0.0000 27.2522 0.0000
# 6 0.0000 0.0000 0.0000 0.0000 0.0000 24.9460
#
#
#
# Elastic Compliance Matrix: (Units=1/GPa)
#
#
# Indices 1 2 3 4 5 6 
#
# 1 0.011204 -0.000438 -0.005613 0.000000 0.000000 0.000000
# 2 -0.000438 0.005893 -0.003915 0.000000 0.000000 0.000000
# 3 -0.005613 -0.003915 0.015160 0.000000 0.000000 0.000000
# 4 0.000000 0.000000 0.000000 0.021765 0.000000 0.000000
# 5 0.000000 0.000000 0.000000 0.000000 0.036694 0.000000
# 6 0.000000 0.000000 0.000000 0.000000 0.000000 0.040087
#
#
# Mechanical properties :
#
#
# Convention : Reuss Voigt Hill
#
# Bulk Modulus (GPa) = 81.13139 88.97984 85.05562
# Shear Modulus (GPa) = 32.29072 37.70211 34.99642
#
# Velocity S-wave (km/s) = 3.84202 4.15148 3.99974
# Velocity P-wave (km/s) = 7.53453 7.97842 7.75965
#
# Compressibility (1/GPa) = 0.01232569
#
# Stress axis : x y z
#
# Youngs Moduli (GPa) = 89.25560 169.68473 65.96301
#
# Poissons Ratio (x) = 0.07427 0.37022
# Poissons Ratio (y) = 0.03907 0.25828
# Poissons Ratio (z) = 0.50095 0.66439
#
# Static dielectric constant tensor:
#      x y z
#    x 3.711340 0.000000 0.000000 
#    y 0.000000 5.474190 0.000000 
#    z 0.000000 0.000000 4.458810 
# 
# 
# High freq. dielectric constant tensor:
#      x y z
#    x 1.855940 0.000000 0.000000 
#    y 0.000000 1.870900 0.000000 
#    z 0.000000 0.000000 1.860670 
# 
# From -- ./inp_files/19355.got.cif
#   From: 2010.03.12/outbox.cif.g09.slc.cpg/sg22_10_cif.got.tgz:19355.got - 2010.04.14 02:24:06.
