data_PCOD8163139
_publ_section_title
;
Structure prediction by ZEFSAII (Michael W. Deem and Ramdas Pophale) SiO2 
 PCOD8163139
Probable space group: F 2 2 2
;
_chemical_formula_sum "Si O2"
_cell_formula_units_Z 64
_cell_length_a 12.193787
_cell_length_b 8.774288
_cell_length_c 25.334851
_cell_angle_alpha 90.000000
_cell_angle_beta 90.000000
_cell_angle_gamma 90.000000
_cell_volume 2710.621285
_symmetry_space_group_name_H-M "F 2 2 2"
_symmetry_group_IT_number 22
_symmetry_cell_setting 'orthorhombic'
loop_
_space_group_symop_operation_xyz
x,y,z
-x,-y,z
x,-y,-z
-x,y,-z
x,1/2+y,1/2+z
-x,1/2-y,1/2+z
x,1/2-y,1/2-z
-x,1/2+y,1/2-z
1/2+x,y,1/2+z
1/2-x,-y,1/2+z
1/2+x,-y,1/2-z
1/2-x,y,1/2-z
1/2+x,1/2+y,z
1/2-x,1/2-y,z
1/2+x,1/2-y,-z
1/2-x,1/2+y,-z
loop_
_atom_site_type_symbol
_atom_site_label
_atom_site_fract_x
_atom_site_fract_y
_atom_site_fract_z
Si Si1 0.214073 0.003912 0.182054
Si Si2 0.579756 0.707057 0.667512
Si Si3 0.601707 0.750000 0.250000
Si Si4 0.250000 0.750000 0.598213
Si Si5 0.524144 0.673628 0.444215
O O1 0.336780 0.930522 0.181497
O O2 0.128423 0.868216 0.183832
O O3 0.180699 0.111212 0.231604
O O4 0.202273 0.109576 0.131461
O O5 0.469473 0.684057 0.701395
O O6 0.549512 0.724027 0.605773
O O7 0.347133 0.692129 0.562398
O O8 0.500000 0.500000 0.452910
O O9 0.500000 0.760764 0.500000
#
# Coordination Sequence:
#
# PCOD8163139 Si02
#       5
#    16  16   8   8  16
#     4  11  27  46  77 110 151 204 257 319 390 468
#     4  11  26  51  72 113 157 199 262 324 388 469
#     4  12  26  46  76 112 160 206 255 319 396 466
#     4  12  24  45  78 114 144 203 262 306 392 476
#     4  11  25  49  77 113 158 204 258 330 392 457
#
# _framework density 23.610821999999999
#
# number of rings (size 3 to 8) (size 9 to 14) (size 15 to 20)
#    0.000    0.750    5.000    0.750    0.000   12.500 
#    0.000    1.250    0.000    0.000    0.000    0.000 
#    0.000    0.000    0.000    0.000    0.000    0.000 
#
# Total GULP energy -198228.672451 kJ/mol
# GULP energy per Si atom -12389.292028 kJ/mol
# Density = 2.355708 g / cm^3
# Si number density = 23.610822 Si / 1000 Ang^3
#
#
#
# Elastic Constant Matrix: (Units=GPa)
#
#
# Indices 1 2 3 4 5 6 
#
# 1 168.3974 61.1302 86.0810 0.0000 0.0000 0.0000
# 2 61.1302 114.4417 45.2947 0.0000 0.0000 0.0000
# 3 86.0810 45.2947 192.7488 0.0000 0.0000 0.0000
# 4 0.0000 0.0000 0.0000 37.7127 0.0000 0.0000
# 5 0.0000 0.0000 0.0000 0.0000 59.7471 0.0000
# 6 0.0000 0.0000 0.0000 0.0000 0.0000 43.6786
#
#
#
# Elastic Compliance Matrix: (Units=1/GPa)
#
#
# Indices 1 2 3 4 5 6 
#
# 1 0.008785 -0.003462 -0.003110 0.000000 0.000000 0.000000
# 2 -0.003462 0.010998 -0.001039 0.000000 0.000000 0.000000
# 3 -0.003110 -0.001039 0.006821 0.000000 0.000000 0.000000
# 4 0.000000 0.000000 0.000000 0.026516 0.000000 0.000000
# 5 0.000000 0.000000 0.000000 0.000000 0.016737 0.000000
# 6 0.000000 0.000000 0.000000 0.000000 0.000000 0.022895
#
#
# Mechanical properties :
#
#
# Convention : Reuss Voigt Hill
#
# Bulk Modulus (GPa) = 87.84289 95.62218 91.73254
# Shear Modulus (GPa) = 44.73635 47.09981 45.91808
#
# Velocity S-wave (km/s) = 4.35758 4.47121 4.41476
# Velocity P-wave (km/s) = 7.91222 8.20017 8.05749
#
# Compressibility (1/GPa) = 0.01138396
#
# Stress axis : x y z
#
# Youngs Moduli (GPa) = 113.83642 90.92432 146.60734
#
# Poissons Ratio (x) = 0.31474 0.45591
# Poissons Ratio (y) = 0.39405 0.15226
# Poissons Ratio (z) = 0.35400 0.09443
#
# Static dielectric constant tensor:
#      x y z
#    x 4.630540 0.000000 0.000000 
#    y 0.000000 4.240390 0.000000 
#    z 0.000000 0.000000 6.238620 
# 
# 
# High freq. dielectric constant tensor:
#      x y z
#    x 1.963110 0.000000 0.000000 
#    y 0.000000 1.941550 0.000000 
#    z 0.000000 0.000000 1.941940 
# 
# From -- ./inp_files/55361.got.cif
#   From: 2010.03.12/outbox.cif.g09.slc.cpg/sg22_28_cif.got.tgz:55361.got - 2010.04.14 02:24:06.
