data_PCOD8163113
_publ_section_title
;
Structure prediction by ZEFSAII (Michael W. Deem and Ramdas Pophale) SiO2 
 PCOD8163113
Probable space group: F 2 2 2
;
_chemical_formula_sum "Si O2"
_cell_formula_units_Z 112
_cell_length_a 14.105930
_cell_length_b 24.670245
_cell_length_c 14.061336
_cell_angle_alpha 90.000000
_cell_angle_beta 90.000000
_cell_angle_gamma 90.000000
_cell_volume 4893.299215
_symmetry_space_group_name_H-M "F 2 2 2"
_symmetry_group_IT_number 22
_symmetry_cell_setting 'orthorhombic'
loop_
_space_group_symop_operation_xyz
x,y,z
-x,-y,z
x,-y,-z
-x,y,-z
x,1/2+y,1/2+z
-x,1/2-y,1/2+z
x,1/2-y,1/2-z
-x,1/2+y,1/2-z
1/2+x,y,1/2+z
1/2-x,-y,1/2+z
1/2+x,-y,1/2-z
1/2-x,y,1/2-z
1/2+x,1/2+y,z
1/2-x,1/2-y,z
1/2+x,1/2-y,-z
1/2-x,1/2+y,-z
loop_
_atom_site_type_symbol
_atom_site_label
_atom_site_fract_x
_atom_site_fract_y
_atom_site_fract_z
Si Si1 0.475668 0.062655 0.893701
Si Si2 0.356150 0.731982 0.511998
Si Si3 0.980056 0.395781 0.701090
Si Si4 0.012674 0.273208 0.647803
Si Si5 0.211552 0.445410 0.354400
Si Si6 0.683977 0.932802 0.661614
Si Si7 0.805200 0.388710 0.023697
O O1 0.531861 0.099667 0.816455
O O2 0.363133 0.073925 0.898807
O O3 0.500000 0.000000 0.874617
O O4 0.500000 0.082784 0.000000
O O5 0.250000 0.750000 0.535156
O O6 0.419666 0.743789 0.604955
O O7 0.398061 0.764218 0.421795
O O8 0.356036 0.668536 0.488748
O O9 0.993458 0.336104 0.661488
O O10 0.892697 0.419086 0.641219
O O11 0.073436 0.432013 0.686333
O O12 0.039236 0.250000 0.750000
O O13 0.250000 0.436566 0.250000
O O14 0.204862 0.508023 0.381768
O O15 0.288691 0.416662 0.422071
O O16 0.750000 0.918601 0.750000
O O17 0.703926 0.887848 0.578663
#
# Coordination Sequence:
#
# PCOD8163113 Si02
#       7
#    16  16  16  16  16  16  16
#     4  11  25  39  72 105 144 187 242 293 359 430
#     4  11  26  51  72  99 145 187 244 308 361 427
#     4  12  24  47  72 100 148 200 234 303 373 424
#     4  11  27  46  73 109 138 184 253 310 363 433
#     4  11  26  42  69 108 150 188 236 291 363 446
#     4  11  24  43  70 107 150 186 239 291 359 448
#     4  12  25  44  73 103 141 192 239 298 359 433
#
# _framework density 22.888442999999999
#
# number of rings (size 3 to 8) (size 9 to 14) (size 15 to 20)
#    0.000    0.714    1.429    5.143   12.000    2.286 
#    0.000    1.429    0.000    0.000    0.000    0.000 
#    0.000    0.000    0.000    0.000    0.000    0.000 
#
# Total GULP energy -347113.052021 kJ/mol
# GULP energy per Si atom -12396.894715 kJ/mol
# Density = 2.283635 g / cm^3
# Si number density = 22.888443 Si / 1000 Ang^3
#
#
#
# Elastic Constant Matrix: (Units=GPa)
#
#
# Indices 1 2 3 4 5 6 
#
# 1 84.6300 34.9316 3.5300 0.0000 0.0000 0.0000
# 2 34.9316 143.7329 43.8718 0.0000 0.0000 0.0000
# 3 3.5300 43.8718 92.2165 0.0000 0.0000 0.0000
# 4 0.0000 0.0000 0.0000 40.3525 0.0000 0.0000
# 5 0.0000 0.0000 0.0000 0.0000 41.9811 0.0000
# 6 0.0000 0.0000 0.0000 0.0000 0.0000 38.4926
#
#
#
# Elastic Compliance Matrix: (Units=1/GPa)
#
#
# Indices 1 2 3 4 5 6 
#
# 1 0.013246 -0.003585 0.001199 0.000000 0.000000 0.000000
# 2 -0.003585 0.009110 -0.004197 0.000000 0.000000 0.000000
# 3 0.001199 -0.004197 0.012795 0.000000 0.000000 0.000000
# 4 0.000000 0.000000 0.000000 0.024782 0.000000 0.000000
# 5 0.000000 0.000000 0.000000 0.000000 0.023820 0.000000
# 6 0.000000 0.000000 0.000000 0.000000 0.000000 0.025979
#
#
# Mechanical properties :
#
#
# Convention : Reuss Voigt Hill
#
# Bulk Modulus (GPa) = 45.48773 53.91622 49.70198
# Shear Modulus (GPa) = 38.39503 40.04831 39.22167
#
# Velocity S-wave (km/s) = 4.10016 4.18750 4.14406
# Velocity P-wave (km/s) = 6.50629 6.85474 6.68279
#
# Compressibility (1/GPa) = 0.02198395
#
# Stress axis : x y z
#
# Youngs Moduli (GPa) = 75.49516 109.77491 78.15734
#
# Poissons Ratio (x) = 0.39354 -0.09367
# Poissons Ratio (y) = 0.27065 0.32800
# Poissons Ratio (z) = -0.09048 0.46068
#
# Static dielectric constant tensor:
#      x y z
#    x 4.894060 0.000000 0.000000 
#    y 0.000000 4.007120 0.000000 
#    z 0.000000 0.000000 4.297770 
# 
# 
# High freq. dielectric constant tensor:
#      x y z
#    x 1.921260 0.000000 0.000000 
#    y 0.000000 1.897970 0.000000 
#    z 0.000000 0.000000 1.915570 
# 
# From -- ./inp_files/29601.got.cif
#   From: 2010.03.12/outbox.cif.g09.slc.cpg/sg22_15_cif.got.tgz:29601.got - 2010.04.14 02:24:06.
