data_PCOD8163659
_publ_section_title
;
Structure prediction by ZEFSAII (Michael W. Deem and Ramdas Pophale) SiO2 
 PCOD8163659
Probable space group: I 2 2 2
;
_chemical_formula_sum "Si O2"
_cell_formula_units_Z 56
_cell_length_a 19.132905
_cell_length_b 8.007548
_cell_length_c 18.857981
_cell_angle_alpha 90.000000
_cell_angle_beta 90.000000
_cell_angle_gamma 90.000000
_cell_volume 2889.187050
_symmetry_space_group_name_H-M "I 2 2 2"
_symmetry_group_IT_number 23
_symmetry_cell_setting 'orthorhombic'
loop_
_space_group_symop_operation_xyz
x,y,z
-x,-y,z
x,-y,-z
-x,y,-z
1/2+x,1/2+y,1/2+z
1/2-x,1/2-y,1/2+z
1/2+x,1/2-y,1/2-z
1/2-x,1/2+y,1/2-z
loop_
_atom_site_type_symbol
_atom_site_label
_atom_site_fract_x
_atom_site_fract_y
_atom_site_fract_z
Si Si1 0.321465 0.682676 0.518385
Si Si2 0.737942 0.824820 0.623035
Si Si3 0.855015 0.186345 0.756553
Si Si4 0.649163 0.698970 0.232477
Si Si5 0.036489 0.682022 0.065234
Si Si6 0.256137 0.201758 0.351836
Si Si7 0.493560 0.802581 0.721797
O O1 0.352571 0.500000 0.500000
O O2 0.275370 0.748565 0.453636
O O3 0.381490 0.813463 0.544223
O O4 0.269871 0.664197 0.585932
O O5 0.672033 0.776203 0.672416
O O6 0.810263 0.760505 0.659114
O O7 0.746801 0.021330 0.612022
O O8 0.815000 0.259583 0.687646
O O9 0.937003 0.217481 0.748729
O O10 0.838832 0.990362 0.757952
O O11 0.681583 0.811781 0.294504
O O12 0.567780 0.745176 0.224918
O O13 0.000000 0.500000 0.067442
O O14 0.023533 0.765214 0.142067
O O15 0.000000 0.782622 0.000000
O O16 0.500000 0.000000 0.722602
#
# Coordination Sequence:
#
# PCOD8163659 Si02
#       7
#     8   8   8   8   8   8   8
#     4  12  24  38  58  86 118 152 196 243 285 340
#     4  10  22  36  60  81 112 156 195 238 294 339
#     4  10  21  36  58  85 111 151 195 244 287 336
#     4  10  20  38  56  84 113 149 199 245 280 343
#     4  10  23  36  53  79 119 161 190 219 280 351
#     4  10  21  38  58  81 114 150 198 239 287 347
#     4  11  21  35  58  83 115 156 190 235 293 342
#
# _framework density 19.382615000000001
#
# number of rings (size 3 to 8) (size 9 to 14) (size 15 to 20)
#    0.000    1.571    1.429    3.429    6.000    3.714 
#    2.571    0.000    0.000    0.857    0.000    6.000 
#    0.000    0.000    0.000    0.000    0.000    0.000 
#
# Total GULP energy -347079.465451 kJ/mol
# GULP energy per Si atom -12395.695195 kJ/mol
# Density = 1.933850 g / cm^3
# Si number density = 19.382615 Si / 1000 Ang^3
#
#
#
# Elastic Constant Matrix: (Units=GPa)
#
#
# Indices 1 2 3 4 5 6 
#
# 1 152.5181 16.2314 68.3905 0.0000 0.0000 0.0000
# 2 16.2314 42.2337 20.2593 0.0000 0.0000 0.0000
# 3 68.3905 20.2593 108.2532 0.0000 0.0000 0.0000
# 4 0.0000 0.0000 0.0000 23.9729 0.0000 0.0000
# 5 0.0000 0.0000 0.0000 0.0000 26.4454 0.0000
# 6 0.0000 0.0000 0.0000 0.0000 0.0000 26.7119
#
#
#
# Elastic Compliance Matrix: (Units=1/GPa)
#
#
# Indices 1 2 3 4 5 6 
#
# 1 0.009174 -0.000819 -0.005642 0.000000 0.000000 0.000000
# 2 -0.000819 0.026086 -0.004364 0.000000 0.000000 0.000000
# 3 -0.005642 -0.004364 0.013619 0.000000 0.000000 0.000000
# 4 0.000000 0.000000 0.000000 0.041714 0.000000 0.000000
# 5 0.000000 0.000000 0.000000 0.000000 0.037814 0.000000
# 6 0.000000 0.000000 0.000000 0.000000 0.000000 0.037436
#
#
# Mechanical properties :
#
#
# Convention : Reuss Voigt Hill
#
# Bulk Modulus (GPa) = 36.72806 56.97415 46.85111
# Shear Modulus (GPa) = 25.43610 28.63428 27.03519
#
# Velocity S-wave (km/s) = 3.62652 3.84776 3.73878
# Velocity P-wave (km/s) = 6.04364 7.01417 6.54692
#
# Compressibility (1/GPa) = 0.02722714
#
# Stress axis : x y z
#
# Youngs Moduli (GPa) = 109.00497 38.33444 73.42626
#
# Poissons Ratio (x) = 0.03140 0.41430
# Poissons Ratio (y) = 0.08929 0.32047
# Poissons Ratio (z) = 0.61505 0.16731
#
# Static dielectric constant tensor:
#      x y z
#    x 3.628270 0.000000 0.000000 
#    y 0.000000 3.449230 0.000000 
#    z 0.000000 0.000000 3.691130 
# 
# 
# High freq. dielectric constant tensor:
#      x y z
#    x 1.746970 0.000000 0.000000 
#    y 0.000000 1.751540 0.000000 
#    z 0.000000 0.000000 1.742090 
# 
# From -- ./inp_files/25224.got.cif
#   From: 2010.03.12/outbox.cif.g09.slc.cpg/sg23_13_cif.got.tgz:25224.got - 2010.04.14 02:50:06.
