data_PCOD8163293
_publ_section_title
;
Structure prediction by ZEFSAII (Michael W. Deem and Ramdas Pophale) SiO2 
 PCOD8163293
Probable space group: I 2 2 2
;
_chemical_formula_sum "Si O2"
_cell_formula_units_Z 64
_cell_length_a 9.255980
_cell_length_b 23.118885
_cell_length_c 18.987948
_cell_angle_alpha 90.000000
_cell_angle_beta 90.000000
_cell_angle_gamma 90.000000
_cell_volume 4063.191824
_symmetry_space_group_name_H-M "I 2 2 2"
_symmetry_group_IT_number 23
_symmetry_cell_setting 'orthorhombic'
loop_
_space_group_symop_operation_xyz
x,y,z
-x,-y,z
x,-y,-z
-x,y,-z
1/2+x,1/2+y,1/2+z
1/2-x,1/2-y,1/2+z
1/2+x,1/2-y,1/2-z
1/2-x,1/2+y,1/2-z
loop_
_atom_site_type_symbol
_atom_site_label
_atom_site_fract_x
_atom_site_fract_y
_atom_site_fract_z
Si Si1 0.332805 0.835830 0.736180
Si Si2 0.666667 0.276736 0.650815
Si Si3 0.827357 0.116282 0.499999
Si Si4 0.333805 0.933465 0.631309
Si Si5 0.666660 0.276736 0.349184
Si Si6 0.168229 0.262975 0.000001
Si Si7 0.167187 0.335830 0.236182
Si Si8 0.166194 0.433464 0.131311
O O1 0.286072 0.785231 0.682307
O O2 0.290722 0.896430 0.700098
O O3 0.250986 0.828551 0.810462
O O4 0.499996 0.832681 0.754185
O O5 0.500004 0.288594 0.664417
O O6 0.703529 0.276172 0.567964
O O7 0.750996 0.328551 0.689535
O O8 0.771450 0.081991 0.567764
O O9 0.767829 0.180995 0.500000
O O10 0.771453 0.081993 0.432231
O O11 0.000000 0.117364 0.500000
O O12 0.500000 0.919817 0.609336
O O13 0.313644 0.000000 0.651986
O O14 0.703526 0.276172 0.432033
O O15 0.713921 0.214769 0.317690
O O16 0.000000 0.282825 0.000000
O O17 0.209272 0.396431 0.200102
#
# Coordination Sequence:
#
# PCOD8163293 Si02
#       8
#     8   8   8   8   8   8   8   8
#     4   9  17  30  47  68  92 118 152 193 232 272
#     4   9  17  29  48  68  91 120 151 190 233 275
#     4  12  23  31  44  69 100 127 157 197 236 266
#     4  10  20  35  52  66  88 129 169 193 222 273
#     4   9  17  29  48  68  91 120 151 190 233 275
#     4  10  18  33  51  68  93 128 164 188 222 283
#     4   9  17  30  47  68  92 118 152 193 232 272
#     4  10  20  35  52  66  88 129 169 193 222 273
#
# _framework density 15.751163
#
# number of rings (size 3 to 8) (size 9 to 14) (size 15 to 20)
#    0.000    2.250    2.500    1.500    0.000    4.000 
#    0.000    0.000    0.000    0.000    0.000    0.875 
#    0.000    7.000    0.000    0.000    0.000    0.000 
#
# Total GULP energy -396807.894808 kJ/mol
# GULP energy per Si atom -12400.246713 kJ/mol
# Density = 1.571531 g / cm^3
# Si number density = 15.751163 Si / 1000 Ang^3
#
#
#
# Elastic Constant Matrix: (Units=GPa)
#
#
# Indices 1 2 3 4 5 6 
#
# 1 70.2755 48.7803 55.7468 0.0000 0.0000 0.0000
# 2 48.7803 90.0285 66.4978 0.0000 0.0000 0.0000
# 3 55.7468 66.4978 130.5949 -0.0001 0.0000 0.0000
# 4 0.0000 0.0000 -0.0001 -12.8463 0.0000 0.0000
# 5 0.0000 0.0000 0.0000 0.0000 27.2919 0.0000
# 6 0.0000 0.0000 0.0000 0.0000 0.0000 18.6807
#
#
#
# Elastic Compliance Matrix: (Units=1/GPa)
#
#
# Indices 1 2 3 4 5 6 
#
# 1 0.025593 -0.009293 -0.006193 0.000000 0.000000 0.000000
# 2 -0.009293 0.021178 -0.006817 0.000000 0.000000 0.000000
# 3 -0.006193 -0.006817 0.013772 0.000000 0.000000 0.000000
# 4 0.000000 0.000000 0.000000 -0.077844 0.000000 0.000000
# 5 0.000000 0.000000 0.000000 0.000000 0.036641 0.000000
# 6 0.000000 0.000000 0.000000 0.000000 0.000000 0.053531
#
#
# Mechanical properties :
#
#
# Convention : Reuss Voigt Hill
#
# Bulk Modulus (GPa) = 62.74501 70.32765 66.53633
# Shear Modulus (GPa) = 40.72065 14.61686 27.66875
#
# Velocity S-wave (km/s) = 5.09005 3.04959 4.19575
# Velocity P-wave (km/s) = 8.62939 7.55951 8.11211
#
# Compressibility (1/GPa) = 0.01593752
#
# Stress axis : x y z
#
# Youngs Moduli (GPa) = 39.07384 47.21949 72.61160
#
# Poissons Ratio (x) = 0.43879 0.44968
# Poissons Ratio (y) = 0.36310 0.49498
# Poissons Ratio (z) = 0.24198 0.32189
#
# Static dielectric constant tensor:
#      x y z
#    x 2.985390 0.000000 0.000000 
#    y 0.000000 2.863180 0.000000 
#    z 0.000000 0.000000 3.075790 
# 
# 
# High freq. dielectric constant tensor:
#      x y z
#    x 1.601820 0.000000 0.000000 
#    y 0.000000 1.577240 0.000000 
#    z 0.000000 0.000000 1.599540 
# 
# From -- ./inp_files/12776.got.cif
#   From: 2010.03.12/outbox.cif.g09.slc.cpg/sg23_7_cif.got.tgz:12776.got - 2010.04.14 02:50:06.
