data_PCOD8163474
_publ_section_title
;
Structure prediction by ZEFSAII (Michael W. Deem and Ramdas Pophale) SiO2 
 PCOD8163474
Probable space group: I 2 2 2
;
_chemical_formula_sum "Si O2"
_cell_formula_units_Z 42
_cell_length_a 10.232660
_cell_length_b 23.753433
_cell_length_c 8.812815
_cell_angle_alpha 90.000000
_cell_angle_beta 90.000000
_cell_angle_gamma 90.000000
_cell_volume 2142.049897
_symmetry_space_group_name_H-M "I 2 2 2"
_symmetry_group_IT_number 23
_symmetry_cell_setting 'orthorhombic'
loop_
_space_group_symop_operation_xyz
x,y,z
-x,-y,z
x,-y,-z
-x,y,-z
1/2+x,1/2+y,1/2+z
1/2-x,1/2-y,1/2+z
1/2+x,1/2-y,1/2-z
1/2-x,1/2+y,1/2-z
loop_
_atom_site_type_symbol
_atom_site_label
_atom_site_fract_x
_atom_site_fract_y
_atom_site_fract_z
Si Si1 0.000000 0.000000 0.000000
Si Si2 0.846752 0.497397 0.834747
Si Si3 0.185838 0.914624 0.148718
Si Si4 0.127812 0.793399 0.103513
Si Si5 0.382716 0.783833 0.895957
Si Si6 0.117781 0.591059 0.397709
O O1 0.079424 0.962350 0.118901
O O2 0.794254 0.438905 0.764758
O O3 0.821048 0.551590 0.731778
O O4 0.000000 0.500000 0.854761
O O5 0.778951 0.500000 0.000000
O O6 0.125578 0.854043 0.192476
O O7 0.254038 0.899303 0.993401
O O8 0.131234 0.749311 0.239947
O O9 0.251204 0.781867 0.995047
O O10 0.000000 0.786651 0.000000
O O11 0.424553 0.847138 0.841212
O O12 0.500000 0.759397 0.000000
O O13 0.000000 0.563294 0.500000
#
# Coordination Sequence:
#
# PCOD8163474 Si02
#       6
#     2   8   8   8   8   8
#     4  12  20  36  60  84 104 164 214 234 274 368
#     4  11  22  36  58  94 125 147 190 260 324 354
#     4  11  22  37  64  86 119 162 210 243 297 379
#     4  11  23  42  64  94 125 167 212 260 316 371
#     4  10  23  41  64  92 124 167 214 262 311 368
#     4  10  19  37  62  85 115 158 202 244 298 368
#
# _framework density 19.607386000000002
#
# number of rings (size 3 to 8) (size 9 to 14) (size 15 to 20)
#    0.000    1.333    4.762    1.143    0.000    1.524 
#    3.429    2.381    0.000    0.000    0.000    0.000 
#    0.000    0.000    0.000    0.000    0.000    0.000 
#
# Total GULP energy -260166.211335 kJ/mol
# GULP energy per Si atom -12388.867206 kJ/mol
# Density = 1.956276 g / cm^3
# Si number density = 19.607386 Si / 1000 Ang^3
#
#
#
# Elastic Constant Matrix: (Units=GPa)
#
#
# Indices 1 2 3 4 5 6 
#
# 1 102.6790 31.5551 34.6925 0.0000 -0.0002 0.0001
# 2 31.5551 126.2371 73.3816 0.0000 -0.0001 0.0001
# 3 34.6925 73.3816 126.2936 -0.0004 -0.0016 0.0006
# 4 0.0000 0.0000 -0.0004 25.4424 0.0002 0.0002
# 5 -0.0002 -0.0001 -0.0016 0.0002 -12.5438 0.0001
# 6 0.0001 0.0001 0.0006 0.0002 0.0001 24.9729
#
#
#
# Elastic Compliance Matrix: (Units=1/GPa)
#
#
# Indices 1 2 3 4 5 6 
#
# 1 0.010918 -0.001488 -0.002134 0.000000 0.000000 0.000000
# 2 -0.001488 0.012165 -0.006659 0.000000 0.000001 0.000000
# 3 -0.002134 -0.006659 0.012374 0.000000 -0.000002 0.000000
# 4 0.000000 0.000000 0.000000 0.039304 0.000001 0.000000
# 5 0.000000 0.000001 -0.000002 0.000001 -0.079721 0.000000
# 6 0.000000 0.000000 0.000000 0.000000 0.000000 0.040043
#
#
# Mechanical properties :
#
#
# Convention : Reuss Voigt Hill
#
# Bulk Modulus (GPa) = 67.14983 70.49647 68.82315
# Shear Modulus (GPa) = 82.49316 21.94634 52.21975
#
# Velocity S-wave (km/s) = 6.49337 3.34921 5.16629
# Velocity P-wave (km/s) = 9.51525 7.14061 8.41214
#
# Compressibility (1/GPa) = 0.01489207
#
# Stress axis : x y z
#
# Youngs Moduli (GPa) = 91.59523 82.20490 80.81694
#
# Poissons Ratio (x) = 0.12236 0.17248
# Poissons Ratio (y) = 0.13633 0.53819
# Poissons Ratio (z) = 0.19548 0.54743
#
# Static dielectric constant tensor:
#      x y z
#    x 3.659400 0.000000 0.000000 
#    y 0.000000 4.560190 0.000020 
#    z 0.000000 0.000020 3.990360 
# 
# 
# High freq. dielectric constant tensor:
#      x y z
#    x 1.769560 0.000000 0.000000 
#    y 0.000000 1.771150 0.000000 
#    z 0.000000 0.000000 1.748470 
# 
# From -- ./inp_files/8600.got.cif
#   From: 2010.03.12/outbox.cif.g09.slc.cpg/sg23_5_cif.got.tgz:8600.got - 2010.04.14 02:50:06.
