data_PCOD8163316
_publ_section_title
;
Structure prediction by ZEFSAII (Michael W. Deem and Ramdas Pophale) SiO2 
 PCOD8163316
Probable space group: I 2 2 2
;
_chemical_formula_sum "Si O2"
_cell_formula_units_Z 56
_cell_length_a 11.580233
_cell_length_b 14.020141
_cell_length_c 15.195930
_cell_angle_alpha 90.000000
_cell_angle_beta 90.000000
_cell_angle_gamma 90.000000
_cell_volume 2467.158001
_symmetry_space_group_name_H-M "I 2 2 2"
_symmetry_group_IT_number 23
_symmetry_cell_setting 'orthorhombic'
loop_
_space_group_symop_operation_xyz
x,y,z
-x,-y,z
x,-y,-z
-x,y,-z
1/2+x,1/2+y,1/2+z
1/2-x,1/2-y,1/2+z
1/2+x,1/2-y,1/2-z
1/2-x,1/2+y,1/2-z
loop_
_atom_site_type_symbol
_atom_site_label
_atom_site_fract_x
_atom_site_fract_y
_atom_site_fract_z
Si Si1 0.815552 0.168110 0.312848
Si Si2 0.136294 0.017202 0.399593
Si Si3 0.715647 0.419363 0.572579
Si Si4 0.007783 0.108037 0.811858
Si Si5 0.880663 0.458283 0.322369
Si Si6 0.380521 0.194341 0.037421
Si Si7 0.291410 0.333153 0.766847
O O1 0.940046 0.171471 0.266612
O O2 0.819897 0.227943 0.401891
O O3 0.727356 0.217780 0.241126
O O4 0.789773 0.057857 0.339038
O O5 0.162916 0.124284 0.360645
O O6 0.178012 0.000000 0.500000
O O7 0.000000 0.000000 0.394441
O O8 0.695041 0.500000 0.500000
O O9 0.587258 0.383966 0.601169
O O10 0.783966 0.461006 0.657401
O O11 0.787372 0.328853 0.538154
O O12 0.875647 0.143619 0.817548
O O13 0.000000 0.000000 0.778746
O O14 0.912063 0.403931 0.413021
O O15 0.831710 0.382622 0.252372
O O16 0.000000 0.500000 0.283841
O O17 0.500000 0.237568 0.000000
#
# Coordination Sequence:
#
# PCOD8163316 Si02
#       7
#     8   8   8   8   8   8   8
#     4  11  24  40  64 100 132 179 229 281 338 413
#     4  11  23  45  75 103 137 179 230 297 351 405
#     4  10  21  36  63  95 132 175 220 290 353 413
#     4  12  22  44  68  94 134 180 230 285 351 422
#     4  10  18  35  60  94 132 177 218 277 350 416
#     4  10  21  34  56  97 137 169 221 283 344 405
#     4  11  23  44  67 103 134 179 240 281 351 421
#
# _framework density 22.698180000000001
#
# number of rings (size 3 to 8) (size 9 to 14) (size 15 to 20)
#    0.000    1.286    5.714    0.000    2.000    2.571 
#    5.143    0.000    0.000    0.429    0.000    0.000 
#    0.000    0.000    0.000    0.000    0.000    0.000 
#
# Total GULP energy -346914.818249 kJ/mol
# GULP energy per Si atom -12389.814937 kJ/mol
# Density = 2.264652 g / cm^3
# Si number density = 22.698180 Si / 1000 Ang^3
#
#
#
# Elastic Constant Matrix: (Units=GPa)
#
#
# Indices 1 2 3 4 5 6 
#
# 1 92.8542 17.9701 23.3682 0.0000 0.0000 0.0000
# 2 17.9701 88.8845 22.1527 0.0000 0.0000 0.0000
# 3 23.3682 22.1527 92.9137 0.0000 0.0000 0.0000
# 4 0.0000 0.0000 0.0000 25.4553 0.0000 0.0000
# 5 0.0000 0.0000 0.0000 0.0000 37.3850 0.0000
# 6 0.0000 0.0000 0.0000 0.0000 0.0000 31.6881
#
#
#
# Elastic Compliance Matrix: (Units=1/GPa)
#
#
# Indices 1 2 3 4 5 6 
#
# 1 0.011746 -0.001742 -0.002539 0.000000 0.000000 0.000000
# 2 -0.001742 0.012220 -0.002475 0.000000 0.000000 0.000000
# 3 -0.002539 -0.002475 0.011991 0.000000 0.000000 0.000000
# 4 0.000000 0.000000 0.000000 0.039285 0.000000 0.000000
# 5 0.000000 0.000000 0.000000 0.000000 0.026749 0.000000
# 6 0.000000 0.000000 0.000000 0.000000 0.000000 0.031558
#
#
# Mechanical properties :
#
#
# Convention : Reuss Voigt Hill
#
# Bulk Modulus (GPa) = 44.55417 44.62605 44.59011
# Shear Modulus (GPa) = 32.35386 32.98310 32.66848
#
# Velocity S-wave (km/s) = 3.77954 3.81611 3.79787
# Velocity P-wave (km/s) = 6.22239 6.25462 6.23852
#
# Compressibility (1/GPa) = 0.02244459
#
# Stress axis : x y z
#
# Youngs Moduli (GPa) = 85.13820 81.83542 83.39332
#
# Poissons Ratio (x) = 0.14255 0.21172
# Poissons Ratio (y) = 0.14830 0.20643
# Poissons Ratio (z) = 0.21615 0.20257
#
# Static dielectric constant tensor:
#      x y z
#    x 4.059480 0.000000 0.000000 
#    y 0.000000 4.187800 0.000000 
#    z 0.000000 0.000000 3.976140 
# 
# 
# High freq. dielectric constant tensor:
#      x y z
#    x 1.878420 0.000000 0.000000 
#    y 0.000000 1.890440 0.000000 
#    z 0.000000 0.000000 1.883180 
# 
# From -- ./inp_files/20902.got.cif
#   From: 2010.03.12/outbox.cif.g09.slc.cpg/sg23_11_cif.got.tgz:20902.got - 2010.04.14 02:50:06.
