data_PCOD8163218
_publ_section_title
;
Structure prediction by ZEFSAII (Michael W. Deem and Ramdas Pophale) SiO2 
 PCOD8163218
Probable space group: I 2 2 2
;
_chemical_formula_sum "Si O2"
_cell_formula_units_Z 52
_cell_length_a 8.522976
_cell_length_b 13.425677
_cell_length_c 20.216635
_cell_angle_alpha 90.000000
_cell_angle_beta 90.000000
_cell_angle_gamma 90.000000
_cell_volume 2313.323290
_symmetry_space_group_name_H-M "I 2 2 2"
_symmetry_group_IT_number 23
_symmetry_cell_setting 'orthorhombic'
loop_
_space_group_symop_operation_xyz
x,y,z
-x,-y,z
x,-y,-z
-x,y,-z
1/2+x,1/2+y,1/2+z
1/2-x,1/2-y,1/2+z
1/2+x,1/2-y,1/2-z
1/2-x,1/2+y,1/2-z
loop_
_atom_site_type_symbol
_atom_site_label
_atom_site_fract_x
_atom_site_fract_y
_atom_site_fract_z
Si Si1 0.225220 0.702502 0.331244
Si Si2 0.230125 0.875802 0.419941
Si Si3 0.270630 0.307793 0.409870
Si Si4 0.316273 0.986827 0.922989
Si Si5 0.500000 0.500000 0.139382
Si Si6 0.089023 0.796923 0.700315
Si Si7 0.500000 0.254408 0.000000
Si Si8 0.500000 0.197579 0.500000
O O1 0.289231 0.807805 0.359519
O O2 0.233775 0.618078 0.389042
O O3 0.344675 0.680819 0.272609
O O4 0.047991 0.713313 0.302446
O O5 0.164636 0.986198 0.402222
O O6 0.069463 0.821961 0.442492
O O7 0.364814 0.877964 0.475059
O O8 0.280342 0.423076 0.386476
O O9 0.228682 0.236538 0.348642
O O10 0.431942 0.267911 0.441989
O O11 0.134635 0.312482 0.466934
O O12 0.500000 0.000000 0.910869
O O13 0.268990 0.000000 0.000000
O O14 0.513886 0.402099 0.182357
#
# Coordination Sequence:
#
# PCOD8163218 Si02
#       8
#     8   8   8   8   4   8   4   4
#     4  11  24  44  68  99 134 188 231 289 354 430
#     4  10  21  42  68  95 130 177 226 283 346 415
#     4  11  21  41  66 101 137 182 224 295 357 428
#     4  11  20  38  72 105 132 173 239 295 354 431
#     4  10  22  47  70  92 127 188 238 270 338 420
#     4  11  25  45  69  94 135 185 240 285 344 431
#     4  10  16  39  71  88 126 176 230 274 350 412
#     4  10  24  40  68 106 148 174 216 300 380 412
#
# _framework density 22.478486
#
# number of rings (size 3 to 8) (size 9 to 14) (size 15 to 20)
#    0.000    1.385    4.615    2.769    2.154    2.769 
#    0.000    4.231    0.000    0.000    0.000    0.000 
#    0.000    0.000    0.000    0.000    0.000    0.000 
#
# Total GULP energy -322222.530957 kJ/mol
# GULP energy per Si atom -12393.174268 kJ/mol
# Density = 2.242732 g / cm^3
# Si number density = 22.478486 Si / 1000 Ang^3
#
#
#
# Elastic Constant Matrix: (Units=GPa)
#
#
# Indices 1 2 3 4 5 6 
#
# 1 90.3643 33.8313 31.8417 0.0000 0.0000 0.0000
# 2 33.8313 107.0608 44.3818 0.0000 0.0000 0.0000
# 3 31.8417 44.3818 101.4220 0.0000 0.0000 0.0000
# 4 0.0000 0.0000 0.0000 11.2346 0.0000 0.0000
# 5 0.0000 0.0000 0.0000 0.0000 35.2096 0.0000
# 6 0.0000 0.0000 0.0000 0.0000 0.0000 19.5967
#
#
#
# Elastic Compliance Matrix: (Units=1/GPa)
#
#
# Indices 1 2 3 4 5 6 
#
# 1 0.013184 -0.002993 -0.002829 0.000000 0.000000 0.000000
# 2 -0.002993 0.012090 -0.004351 0.000000 0.000000 0.000000
# 3 -0.002829 -0.004351 0.012652 0.000000 0.000000 0.000000
# 4 0.000000 0.000000 0.000000 0.089011 0.000000 0.000000
# 5 0.000000 0.000000 0.000000 0.000000 0.028401 0.000000
# 6 0.000000 0.000000 0.000000 0.000000 0.000000 0.051029
#
#
# Mechanical properties :
#
#
# Convention : Reuss Voigt Hill
#
# Bulk Modulus (GPa) = 56.88546 57.66184 57.27365
# Shear Modulus (GPa) = 21.49861 25.79434 23.64647
#
# Velocity S-wave (km/s) = 3.09594 3.39117 3.24691
# Velocity P-wave (km/s) = 6.17587 6.40633 6.29216
#
# Compressibility (1/GPa) = 0.01757918
#
# Stress axis : x y z
#
# Youngs Moduli (GPa) = 75.85004 82.71328 79.03935
#
# Poissons Ratio (x) = 0.24758 0.22362
# Poissons Ratio (y) = 0.22704 0.34388
# Poissons Ratio (z) = 0.21460 0.35987
#
# Static dielectric constant tensor:
#      x y z
#    x 3.966420 0.000000 0.000000 
#    y 0.000000 4.197530 0.000000 
#    z 0.000000 0.000000 4.069540 
# 
# 
# High freq. dielectric constant tensor:
#      x y z
#    x 1.876110 0.000000 0.000000 
#    y 0.000000 1.883380 0.000000 
#    z 0.000000 0.000000 1.875420 
# 
# From -- ./inp_files/26234.got.cif
#   From: 2010.03.12/outbox.cif.g09.slc.cpg/sg23_14_cif.got.tgz:26234.got - 2010.04.14 02:50:06.
