data_PCOD8163852
_publ_section_title
;
Structure prediction by ZEFSAII (Michael W. Deem and Ramdas Pophale) SiO2 
 PCOD8163852
Probable space group: I 2 2 2
;
_chemical_formula_sum "Si O2"
_cell_formula_units_Z 48
_cell_length_a 10.578350
_cell_length_b 27.968667
_cell_length_c 8.719687
_cell_angle_alpha 90.000000
_cell_angle_beta 90.000000
_cell_angle_gamma 90.000000
_cell_volume 2579.827075
_symmetry_space_group_name_H-M "I 2 2 2"
_symmetry_group_IT_number 23
_symmetry_cell_setting 'orthorhombic'
loop_
_space_group_symop_operation_xyz
x,y,z
-x,-y,z
x,-y,-z
-x,y,-z
1/2+x,1/2+y,1/2+z
1/2-x,1/2-y,1/2+z
1/2+x,1/2-y,1/2-z
1/2-x,1/2+y,1/2-z
loop_
_atom_site_type_symbol
_atom_site_label
_atom_site_fract_x
_atom_site_fract_y
_atom_site_fract_z
Si Si1 0.117074 0.375349 0.396431
Si Si2 0.478644 0.944380 0.675434
Si Si3 0.250260 0.203883 0.361416
Si Si4 0.255190 0.889464 0.803765
Si Si5 0.481259 0.647118 0.167677
Si Si6 0.735410 0.303570 0.786245
O O1 0.082175 0.417873 0.280453
O O2 0.229483 0.391424 0.512078
O O3 0.151155 0.327696 0.305049
O O4 0.000000 0.360732 0.500000
O O5 0.500000 0.929203 0.500000
O O6 0.334500 0.932297 0.725508
O O7 0.500000 0.000000 0.700897
O O8 0.314578 0.159576 0.269680
O O9 0.297991 0.252691 0.287026
O O10 0.284257 0.202855 0.540896
O O11 0.097871 0.196927 0.348500
O O12 0.103534 0.890853 0.766531
O O13 0.616234 0.660691 0.238173
O O14 0.500000 0.623725 0.000000
#
# Coordination Sequence:
#
# PCOD8163852 Si02
#       6
#     8   8   8   8   8   8
#     4  10  22  35  56  85 120 154 193 254 302 361
#     4  10  21  38  64  92 117 151 194 248 311 367
#     4   9  20  33  52  82 112 156 200 251 284 363
#     4   9  19  38  53  86 118 148 195 243 304 359
#     4   8  19  35  55  78 110 154 190 244 297 356
#     4  11  19  36  57  79 117 160 204 245 306 350
#
# _framework density 18.605898
#
# number of rings (size 3 to 8) (size 9 to 14) (size 15 to 20)
#    1.000    1.500    0.000    2.000    0.000    8.333 
#    0.000    3.333    0.000    1.000    0.000    4.667 
#    0.000    0.000    0.000    0.000    0.000    0.000 
#
# Total GULP energy -297378.479241 kJ/mol
# GULP energy per Si atom -12390.769968 kJ/mol
# Density = 1.856355 g / cm^3
# Si number density = 18.605898 Si / 1000 Ang^3
#
#
#
# Elastic Constant Matrix: (Units=GPa)
#
#
# Indices 1 2 3 4 5 6 
#
# 1 55.8886 29.0624 35.1040 -0.0003 -0.0001 -0.0002
# 2 29.0624 87.2543 47.8636 0.0023 -0.0006 0.0000
# 3 35.1040 47.8636 138.6546 0.0022 0.0005 -0.0001
# 4 -0.0003 0.0023 0.0022 28.0639 -0.0008 0.0000
# 5 -0.0001 -0.0006 0.0005 -0.0008 32.8451 0.0001
# 6 -0.0002 0.0000 -0.0001 0.0000 0.0001 29.4113
#
#
#
# Elastic Compliance Matrix: (Units=1/GPa)
#
#
# Indices 1 2 3 4 5 6 
#
# 1 0.023287 -0.005579 -0.003970 0.000001 0.000000 0.000000
# 2 -0.005579 0.015474 -0.003929 -0.000001 0.000000 0.000000
# 3 -0.003970 -0.003929 0.009574 0.000000 0.000000 0.000000
# 4 0.000001 -0.000001 0.000000 0.035633 0.000001 0.000000
# 5 0.000000 0.000000 0.000000 0.000001 0.030446 0.000000
# 6 0.000000 0.000000 0.000000 0.000000 0.000000 0.034001
#
#
# Mechanical properties :
#
#
# Convention : Reuss Voigt Hill
#
# Bulk Modulus (GPa) = 46.77444 56.20640 51.49042
# Shear Modulus (GPa) = 27.39765 29.38188 28.38976
#
# Velocity S-wave (km/s) = 3.84151 3.97819 3.91045
# Velocity P-wave (km/s) = 6.69854 7.16769 6.93708
#
# Compressibility (1/GPa) = 0.02137920
#
# Stress axis : x y z
#
# Youngs Moduli (GPa) = 42.94186 64.62310 104.45288
#
# Poissons Ratio (x) = 0.36051 0.41468
# Poissons Ratio (y) = 0.23956 0.41043
# Poissons Ratio (z) = 0.17048 0.25393
#
# Static dielectric constant tensor:
#      x y z
#    x 3.327850 0.000000 0.000000 
#    y 0.000000 3.020640 0.000000 
#    z 0.000000 0.000000 3.675470 
# 
# 
# High freq. dielectric constant tensor:
#      x y z
#    x 1.709500 0.000000 0.000000 
#    y 0.000000 1.685290 0.000000 
#    z 0.000000 0.000000 1.740400 
# 
# From -- ./inp_files/8757.got.cif
#   From: 2010.03.12/outbox.cif.g09.slc.cpg/sg23_5_cif.got.tgz:8757.got - 2010.04.14 02:50:06.
