data_PCOD8163948
_publ_section_title
;
Structure prediction by ZEFSAII (Michael W. Deem and Ramdas Pophale) SiO2 
 PCOD8163948
Probable space group: I 2 2 2
;
_chemical_formula_sum "Si O2"
_cell_formula_units_Z 40
_cell_length_a 16.388616
_cell_length_b 11.562700
_cell_length_c 8.961224
_cell_angle_alpha 90.000000
_cell_angle_beta 90.000000
_cell_angle_gamma 90.000000
_cell_volume 1698.121930
_symmetry_space_group_name_H-M "I 2 2 2"
_symmetry_group_IT_number 23
_symmetry_cell_setting 'orthorhombic'
loop_
_space_group_symop_operation_xyz
x,y,z
-x,-y,z
x,-y,-z
-x,y,-z
1/2+x,1/2+y,1/2+z
1/2-x,1/2-y,1/2+z
1/2+x,1/2-y,1/2-z
1/2-x,1/2+y,1/2-z
loop_
_atom_site_type_symbol
_atom_site_label
_atom_site_fract_x
_atom_site_fract_y
_atom_site_fract_z
Si Si1 0.963569 0.625760 0.649964
Si Si2 0.486077 0.335386 0.328564
Si Si3 0.300957 0.787664 0.956108
Si Si4 0.701091 0.385628 0.711672
Si Si5 0.131383 0.080851 0.362513
O O1 0.993922 0.699256 0.791019
O O2 0.865559 0.626437 0.625025
O O3 0.000000 0.500000 0.675243
O O4 0.000000 0.682841 0.500000
O O5 0.500000 0.358839 0.500000
O O6 0.395889 0.368485 0.278057
O O7 0.552692 0.410458 0.242724
O O8 0.258583 0.705657 0.830160
O O9 0.235292 0.866932 0.044750
O O10 0.341906 0.706694 0.081748
O O11 0.707637 0.519182 0.770335
O O12 0.106778 0.000000 0.500000
#
# Coordination Sequence:
#
# PCOD8163948 Si02
#       5
#     8   8   8   8   8
#     4  10  21  42  69  97 127 183 230 272 336 406
#     4  11  24  42  69 103 135 168 232 286 338 406
#     4  10  22  44  65  96 136 173 227 276 336 413
#     4  10  24  41  67  95 135 180 214 280 345 398
#     4  10  22  44  70  96 132 183 224 277 344 406
#
# _framework density 23.555434000000002
#
# number of rings (size 3 to 8) (size 9 to 14) (size 15 to 20)
#    0.000    1.800    2.000    0.600    2.800    6.000 
#   14.400    0.000    8.800    0.000    0.000    0.000 
#    0.000    0.000    0.000    0.000    0.000    0.000 
#
# Total GULP energy -247887.043281 kJ/mol
# GULP energy per Si atom -12394.352164 kJ/mol
# Density = 2.350182 g / cm^3
# Si number density = 23.555434 Si / 1000 Ang^3
#
#
#
# Elastic Constant Matrix: (Units=GPa)
#
#
# Indices 1 2 3 4 5 6 
#
# 1 69.8150 30.7889 25.1339 0.0000 0.0000 0.0000
# 2 30.7889 109.8756 18.3378 0.0000 0.0000 0.0000
# 3 25.1339 18.3378 107.1858 0.0000 0.0000 0.0000
# 4 0.0000 0.0000 0.0000 22.2049 0.0000 0.0000
# 5 0.0000 0.0000 0.0000 0.0000 37.0924 0.0000
# 6 0.0000 0.0000 0.0000 0.0000 0.0000 20.0474
#
#
#
# Elastic Compliance Matrix: (Units=1/GPa)
#
#
# Indices 1 2 3 4 5 6 
#
# 1 0.017437 -0.004327 -0.003349 0.000000 0.000000 0.000000
# 2 -0.004327 0.010443 -0.000772 0.000000 0.000000 0.000000
# 3 -0.003349 -0.000772 0.010247 0.000000 0.000000 0.000000
# 4 0.000000 0.000000 0.000000 0.045035 0.000000 0.000000
# 5 0.000000 0.000000 0.000000 0.000000 0.026960 0.000000
# 6 0.000000 0.000000 0.000000 0.000000 0.000000 0.049882
#
#
# Mechanical properties :
#
#
# Convention : Reuss Voigt Hill
#
# Bulk Modulus (GPa) = 47.10011 48.37750 47.73881
# Shear Modulus (GPa) = 27.17743 30.04333 28.61038
#
# Velocity S-wave (km/s) = 3.40040 3.57519 3.48889
# Velocity P-wave (km/s) = 5.95447 6.13392 6.04486
#
# Compressibility (1/GPa) = 0.02123137
#
# Stress axis : x y z
#
# Youngs Moduli (GPa) = 57.34768 95.76128 97.59105
#
# Poissons Ratio (x) = 0.41440 0.32679
# Poissons Ratio (y) = 0.24817 0.07532
# Poissons Ratio (z) = 0.19203 0.07391
#
# Static dielectric constant tensor:
#      x y z
#    x 4.012270 0.000000 0.000000 
#    y 0.000000 4.396800 0.000000 
#    z 0.000000 0.000000 4.360070 
# 
# 
# High freq. dielectric constant tensor:
#      x y z
#    x 1.908070 0.000000 0.000000 
#    y 0.000000 1.944620 0.000000 
#    z 0.000000 0.000000 1.935310 
# 
# From -- ./inp_files/8188.got.cif
#   From: 2010.03.12/outbox.cif.g09.slc.cpg/sg23_5_cif.got.tgz:8188.got - 2010.04.14 02:50:06.
