data_PCOD8163668
_publ_section_title
;
Structure prediction by ZEFSAII (Michael W. Deem and Ramdas Pophale) SiO2 
 PCOD8163668
Probable space group: I 2 2 2
;
_chemical_formula_sum "Si O2"
_cell_formula_units_Z 48
_cell_length_a 10.410139
_cell_length_b 27.880111
_cell_length_c 8.132301
_cell_angle_alpha 90.000000
_cell_angle_beta 90.000000
_cell_angle_gamma 90.000000
_cell_volume 2360.285137
_symmetry_space_group_name_H-M "I 2 2 2"
_symmetry_group_IT_number 23
_symmetry_cell_setting 'orthorhombic'
loop_
_space_group_symop_operation_xyz
x,y,z
-x,-y,z
x,-y,-z
-x,y,-z
1/2+x,1/2+y,1/2+z
1/2-x,1/2-y,1/2+z
1/2+x,1/2-y,1/2-z
1/2-x,1/2+y,1/2-z
loop_
_atom_site_type_symbol
_atom_site_label
_atom_site_fract_x
_atom_site_fract_y
_atom_site_fract_z
Si Si1 0.325060 0.131655 0.727910
Si Si2 0.282374 0.000000 0.000000
Si Si3 0.151813 0.901446 0.000188
Si Si4 0.000000 0.576286 0.000000
Si Si5 0.755891 0.308329 0.334757
Si Si6 0.000000 0.500000 0.745096
Si Si7 0.149742 0.716651 0.981262
Si Si8 0.000000 0.335057 0.500000
O O1 0.198700 0.109053 0.812092
O O2 0.376679 0.106119 0.562402
O O3 0.292690 0.185836 0.670839
O O4 0.437201 0.130112 0.864714
O O5 0.195589 0.045182 0.053475
O O6 0.376599 0.018211 0.855622
O O7 0.207929 0.862585 0.870491
O O8 0.000000 0.898977 0.000000
O O9 0.052805 0.543921 0.147747
O O10 0.661360 0.272058 0.429368
O O11 0.896252 0.300734 0.414101
O O12 0.767031 0.296810 0.142114
O O13 0.000000 0.703612 0.000000
#
# Coordination Sequence:
#
# PCOD8163668 Si02
#       8
#     8   4   8   4   8   4   8   4
#     4  11  22  39  68  94 131 168 215 272 335 376
#     4  11  23  40  70  94 129 173 220 270 328 389
#     4  11  25  45  64  94 129 179 222 267 318 402
#     4  11  20  38  62 102 136 160 208 281 334 378
#     4  11  24  40  66  91 132 167 219 265 326 389
#     4  10  24  36  66 106 128 162 222 276 330 384
#     4  12  24  42  64  98 129 172 209 269 325 398
#     4  10  20  38  60  97 120 174 212 265 326 382
#
# _framework density 20.336525000000002
#
# number of rings (size 3 to 8) (size 9 to 14) (size 15 to 20)
#    0.000    1.000    4.167    2.750    7.000    0.000 
#    0.000    0.000    0.000    0.000    0.000    0.000 
#    0.000    0.000    0.000    0.000    0.000    0.000 
#
# Total GULP energy -297581.884735 kJ/mol
# GULP energy per Si atom -12399.245197 kJ/mol
# Density = 2.029024 g / cm^3
# Si number density = 20.336525 Si / 1000 Ang^3
#
#
#
# Elastic Constant Matrix: (Units=GPa)
#
#
# Indices 1 2 3 4 5 6 
#
# 1 110.8211 36.7599 46.9221 -0.0008 -0.0002 0.0005
# 2 36.7599 128.4262 46.0256 -0.0042 0.0005 0.0015
# 3 46.9221 46.0256 112.0238 -0.0194 0.0031 0.0049
# 4 -0.0008 -0.0042 -0.0194 33.6461 0.0020 0.0028
# 5 -0.0002 0.0005 0.0031 0.0020 27.0688 -0.0008
# 6 0.0005 0.0015 0.0049 0.0028 -0.0008 29.9883
#
#
#
# Elastic Compliance Matrix: (Units=1/GPa)
#
#
# Indices 1 2 3 4 5 6 
#
# 1 0.011315 -0.001806 -0.003997 -0.000002 0.000001 0.000001
# 2 -0.001806 0.009419 -0.003113 -0.000001 0.000000 0.000000
# 3 -0.003997 -0.003113 0.011880 0.000006 -0.000001 -0.000002
# 4 -0.000002 -0.000001 0.000006 0.029721 -0.000002 -0.000003
# 5 0.000001 0.000000 -0.000001 -0.000002 0.036943 0.000001
# 6 0.000001 0.000000 -0.000002 -0.000003 0.000001 0.033346
#
#
# Mechanical properties :
#
#
# Convention : Reuss Voigt Hill
#
# Bulk Modulus (GPa) = 67.65586 67.85402 67.75494
# Shear Modulus (GPa) = 32.17792 32.91155 32.54473
#
# Velocity S-wave (km/s) = 3.98209 4.02723 4.00473
# Velocity P-wave (km/s) = 7.38127 7.42043 7.40088
#
# Compressibility (1/GPa) = 0.01478069
#
# Stress axis : x y z
#
# Youngs Moduli (GPa) = 88.37687 106.16413 84.17376
#
# Poissons Ratio (x) = 0.19175 0.33647
# Poissons Ratio (y) = 0.15963 0.26207
# Poissons Ratio (z) = 0.35327 0.33054
#
# Static dielectric constant tensor:
#      x y z
#    x 3.518720 0.000000 0.000000 
#    y 0.000000 3.779250 0.000000 
#    z 0.000000 0.000000 3.803460 
# 
# 
# High freq. dielectric constant tensor:
#      x y z
#    x 1.769890 0.000000 0.000000 
#    y 0.000000 1.806300 0.000000 
#    z 0.000000 0.000000 1.799450 
# 
# From -- ./inp_files/7424.got.cif
#   From: 2010.03.12/outbox.cif.g09.slc.cpg/sg23_4_cif.got.tgz:7424.got - 2010.04.14 02:50:06.
