data_PCOD8163211
_publ_section_title
;
Structure prediction by ZEFSAII (Michael W. Deem and Ramdas Pophale) SiO2 
 PCOD8163211
Probable space group: I 2 2 2
;
_chemical_formula_sum "Si O2"
_cell_formula_units_Z 42
_cell_length_a 8.003257
_cell_length_b 8.475019
_cell_length_c 29.197286
_cell_angle_alpha 90.000000
_cell_angle_beta 90.000000
_cell_angle_gamma 90.000000
_cell_volume 1980.386365
_symmetry_space_group_name_H-M "I 2 2 2"
_symmetry_group_IT_number 23
_symmetry_cell_setting 'orthorhombic'
loop_
_space_group_symop_operation_xyz
x,y,z
-x,-y,z
x,-y,-z
-x,y,-z
1/2+x,1/2+y,1/2+z
1/2-x,1/2-y,1/2+z
1/2+x,1/2-y,1/2-z
1/2-x,1/2+y,1/2-z
loop_
_atom_site_type_symbol
_atom_site_label
_atom_site_fract_x
_atom_site_fract_y
_atom_site_fract_z
Si Si1 0.077479 0.743509 0.282454
Si Si2 0.740849 0.555342 0.929060
Si Si3 0.500000 0.500000 0.000000
Si Si4 0.771063 0.068207 0.203851
Si Si5 0.000000 0.000000 0.121351
Si Si6 0.555332 0.756766 0.551770
Si Si7 0.000000 0.000000 0.648664
O O1 0.090694 0.850041 0.236560
O O2 0.225757 0.613372 0.283448
O O3 0.897153 0.666573 0.289459
O O4 0.097092 0.865852 0.323538
O O5 0.611181 0.614538 0.967738
O O6 0.897902 0.664659 0.923963
O O7 0.650888 0.569401 0.880715
O O8 0.791109 0.378709 0.946569
O O9 0.853744 0.074776 0.153240
O O10 0.902394 0.885099 0.086082
O O11 0.500000 0.708399 0.500000
#
# Coordination Sequence:
#
# PCOD8163211 Si02
#       7
#     8   8   2   8   4   8   4
#     4  11  23  42  65  92 130 162 214 255 325 378
#     4  10  20  35  62  84 116 153 209 250 302 360
#     4  10  16  34  58  82 104 148 196 254 286 342
#     4  11  24  42  65  91 125 170 207 267 314 392
#     4  12  24  38  61  89 127 161 204 254 332 374
#     4  11  21  39  58  86 119 162 205 257 305 374
#     4  11  21  35  60  95 121 158 197 263 309 378
#
# _framework density 21.207982999999999
#
# number of rings (size 3 to 8) (size 9 to 14) (size 15 to 20)
#    0.000    1.143    1.905    6.000    0.000    0.000 
#    0.000    3.810    0.000    1.143    0.000    0.000 
#    0.000    0.000    0.000    0.000    0.000    0.000 
#
# Total GULP energy -260187.482439 kJ/mol
# GULP energy per Si atom -12389.880116 kJ/mol
# Density = 2.115971 g / cm^3
# Si number density = 21.207983 Si / 1000 Ang^3
#
#
#
# Elastic Constant Matrix: (Units=GPa)
#
#
# Indices 1 2 3 4 5 6 
#
# 1 87.3061 24.0178 31.0935 0.0000 0.0000 0.0000
# 2 24.0178 87.4309 54.3328 0.0000 0.0000 0.0000
# 3 31.0935 54.3328 150.7789 0.0000 0.0000 0.0000
# 4 0.0000 0.0000 0.0000 29.9839 0.0000 0.0000
# 5 0.0000 0.0000 0.0000 0.0000 27.8587 0.0000
# 6 0.0000 0.0000 0.0000 0.0000 0.0000 24.9571
#
#
#
# Elastic Compliance Matrix: (Units=1/GPa)
#
#
# Indices 1 2 3 4 5 6 
#
# 1 0.012743 -0.002406 -0.001761 0.000000 0.000000 0.000000
# 2 -0.002406 0.015192 -0.004978 0.000000 0.000000 0.000000
# 3 -0.001761 -0.004978 0.008789 0.000000 0.000000 0.000000
# 4 0.000000 0.000000 0.000000 0.033351 0.000000 0.000000
# 5 0.000000 0.000000 0.000000 0.000000 0.035895 0.000000
# 6 0.000000 0.000000 0.000000 0.000000 0.000000 0.040069
#
#
# Mechanical properties :
#
#
# Convention : Reuss Voigt Hill
#
# Bulk Modulus (GPa) = 54.24821 60.48936 57.36878
# Shear Modulus (GPa) = 29.32975 30.96473 30.14724
#
# Velocity S-wave (km/s) = 3.72285 3.82521 3.77437
# Velocity P-wave (km/s) = 6.64185 6.93495 6.78998
#
# Compressibility (1/GPa) = 0.01843379
#
# Stress axis : x y z
#
# Youngs Moduli (GPa) = 78.47430 65.82262 113.77562
#
# Poissons Ratio (x) = 0.15840 0.20033
# Poissons Ratio (y) = 0.18884 0.56641
# Poissons Ratio (z) = 0.13817 0.32768
#
# Static dielectric constant tensor:
#      x y z
#    x 3.969720 0.000000 0.000000 
#    y 0.000000 3.857650 0.000000 
#    z 0.000000 0.000000 3.883140 
# 
# 
# High freq. dielectric constant tensor:
#      x y z
#    x 1.840820 0.000000 0.000000 
#    y 0.000000 1.813020 0.000000 
#    z 0.000000 0.000000 1.844680 
# 
# From -- ./inp_files/29193.got.cif
#   From: 2010.03.12/outbox.cif.g09.slc.cpg/sg23_15_cif.got.tgz:29193.got - 2010.04.14 02:50:06.
