data_PCOD8163285
_publ_section_title
;
Structure prediction by ZEFSAII (Michael W. Deem and Ramdas Pophale) SiO2 
 PCOD8163285
Probable space group: I 2 2 2
;
_chemical_formula_sum "Si O2"
_cell_formula_units_Z 64
_cell_length_a 17.921088
_cell_length_b 12.458366
_cell_length_c 16.568174
_cell_angle_alpha 90.000000
_cell_angle_beta 90.000000
_cell_angle_gamma 90.000000
_cell_volume 3699.134348
_symmetry_space_group_name_H-M "I 2 2 2"
_symmetry_group_IT_number 23
_symmetry_cell_setting 'orthorhombic'
loop_
_space_group_symop_operation_xyz
x,y,z
-x,-y,z
x,-y,-z
-x,y,-z
1/2+x,1/2+y,1/2+z
1/2-x,1/2-y,1/2+z
1/2+x,1/2-y,1/2-z
1/2-x,1/2+y,1/2-z
loop_
_atom_site_type_symbol
_atom_site_label
_atom_site_fract_x
_atom_site_fract_y
_atom_site_fract_z
Si Si1 0.825371 0.703720 0.595066
Si Si2 0.917780 0.500000 0.595567
Si Si3 0.913201 0.875182 0.684268
Si Si4 0.418050 0.372859 0.500000
Si Si5 0.825698 0.873697 0.847234
Si Si6 0.174629 0.703720 0.595066
Si Si7 0.825698 0.126303 0.847234
Si Si8 0.413201 0.375182 0.815732
O O1 0.875594 0.605400 0.625422
O O2 0.871089 0.812100 0.613042
O O3 0.806944 0.697011 0.500000
O O4 0.749663 0.696284 0.647282
O O5 0.923290 0.500000 0.500000
O O6 0.875594 0.394600 0.625422
O O7 0.000000 0.500000 0.634476
O O8 0.871454 0.846893 0.767091
O O9 0.000000 0.841280 0.690460
O O10 0.906403 1.000000 0.663324
O O11 0.424250 0.500000 0.500000
O O12 0.500000 0.320704 0.500000
O O13 0.376176 0.333281 0.420652
O O14 0.376176 0.333281 0.579348
O O15 0.750337 0.803716 0.852718
O O16 0.806342 0.000000 0.854491
O O17 0.128911 0.812100 0.613042
O O18 0.871454 0.153107 0.767091
#
# Coordination Sequence:
#
# PCOD8163285 Si02
#       8
#     8   8   8   8   8   8   8   8
#     4  11  20  33  54  77 106 138 174 216 261 308
#     4   9  18  30  48  74 102 133 169 210 257 306
#     4  10  22  37  52  74 107 143 178 213 255 308
#     4   9  16  26  48  78 107 136 165 205 262 318
#     4  10  18  32  53  77 107 135 169 215 263 312
#     4  11  20  33  54  77 106 138 174 216 261 308
#     4  10  18  32  53  77 107 135 169 215 263 312
#     4  10  22  37  52  74 107 143 178 213 255 308
#
# _framework density 17.301345000000001
#
# number of rings (size 3 to 8) (size 9 to 14) (size 15 to 20)
#    0.000    2.000    2.500    2.250    0.000    5.000 
#    0.000    1.250    0.000    0.000    0.000    0.000 
#    0.000    1.000    0.000    0.000    0.000    0.000 
#
# Total GULP energy -396791.140063 kJ/mol
# GULP energy per Si atom -12399.723127 kJ/mol
# Density = 1.726197 g / cm^3
# Si number density = 17.301345 Si / 1000 Ang^3
#
#
#
# Elastic Constant Matrix: (Units=GPa)
#
#
# Indices 1 2 3 4 5 6 
#
# 1 149.5864 43.5800 26.5229 0.0000 0.0000 0.0000
# 2 43.5800 57.3577 21.1090 0.0000 0.0000 0.0000
# 3 26.5229 21.1090 43.1749 0.0000 0.0000 0.0000
# 4 0.0000 0.0000 0.0000 22.5635 0.0000 0.0000
# 5 0.0000 0.0000 0.0000 0.0000 21.5240 0.0000
# 6 0.0000 0.0000 0.0000 0.0000 0.0000 27.0371
#
#
#
# Elastic Compliance Matrix: (Units=1/GPa)
#
#
# Indices 1 2 3 4 5 6 
#
# 1 0.008821 -0.005741 -0.002612 0.000000 0.000000 0.000000
# 2 -0.005741 0.024996 -0.008694 0.000000 0.000000 0.000000
# 3 -0.002612 -0.008694 0.029017 0.000000 0.000000 0.000000
# 4 0.000000 0.000000 0.000000 0.044319 0.000000 0.000000
# 5 0.000000 0.000000 0.000000 0.000000 0.046460 0.000000
# 6 0.000000 0.000000 0.000000 0.000000 0.000000 0.036986
#
#
# Mechanical properties :
#
#
# Convention : Reuss Voigt Hill
#
# Bulk Modulus (GPa) = 34.79520 48.06030 41.42775
# Shear Modulus (GPa) = 21.34264 24.81874 23.08069
#
# Velocity S-wave (km/s) = 3.51605 3.79159 3.65641
# Velocity P-wave (km/s) = 6.05297 6.85615 6.46704
#
# Compressibility (1/GPa) = 0.02873960
#
# Stress axis : x y z
#
# Youngs Moduli (GPa) = 113.37001 40.00654 34.46249
#
# Poissons Ratio (x) = 0.22966 0.09001
# Poissons Ratio (y) = 0.65082 0.29963
# Poissons Ratio (z) = 0.29612 0.34783
#
# Static dielectric constant tensor:
#      x y z
#    x 3.491510 0.000000 0.000000 
#    y 0.000000 2.950020 0.000000 
#    z 0.000000 0.000000 3.044810 
# 
# 
# High freq. dielectric constant tensor:
#      x y z
#    x 1.690690 0.000000 0.000000 
#    y 0.000000 1.635870 0.000000 
#    z 0.000000 0.000000 1.655370 
# 
# From -- ./inp_files/22222.got.cif
#   From: 2010.03.12/outbox.cif.g09.slc.cpg/sg23_12_cif.got.tgz:22222.got - 2010.04.14 02:50:06.
