data_PCOD8163684
_publ_section_title
;
Structure prediction by ZEFSAII (Michael W. Deem and Ramdas Pophale) SiO2 
 PCOD8163684
Probable space group: I 2 2 2
;
_chemical_formula_sum "Si O2"
_cell_formula_units_Z 58
_cell_length_a 18.263527
_cell_length_b 16.622134
_cell_length_c 8.725166
_cell_angle_alpha 90.000000
_cell_angle_beta 90.000000
_cell_angle_gamma 90.000000
_cell_volume 2648.775364
_symmetry_space_group_name_H-M "I 2 2 2"
_symmetry_group_IT_number 23
_symmetry_cell_setting 'orthorhombic'
loop_
_space_group_symop_operation_xyz
x,y,z
-x,-y,z
x,-y,-z
-x,y,-z
1/2+x,1/2+y,1/2+z
1/2-x,1/2-y,1/2+z
1/2+x,1/2-y,1/2-z
1/2-x,1/2+y,1/2-z
loop_
_atom_site_type_symbol
_atom_site_label
_atom_site_fract_x
_atom_site_fract_y
_atom_site_fract_z
Si Si1 0.699649 0.003295 0.335920
Si Si2 0.801581 0.076426 0.908896
Si Si3 0.500000 0.500000 0.000000
Si Si4 0.957077 0.430311 0.159670
Si Si5 0.502501 0.240143 0.680828
Si Si6 0.251136 0.845197 0.200646
Si Si7 0.598611 0.361149 0.872161
Si Si8 0.858669 0.205877 0.700782
O O1 0.742398 0.955023 0.208964
O O2 0.624940 0.957145 0.367144
O O3 0.742174 0.000000 0.500000
O O4 0.689306 0.095122 0.278467
O O5 0.860008 0.127514 0.811467
O O6 0.758741 0.136214 0.021844
O O7 0.837536 0.000000 0.000000
O O8 0.555143 0.554889 0.102271
O O9 0.958137 0.342440 0.234631
O O10 0.000000 0.500000 0.256904
O O11 0.000000 0.420941 0.000000
O O12 0.500000 0.256923 0.500000
O O13 0.544052 0.310182 0.768423
O O14 0.419453 0.233401 0.737794
O O15 0.174296 0.867873 0.280565
O O16 0.280537 0.753390 0.210491
O O17 0.619264 0.319363 0.031031
#
# Coordination Sequence:
#
# PCOD8163684 Si02
#       8
#     8   8   2   8   8   8   8   8
#     4  11  22  40  68 101 139 187 232 296 356 434
#     4  10  25  43  65 104 141 180 236 300 362 429
#     4  12  28  52  74 104 142 200 264 300 380 460
#     4  10  20  38  65 100 141 186 234 281 349 444
#     4  11  25  44  70 105 147 187 244 296 372 443
#     4  11  26  42  71 104 144 187 250 301 377 433
#     4  12  27  49  75 106 146 200 249 315 375 455
#     4  12  24  46  70 104 142 191 241 309 366 439
#
# _framework density 21.896910999999999
#
# number of rings (size 3 to 8) (size 9 to 14) (size 15 to 20)
#    0.000    0.966    2.759    3.310   10.621    0.000 
#    0.000    0.345    0.000    0.000    0.000    0.000 
#    0.000    0.000    0.000    0.000    0.000    0.000 
#
# Total GULP energy -359394.360105 kJ/mol
# GULP energy per Si atom -12392.908969 kJ/mol
# Density = 2.184707 g / cm^3
# Si number density = 21.896911 Si / 1000 Ang^3
#
#
#
# Elastic Constant Matrix: (Units=GPa)
#
#
# Indices 1 2 3 4 5 6 
#
# 1 106.9681 56.9269 40.7889 0.0000 0.0000 0.0000
# 2 56.9269 152.2781 56.7236 0.0000 0.0000 0.0000
# 3 40.7889 56.7236 143.5047 0.0000 0.0000 0.0000
# 4 0.0000 0.0000 0.0000 20.6845 0.0000 0.0000
# 5 0.0000 0.0000 0.0000 0.0000 27.5608 0.0000
# 6 0.0000 0.0000 0.0000 0.0000 0.0000 39.8040
#
#
#
# Elastic Compliance Matrix: (Units=1/GPa)
#
#
# Indices 1 2 3 4 5 6 
#
# 1 0.012113 -0.003806 -0.001939 0.000000 0.000000 0.000000
# 2 -0.003806 0.008897 -0.002435 0.000000 0.000000 0.000000
# 3 -0.001939 -0.002435 0.008482 0.000000 0.000000 0.000000
# 4 0.000000 0.000000 0.000000 0.048345 0.000000 0.000000
# 5 0.000000 0.000000 0.000000 0.000000 0.036283 0.000000
# 6 0.000000 0.000000 0.000000 0.000000 0.000000 0.025123
#
#
# Mechanical properties :
#
#
# Convention : Reuss Voigt Hill
#
# Bulk Modulus (GPa) = 76.14513 79.06997 77.60755
# Shear Modulus (GPa) = 31.25376 34.16397 32.70886
#
# Velocity S-wave (km/s) = 3.78208 3.95425 3.86912
# Velocity P-wave (km/s) = 7.34316 7.55226 7.44844
#
# Compressibility (1/GPa) = 0.01313282
#
# Stress axis : x y z
#
# Youngs Moduli (GPa) = 82.55287 112.39951 117.89935
#
# Poissons Ratio (x) = 0.42783 0.22855
# Poissons Ratio (y) = 0.31422 0.28706
# Poissons Ratio (z) = 0.16003 0.27367
#
# Static dielectric constant tensor:
#      x y z
#    x 4.025410 0.000000 0.000000 
#    y 0.000000 4.662800 0.000000 
#    z 0.000000 0.000000 4.164560 
# 
# 
# High freq. dielectric constant tensor:
#      x y z
#    x 1.855230 0.000000 0.000000 
#    y 0.000000 1.878710 0.000000 
#    z 0.000000 0.000000 1.864620 
# 
# From -- ./inp_files/11271.got.cif
#   From: 2010.03.12/outbox.cif.g09.slc.cpg/sg23_6_cif.got.tgz:11271.got - 2010.04.14 02:50:06.
