data_PCOD8163765
_publ_section_title
;
Structure prediction by ZEFSAII (Michael W. Deem and Ramdas Pophale) SiO2 
 PCOD8163765
Probable space group: I 2 2 2
;
_chemical_formula_sum "Si O2"
_cell_formula_units_Z 40
_cell_length_a 9.139507
_cell_length_b 8.050985
_cell_length_c 24.806763
_cell_angle_alpha 90.000000
_cell_angle_beta 90.000000
_cell_angle_gamma 90.000000
_cell_volume 1825.332073
_symmetry_space_group_name_H-M "I 2 2 2"
_symmetry_group_IT_number 23
_symmetry_cell_setting 'orthorhombic'
loop_
_space_group_symop_operation_xyz
x,y,z
-x,-y,z
x,-y,-z
-x,y,-z
1/2+x,1/2+y,1/2+z
1/2-x,1/2-y,1/2+z
1/2+x,1/2-y,1/2-z
1/2-x,1/2+y,1/2-z
loop_
_atom_site_type_symbol
_atom_site_label
_atom_site_fract_x
_atom_site_fract_y
_atom_site_fract_z
Si Si1 0.500000 0.000000 0.814608
Si Si2 0.000000 0.000000 0.000000
Si Si3 0.000000 0.500000 0.000000
Si Si4 0.733200 0.845520 0.248954
Si Si5 0.520151 0.197109 0.317137
Si Si6 0.590915 0.660085 0.854373
Si Si7 0.367328 0.750348 0.577231
O O1 0.351076 0.007002 0.777742
O O2 0.491612 0.826318 0.846982
O O3 0.115180 0.905331 0.037937
O O4 0.892475 0.595291 0.960914
O O5 0.599067 0.733557 0.273331
O O6 0.818669 0.751339 0.201333
O O7 0.835218 0.901072 0.298537
O O8 0.488486 0.272839 0.375717
O O9 0.500000 0.000000 0.322022
O O10 0.500000 0.500000 0.875717
O O11 0.707661 0.720640 0.898266
#
# Coordination Sequence:
#
# PCOD8163765 Si02
#       7
#     4   2   2   8   8   8   8
#     4  12  26  41  64 101 152 199 239 280 350 428
#     4  10  24  50  68 108 132 174 248 332 356 444
#     4  10  20  48  74  94 124 170 250 320 352 432
#     4  11  23  40  64 104 152 195 235 282 348 437
#     4  11  22  40  67 103 142 193 235 287 357 444
#     4  11  27  44  70 106 148 194 238 294 360 443
#     4  10  24  43  75 101 131 183 241 305 374 418
#
# _framework density 21.913820999999999
#
# number of rings (size 3 to 8) (size 9 to 14) (size 15 to 20)
#    0.000    1.200    4.000    0.000   11.200    0.000 
#    3.600    0.500    0.000    0.000    0.000    0.000 
#    0.000    0.000    0.000    0.000    0.000    0.000 
#
# Total GULP energy -247798.163978 kJ/mol
# GULP energy per Si atom -12389.908199 kJ/mol
# Density = 2.186394 g / cm^3
# Si number density = 21.913821 Si / 1000 Ang^3
#
#
#
# Elastic Constant Matrix: (Units=GPa)
#
#
# Indices 1 2 3 4 5 6 
#
# 1 119.7752 56.8809 60.2988 0.0000 0.0000 0.0000
# 2 56.8809 124.7716 57.4000 0.0000 0.0000 0.0000
# 3 60.2988 57.4000 135.7667 0.0000 0.0000 0.0000
# 4 0.0000 0.0000 0.0000 19.9118 0.0000 0.0000
# 5 0.0000 0.0000 0.0000 0.0000 26.4796 0.0000
# 6 0.0000 0.0000 0.0000 0.0000 0.0000 31.0493
#
#
#
# Elastic Compliance Matrix: (Units=1/GPa)
#
#
# Indices 1 2 3 4 5 6 
#
# 1 0.012020 -0.003754 -0.003752 0.000000 0.000000 0.000000
# 2 -0.003754 0.011122 -0.003035 0.000000 0.000000 0.000000
# 3 -0.003752 -0.003035 0.010315 0.000000 0.000000 0.000000
# 4 0.000000 0.000000 0.000000 0.050221 0.000000 0.000000
# 5 0.000000 0.000000 0.000000 0.000000 0.037765 0.000000
# 6 0.000000 0.000000 0.000000 0.000000 0.000000 0.032207
#
#
# Mechanical properties :
#
#
# Convention : Reuss Voigt Hill
#
# Bulk Modulus (GPa) = 80.79877 81.05257 80.92567
# Shear Modulus (GPa) = 27.95521 29.20371 28.57946
#
# Velocity S-wave (km/s) = 3.57555 3.65452 3.61525
# Velocity P-wave (km/s) = 7.34829 7.40774 7.37807
#
# Compressibility (1/GPa) = 0.01237643
#
# Stress axis : x y z
#
# Youngs Moduli (GPa) = 83.19194 89.90981 96.94675
#
# Poissons Ratio (x) = 0.33752 0.36370
# Poissons Ratio (y) = 0.31230 0.29424
# Poissons Ratio (z) = 0.31210 0.27288
#
# Static dielectric constant tensor:
#      x y z
#    x 4.099640 0.000000 0.000000 
#    y 0.000000 3.251410 0.000000 
#    z 0.000000 0.000000 4.128910 
# 
# 
# High freq. dielectric constant tensor:
#      x y z
#    x 1.858570 0.000000 0.000000 
#    y 0.000000 1.861210 0.000000 
#    z 0.000000 0.000000 1.850070 
# 
# From -- ./inp_files/27918.got.cif
#   From: 2010.03.12/outbox.cif.g09.slc.cpg/sg23_14_cif.got.tgz:27918.got - 2010.04.14 02:50:06.
