data_PCOD8163485
_publ_section_title
;
Structure prediction by ZEFSAII (Michael W. Deem and Ramdas Pophale) SiO2 
 PCOD8163485
Probable space group: I 2 2 2
;
_chemical_formula_sum "Si O2"
_cell_formula_units_Z 64
_cell_length_a 9.302959
_cell_length_b 32.528624
_cell_length_c 10.751496
_cell_angle_alpha 90.000000
_cell_angle_beta 90.000000
_cell_angle_gamma 90.000000
_cell_volume 3253.536604
_symmetry_space_group_name_H-M "I 2 2 2"
_symmetry_group_IT_number 23
_symmetry_cell_setting 'orthorhombic'
loop_
_space_group_symop_operation_xyz
x,y,z
-x,-y,z
x,-y,-z
-x,y,-z
1/2+x,1/2+y,1/2+z
1/2-x,1/2-y,1/2+z
1/2+x,1/2-y,1/2-z
1/2-x,1/2+y,1/2-z
loop_
_atom_site_type_symbol
_atom_site_label
_atom_site_fract_x
_atom_site_fract_y
_atom_site_fract_z
Si Si1 0.052104 0.661446 0.859764
Si Si2 0.973773 0.882815 0.356220
Si Si3 0.806710 0.619280 0.717833
Si Si4 0.829546 0.839980 0.977378
Si Si5 0.988934 0.454302 0.646363
Si Si6 0.011417 0.211604 0.353977
Si Si7 0.251963 0.400463 0.259905
Si Si8 0.763943 0.274668 0.710774
O O1 0.164646 0.623577 0.849055
O O2 0.129007 0.701008 0.802295
O O3 0.911622 0.651622 0.780951
O O4 0.000000 0.669549 0.000000
O O5 0.815803 0.895762 0.313590
O O6 0.998900 0.835764 0.312317
O O7 0.000000 0.887849 0.500000
O O8 0.091364 0.912517 0.292041
O O9 0.745147 0.645183 0.603246
O O10 0.886781 0.576957 0.686733
O O11 0.779347 0.873011 0.878921
O O12 0.768575 0.796864 0.922371
O O13 0.000000 0.837423 0.000000
O O14 0.000000 0.500000 0.703978
O O15 0.000000 0.456684 0.500000
O O16 0.833373 0.440161 0.694855
O O17 0.163971 0.230627 0.314615
O O18 0.000000 0.216726 0.500000
O O19 0.882904 0.234862 0.283716
#
# Coordination Sequence:
#
# PCOD8163485 Si02
#       8
#     8   8   8   8   8   8   8   8
#     4  10  22  38  60  85 116 161 211 248 299 362
#     4  11  22  41  64  86 115 161 216 260 300 367
#     4  11  22  35  70  91 119 165 206 247 303 374
#     4  11  20  38  62  93 122 156 210 254 309 360
#     4  10  21  38  62  98 136 159 188 245 312 376
#     4  11  26  42  58  85 123 163 207 262 329 365
#     4  10  19  38  62  88 123 155 201 254 293 369
#     4  11  26  41  58  87 120 162 205 270 315 369
#
# _framework density 19.670902999999999
#
# number of rings (size 3 to 8) (size 9 to 14) (size 15 to 20)
#    0.000    1.375    5.000    0.750    5.250    1.000 
#    0.000    0.625    0.000   16.500    0.000    0.000 
#    0.000    0.000    0.000    0.000    0.000    0.000 
#
# Total GULP energy -396673.764270 kJ/mol
# GULP energy per Si atom -12396.055133 kJ/mol
# Density = 1.962613 g / cm^3
# Si number density = 19.670903 Si / 1000 Ang^3
#
#
#
# Elastic Constant Matrix: (Units=GPa)
#
#
# Indices 1 2 3 4 5 6 
#
# 1 132.5192 40.0770 40.4579 0.0020 0.0001 0.0006
# 2 40.0770 71.1118 33.1526 0.0014 0.0000 0.0008
# 3 40.4579 33.1526 88.2821 0.0019 0.0001 0.0014
# 4 0.0020 0.0014 0.0019 23.5508 0.0008 0.0012
# 5 0.0001 0.0000 0.0001 0.0008 38.5427 -0.0001
# 6 0.0006 0.0008 0.0014 0.0012 -0.0001 25.8971
#
#
#
# Elastic Compliance Matrix: (Units=1/GPa)
#
#
# Indices 1 2 3 4 5 6 
#
# 1 0.009669 -0.004102 -0.002891 0.000000 0.000000 0.000000
# 2 -0.004102 0.018787 -0.005175 0.000000 0.000000 0.000000
# 3 -0.002891 -0.005175 0.014596 -0.000001 0.000000 -0.000001
# 4 0.000000 0.000000 -0.000001 0.042461 -0.000001 -0.000002
# 5 0.000000 0.000000 0.000000 -0.000001 0.025945 0.000000
# 6 0.000000 0.000000 -0.000001 -0.000002 0.000000 0.038614
#
#
# Mechanical properties :
#
#
# Convention : Reuss Voigt Hill
#
# Bulk Modulus (GPa) = 53.43047 57.69866 55.56457
# Shear Modulus (GPa) = 27.67840 29.47984 28.57912
#
# Velocity S-wave (km/s) = 3.75517 3.87544 3.81578
# Velocity P-wave (km/s) = 6.78401 7.03001 6.90811
#
# Compressibility (1/GPa) = 0.01871591
#
# Stress axis : x y z
#
# Youngs Moduli (GPa) = 103.42265 53.22937 68.51362
#
# Poissons Ratio (x) = 0.21832 0.19807
# Poissons Ratio (y) = 0.42419 0.35458
# Poissons Ratio (z) = 0.29898 0.27548
#
# Static dielectric constant tensor:
#      x y z
#    x 3.924270 0.000000 0.000000 
#    y 0.000000 3.435500 0.000010 
#    z 0.000000 0.000010 3.847120 
# 
# 
# High freq. dielectric constant tensor:
#      x y z
#    x 1.788770 0.000000 0.000000 
#    y 0.000000 1.728580 0.000000 
#    z 0.000000 0.000000 1.777230 
# 
# From -- ./inp_files/15009.got.cif
#   From: 2010.03.12/outbox.cif.g09.slc.cpg/sg23_8_cif.got.tgz:15009.got - 2010.04.14 02:50:06.
