data_PCOD8163470
_publ_section_title
;
Structure prediction by ZEFSAII (Michael W. Deem and Ramdas Pophale) SiO2 
 PCOD8163470
Probable space group: I 2 2 2
;
_chemical_formula_sum "Si O2"
_cell_formula_units_Z 44
_cell_length_a 18.756801
_cell_length_b 13.093817
_cell_length_c 8.408685
_cell_angle_alpha 90.000000
_cell_angle_beta 90.000000
_cell_angle_gamma 90.000000
_cell_volume 2065.157226
_symmetry_space_group_name_H-M "I 2 2 2"
_symmetry_group_IT_number 23
_symmetry_cell_setting 'orthorhombic'
loop_
_space_group_symop_operation_xyz
x,y,z
-x,-y,z
x,-y,-z
-x,y,-z
1/2+x,1/2+y,1/2+z
1/2-x,1/2-y,1/2+z
1/2+x,1/2-y,1/2-z
1/2-x,1/2+y,1/2-z
loop_
_atom_site_type_symbol
_atom_site_label
_atom_site_fract_x
_atom_site_fract_y
_atom_site_fract_z
Si Si1 0.857857 0.000000 0.000000
Si Si2 0.739912 0.639972 0.296590
Si Si3 0.000000 0.500000 0.500000
Si Si4 0.500000 0.500000 0.000000
Si Si5 0.903246 0.132611 0.731661
Si Si6 0.360984 0.000000 0.500000
Si Si7 0.596627 0.132073 0.226070
Si Si8 0.752196 0.148176 0.576115
O O1 0.808747 0.947777 0.867737
O O2 0.908123 0.080298 0.905924
O O3 0.822875 0.623720 0.337478
O O4 0.715799 0.744864 0.379605
O O5 0.726748 0.645980 0.108780
O O6 0.046845 0.575157 0.603915
O O7 0.452181 0.573119 0.107836
O O8 0.928081 0.250370 0.744089
O O9 0.821110 0.126192 0.680301
O O10 0.409877 0.075815 0.603000
O O11 0.308045 0.063821 0.383540
#
# Coordination Sequence:
#
# PCOD8163470 Si02
#       8
#     4   8   2   2   8   4   8   8
#     4  12  21  37  62  93 123 156 196 250 314 374
#     4  10  20  35  60  92 124 155 194 247 307 371
#     4  12  24  42  60  82 114 162 206 250 292 340
#     4  12  24  46  64  78 118 170 206 258 304 344
#     4  11  24  41  62  91 121 158 205 249 300 364
#     4  10  19  37  60  87 119 154 186 240 304 356
#     4  10  23  40  60  88 119 155 201 242 291 356
#     4  10  20  36  60  92 123 153 193 245 308 368
#
# _framework density 21.305883999999999
#
# number of rings (size 3 to 8) (size 9 to 14) (size 15 to 20)
#    0.000    1.455    0.000    8.182    0.000    3.636 
#    0.000    7.273    0.000    0.000    0.000    0.000 
#    0.000    0.000    0.000    0.000    0.000    0.000 
#
# Total GULP energy -272826.491875 kJ/mol
# GULP energy per Si atom -12401.204176 kJ/mol
# Density = 2.125739 g / cm^3
# Si number density = 21.305884 Si / 1000 Ang^3
#
#
#
# Elastic Constant Matrix: (Units=GPa)
#
#
# Indices 1 2 3 4 5 6 
#
# 1 51.1610 44.7619 24.0708 0.0000 0.0000 0.0000
# 2 44.7619 184.3594 72.8550 0.0000 0.0000 0.0000
# 3 24.0708 72.8550 116.6321 0.0000 0.0000 0.0000
# 4 0.0000 0.0000 0.0000 47.9916 0.0000 0.0000
# 5 0.0000 0.0000 0.0000 0.0000 12.1045 0.0000
# 6 0.0000 0.0000 0.0000 0.0000 0.0000 16.5728
#
#
#
# Elastic Compliance Matrix: (Units=1/GPa)
#
#
# Indices 1 2 3 4 5 6 
#
# 1 0.025107 -0.005375 -0.001824 0.000000 0.000000 0.000000
# 2 -0.005375 0.008353 -0.004108 0.000000 0.000000 0.000000
# 3 -0.001824 -0.004108 0.011517 0.000000 0.000000 0.000000
# 4 0.000000 0.000000 0.000000 0.020837 0.000000 0.000000
# 5 0.000000 0.000000 0.000000 0.000000 0.082614 0.000000
# 6 0.000000 0.000000 0.000000 0.000000 0.000000 0.060340
#
#
# Mechanical properties :
#
#
# Convention : Reuss Voigt Hill
#
# Bulk Modulus (GPa) = 44.71939 70.61422 57.66681
# Shear Modulus (GPa) = 20.93485 29.36477 25.14981
#
# Velocity S-wave (km/s) = 3.13802 3.71650 3.43945
# Velocity P-wave (km/s) = 5.84503 7.18551 6.54965
#
# Compressibility (1/GPa) = 0.02236166
#
# Stress axis : x y z
#
# Youngs Moduli (GPa) = 39.82933 119.72112 86.83051
#
# Poissons Ratio (x) = 0.64351 0.15839
# Poissons Ratio (y) = 0.21409 0.35672
# Poissons Ratio (z) = 0.07265 0.49185
#
# Static dielectric constant tensor:
#      x y z
#    x 3.597780 0.000000 0.000000 
#    y 0.000000 4.295880 0.000000 
#    z 0.000000 0.000000 3.928010 
# 
# 
# High freq. dielectric constant tensor:
#      x y z
#    x 1.809660 0.000000 0.000000 
#    y 0.000000 1.865400 0.000000 
#    z 0.000000 0.000000 1.838090 
# 
# From -- ./inp_files/11025.got.cif
#   From: 2010.03.12/outbox.cif.g09.slc.cpg/sg23_6_cif.got.tgz:11025.got - 2010.04.14 02:50:06.
