data_PCOD8163091
_publ_section_title
;
Structure prediction by ZEFSAII (Michael W. Deem and Ramdas Pophale) SiO2 
 PCOD8163091
Probable space group: F 2 2 2
;
_chemical_formula_sum "Si O2"
_cell_formula_units_Z 84
_cell_length_a 24.624227
_cell_length_b 10.512384
_cell_length_c 15.207852
_cell_angle_alpha 90.000000
_cell_angle_beta 90.000000
_cell_angle_gamma 90.000000
_cell_volume 3936.694378
_symmetry_space_group_name_H-M "F 2 2 2"
_symmetry_group_IT_number 22
_symmetry_cell_setting 'orthorhombic'
loop_
_space_group_symop_operation_xyz
x,y,z
-x,-y,z
x,-y,-z
-x,y,-z
x,1/2+y,1/2+z
-x,1/2-y,1/2+z
x,1/2-y,1/2-z
-x,1/2+y,1/2-z
1/2+x,y,1/2+z
1/2-x,-y,1/2+z
1/2+x,-y,1/2-z
1/2-x,y,1/2-z
1/2+x,1/2+y,z
1/2-x,1/2-y,z
1/2+x,1/2-y,-z
1/2-x,1/2+y,-z
loop_
_atom_site_type_symbol
_atom_site_label
_atom_site_fract_x
_atom_site_fract_y
_atom_site_fract_z
Si Si1 0.714430 0.077475 0.162807
Si Si2 0.000000 0.000000 0.500000
Si Si3 0.384771 0.996530 0.252809
Si Si4 0.849200 0.677327 0.598655
Si Si5 0.284302 0.000000 0.500000
Si Si6 0.047663 0.250000 0.250000
Si Si7 0.047884 0.321676 0.863957
O O1 0.750000 0.091624 0.250000
O O2 0.692827 0.218295 0.136113
O O3 0.661283 0.989211 0.177802
O O4 0.746925 0.004061 0.086591
O O5 0.040627 0.922446 0.439955
O O6 0.414728 0.128840 0.267464
O O7 0.352494 0.946105 0.337811
O O8 0.427897 0.887189 0.224067
O O9 0.823773 0.624926 0.506897
O O10 0.910907 0.723561 0.590359
O O11 0.010132 0.262509 0.163111
#
# Coordination Sequence:
#
# PCOD8163091 Si02
#       7
#    16   4  16  16   8   8  16
#     4  11  24  48  75  99 139 196 238 289 361 439
#     4  12  24  42  64 106 144 182 230 284 366 412
#     4  11  23  42  74 104 133 193 245 285 356 442
#     4  11  25  44  75 106 136 185 247 292 357 441
#     4  12  26  41  72 115 137 174 249 302 354 424
#     4  12  22  44  71 104 145 184 238 302 352 430
#     4  11  23  43  73 103 139 188 235 288 360 438
#
# _framework density 21.337699000000001
#
# number of rings (size 3 to 8) (size 9 to 14) (size 15 to 20)
#    0.000    0.762    5.714    2.286    2.667    4.571 
#    6.857    0.476    0.000    0.000    0.000    0.000 
#    0.000    0.000    0.000    0.000    0.000    0.000 
#
# Total GULP energy -260250.275221 kJ/mol
# GULP energy per Si atom -12392.870249 kJ/mol
# Density = 2.128913 g / cm^3
# Si number density = 21.337699 Si / 1000 Ang^3
#
#
#
# Elastic Constant Matrix: (Units=GPa)
#
#
# Indices 1 2 3 4 5 6 
#
# 1 148.8523 89.7897 61.0292 0.0000 0.0000 0.0000
# 2 89.7897 129.1703 58.7658 0.0000 0.0000 0.0000
# 3 61.0292 58.7658 111.4662 0.0000 0.0000 0.0000
# 4 0.0000 0.0000 0.0000 42.8539 0.0000 0.0000
# 5 0.0000 0.0000 0.0000 0.0000 42.9462 0.0000
# 6 0.0000 0.0000 0.0000 0.0000 0.0000 38.7601
#
#
#
# Elastic Compliance Matrix: (Units=1/GPa)
#
#
# Indices 1 2 3 4 5 6 
#
# 1 0.012250 -0.007188 -0.002918 0.000000 0.000000 0.000000
# 2 -0.007188 0.014402 -0.003657 0.000000 0.000000 0.000000
# 3 -0.002918 -0.003657 0.012497 0.000000 0.000000 0.000000
# 4 0.000000 0.000000 0.000000 0.023335 0.000000 0.000000
# 5 0.000000 0.000000 0.000000 0.000000 0.023285 0.000000
# 6 0.000000 0.000000 0.000000 0.000000 0.000000 0.025800
#
#
# Mechanical properties :
#
#
# Convention : Reuss Voigt Hill
#
# Bulk Modulus (GPa) = 86.03383 89.85092 87.94238
# Shear Modulus (GPa) = 34.97242 36.90565 35.93904
#
# Velocity S-wave (km/s) = 4.05284 4.16336 4.10847
# Velocity P-wave (km/s) = 7.89357 8.08157 7.98812
#
# Compressibility (1/GPa) = 0.01162333
#
# Stress axis : x y z
#
# Youngs Moduli (GPa) = 81.63111 69.43334 80.01968
#
# Poissons Ratio (x) = 0.49910 0.23346
# Poissons Ratio (y) = 0.58678 0.29266
# Poissons Ratio (z) = 0.23816 0.25395
#
# Static dielectric constant tensor:
#      x y z
#    x 4.276630 0.000000 0.000000 
#    y 0.000000 3.763400 0.000000 
#    z 0.000000 0.000000 3.896820 
# 
# 
# High freq. dielectric constant tensor:
#      x y z
#    x 1.871660 0.000000 0.000000 
#    y 0.000000 1.819670 0.000000 
#    z 0.000000 0.000000 1.818150 
# 
# From -- ./inp_files/32371.got.cif
#   From: 2010.03.12/outbox.cif.g09.slc.cpg/sg22_17_cif.got.tgz:32371.got - 2010.04.14 02:24:06.
