data_PCOD8163169
_publ_section_title
;
Structure prediction by ZEFSAII (Michael W. Deem and Ramdas Pophale) SiO2 
 PCOD8163169
Probable space group: F 2 2 2
;
_chemical_formula_sum "Si O2"
_cell_formula_units_Z 88
_cell_length_a 11.265066
_cell_length_b 14.927983
_cell_length_c 22.668963
_cell_angle_alpha 90.000000
_cell_angle_beta 90.000000
_cell_angle_gamma 90.000000
_cell_volume 3812.119674
_symmetry_space_group_name_H-M "F 2 2 2"
_symmetry_group_IT_number 22
_symmetry_cell_setting 'orthorhombic'
loop_
_space_group_symop_operation_xyz
x,y,z
-x,-y,z
x,-y,-z
-x,y,-z
x,1/2+y,1/2+z
-x,1/2-y,1/2+z
x,1/2-y,1/2-z
-x,1/2+y,1/2-z
1/2+x,y,1/2+z
1/2-x,-y,1/2+z
1/2+x,-y,1/2-z
1/2-x,y,1/2-z
1/2+x,1/2+y,z
1/2-x,1/2-y,z
1/2+x,1/2-y,-z
1/2-x,1/2+y,-z
loop_
_atom_site_type_symbol
_atom_site_label
_atom_site_fract_x
_atom_site_fract_y
_atom_site_fract_z
Si Si1 0.000000 0.500000 0.623570
Si Si2 0.256836 0.526924 0.819475
Si Si3 0.687470 0.101153 0.994863
Si Si4 0.320002 0.660227 0.374098
Si Si5 0.912948 0.668257 0.116607
Si Si6 0.567997 0.842360 0.443897
O O1 0.106727 0.537101 0.663088
O O2 0.971704 0.586173 0.582210
O O3 0.250000 0.530704 0.750000
O O4 0.223536 0.429327 0.843049
O O5 0.177855 0.608992 0.844743
O O6 0.585548 0.136713 0.951335
O O7 0.814286 0.105768 0.962800
O O8 0.691027 0.155656 0.055400
O O9 0.651173 0.000000 0.000000
O O10 0.250000 0.750000 0.352625
O O11 0.457124 0.663912 0.354756
O O12 0.886747 0.774218 0.107497
O O13 0.500000 0.797637 0.500000
#
# Coordination Sequence:
#
# PCOD8163169 Si02
#       6
#     8  16  16  16  16  16
#     4  12  25  48  76 106 148 199 254 312 384 452
#     4  12  29  49  75 103 144 204 264 325 383 451
#     4  12  22  39  69 113 153 198 241 304 393 475
#     4  12  25  46  74 110 149 191 250 320 394 472
#     4  12  25  44  72 109 152 193 246 310 388 467
#     4  12  23  42  73 114 157 195 242 311 387 486
#
# _framework density 23.08427
#
# number of rings (size 3 to 8) (size 9 to 14) (size 15 to 20)
#    0.000    0.000    3.636    8.455    2.545    1.091 
#    0.000    1.818    0.000    0.000    0.000    0.000 
#    0.000    0.000    0.000    0.000    0.000    0.000 
#
# Total GULP energy -272611.600874 kJ/mol
# GULP energy per Si atom -12391.436403 kJ/mol
# Density = 2.303173 g / cm^3
# Si number density = 23.084270 Si / 1000 Ang^3
#
#
#
# Elastic Constant Matrix: (Units=GPa)
#
#
# Indices 1 2 3 4 5 6 
#
# 1 131.9331 43.3867 40.0534 0.0000 0.0000 0.0000
# 2 43.3867 159.3855 50.3364 0.0000 0.0000 0.0000
# 3 40.0534 50.3364 121.5615 0.0000 0.0000 0.0000
# 4 0.0000 0.0000 0.0000 11.4873 0.0000 0.0000
# 5 0.0000 0.0000 0.0000 0.0000 -1.0115 0.0000
# 6 0.0000 0.0000 0.0000 0.0000 0.0000 43.1154
#
#
#
# Elastic Compliance Matrix: (Units=1/GPa)
#
#
# Indices 1 2 3 4 5 6 
#
# 1 0.008807 -0.001704 -0.002196 0.000000 0.000000 0.000000
# 2 -0.001704 0.007548 -0.002564 0.000000 0.000000 0.000000
# 3 -0.002196 -0.002564 0.010012 0.000000 0.000000 0.000000
# 4 0.000000 0.000000 0.000000 0.087053 0.000000 0.000000
# 5 0.000000 0.000000 0.000000 0.000000 -0.988619 0.000000
# 6 0.000000 0.000000 0.000000 0.000000 0.000000 0.023194
#
#
# Mechanical properties :
#
#
# Convention : Reuss Voigt Hill
#
# Bulk Modulus (GPa) = 74.41547 75.60367 75.00957
# Shear Modulus (GPa) = -5.99089 29.32515 11.66713
#
# Velocity S-wave (km/s) = -1.61272 3.56807 2.25058
# Velocity P-wave (km/s) = 5.37016 7.05670 6.27039
#
# Compressibility (1/GPa) = 0.01343807
#
# Stress axis : x y z
#
# Youngs Moduli (GPa) = 113.55106 132.49245 99.88389
#
# Poissons Ratio (x) = 0.22572 0.21937
# Poissons Ratio (y) = 0.19345 0.25610
# Poissons Ratio (z) = 0.24939 0.33971
#
# Static dielectric constant tensor:
#      x y z
#    x 4.406530 0.000000 0.000000 
#    y 0.000000 4.327580 0.000000 
#    z 0.000000 0.000000 8.285360 
# 
# 
# High freq. dielectric constant tensor:
#      x y z
#    x 1.928410 0.000000 0.000000 
#    y 0.000000 1.934420 0.000000 
#    z 0.000000 0.000000 1.878210 
# 
# From -- ./inp_files/23658.got.cif
#   From: 2010.03.12/outbox.cif.g09.slc.cpg/sg22_12_cif.got.tgz:23658.got - 2010.04.14 02:24:06.
