data_PCOD8163556
_publ_section_title
;
Structure prediction by ZEFSAII (Michael W. Deem and Ramdas Pophale) SiO2 
 PCOD8163556
Probable space group: I 2 2 2
;
_chemical_formula_sum "Si O2"
_cell_formula_units_Z 36
_cell_length_a 21.647493
_cell_length_b 8.723805
_cell_length_c 8.918655
_cell_angle_alpha 90.000000
_cell_angle_beta 90.000000
_cell_angle_gamma 90.000000
_cell_volume 1684.274687
_symmetry_space_group_name_H-M "I 2 2 2"
_symmetry_group_IT_number 23
_symmetry_cell_setting 'orthorhombic'
loop_
_space_group_symop_operation_xyz
x,y,z
-x,-y,z
x,-y,-z
-x,y,-z
1/2+x,1/2+y,1/2+z
1/2-x,1/2-y,1/2+z
1/2+x,1/2-y,1/2-z
1/2-x,1/2+y,1/2-z
loop_
_atom_site_type_symbol
_atom_site_label
_atom_site_fract_x
_atom_site_fract_y
_atom_site_fract_z
Si Si1 0.301630 0.051397 0.165556
Si Si2 0.917721 0.368606 0.749276
Si Si3 0.190901 0.089629 0.659611
Si Si4 0.000000 0.500000 0.000000
Si Si5 0.932662 0.030551 0.675442
Si Si6 0.500000 0.000000 0.000000
O O1 0.294089 0.232567 0.155056
O O2 0.358519 0.981597 0.262582
O O3 0.237732 0.988555 0.226886
O O4 0.315495 0.000000 0.000000
O O5 0.957845 0.390776 0.898282
O O6 0.901932 0.190761 0.727767
O O7 0.957852 0.393678 0.601129
O O8 0.194922 0.000000 0.500000
O O9 0.121313 0.085101 0.728009
O O10 0.940803 0.000000 0.500000
O O11 0.000000 0.000000 0.752023
#
# Coordination Sequence:
#
# PCOD8163556 Si02
#       6
#     8   8   8   2   8   2
#     4  12  24  44  71  99 134 180 234 283 344 411
#     4  11  23  42  67  99 135 182 227 285 343 416
#     4  11  25  43  67  99 136 178 227 287 348 409
#     4  10  28  42  66  98 152 178 228 266 360 402
#     4  10  21  39  68  99 134 171 226 283 342 404
#     4  10  20  34  70  94 124 166 236 270 332 394
#
# _framework density 21.374185000000001
#
# number of rings (size 3 to 8) (size 9 to 14) (size 15 to 20)
#    0.000    1.111    1.111    6.667    7.778    0.000 
#    4.000    0.556    0.000    0.000    0.000    0.000 
#    0.000    0.000    0.000    0.000    0.000    0.000 
#
# Total GULP energy -223048.080051 kJ/mol
# GULP energy per Si atom -12391.560003 kJ/mol
# Density = 2.132554 g / cm^3
# Si number density = 21.374185 Si / 1000 Ang^3
#
#
#
# Elastic Constant Matrix: (Units=GPa)
#
#
# Indices 1 2 3 4 5 6 
#
# 1 159.2287 39.6131 31.8736 0.0000 0.0000 0.0000
# 2 39.6131 162.9759 25.0359 0.0000 0.0000 0.0000
# 3 31.8736 25.0359 76.6460 0.0000 0.0000 0.0000
# 4 0.0000 0.0000 0.0000 27.1238 0.0000 0.0000
# 5 0.0000 0.0000 0.0000 0.0000 59.1807 0.0000
# 6 0.0000 0.0000 0.0000 0.0000 0.0000 40.0979
#
#
#
# Elastic Compliance Matrix: (Units=1/GPa)
#
#
# Indices 1 2 3 4 5 6 
#
# 1 0.007119 -0.001343 -0.002522 0.000000 0.000000 0.000000
# 2 -0.001343 0.006713 -0.001634 0.000000 0.000000 0.000000
# 3 -0.002522 -0.001634 0.014630 0.000000 0.000000 0.000000
# 4 0.000000 0.000000 0.000000 0.036868 0.000000 0.000000
# 5 0.000000 0.000000 0.000000 0.000000 0.016897 0.000000
# 6 0.000000 0.000000 0.000000 0.000000 0.000000 0.024939
#
#
# Mechanical properties :
#
#
# Convention : Reuss Voigt Hill
#
# Bulk Modulus (GPa) = 57.26177 65.76619 61.51398
# Shear Modulus (GPa) = 40.32706 45.43569 42.88138
#
# Velocity S-wave (km/s) = 4.34835 4.61556 4.48395
# Velocity P-wave (km/s) = 7.21520 7.69677 7.45988
#
# Compressibility (1/GPa) = 0.01746366
#
# Stress axis : x y z
#
# Youngs Moduli (GPa) = 140.46516 148.95633 68.35458
#
# Poissons Ratio (x) = 0.20005 0.17238
# Poissons Ratio (y) = 0.18864 0.11172
# Poissons Ratio (z) = 0.35424 0.24345
#
# Static dielectric constant tensor:
#      x y z
#    x 4.460160 0.000000 0.000000 
#    y 0.000000 3.711210 0.000000 
#    z 0.000000 0.000000 3.572550 
# 
# 
# High freq. dielectric constant tensor:
#      x y z
#    x 1.864000 0.000000 0.000000 
#    y 0.000000 1.848230 0.000000 
#    z 0.000000 0.000000 1.812170 
# 
# From -- ./inp_files/6761.got.cif
#   From: 2010.03.12/outbox.cif.g09.slc.cpg/sg23_4_cif.got.tgz:6761.got - 2010.04.14 02:50:06.
