data_PCOD8163825
_publ_section_title
;
Structure prediction by ZEFSAII (Michael W. Deem and Ramdas Pophale) SiO2 
 PCOD8163825
Probable space group: I 2 2 2
;
_chemical_formula_sum "Si O2"
_cell_formula_units_Z 64
_cell_length_a 16.355791
_cell_length_b 14.852002
_cell_length_c 11.617577
_cell_angle_alpha 90.000000
_cell_angle_beta 90.000000
_cell_angle_gamma 90.000000
_cell_volume 2822.098130
_symmetry_space_group_name_H-M "I 2 2 2"
_symmetry_group_IT_number 23
_symmetry_cell_setting 'orthorhombic'
loop_
_space_group_symop_operation_xyz
x,y,z
-x,-y,z
x,-y,-z
-x,y,-z
1/2+x,1/2+y,1/2+z
1/2-x,1/2-y,1/2+z
1/2+x,1/2-y,1/2-z
1/2-x,1/2+y,1/2-z
loop_
_atom_site_type_symbol
_atom_site_label
_atom_site_fract_x
_atom_site_fract_y
_atom_site_fract_z
Si Si1 0.632965 0.324905 0.736919
Si Si2 0.908856 0.591934 0.538546
Si Si3 0.527892 0.403819 0.184873
Si Si4 0.142630 0.237386 0.398887
Si Si5 0.354533 0.481638 0.633388
Si Si6 0.690612 0.161197 0.313158
Si Si7 0.320569 0.177983 0.429828
Si Si8 0.686645 0.958802 0.239251
O O1 0.547702 0.333629 0.805201
O O2 0.650747 0.419982 0.682743
O O3 0.713080 0.308664 0.817595
O O4 0.622109 0.247376 0.640363
O O5 0.859006 0.500000 0.500000
O O6 0.885850 0.686521 0.485821
O O7 0.889825 0.591359 0.675343
O O8 0.000000 0.574352 0.500000
O O9 0.500000 0.500000 0.131066
O O10 0.589032 0.354260 0.095510
O O11 0.571346 0.424839 0.308573
O O12 0.140221 0.269776 0.266159
O O13 0.232854 0.221745 0.440754
O O14 0.369915 0.500000 0.500000
O O15 0.269026 0.433026 0.667259
O O16 0.649269 0.163216 0.439372
O O17 0.675750 0.064886 0.253580
O O18 0.311929 0.082300 0.366934
#
# Coordination Sequence:
#
# PCOD8163825 Si02
#       8
#     8   8   8   8   8   8   8   8
#     4   9  23  38  62  94 133 174 224 276 336 415
#     4  11  25  44  72  99 129 173 229 298 351 405
#     4  10  22  43  62  96 145 178 222 282 356 422
#     4  11  24  41  68 100 132 176 230 288 340 430
#     4  10  21  37  66  94 130 174 222 277 340 415
#     4  10  23  43  63  96 135 173 229 287 344 412
#     4  11  24  39  68  98 132 181 229 285 349 419
#     4  11  22  43  68  98 129 176 229 287 353 419
#
# _framework density 22.678162
#
# number of rings (size 3 to 8) (size 9 to 14) (size 15 to 20)
#    0.000    1.625    2.500    0.750   10.500    2.250 
#    0.000    0.000    0.000    0.750    0.000    0.000 
#    0.000    0.000    0.000    0.000    0.000    0.000 
#
# Total GULP energy -396539.003234 kJ/mol
# GULP energy per Si atom -12391.843851 kJ/mol
# Density = 2.262655 g / cm^3
# Si number density = 22.678162 Si / 1000 Ang^3
#
#
#
# Elastic Constant Matrix: (Units=GPa)
#
#
# Indices 1 2 3 4 5 6 
#
# 1 51.0563 28.5437 -3.6632 0.0000 0.0000 0.0000
# 2 28.5437 102.1317 24.3500 0.0000 0.0000 0.0000
# 3 -3.6632 24.3500 96.1305 0.0000 0.0000 0.0000
# 4 0.0000 0.0000 0.0000 53.3310 0.0000 0.0000
# 5 0.0000 0.0000 0.0000 0.0000 16.2704 0.0000
# 6 0.0000 0.0000 0.0000 0.0000 0.0000 34.6178
#
#
#
# Elastic Compliance Matrix: (Units=1/GPa)
#
#
# Indices 1 2 3 4 5 6 
#
# 1 0.023886 -0.007336 0.002768 0.000000 0.000000 0.000000
# 2 -0.007336 0.012673 -0.003490 0.000000 0.000000 0.000000
# 3 0.002768 -0.003490 0.011392 0.000000 0.000000 0.000000
# 4 0.000000 0.000000 0.000000 0.018751 0.000000 0.000000
# 5 0.000000 0.000000 0.000000 0.000000 0.061461 0.000000
# 6 0.000000 0.000000 0.000000 0.000000 0.000000 0.028887
#
#
# Mechanical properties :
#
#
# Convention : Reuss Voigt Hill
#
# Bulk Modulus (GPa) = 31.40974 38.64218 35.02596
# Shear Modulus (GPa) = 27.20688 34.18303 30.69495
#
# Velocity S-wave (km/s) = 3.46742 3.88662 3.68299
# Velocity P-wave (km/s) = 5.46909 6.10061 5.79346
#
# Compressibility (1/GPa) = 0.03183726
#
# Stress axis : x y z
#
# Youngs Moduli (GPa) = 41.86565 78.90506 87.78113
#
# Poissons Ratio (x) = 0.57882 -0.24301
# Poissons Ratio (y) = 0.30711 0.30633
# Poissons Ratio (z) = -0.11590 0.27536
#
# Static dielectric constant tensor:
#      x y z
#    x 4.150080 0.000000 0.000000 
#    y 0.000000 4.281800 0.000000 
#    z 0.000000 0.000000 3.905440 
# 
# 
# High freq. dielectric constant tensor:
#      x y z
#    x 1.874430 0.000000 0.000000 
#    y 0.000000 1.912030 0.000000 
#    z 0.000000 0.000000 1.884190 
# 
# From -- ./inp_files/17578.got.cif
#   From: 2010.03.12/outbox.cif.g09.slc.cpg/sg23_9_cif.got.tgz:17578.got - 2010.04.14 02:50:06.
