data_PCOD8163894
_publ_section_title
;
Structure prediction by ZEFSAII (Michael W. Deem and Ramdas Pophale) SiO2 
 PCOD8163894
Probable space group: I 2 2 2
;
_chemical_formula_sum "Si O2"
_cell_formula_units_Z 64
_cell_length_a 14.668306
_cell_length_b 25.591302
_cell_length_c 8.432642
_cell_angle_alpha 90.000000
_cell_angle_beta 90.000000
_cell_angle_gamma 90.000000
_cell_volume 3165.453997
_symmetry_space_group_name_H-M "I 2 2 2"
_symmetry_group_IT_number 23
_symmetry_cell_setting 'orthorhombic'
loop_
_space_group_symop_operation_xyz
x,y,z
-x,-y,z
x,-y,-z
-x,y,-z
1/2+x,1/2+y,1/2+z
1/2-x,1/2-y,1/2+z
1/2+x,1/2-y,1/2-z
1/2-x,1/2+y,1/2-z
loop_
_atom_site_type_symbol
_atom_site_label
_atom_site_fract_x
_atom_site_fract_y
_atom_site_fract_z
Si Si1 0.870318 0.555334 0.418446
Si Si2 0.784674 0.319450 0.897955
Si Si3 0.760518 0.208806 0.760681
Si Si4 0.490185 0.439032 0.176908
Si Si5 0.089234 0.139188 0.094139
Si Si6 0.536601 0.887339 0.657865
Si Si7 0.808491 0.097342 0.197163
Si Si8 0.585825 0.157740 0.893416
O O1 0.889597 0.500000 0.500000
O O2 0.945070 0.566143 0.282372
O O3 0.773219 0.556619 0.331617
O O4 0.876954 0.602776 0.541309
O O5 0.781582 0.269491 0.783114
O O6 0.879973 0.348700 0.875197
O O7 0.709328 0.358116 0.827519
O O8 0.764811 0.304517 0.079577
O O9 0.857201 0.181555 0.801477
O O10 0.674114 0.195174 0.876252
O O11 0.500000 0.500000 0.183299
O O12 0.558314 0.408701 0.294241
O O13 0.387601 0.436213 0.231497
O O14 0.500000 0.416180 0.000000
O O15 0.164857 0.121034 0.971186
O O16 0.000000 0.162071 0.000000
O O17 0.500000 0.915099 0.500000
O O18 0.454228 0.850998 0.719059
O O19 0.500000 0.179730 0.000000
#
# Coordination Sequence:
#
# PCOD8163894 Si02
#       8
#     8   8   8   8   8   8   8   8
#     4  10  22  39  67  96 127 169 214 269 331 399
#     4  11  25  40  66  94 129 173 217 271 331 395
#     4  12  23  42  65  93 132 171 221 271 329 389
#     4  10  22  39  61  92 129 171 213 266 327 387
#     4  10  22  39  63  90 127 165 216 272 319 387
#     4  10  21  43  65  93 130 171 215 270 329 397
#     4  10  21  40  62  90 130 162 219 262 328 392
#     4  10  22  40  65  89 133 169 214 267 331 390
#
# _framework density 20.218267999999998
#
# number of rings (size 3 to 8) (size 9 to 14) (size 15 to 20)
#    0.000    1.625    2.500    1.500    5.250    4.500 
#    4.500    1.875    0.000    0.000    0.000    0.000 
#    0.000    0.000    0.000    0.000    0.000    0.000 
#
# Total GULP energy -396539.931941 kJ/mol
# GULP energy per Si atom -12391.872873 kJ/mol
# Density = 2.017225 g / cm^3
# Si number density = 20.218268 Si / 1000 Ang^3
#
#
#
# Elastic Constant Matrix: (Units=GPa)
#
#
# Indices 1 2 3 4 5 6 
#
# 1 76.7045 21.9566 22.1812 0.0015 -0.0015 0.0011
# 2 21.9566 88.7854 37.5155 -0.0024 -0.0017 0.0013
# 3 22.1812 37.5155 114.4459 -0.0044 -0.0070 0.0148
# 4 0.0015 -0.0024 -0.0044 31.9479 -0.0007 0.0022
# 5 -0.0015 -0.0017 -0.0070 -0.0007 32.9606 0.0020
# 6 0.0011 0.0013 0.0148 0.0022 0.0020 29.5149
#
#
#
# Elastic Compliance Matrix: (Units=1/GPa)
#
#
# Indices 1 2 3 4 5 6 
#
# 1 0.014371 -0.002759 -0.001881 -0.000001 0.000000 0.000001
# 2 -0.002759 0.013604 -0.003925 0.000001 0.000000 0.000001
# 3 -0.001881 -0.003925 0.010389 0.000001 0.000002 -0.000005
# 4 -0.000001 0.000001 0.000001 0.031301 0.000001 -0.000002
# 5 0.000000 0.000000 0.000002 0.000001 0.030339 -0.000002
# 6 0.000001 0.000001 -0.000005 -0.000002 -0.000002 0.033881
#
#
# Mechanical properties :
#
#
# Convention : Reuss Voigt Hill
#
# Bulk Modulus (GPa) = 47.09386 49.24917 48.17151
# Shear Modulus (GPa) = 31.62720 32.10350 31.86535
#
# Velocity S-wave (km/s) = 3.95940 3.98910 3.97428
# Velocity P-wave (km/s) = 6.65175 6.75491 6.70353
#
# Compressibility (1/GPa) = 0.02123419
#
# Stress axis : x y z
#
# Youngs Moduli (GPa) = 69.58589 73.50923 96.25801
#
# Poissons Ratio (x) = 0.20282 0.18104
# Poissons Ratio (y) = 0.19200 0.37777
# Poissons Ratio (z) = 0.13088 0.28849
#
# Static dielectric constant tensor:
#      x y z
#    x 3.876510 0.000010 -0.000020 
#    y 0.000010 3.383280 -0.000010 
#    z -0.000020 -0.000010 4.010590 
# 
# 
# High freq. dielectric constant tensor:
#      x y z
#    x 1.809860 0.000000 0.000000 
#    y 0.000000 1.765600 0.000000 
#    z 0.000000 0.000000 1.806620 
# 
# From -- ./inp_files/10336.got.cif
#   From: 2010.03.12/outbox.cif.g09.slc.cpg/sg23_6_cif.got.tgz:10336.got - 2010.04.14 02:50:06.
