data_PCOD8163369
_publ_section_title
;
Structure prediction by ZEFSAII (Michael W. Deem and Ramdas Pophale) SiO2 
 PCOD8163369
Probable space group: I 2 2 2
;
_chemical_formula_sum "Si O2"
_cell_formula_units_Z 28
_cell_length_a 7.417590
_cell_length_b 28.329308
_cell_length_c 5.300494
_cell_angle_alpha 90.000000
_cell_angle_beta 90.000000
_cell_angle_gamma 90.000000
_cell_volume 1113.820323
_symmetry_space_group_name_H-M "I 2 2 2"
_symmetry_group_IT_number 23
_symmetry_cell_setting 'orthorhombic'
loop_
_space_group_symop_operation_xyz
x,y,z
-x,-y,z
x,-y,-z
-x,y,-z
1/2+x,1/2+y,1/2+z
1/2-x,1/2-y,1/2+z
1/2+x,1/2-y,1/2-z
1/2-x,1/2+y,1/2-z
loop_
_atom_site_type_symbol
_atom_site_label
_atom_site_fract_x
_atom_site_fract_y
_atom_site_fract_z
Si Si1 0.000000 0.271456 0.000000
Si Si2 0.785190 0.946435 0.492155
Si Si3 0.857020 0.812076 0.697651
Si Si4 0.697574 0.598411 0.488298
O O1 0.940109 0.238493 0.232073
O O2 0.163969 0.305344 0.070067
O O3 0.701143 0.921829 0.741318
O O4 0.000000 0.943589 0.500000
O O5 0.715451 0.000000 0.500000
O O6 0.706273 0.917471 0.248875
O O7 0.824676 0.844829 0.945970
O O8 0.000000 0.836509 0.500000
O O9 0.500000 0.574671 0.500000
#
# Coordination Sequence:
#
# PCOD8163369 Si02
#       4
#     4   8   8   8
#     4  12  26  42  66  94 132 190 242 302 352 430
#     4   9  17  30  51  86 128 169 213 271 343 410
#     4  12  24  42  64  95 135 182 244 295 360 416
#     4  10  19  32  57  86 127 174 218 280 341 408
#
# _framework density 25.138707
#
# number of rings (size 3 to 8) (size 9 to 14) (size 15 to 20)
#    0.000    1.429    4.286    3.429    0.000    3.429 
#    0.000    0.000    0.000    0.000    0.000    1.000 
#    0.000   43.429    0.000    0.000    0.000    0.000 
#
# Total GULP energy -173514.307652 kJ/mol
# GULP energy per Si atom -12393.879118 kJ/mol
# Density = 2.508149 g / cm^3
# Si number density = 25.138707 Si / 1000 Ang^3
#
#
#
# Elastic Constant Matrix: (Units=GPa)
#
#
# Indices 1 2 3 4 5 6 
#
# 1 100.8082 23.1774 30.3981 -0.0135 -0.0061 0.0212
# 2 23.1774 135.6156 70.4632 0.0270 0.0100 -0.0072
# 3 30.3981 70.4632 204.9236 0.0271 0.0004 -0.0103
# 4 -0.0135 0.0270 0.0271 58.1683 -0.0111 -0.0066
# 5 -0.0061 0.0100 0.0004 -0.0111 11.5160 -0.0113
# 6 0.0212 -0.0072 -0.0103 -0.0066 -0.0113 -12.4313
#
#
#
# Elastic Compliance Matrix: (Units=1/GPa)
#
#
# Indices 1 2 3 4 5 6 
#
# 1 0.010543 -0.001205 -0.001150 0.000004 0.000007 0.000020
# 2 -0.001205 0.009115 -0.002956 -0.000003 -0.000008 -0.000005
# 3 -0.001150 -0.002956 0.006067 -0.000002 0.000002 -0.000005
# 4 0.000004 -0.000003 -0.000002 0.017191 0.000017 -0.000009
# 5 0.000007 -0.000008 0.000002 0.000017 0.086836 -0.000079
# 6 0.000020 -0.000005 -0.000005 -0.000009 -0.000079 -0.080442
#
#
# Mechanical properties :
#
#
# Convention : Reuss Voigt Hill
#
# Bulk Modulus (GPa) = 66.20064 76.60273 71.40169
# Shear Modulus (GPa) = 76.96326 32.60452 54.78389
#
# Velocity S-wave (km/s) = 5.53912 3.60527 4.67332
# Velocity P-wave (km/s) = 8.20369 6.91873 7.58846
#
# Compressibility (1/GPa) = 0.01510559
#
# Stress axis : x y z
#
# Youngs Moduli (GPa) = 94.84532 109.70524 164.83332
#
# Poissons Ratio (x) = 0.13214 0.18953
# Poissons Ratio (y) = 0.11424 0.48719
# Poissons Ratio (z) = 0.10906 0.32425
#
# Static dielectric constant tensor:
#      x y z
#    x 3.908100 0.000010 -0.000060 
#    y 0.000010 4.345680 0.000220 
#    z -0.000060 0.000220 5.012270 
# 
# 
# High freq. dielectric constant tensor:
#      x y z
#    x 1.955450 0.000000 0.000000 
#    y 0.000000 1.994850 0.000000 
#    z 0.000000 0.000000 2.017830 
# 
# From -- ./inp_files/594.got.cif
#   From: 2010.03.12/outbox.cif.g09.slc.cpg/sg23_1_cif.got.tgz:594.got - 2010.04.14 02:50:06.
