data_PCOD8163338
_publ_section_title
;
Structure prediction by ZEFSAII (Michael W. Deem and Ramdas Pophale) SiO2 
 PCOD8163338
Probable space group: I 2 2 2
;
_chemical_formula_sum "Si O2"
_cell_formula_units_Z 64
_cell_length_a 23.329043
_cell_length_b 9.041734
_cell_length_c 19.258555
_cell_angle_alpha 90.000000
_cell_angle_beta 90.000000
_cell_angle_gamma 90.000000
_cell_volume 4062.303324
_symmetry_space_group_name_H-M "I 2 2 2"
_symmetry_group_IT_number 23
_symmetry_cell_setting 'orthorhombic'
loop_
_space_group_symop_operation_xyz
x,y,z
-x,-y,z
x,-y,-z
-x,y,-z
1/2+x,1/2+y,1/2+z
1/2-x,1/2-y,1/2+z
1/2+x,1/2-y,1/2-z
1/2-x,1/2+y,1/2-z
loop_
_atom_site_type_symbol
_atom_site_label
_atom_site_fract_x
_atom_site_fract_y
_atom_site_fract_z
Si Si1 0.837760 0.327016 0.220981
Si Si2 0.747266 0.326403 0.500000
Si Si3 0.337759 0.172983 0.720980
Si Si4 0.065524 0.825388 0.856501
Si Si5 0.434476 0.674613 0.643499
Si Si6 0.266907 0.827474 0.850330
Si Si7 0.881146 0.175896 0.000000
Si Si8 0.733094 0.827476 0.850329
O O1 0.843426 0.499999 0.207285
O O2 0.897957 0.249723 0.204783
O O3 0.821200 0.292385 0.301330
O O4 0.788559 0.264073 0.171560
O O5 0.739005 0.500000 0.500000
O O6 0.781526 0.280141 0.429958
O O7 0.683192 0.258222 0.500000
O O8 0.781525 0.280142 0.570043
O O9 0.397956 0.250278 0.704782
O O10 0.288558 0.235922 0.671559
O O11 0.321199 0.207615 0.801329
O O12 0.086261 0.765996 0.931508
O O13 0.000000 0.778331 0.845592
O O14 0.073760 0.000000 0.851097
O O15 0.413739 0.734004 0.568493
O O16 0.250166 0.999999 0.845068
O O17 0.881866 0.000000 0.000000
#
# Coordination Sequence:
#
# PCOD8163338 Si02
#       8
#     8   8   8   8   8   8   8   8
#     4  10  19  29  43  65  92 117 142 180 224 262
#     4   9  14  25  48  68  84 112 149 184 211 249
#     4  10  19  29  43  65  92 117 142 180 224 262
#     4  10  19  31  47  64  85 118 157 187 211 249
#     4  10  19  31  47  64  85 118 157 187 211 249
#     4   9  17  30  47  65  86 115 149 181 216 259
#     4   9  15  26  45  66  86 113 153 189 207 237
#     4   9  17  30  47  65  86 115 149 181 216 259
#
# _framework density 15.754609
#
# number of rings (size 3 to 8) (size 9 to 14) (size 15 to 20)
#    0.000    2.500    2.500    1.125    0.000    3.000 
#    0.000    2.500    0.000    1.500    0.000    0.875 
#    0.000    7.000    0.000    0.000    0.000    0.000 
#
# Total GULP energy -396646.363682 kJ/mol
# GULP energy per Si atom -12395.198865 kJ/mol
# Density = 1.571875 g / cm^3
# Si number density = 15.754609 Si / 1000 Ang^3
#
#
#
# Elastic Constant Matrix: (Units=GPa)
#
#
# Indices 1 2 3 4 5 6 
#
# 1 99.0727 30.9919 72.5125 0.0000 0.0000 0.0000
# 2 30.9919 33.0255 32.7514 0.0000 0.0000 0.0000
# 3 72.5125 32.7514 149.5849 0.0000 0.0000 0.0000
# 4 0.0000 0.0000 0.0000 19.0579 0.0000 0.0000
# 5 0.0000 0.0000 0.0000 0.0000 25.6698 0.0000
# 6 0.0000 0.0000 0.0000 0.0000 0.0000 23.2845
#
#
#
# Elastic Compliance Matrix: (Units=1/GPa)
#
#
# Indices 1 2 3 4 5 6 
#
# 1 0.018154 -0.010613 -0.006476 0.000000 0.000000 0.000000
# 2 -0.010613 0.044883 -0.004682 0.000000 0.000000 0.000000
# 3 -0.006476 -0.004682 0.010850 0.000000 0.000000 0.000000
# 4 0.000000 0.000000 0.000000 0.052472 0.000000 0.000000
# 5 0.000000 0.000000 0.000000 0.000000 0.038956 0.000000
# 6 0.000000 0.000000 0.000000 0.000000 0.000000 0.042947
#
#
# Mechanical properties :
#
#
# Convention : Reuss Voigt Hill
#
# Bulk Modulus (GPa) = 32.95699 61.57718 47.26709
# Shear Modulus (GPa) = 19.08987 23.29760 21.19373
#
# Velocity S-wave (km/s) = 3.48473 3.84966 3.67173
# Velocity P-wave (km/s) = 6.09553 7.67658 6.93128
#
# Compressibility (1/GPa) = 0.03034257
#
# Stress axis : x y z
#
# Youngs Moduli (GPa) = 55.08489 22.28037 92.16734
#
# Poissons Ratio (x) = 0.23647 0.59692
# Poissons Ratio (y) = 0.58463 0.43154
# Poissons Ratio (z) = 0.35675 0.10432
#
# Static dielectric constant tensor:
#      x y z
#    x 2.867120 0.000000 0.000000 
#    y 0.000000 2.816880 0.000000 
#    z 0.000000 0.000000 3.345290 
# 
# 
# High freq. dielectric constant tensor:
#      x y z
#    x 1.576440 0.000000 0.000000 
#    y 0.000000 1.585470 0.000000 
#    z 0.000000 0.000000 1.607990 
# 
# From -- ./inp_files/25384.got.cif
#   From: 2010.03.12/outbox.cif.g09.slc.cpg/sg23_13_cif.got.tgz:25384.got - 2010.04.14 02:50:06.
