data_PCOD8163711
_publ_section_title
;
Structure prediction by ZEFSAII (Michael W. Deem and Ramdas Pophale) SiO2 
 PCOD8163711
Probable space group: I 2 2 2
;
_chemical_formula_sum "Si O2"
_cell_formula_units_Z 48
_cell_length_a 8.452377
_cell_length_b 15.567357
_cell_length_c 16.474535
_cell_angle_alpha 90.000000
_cell_angle_beta 90.000000
_cell_angle_gamma 90.000000
_cell_volume 2167.738595
_symmetry_space_group_name_H-M "I 2 2 2"
_symmetry_group_IT_number 23
_symmetry_cell_setting 'orthorhombic'
loop_
_space_group_symop_operation_xyz
x,y,z
-x,-y,z
x,-y,-z
-x,y,-z
1/2+x,1/2+y,1/2+z
1/2-x,1/2-y,1/2+z
1/2+x,1/2-y,1/2-z
1/2-x,1/2+y,1/2-z
loop_
_atom_site_type_symbol
_atom_site_label
_atom_site_fract_x
_atom_site_fract_y
_atom_site_fract_z
Si Si1 0.254203 0.429793 0.801248
Si Si2 0.194509 0.941730 0.422999
Si Si3 0.804450 0.770823 0.211765
Si Si4 0.500000 0.295559 0.000000
Si Si5 0.491538 0.839617 0.406261
Si Si6 0.000000 0.500000 0.683817
Si Si7 0.042739 0.313393 0.353296
O O1 0.367047 0.496585 0.849869
O O2 0.359272 0.362990 0.748989
O O3 0.148876 0.484089 0.740612
O O4 0.155314 0.371884 0.867116
O O5 0.374407 0.920984 0.399919
O O6 0.106114 0.852551 0.439537
O O7 0.176781 0.000000 0.500000
O O8 0.922094 0.743769 0.139678
O O9 0.623759 0.776674 0.181582
O O10 0.823256 0.701288 0.284722
O O11 0.593747 0.233846 0.062819
O O12 0.500000 0.811968 0.500000
O O13 0.968929 0.415508 0.628876
#
# Coordination Sequence:
#
# PCOD8163711 Si02
#       7
#     8   8   8   4   8   4   8
#     4  11  21  38  66  95 131 177 225 265 328 413
#     4  12  22  37  58  94 136 171 210 272 340 396
#     4  11  22  41  64  94 137 176 221 268 338 400
#     4  12  27  39  60 100 138 162 218 295 351 374
#     4  12  22  38  64  97 132 175 225 272 324 406
#     4  10  20  39  69  86 122 180 230 258 319 413
#     4  11  24  43  65  96 131 178 226 279 335 402
#
# _framework density 22.142890000000001
#
# number of rings (size 3 to 8) (size 9 to 14) (size 15 to 20)
#    0.000    0.667    8.333    1.250    0.000    0.333 
#    0.000    0.000    0.000    0.000    0.000    0.000 
#    0.000    0.000    0.000    0.000    0.000    0.000 
#
# Total GULP energy -297375.961895 kJ/mol
# GULP energy per Si atom -12390.665079 kJ/mol
# Density = 2.209249 g / cm^3
# Si number density = 22.142890 Si / 1000 Ang^3
#
#
#
# Elastic Constant Matrix: (Units=GPa)
#
#
# Indices 1 2 3 4 5 6 
#
# 1 43.4695 30.5824 12.9882 0.0000 0.0000 0.0000
# 2 30.5824 152.2866 61.7908 0.0000 0.0000 0.0000
# 3 12.9882 61.7908 105.1377 0.0000 0.0000 0.0000
# 4 0.0000 0.0000 0.0000 80.6061 0.0000 0.0000
# 5 0.0000 0.0000 0.0000 0.0000 14.5559 0.0000
# 6 0.0000 0.0000 0.0000 0.0000 0.0000 22.1976
#
#
#
# Elastic Compliance Matrix: (Units=1/GPa)
#
#
# Indices 1 2 3 4 5 6 
#
# 1 0.026793 -0.005302 -0.000194 0.000000 0.000000 0.000000
# 2 -0.005302 0.009672 -0.005029 0.000000 0.000000 0.000000
# 3 -0.000194 -0.005029 0.012491 0.000000 0.000000 0.000000
# 4 0.000000 0.000000 0.000000 0.012406 0.000000 0.000000
# 5 0.000000 0.000000 0.000000 0.000000 0.068700 0.000000
# 6 0.000000 0.000000 0.000000 0.000000 0.000000 0.045050
#
#
# Mechanical properties :
#
#
# Convention : Reuss Voigt Hill
#
# Bulk Modulus (GPa) = 35.83522 56.84628 46.34075
# Shear Modulus (GPa) = 24.33515 36.50743 30.42129
#
# Velocity S-wave (km/s) = 3.31872 4.06485 3.71059
# Velocity P-wave (km/s) = 5.55913 6.91078 6.27148
#
# Compressibility (1/GPa) = 0.02790551
#
# Stress axis : x y z
#
# Youngs Moduli (GPa) = 37.32371 103.39143 80.05695
#
# Poissons Ratio (x) = 0.54817 0.01552
# Poissons Ratio (y) = 0.19789 0.40264
# Poissons Ratio (z) = 0.00723 0.51999
#
# Static dielectric constant tensor:
#      x y z
#    x 3.857310 0.000000 0.000000 
#    y 0.000000 4.450230 0.000000 
#    z 0.000000 0.000000 4.201810 
# 
# 
# High freq. dielectric constant tensor:
#      x y z
#    x 1.849120 0.000000 0.000000 
#    y 0.000000 1.877750 0.000000 
#    z 0.000000 0.000000 1.868510 
# 
# From -- ./inp_files/23758.got.cif
#   From: 2010.03.12/outbox.cif.g09.slc.cpg/sg23_12_cif.got.tgz:23758.got - 2010.04.14 02:50:06.
