data_PCOD8163772
_publ_section_title
;
Structure prediction by ZEFSAII (Michael W. Deem and Ramdas Pophale) SiO2 
 PCOD8163772
Probable space group: I 2 2 2
;
_chemical_formula_sum "Si O2"
_cell_formula_units_Z 56
_cell_length_a 5.430932
_cell_length_b 17.150839
_cell_length_c 26.364328
_cell_angle_alpha 90.000000
_cell_angle_beta 90.000000
_cell_angle_gamma 90.000000
_cell_volume 2455.706395
_symmetry_space_group_name_H-M "I 2 2 2"
_symmetry_group_IT_number 23
_symmetry_cell_setting 'orthorhombic'
loop_
_space_group_symop_operation_xyz
x,y,z
-x,-y,z
x,-y,-z
-x,y,-z
1/2+x,1/2+y,1/2+z
1/2-x,1/2-y,1/2+z
1/2+x,1/2-y,1/2-z
1/2-x,1/2+y,1/2-z
loop_
_atom_site_type_symbol
_atom_site_label
_atom_site_fract_x
_atom_site_fract_y
_atom_site_fract_z
Si Si1 0.246795 0.968755 0.942995
Si Si2 0.975827 0.642325 0.055700
Si Si3 0.151349 0.294375 0.551290
Si Si4 0.848246 0.211467 0.626896
Si Si5 0.741344 0.955266 0.752653
Si Si6 0.829148 0.928461 0.641502
Si Si7 0.322899 0.720279 0.724635
O O1 0.214194 0.876237 0.942144
O O2 0.500000 0.000000 0.916445
O O3 0.000000 0.000000 0.914658
O O4 0.248872 0.000000 0.000000
O O5 0.843955 0.724932 0.048908
O O6 0.842258 0.581662 0.092589
O O7 0.236164 0.660372 0.081188
O O8 0.000000 0.603525 0.000000
O O9 0.000000 0.295256 0.500000
O O10 0.984092 0.284369 0.601201
O O11 0.654891 0.245161 0.667523
O O12 0.032207 0.152141 0.654983
O O13 0.680507 0.946325 0.692826
O O14 0.769269 0.871461 0.778947
O O15 0.500000 0.000000 0.775509
O O16 0.000000 0.000000 0.761181
O O17 0.000000 0.000000 0.626695
O O18 0.585802 0.738068 0.749869
#
# Coordination Sequence:
#
# PCOD8163772 Si02
#       7
#     8   8   8   8   8   8   8
#     4  10  21  34  61  91 122 169 239 270 333 395
#     4  11  24  40  69  95 137 189 238 289 355 409
#     4  11  22  41  63  96 136 182 229 297 337 419
#     4  11  25  43  70 104 132 185 236 287 355 424
#     4  11  24  45  77 106 143 186 231 298 369 438
#     4  10  24  43  67 101 134 182 237 290 357 434
#     4  12  25  46  76 109 142 181 240 297 361 429
#
# _framework density 22.804027999999999
#
# number of rings (size 3 to 8) (size 9 to 14) (size 15 to 20)
#    0.000    1.143    4.286    1.714   12.000    0.000 
#    0.000    2.857    0.000    0.000    0.000    0.000 
#    0.000    0.000    0.000    0.000    0.000    0.000 
#
# Total GULP energy -347115.380095 kJ/mol
# GULP energy per Si atom -12396.977861 kJ/mol
# Density = 2.275213 g / cm^3
# Si number density = 22.804028 Si / 1000 Ang^3
#
#
#
# Elastic Constant Matrix: (Units=GPa)
#
#
# Indices 1 2 3 4 5 6 
#
# 1 109.4008 15.1745 1.8086 0.0000 0.0000 0.0000
# 2 15.1745 104.4791 3.1913 0.0000 0.0000 0.0000
# 3 1.8086 3.1913 64.7881 0.0000 0.0000 0.0000
# 4 0.0000 0.0000 0.0000 27.1228 0.0000 0.0000
# 5 0.0000 0.0000 0.0000 0.0000 37.5612 0.0000
# 6 0.0000 0.0000 0.0000 0.0000 0.0000 -54.6731
#
#
#
# Elastic Compliance Matrix: (Units=1/GPa)
#
#
# Indices 1 2 3 4 5 6 
#
# 1 0.009331 -0.001349 -0.000194 0.000000 0.000000 0.000000
# 2 -0.001349 0.009781 -0.000444 0.000000 0.000000 0.000000
# 3 -0.000194 -0.000444 0.015462 0.000000 0.000000 0.000000
# 4 0.000000 0.000000 0.000000 0.036869 0.000000 0.000000
# 5 0.000000 0.000000 0.000000 0.000000 0.026623 0.000000
# 6 0.000000 0.000000 0.000000 0.000000 0.000000 -0.018291
#
#
# Mechanical properties :
#
#
# Convention : Reuss Voigt Hill
#
# Bulk Modulus (GPa) = 32.68056 35.44631 34.06344
# Shear Modulus (GPa) = 53.21938 19.23509 36.22723
#
# Velocity S-wave (km/s) = 4.83615 2.90745 3.99009
# Velocity P-wave (km/s) = 6.74883 5.18157 6.01645
#
# Compressibility (1/GPa) = 0.03059923
#
# Stress axis : x y z
#
# Youngs Moduli (GPa) = 107.16889 102.24077 64.67376
#
# Poissons Ratio (x) = 0.13796 0.01255
# Poissons Ratio (y) = 0.14460 0.02872
# Poissons Ratio (z) = 0.02079 0.04541
#
# Static dielectric constant tensor:
#      x y z
#    x 4.910840 0.000000 0.000000 
#    y 0.000000 3.466100 0.000000 
#    z 0.000000 0.000000 5.006870 
# 
# 
# High freq. dielectric constant tensor:
#      x y z
#    x 1.906970 0.000000 0.000000 
#    y 0.000000 1.908490 0.000000 
#    z 0.000000 0.000000 1.881560 
# 
# From -- ./inp_files/29964.got.cif
#   From: 2010.03.12/outbox.cif.g09.slc.cpg/sg23_15_cif.got.tgz:29964.got - 2010.04.14 02:50:06.
