data_PCOD8163209
_publ_section_title
;
Structure prediction by ZEFSAII (Michael W. Deem and Ramdas Pophale) SiO2 
 PCOD8163209
Probable space group: I 2 2 2
;
_chemical_formula_sum "Si O2"
_cell_formula_units_Z 52
_cell_length_a 7.977081
_cell_length_b 10.910087
_cell_length_c 26.600098
_cell_angle_alpha 90.000000
_cell_angle_beta 90.000000
_cell_angle_gamma 90.000000
_cell_volume 2315.023758
_symmetry_space_group_name_H-M "I 2 2 2"
_symmetry_group_IT_number 23
_symmetry_cell_setting 'orthorhombic'
loop_
_space_group_symop_operation_xyz
x,y,z
-x,-y,z
x,-y,-z
-x,y,-z
1/2+x,1/2+y,1/2+z
1/2-x,1/2-y,1/2+z
1/2+x,1/2-y,1/2-z
1/2-x,1/2+y,1/2-z
loop_
_atom_site_type_symbol
_atom_site_label
_atom_site_fract_x
_atom_site_fract_y
_atom_site_fract_z
Si Si1 0.500000 0.000000 0.166385
Si Si2 0.125183 0.261974 0.812845
Si Si3 0.244928 0.500000 0.500000
Si Si4 0.995856 0.230456 0.292525
Si Si5 0.842705 0.916099 0.620036
Si Si6 0.000000 0.500000 0.148778
Si Si7 0.056849 0.723739 0.450059
Si Si8 0.244756 0.889327 0.099605
O O1 0.481065 0.122408 0.199827
O O2 0.668351 0.001766 0.131830
O O3 0.314047 0.309149 0.803704
O O4 0.004292 0.378095 0.818044
O O5 0.112541 0.178549 0.863678
O O6 0.055031 0.191664 0.764089
O O7 0.132835 0.595749 0.469350
O O8 0.344899 0.566650 0.546525
O O9 0.872528 0.149093 0.326421
O O10 0.672559 0.995719 0.617064
O O11 0.813522 0.808702 0.579256
O O12 0.000000 0.000000 0.604701
O O13 0.000000 0.796822 0.500000
O O14 0.898766 0.701637 0.413227
#
# Coordination Sequence:
#
# PCOD8163209 Si02
#       8
#     4   8   4   8   8   4   8   8
#     4  10  17  33  62  94 128 170 232 301 357 414
#     4  11  23  40  63  96 139 186 240 298 353 435
#     4  10  17  32  72 107 136 173 235 306 383 433
#     4  11  22  39  63  98 139 186 239 291 359 425
#     4  12  23  44  68 101 143 193 236 292 356 437
#     4  12  25  44  68  93 144 194 243 290 353 418
#     4  10  18  34  66 102 133 176 236 296 366 441
#     4  10  16  33  60 103 134 168 224 293 361 435
#
# _framework density 22.461970000000001
#
# number of rings (size 3 to 8) (size 9 to 14) (size 15 to 20)
#    0.000    1.231    6.154    3.000    0.000    1.538 
#    0.000    0.000    0.000   17.538    0.000    1.077 
#    0.000    0.000    0.000    0.000    0.000    0.000 
#
# Total GULP energy -322145.554122 kJ/mol
# GULP energy per Si atom -12390.213620 kJ/mol
# Density = 2.241085 g / cm^3
# Si number density = 22.461970 Si / 1000 Ang^3
#
#
#
# Elastic Constant Matrix: (Units=GPa)
#
#
# Indices 1 2 3 4 5 6 
#
# 1 88.2561 23.6613 22.3339 0.0000 0.0000 0.0000
# 2 23.6613 86.3226 43.2429 0.0000 0.0000 0.0000
# 3 22.3339 43.2429 162.0973 0.0000 0.0000 0.0000
# 4 0.0000 0.0000 0.0000 38.8260 0.0000 0.0000
# 5 0.0000 0.0000 0.0000 0.0000 17.2238 0.0000
# 6 0.0000 0.0000 0.0000 0.0000 0.0000 37.4330
#
#
#
# Elastic Compliance Matrix: (Units=1/GPa)
#
#
# Indices 1 2 3 4 5 6 
#
# 1 0.012347 -0.002923 -0.000922 0.000000 0.000000 0.000000
# 2 -0.002923 0.014063 -0.003349 0.000000 0.000000 0.000000
# 3 -0.000922 -0.003349 0.007190 0.000000 0.000000 0.000000
# 4 0.000000 0.000000 0.000000 0.025756 0.000000 0.000000
# 5 0.000000 0.000000 0.000000 0.000000 0.058059 0.000000
# 6 0.000000 0.000000 0.000000 0.000000 0.000000 0.026714
#
#
# Mechanical properties :
#
#
# Convention : Reuss Voigt Hill
#
# Bulk Modulus (GPa) = 52.04651 57.23913 54.64282
# Shear Modulus (GPa) = 30.31755 35.19243 32.75499
#
# Velocity S-wave (km/s) = 3.67785 3.96252 3.82284
# Velocity P-wave (km/s) = 6.42314 6.81714 6.62307
#
# Compressibility (1/GPa) = 0.01921358
#
# Stress axis : x y z
#
# Youngs Moduli (GPa) = 80.98831 71.10728 139.09156
#
# Poissons Ratio (x) = 0.20784 0.12817
# Poissons Ratio (y) = 0.23672 0.46581
# Poissons Ratio (z) = 0.07463 0.23814
#
# Static dielectric constant tensor:
#      x y z
#    x 3.696730 0.000000 0.000000 
#    y 0.000000 3.908690 0.000000 
#    z 0.000000 0.000000 4.490090 
# 
# 
# High freq. dielectric constant tensor:
#      x y z
#    x 1.850320 0.000000 0.000000 
#    y 0.000000 1.875680 0.000000 
#    z 0.000000 0.000000 1.897850 
# 
# From -- ./inp_files/29268.got.cif
#   From: 2010.03.12/outbox.cif.g09.slc.cpg/sg23_15_cif.got.tgz:29268.got - 2010.04.14 02:50:06.
