data_PCOD8163793
_publ_section_title
;
Structure prediction by ZEFSAII (Michael W. Deem and Ramdas Pophale) SiO2 
 PCOD8163793
Probable space group: I 2 2 2
;
_chemical_formula_sum "Si O2"
_cell_formula_units_Z 58
_cell_length_a 10.983637
_cell_length_b 26.422760
_cell_length_c 9.694887
_cell_angle_alpha 90.000000
_cell_angle_beta 90.000000
_cell_angle_gamma 90.000000
_cell_volume 2813.630758
_symmetry_space_group_name_H-M "I 2 2 2"
_symmetry_group_IT_number 23
_symmetry_cell_setting 'orthorhombic'
loop_
_space_group_symop_operation_xyz
x,y,z
-x,-y,z
x,-y,-z
-x,y,-z
1/2+x,1/2+y,1/2+z
1/2-x,1/2-y,1/2+z
1/2+x,1/2-y,1/2-z
1/2-x,1/2+y,1/2-z
loop_
_atom_site_type_symbol
_atom_site_label
_atom_site_fract_x
_atom_site_fract_y
_atom_site_fract_z
Si Si1 0.862089 0.059091 0.530381
Si Si2 0.839146 0.574994 0.171002
Si Si3 0.611511 0.396252 0.310811
Si Si4 0.745267 0.198474 0.804849
Si Si5 0.995493 0.351315 0.653888
Si Si6 0.164562 0.100409 0.882955
Si Si7 0.000000 0.500000 0.000000
Si Si8 0.727920 0.209174 0.111868
O O1 0.763268 0.091878 0.442697
O O2 0.834508 0.068138 0.691664
O O3 0.000000 0.077686 0.500000
O O4 0.845003 0.000000 0.500000
O O5 0.936615 0.616343 0.221784
O O6 0.756707 0.561499 0.306091
O O7 0.914725 0.530038 0.104652
O O8 0.637171 0.337079 0.274917
O O9 0.469655 0.407835 0.325968
O O10 0.677669 0.410011 0.454470
O O11 0.629338 0.161668 0.794822
O O12 0.728275 0.243197 0.697773
O O13 0.757323 0.223521 0.954707
O O14 0.916087 0.300135 0.634163
O O15 0.000000 0.377925 0.500000
O O16 0.202041 0.157907 0.845800
#
# Coordination Sequence:
#
# PCOD8163793 Si02
#       8
#     8   8   8   8   8   8   2   8
#     4  11  23  42  67  94 133 161 204 273 333 384
#     4  11  23  45  66  94 127 171 209 271 327 386
#     4  10  21  39  67  96 124 173 212 269 318 389
#     4  10  21  36  59  90 126 166 218 266 316 375
#     4   9  21  42  63  84 127 177 218 266 317 382
#     4   9  20  42  67  89 130 171 220 258 324 383
#     4  12  28  44  68  96 136 156 226 278 316 396
#     4   9  20  38  57  89 127 168 216 268 311 377
#
# _framework density 20.613934
#
# number of rings (size 3 to 8) (size 9 to 14) (size 15 to 20)
#    0.000    2.069    2.069    0.828    3.862    2.207 
#    0.000    2.414    0.000    0.000    0.000    0.000 
#    0.000    0.000    0.000    0.000    0.000    0.000 
#
# Total GULP energy -359351.847064 kJ/mol
# GULP energy per Si atom -12391.443002 kJ/mol
# Density = 2.056702 g / cm^3
# Si number density = 20.613934 Si / 1000 Ang^3
#
#
#
# Elastic Constant Matrix: (Units=GPa)
#
#
# Indices 1 2 3 4 5 6 
#
# 1 99.6614 34.8175 57.9103 -0.0003 0.0012 -0.0010
# 2 34.8175 79.6417 80.5924 -0.0002 0.0003 0.0001
# 3 57.9103 80.5924 169.1284 -0.0006 0.0042 0.0011
# 4 -0.0003 -0.0002 -0.0006 39.0968 0.0005 0.0002
# 5 0.0012 0.0003 0.0042 0.0005 37.9860 0.0003
# 6 -0.0010 0.0001 0.0011 0.0002 0.0003 14.8562
#
#
#
# Elastic Compliance Matrix: (Units=1/GPa)
#
#
# Indices 1 2 3 4 5 6 
#
# 1 0.012728 -0.002229 -0.003296 0.000000 0.000000 0.000001
# 2 -0.002229 0.024640 -0.010978 0.000000 0.000001 0.000001
# 3 -0.003296 -0.010978 0.012272 0.000000 -0.000001 -0.000001
# 4 0.000000 0.000000 0.000000 0.025578 0.000000 0.000000
# 5 0.000000 0.000001 -0.000001 0.000000 0.026325 -0.000001
# 6 0.000001 0.000001 -0.000001 0.000000 -0.000001 0.067312
#
#
# Mechanical properties :
#
#
# Convention : Reuss Voigt Hill
#
# Bulk Modulus (GPa) = 60.11756 77.23021 68.67389
# Shear Modulus (GPa) = 24.10736 30.06189 27.08463
#
# Velocity S-wave (km/s) = 3.42346 3.82295 3.62871
# Velocity P-wave (km/s) = 6.69729 7.55202 7.13746
#
# Compressibility (1/GPa) = 0.01663408
#
# Stress axis : x y z
#
# Youngs Moduli (GPa) = 78.56770 40.58472 81.48380
#
# Poissons Ratio (x) = 0.09047 0.26856
# Poissons Ratio (y) = 0.17514 0.89453
# Poissons Ratio (z) = 0.25895 0.44554
#
# Static dielectric constant tensor:
#      x y z
#    x 4.077090 0.000000 0.000010 
#    y 0.000000 3.304430 0.000000 
#    z 0.000010 0.000000 4.186480 
# 
# 
# High freq. dielectric constant tensor:
#      x y z
#    x 1.824860 0.000000 0.000000 
#    y 0.000000 1.760370 0.000000 
#    z 0.000000 0.000000 1.820970 
# 
# From -- ./inp_files/8864.got.cif
#   From: 2010.03.12/outbox.cif.g09.slc.cpg/sg23_5_cif.got.tgz:8864.got - 2010.04.14 02:50:06.
