data_PCOD8164318
_publ_section_title
;
Structure prediction by ZEFSAII (Michael W. Deem and Ramdas Pophale) SiO2 
 PCOD8164318
Probable space group: I 2 2 2
;
_chemical_formula_sum "Si O2"
_cell_formula_units_Z 42
_cell_length_a 8.919519
_cell_length_b 14.141271
_cell_length_c 15.634294
_cell_angle_alpha 90.000000
_cell_angle_beta 90.000000
_cell_angle_gamma 90.000000
_cell_volume 1972.005648
_symmetry_space_group_name_H-M "I 2 2 2"
_symmetry_group_IT_number 23
_symmetry_cell_setting 'orthorhombic'
loop_
_space_group_symop_operation_xyz
x,y,z
-x,-y,z
x,-y,-z
-x,y,-z
1/2+x,1/2+y,1/2+z
1/2-x,1/2-y,1/2+z
1/2+x,1/2-y,1/2-z
1/2-x,1/2+y,1/2-z
loop_
_atom_site_type_symbol
_atom_site_label
_atom_site_fract_x
_atom_site_fract_y
_atom_site_fract_z
Si Si1 0.835306 0.115569 0.674783
Si Si2 0.921634 0.233271 0.417980
Si Si3 0.348051 0.639397 0.367904
Si Si4 0.763466 0.555833 0.080868
Si Si5 0.500000 0.500000 0.500000
Si Si6 0.481387 0.821919 0.602270
O O1 0.838847 0.092606 0.775053
O O2 0.680362 0.158073 0.639843
O O3 0.964177 0.191788 0.652671
O O4 0.849548 0.010780 0.634245
O O5 0.815422 0.314464 0.381440
O O6 0.828666 0.144767 0.455324
O O7 0.000000 0.279925 0.500000
O O8 0.390437 0.562894 0.440414
O O9 0.475639 0.718825 0.364257
O O10 0.903046 0.596817 0.136598
O O11 0.830674 0.500000 0.000000
O O12 0.500000 0.821646 0.500000
#
# Coordination Sequence:
#
# PCOD8164318 Si02
#       6
#     8   8   8   8   2   8
#     4  12  23  39  70 104 141 166 222 281 329 412
#     4  11  23  42  67 100 139 172 213 277 348 392
#     4  11  27  47  66  96 126 189 234 274 332 394
#     4  11  21  36  64 105 141 175 207 262 342 411
#     4  12  28  52  74  80 128 192 250 276 328 400
#     4  11  21  42  69  98 138 183 217 265 351 413
#
# _framework density 21.298112
#
# number of rings (size 3 to 8) (size 9 to 14) (size 15 to 20)
#    0.000    0.762    4.762    3.429    2.667    0.000 
#    0.000    4.286    0.000    0.000    0.000    0.000 
#    0.000    0.000    0.000    0.000    0.000    0.000 
#
# Total GULP energy -260300.826108 kJ/mol
# GULP energy per Si atom -12395.277434 kJ/mol
# Density = 2.124964 g / cm^3
# Si number density = 21.298112 Si / 1000 Ang^3
#
#
#
# Elastic Constant Matrix: (Units=GPa)
#
#
# Indices 1 2 3 4 5 6 
#
# 1 114.9573 35.8709 27.1008 0.0000 0.0000 0.0000
# 2 35.8709 96.7053 41.1130 0.0000 0.0000 0.0000
# 3 27.1008 41.1130 120.7172 0.0000 0.0000 0.0000
# 4 0.0000 0.0000 0.0000 21.1671 0.0000 0.0000
# 5 0.0000 0.0000 0.0000 0.0000 23.4714 0.0000
# 6 0.0000 0.0000 0.0000 0.0000 0.0000 31.0451
#
#
#
# Elastic Compliance Matrix: (Units=1/GPa)
#
#
# Indices 1 2 3 4 5 6 
#
# 1 0.009971 -0.003212 -0.001145 0.000000 0.000000 0.000000
# 2 -0.003212 0.013126 -0.003749 0.000000 0.000000 0.000000
# 3 -0.001145 -0.003749 0.009818 0.000000 0.000000 0.000000
# 4 0.000000 0.000000 0.000000 0.047243 0.000000 0.000000
# 5 0.000000 0.000000 0.000000 0.000000 0.042605 0.000000
# 6 0.000000 0.000000 0.000000 0.000000 0.000000 0.032211
#
#
# Mechanical properties :
#
#
# Convention : Reuss Voigt Hill
#
# Bulk Modulus (GPa) = 59.86913 60.06103 59.96508
# Shear Modulus (GPa) = 28.28800 30.35639 29.32220
#
# Velocity S-wave (km/s) = 3.64839 3.77942 3.71448
# Velocity P-wave (km/s) = 6.77634 6.87799 6.82735
#
# Compressibility (1/GPa) = 0.01670310
#
# Stress axis : x y z
#
# Youngs Moduli (GPa) = 100.29132 76.18431 101.85696
#
# Poissons Ratio (x) = 0.24470 0.11658
# Poissons Ratio (y) = 0.32213 0.38189
# Poissons Ratio (z) = 0.11479 0.28564
#
# Static dielectric constant tensor:
#      x y z
#    x 4.309790 0.000000 0.000000 
#    y 0.000000 3.990800 0.000000 
#    z 0.000000 0.000000 3.720850 
# 
# 
# High freq. dielectric constant tensor:
#      x y z
#    x 1.850800 0.000000 0.000000 
#    y 0.000000 1.830810 0.000000 
#    z 0.000000 0.000000 1.820840 
# 
# From -- ./inp_files/19797.got.cif
#   From: 2010.03.12/outbox.cif.g09.slc.cpg/sg23_10_cif.got.tgz:19797.got - 2010.04.14 02:50:06.
