data_PCOD8164082
_publ_section_title
;
Structure prediction by ZEFSAII (Michael W. Deem and Ramdas Pophale) SiO2 
 PCOD8164082
Probable space group: I 2 2 2
;
_chemical_formula_sum "Si O2"
_cell_formula_units_Z 32
_cell_length_a 12.982800
_cell_length_b 5.187676
_cell_length_c 17.961657
_cell_angle_alpha 90.000000
_cell_angle_beta 90.000000
_cell_angle_gamma 90.000000
_cell_volume 1209.727657
_symmetry_space_group_name_H-M "I 2 2 2"
_symmetry_group_IT_number 23
_symmetry_cell_setting 'orthorhombic'
loop_
_space_group_symop_operation_xyz
x,y,z
-x,-y,z
x,-y,-z
-x,y,-z
1/2+x,1/2+y,1/2+z
1/2-x,1/2-y,1/2+z
1/2+x,1/2-y,1/2-z
1/2-x,1/2+y,1/2-z
loop_
_atom_site_type_symbol
_atom_site_label
_atom_site_fract_x
_atom_site_fract_y
_atom_site_fract_z
Si Si1 0.399466 0.667774 0.798174
Si Si2 0.113485 0.747539 0.467966
Si Si3 0.617851 0.523633 0.588112
Si Si4 0.813918 0.539478 0.827780
O O1 0.500000 0.500000 0.781371
O O2 0.397680 0.780517 0.880583
O O3 0.298808 0.485690 0.789823
O O4 0.393757 0.907797 0.740385
O O5 0.175298 0.500000 0.500000
O O6 0.000000 0.750022 0.500000
O O7 0.172284 0.000000 0.500000
O O8 0.500000 0.500000 0.614647
O O9 0.625004 0.500000 0.500000
O O10 0.685693 0.294471 0.621726
O O11 0.660220 0.795093 0.619910
#
# Coordination Sequence:
#
# PCOD8164082 Si02
#       4
#     8   8   8   8
#     4  12  28  55  79 114 174 210 273 343 409 498
#     4  10  22  46  73 112 145 212 259 314 402 480
#     4  11  26  54  83 115 160 209 274 344 405 481
#     4  12  28  49  80 124 153 220 272 335 415 488
#
# _framework density 26.452231999999999
#
# number of rings (size 3 to 8) (size 9 to 14) (size 15 to 20)
#    0.000    0.750    2.500    3.750    0.000   13.000 
#    9.000    0.000    0.000    0.000    0.000    0.000 
#    0.000    0.000    0.000    0.000    0.000    0.000 
#
# Total GULP energy -198346.125881 kJ/mol
# GULP energy per Si atom -12396.632868 kJ/mol
# Density = 2.639203 g / cm^3
# Si number density = 26.452232 Si / 1000 Ang^3
#
#
#
# Elastic Constant Matrix: (Units=GPa)
#
#
# Indices 1 2 3 4 5 6 
#
# 1 139.4692 46.6875 10.6866 0.0000 0.0000 0.0000
# 2 46.6875 239.0766 92.0137 0.0000 0.0000 0.0000
# 3 10.6866 92.0137 220.7182 0.0000 0.0000 0.0000
# 4 0.0000 0.0000 0.0000 48.7779 0.0000 0.0000
# 5 0.0000 0.0000 0.0000 0.0000 -740.4741 0.0000
# 6 0.0000 0.0000 0.0000 0.0000 0.0000 -349.3549
#
#
#
# Elastic Compliance Matrix: (Units=1/GPa)
#
#
# Indices 1 2 3 4 5 6 
#
# 1 0.007688 -0.001618 0.000302 0.000000 0.000000 0.000000
# 2 -0.001618 0.005322 -0.002141 0.000000 0.000000 0.000000
# 3 0.000302 -0.002141 0.005408 0.000000 0.000000 0.000000
# 4 0.000000 0.000000 0.000000 0.020501 0.000000 0.000000
# 5 0.000000 0.000000 0.000000 0.000000 -0.001350 0.000000
# 6 0.000000 0.000000 0.000000 0.000000 0.000000 -0.002862
#
#
# Mechanical properties :
#
#
# Convention : Reuss Voigt Hill
#
# Bulk Modulus (GPa) = 86.90278 99.78219 93.34248
# Shear Modulus (GPa) = 109.99794 -178.21848 -34.11027
#
# Velocity S-wave (km/s) = 6.45553 -8.21705 -3.59486
# Velocity P-wave (km/s) = 9.40687 7.22655 4.25829
#
# Compressibility (1/GPa) = 0.01150711
#
# Stress axis : x y z
#
# Youngs Moduli (GPa) = 130.06574 187.88164 184.89793
#
# Poissons Ratio (x) = 0.30394 -0.05586
# Poissons Ratio (y) = 0.21041 0.39578
# Poissons Ratio (z) = -0.03930 0.40217
#
# Static dielectric constant tensor:
#      x y z
#    x 5.125050 0.000000 0.000000 
#    y 0.000000 25.899840 0.000000 
#    z 0.000000 0.000000 5.436110 
# 
# 
# High freq. dielectric constant tensor:
#      x y z
#    x 2.067520 0.000000 0.000000 
#    y 0.000000 2.071680 0.000000 
#    z 0.000000 0.000000 2.087980 
# 
# From -- ./inp_files/24537.got.cif
#   From: 2010.03.12/outbox.cif.g09.slc.cpg/sg23_13_cif.got.tgz:24537.got - 2010.04.14 02:50:06.
