data_PCOD8164548
_publ_section_title
;
Structure prediction by ZEFSAII (Michael W. Deem and Ramdas Pophale) SiO2 
 PCOD8164548
Probable space group: I 2 2 2
;
_chemical_formula_sum "Si O2"
_cell_formula_units_Z 36
_cell_length_a 11.186946
_cell_length_b 24.013525
_cell_length_c 5.661895
_cell_angle_alpha 90.000000
_cell_angle_beta 90.000000
_cell_angle_gamma 90.000000
_cell_volume 1521.000191
_symmetry_space_group_name_H-M "I 2 2 2"
_symmetry_group_IT_number 23
_symmetry_cell_setting 'orthorhombic'
loop_
_space_group_symop_operation_xyz
x,y,z
-x,-y,z
x,-y,-z
-x,y,-z
1/2+x,1/2+y,1/2+z
1/2-x,1/2-y,1/2+z
1/2+x,1/2-y,1/2-z
1/2-x,1/2+y,1/2-z
loop_
_atom_site_type_symbol
_atom_site_label
_atom_site_fract_x
_atom_site_fract_y
_atom_site_fract_z
Si Si1 0.878097 0.780020 0.371222
Si Si2 0.709937 0.968567 0.257324
Si Si3 0.500000 0.913762 0.500000
Si Si4 0.630170 0.378463 0.446787
Si Si5 0.305204 0.165804 0.701482
O O1 0.885484 0.813864 0.127868
O O2 0.757269 0.801943 0.489953
O O3 0.867181 0.713576 0.358643
O O4 0.000000 0.796006 0.500000
O O5 0.572461 0.950252 0.306089
O O6 0.800525 0.916119 0.245777
O O7 0.750807 0.000000 0.500000
O O8 0.717585 0.000000 0.000000
O O9 0.590639 0.875428 0.636768
O O10 0.500000 0.405100 0.500000
O O11 0.709969 0.375174 0.679212
#
# Coordination Sequence:
#
# PCOD8164548 Si02
#       5
#     8   8   4   8   8
#     4  12  26  44  72 111 160 208 258 313 386 480
#     4  12  30  56  83 116 155 209 276 343 405 466
#     4  12  29  50  80 116 158 204 261 332 406 480
#     4  12  27  50  76 109 157 206 261 331 391 472
#     4  12  27  45  71 117 157 206 256 310 397 476
#
# _framework density 23.668634000000001
#
# number of rings (size 3 to 8) (size 9 to 14) (size 15 to 20)
#    0.000    0.000    6.667    1.667    7.778    5.778 
#    0.000    3.333    0.000    0.000    0.000    0.000 
#    0.000    0.000    0.000    0.000    0.000    0.000 
#
# Total GULP energy -223069.073517 kJ/mol
# GULP energy per Si atom -12392.726307 kJ/mol
# Density = 2.361476 g / cm^3
# Si number density = 23.668634 Si / 1000 Ang^3
#
#
#
# Elastic Constant Matrix: (Units=GPa)
#
#
# Indices 1 2 3 4 5 6 
#
# 1 152.0173 36.5505 37.7601 0.1196 0.0786 0.0351
# 2 36.5505 95.9941 38.5673 0.0783 0.0713 -0.0060
# 3 37.7601 38.5673 108.8625 0.3537 0.2815 -0.0321
# 4 0.1196 0.0783 0.3537 74.5125 -0.1426 0.0115
# 5 0.0786 0.0713 0.2815 -0.1426 52.8798 -0.0076
# 6 0.0351 -0.0060 -0.0321 0.0115 -0.0076 46.1673
#
#
#
# Elastic Compliance Matrix: (Units=1/GPa)
#
#
# Indices 1 2 3 4 5 6 
#
# 1 0.007553 -0.002126 -0.001867 -0.000001 0.000002 -0.000007
# 2 -0.002126 0.012745 -0.003778 0.000008 0.000006 0.000001
# 3 -0.001867 -0.003778 0.011172 -0.000046 -0.000052 0.000009
# 4 -0.000001 0.000008 -0.000046 0.013421 0.000036 -0.000003
# 5 0.000002 0.000006 -0.000052 0.000036 0.018911 0.000003
# 6 -0.000007 0.000001 0.000009 -0.000003 0.000003 0.021660
#
#
# Mechanical properties :
#
#
# Convention : Reuss Voigt Hill
#
# Bulk Modulus (GPa) = 62.77884 64.73663 63.75773
# Shear Modulus (GPa) = 47.03129 50.97832 49.00481
#
# Velocity S-wave (km/s) = 4.46250 4.64598 4.55516
# Velocity P-wave (km/s) = 7.28927 7.49605 7.39338
#
# Compressibility (1/GPa) = 0.01592894
#
# Stress axis : x y z
#
# Youngs Moduli (GPa) = 132.39740 78.46516 89.50929
#
# Poissons Ratio (x) = 0.16681 0.16709
# Poissons Ratio (y) = 0.28146 0.33814
# Poissons Ratio (z) = 0.24715 0.29642
#
# Static dielectric constant tensor:
#      x y z
#    x 3.773210 0.000200 0.000590 
#    y 0.000200 4.701690 -0.000210 
#    z 0.000590 -0.000210 4.207320 
# 
# 
# High freq. dielectric constant tensor:
#      x y z
#    x 1.953480 0.000000 0.000010 
#    y 0.000000 1.949440 0.000000 
#    z 0.000010 0.000000 1.933240 
# 
# From -- ./inp_files/1561.got.cif
#   From: 2010.03.12/outbox.cif.g09.slc.cpg/sg23_1_cif.got.tgz:1561.got - 2010.04.14 02:50:06.
