data_PCOD8164759
_publ_section_title
;
Structure prediction by ZEFSAII (Michael W. Deem and Ramdas Pophale) SiO2 
 PCOD8164759
Probable space group: I 21 21 21
;
_chemical_formula_sum "Si O2"
_cell_formula_units_Z 60
_cell_length_a 8.538394
_cell_length_b 10.553793
_cell_length_c 30.541169
_cell_angle_alpha 90.000000
_cell_angle_beta 90.000000
_cell_angle_gamma 90.000000
_cell_volume 2752.139345
_symmetry_space_group_name_H-M "I 21 21 21"
_symmetry_group_IT_number 24
_symmetry_cell_setting 'orthorhombic'
loop_
_space_group_symop_operation_xyz
x,y,z
-x,1/2-y,z
x,-y,1/2-z
1/2-x,y,-z
1/2+x,1/2+y,1/2+z
1/2-x,-y,1/2+z
1/2+x,1/2-y,-z
-x,1/2+y,1/2-z
loop_
_atom_site_type_symbol
_atom_site_label
_atom_site_fract_x
_atom_site_fract_y
_atom_site_fract_z
Si Si1 0.426238 0.066850 0.706255
Si Si2 0.820555 0.525837 0.046019
Si Si3 0.830528 0.716590 0.588503
Si Si4 0.112294 0.634354 0.465143
Si Si5 0.360266 0.823965 0.112135
Si Si6 0.763524 0.183893 0.306015
Si Si7 0.352911 0.058883 0.167569
Si Si8 0.050489 0.500000 0.750000
O O1 0.584729 0.101682 0.681010
O O2 0.318970 0.188383 0.718878
O O3 0.480834 0.000000 0.750000
O O4 0.329128 0.974501 0.675021
O O5 0.723966 0.404966 0.061667
O O6 0.784446 0.640555 0.080055
O O7 0.006036 0.491351 0.042940
O O8 0.750000 0.570083 0.000000
O O9 0.702893 0.827642 0.580015
O O10 0.849157 0.690743 0.640722
O O11 0.000000 0.750000 0.568980
O O12 0.250000 0.607466 0.500000
O O13 0.000000 0.750000 0.480741
O O14 0.500000 0.750000 0.086218
O O15 0.312869 0.720908 0.148354
O O16 0.427046 0.949815 0.136486
O O17 0.649797 0.109377 0.273283
O O18 0.443885 0.069546 0.213508
#
# Coordination Sequence:
#
# PCOD8164759 Si02
#       8
#     8   8   8   8   8   8   8   4
#     4  10  20  39  60  84 124 163 210 272 331 394
#     4  10  21  38  70  98 130 175 221 268 335 418
#     4  10  20  37  59  98 138 170 214 272 337 394
#     4  10  18  34  66  98 135 181 215 265 332 418
#     4  10  20  41  68  91 128 169 216 286 338 383
#     4  10  22  37  66  91 119 167 222 275 340 397
#     4  10  22  36  62  91 126 172 216 275 331 393
#     4  12  20  38  64  98 118 170 248 268 338 410
#
# _framework density 21.801221000000002
#
# number of rings (size 3 to 8) (size 9 to 14) (size 15 to 20)
#    0.000    1.867    2.667    2.800    0.000    1.067 
#    0.000    8.000   46.933    0.000    0.000    0.000 
#    0.000    0.000    0.000    0.000    0.000    0.000 
#
# Total GULP energy -371774.131817 kJ/mol
# GULP energy per Si atom -12392.471061 kJ/mol
# Density = 2.175160 g / cm^3
# Si number density = 21.801221 Si / 1000 Ang^3
#
#
#
# Elastic Constant Matrix: (Units=GPa)
#
#
# Indices 1 2 3 4 5 6 
#
# 1 151.7809 55.7244 61.0418 0.0000 0.0000 0.0000
# 2 55.7244 59.5839 49.5081 0.0000 0.0000 0.0000
# 3 61.0418 49.5081 127.9883 0.0000 0.0000 0.0000
# 4 0.0000 0.0000 0.0000 24.8485 0.0000 0.0000
# 5 0.0000 0.0000 0.0000 0.0000 21.2756 0.0000
# 6 0.0000 0.0000 0.0000 0.0000 0.0000 33.0952
#
#
#
# Elastic Compliance Matrix: (Units=1/GPa)
#
#
# Indices 1 2 3 4 5 6 
#
# 1 0.010292 -0.008174 -0.001747 0.000000 0.000000 0.000000
# 2 -0.008174 0.031224 -0.008180 0.000000 0.000000 0.000000
# 3 -0.001747 -0.008180 0.011810 0.000000 0.000000 0.000000
# 4 0.000000 0.000000 0.000000 0.040244 0.000000 0.000000
# 5 0.000000 0.000000 0.000000 0.000000 0.047002 0.000000
# 6 0.000000 0.000000 0.000000 0.000000 0.000000 0.030216
#
#
# Mechanical properties :
#
#
# Convention : Reuss Voigt Hill
#
# Bulk Modulus (GPa) = 58.39175 74.65575 66.52375
# Shear Modulus (GPa) = 23.50765 27.38246 25.44505
#
# Velocity S-wave (km/s) = 3.28727 3.54786 3.42005
# Velocity P-wave (km/s) = 6.42262 7.14852 6.79527
#
# Compressibility (1/GPa) = 0.01712571
#
# Stress axis : x y z
#
# Youngs Moduli (GPa) = 97.16414 32.02676 84.67196
#
# Poissons Ratio (x) = 0.26178 0.14790
# Poissons Ratio (y) = 0.79421 0.69258
# Poissons Ratio (z) = 0.16972 0.26196
#
# Static dielectric constant tensor:
#      x y z
#    x 4.218940 0.000000 0.000000 
#    y 0.000000 3.851550 0.000000 
#    z 0.000000 0.000000 3.912410 
# 
# 
# High freq. dielectric constant tensor:
#      x y z
#    x 1.867710 0.000000 0.000000 
#    y 0.000000 1.828970 0.000000 
#    z 0.000000 0.000000 1.844900 
# 
# From -- ./inp_files/38406.got.cif
#   From: 2010.03.12/outbox.cif.g09.slc.cpg/sg24_20_cif.got.tgz:38406.got - 2010.04.14 03:06:53.
