data_PCOD8164439
_publ_section_title
;
Structure prediction by ZEFSAII (Michael W. Deem and Ramdas Pophale) SiO2 
 PCOD8164439
Probable space group: I 2 2 2
;
_chemical_formula_sum "Si O2"
_cell_formula_units_Z 64
_cell_length_a 20.745356
_cell_length_b 18.496390
_cell_length_c 9.155779
_cell_angle_alpha 90.000000
_cell_angle_beta 90.000000
_cell_angle_gamma 90.000000
_cell_volume 3513.202371
_symmetry_space_group_name_H-M "I 2 2 2"
_symmetry_group_IT_number 23
_symmetry_cell_setting 'orthorhombic'
loop_
_space_group_symop_operation_xyz
x,y,z
-x,-y,z
x,-y,-z
-x,y,-z
1/2+x,1/2+y,1/2+z
1/2-x,1/2-y,1/2+z
1/2+x,1/2-y,1/2-z
1/2-x,1/2+y,1/2-z
loop_
_atom_site_type_symbol
_atom_site_label
_atom_site_fract_x
_atom_site_fract_y
_atom_site_fract_z
Si Si1 0.000000 0.919099 0.326308
Si Si2 0.754082 0.825411 0.830442
Si Si3 0.123532 0.833509 0.671286
Si Si4 0.745917 0.325411 0.330443
Si Si5 0.000000 0.583136 0.172578
Si Si6 0.888046 0.665175 0.332983
Si Si7 0.376468 0.333509 0.171286
Si Si8 0.888046 0.334825 0.332983
O O1 0.936989 0.878152 0.268762
O O2 0.000000 0.918709 0.500000
O O3 0.063012 0.878153 0.268763
O O4 0.000000 0.000000 0.263332
O O5 0.750000 0.750000 0.750001
O O6 0.685013 0.865580 0.811331
O O7 0.814096 0.866623 0.755458
O O8 0.768729 0.812311 1.000000
O O9 0.185904 0.866624 0.755460
O O10 0.110529 0.749748 0.708772
O O11 0.135460 0.844209 0.500000
O O12 0.814986 0.365580 0.311332
O O13 0.935793 0.621225 0.230773
O O14 0.000000 0.500000 0.223847
O O15 0.064208 0.621225 0.230773
O O16 0.000000 0.589906 0.000000
O O17 0.910601 0.655189 0.500000
O O18 0.389471 0.249748 0.208771
#
# Coordination Sequence:
#
# PCOD8164439 Si02
#       8
#     8   8   8   8   8   8   8   8
#     4   9  17  30  49  73 102 137 172 202 238 287
#     4   9  17  30  50  77 103 126 159 202 247 293
#     4   9  17  31  52  77 103 130 165 206 242 284
#     4   9  17  30  50  77 103 126 159 202 247 293
#     4  11  24  37  49  71 100 127 162 210 254 291
#     4   9  18  33  53  74  97 129 164 199 244 298
#     4   9  17  31  52  77 103 130 165 206 242 284
#     4   9  18  33  53  74  97 129 164 199 244 298
#
# _framework density 18.216999000000001
#
# number of rings (size 3 to 8) (size 9 to 14) (size 15 to 20)
#    0.000    2.750    0.000    3.375    0.000    8.000 
#    0.000    1.875    0.000    6.000    0.000    0.000 
#    0.000    0.000    0.000    0.000    0.000    0.000 
#
# Total GULP energy -396623.785867 kJ/mol
# GULP energy per Si atom -12394.493308 kJ/mol
# Density = 1.817554 g / cm^3
# Si number density = 18.216999 Si / 1000 Ang^3
#
#
#
# Elastic Constant Matrix: (Units=GPa)
#
#
# Indices 1 2 3 4 5 6 
#
# 1 183.3076 66.0729 65.3829 0.0000 0.0000 0.0000
# 2 66.0729 76.1805 34.5385 0.0000 0.0000 0.0000
# 3 65.3829 34.5385 78.6308 0.0000 0.0000 0.0000
# 4 0.0000 0.0000 0.0000 17.5399 0.0000 0.0000
# 5 0.0000 0.0000 0.0000 0.0000 39.0531 0.0000
# 6 0.0000 0.0000 0.0000 0.0000 0.0000 0.9176
#
#
#
# Elastic Compliance Matrix: (Units=1/GPa)
#
#
# Indices 1 2 3 4 5 6 
#
# 1 0.009428 -0.005772 -0.005304 0.000000 0.000000 0.000000
# 2 -0.005772 0.019925 -0.003952 0.000000 0.000000 0.000000
# 3 -0.005304 -0.003952 0.018864 0.000000 0.000000 0.000000
# 4 0.000000 0.000000 0.000000 0.057013 0.000000 0.000000
# 5 0.000000 0.000000 0.000000 0.000000 0.025606 0.000000
# 6 0.000000 0.000000 0.000000 0.000000 0.000000 1.089806
#
#
# Mechanical properties :
#
#
# Convention : Reuss Voigt Hill
#
# Bulk Modulus (GPa) = 55.06655 74.45637 64.76146
# Shear Modulus (GPa) = 3.97851 22.97710 13.47781
#
# Velocity S-wave (km/s) = 1.47942 3.55533 2.72297
# Velocity P-wave (km/s) = 5.76299 7.60358 6.74635
#
# Compressibility (1/GPa) = 0.01815985
#
# Stress axis : x y z
#
# Youngs Moduli (GPa) = 106.07063 50.18835 53.01110
#
# Poissons Ratio (x) = 0.28970 0.28116
# Poissons Ratio (y) = 0.61226 0.20952
# Poissons Ratio (z) = 0.56258 0.19836
#
# Static dielectric constant tensor:
#      x y z
#    x 2.138540 0.000000 0.000000 
#    y 0.000000 3.125170 0.000000 
#    z 0.000000 0.000000 3.352350 
# 
# 
# High freq. dielectric constant tensor:
#      x y z
#    x 1.731080 0.000000 0.000000 
#    y 0.000000 1.664700 0.000000 
#    z 0.000000 0.000000 1.694100 
# 
# From -- ./inp_files/12207.got.cif
#   From: 2010.03.12/outbox.cif.g09.slc.cpg/sg23_7_cif.got.tgz:12207.got - 2010.04.14 02:50:06.
