data_PCOD8164688
_publ_section_title
;
Structure prediction by ZEFSAII (Michael W. Deem and Ramdas Pophale) SiO2 
 PCOD8164688
Probable space group: I 21 21 21
;
_chemical_formula_sum "Si O2"
_cell_formula_units_Z 60
_cell_length_a 11.776625
_cell_length_b 32.165332
_cell_length_c 8.787516
_cell_angle_alpha 90.000000
_cell_angle_beta 90.000000
_cell_angle_gamma 90.000000
_cell_volume 3328.702739
_symmetry_space_group_name_H-M "I 21 21 21"
_symmetry_group_IT_number 24
_symmetry_cell_setting 'orthorhombic'
loop_
_space_group_symop_operation_xyz
x,y,z
-x,1/2-y,z
x,-y,1/2-z
1/2-x,y,-z
1/2+x,1/2+y,1/2+z
1/2-x,-y,1/2+z
1/2+x,1/2-y,-z
-x,1/2+y,1/2-z
loop_
_atom_site_type_symbol
_atom_site_label
_atom_site_fract_x
_atom_site_fract_y
_atom_site_fract_z
Si Si1 0.404397 0.124696 0.158251
Si Si2 0.592904 0.280313 0.655462
Si Si3 0.770926 0.041539 0.325512
Si Si4 0.142318 0.135227 0.189125
Si Si5 0.976303 0.909578 0.096467
Si Si6 0.536799 0.828202 0.091521
Si Si7 0.250000 0.721406 0.000000
Si Si8 0.982917 0.046809 0.706205
O O1 0.275080 0.127941 0.213619
O O2 0.484227 0.158731 0.244345
O O3 0.444630 0.078018 0.191367
O O4 0.407756 0.131193 0.978818
O O5 0.500000 0.250000 0.730966
O O6 0.617689 0.317406 0.769059
O O7 0.552323 0.298123 0.492043
O O8 0.700682 0.251146 0.630227
O O9 0.750000 0.031127 0.500000
O O10 0.866976 0.076807 0.303603
O O11 0.650145 0.055142 0.253809
O O12 0.819296 0.000000 0.250000
O O13 0.081462 0.101009 0.294857
O O14 0.939415 0.869330 0.004062
O O15 0.009049 0.945381 0.973697
O O16 0.658699 0.805664 0.095345
O O17 0.018244 0.000000 0.750000
#
# Coordination Sequence:
#
# PCOD8164688 Si02
#       8
#     8   8   8   8   8   8   4   8
#     4  10  21  37  55  77 109 149 184 226 270 326
#     4   9  18  35  54  79 106 138 176 225 273 326
#     4   9  18  32  52  78 109 138 173 219 272 316
#     4  10  21  38  54  76 111 148 185 221 273 332
#     4   9  19  33  56  78 107 144 179 221 271 324
#     4   9  19  32  56  81 106 140 181 225 270 327
#     4  10  18  30  60  84 106 130 186 234 272 326
#     4   9  19  35  54  79 110 140 181 228 271 318
#
# _framework density 18.025039
#
# number of rings (size 3 to 8) (size 9 to 14) (size 15 to 20)
#    0.000    2.667    0.000    0.800    4.667    7.467 
#    0.000    8.000    0.000    0.000    0.000    0.000 
#    0.000    0.000    0.000    0.000    0.000    0.000 
#
# Total GULP energy -371841.237951 kJ/mol
# GULP energy per Si atom -12394.707932 kJ/mol
# Density = 1.798401 g / cm^3
# Si number density = 18.025039 Si / 1000 Ang^3
#
#
#
# Elastic Constant Matrix: (Units=GPa)
#
#
# Indices 1 2 3 4 5 6 
#
# 1 121.3436 74.4396 64.1130 0.0006 -0.0005 0.0000
# 2 74.4396 126.8093 57.5812 0.0027 -0.0010 -0.0009
# 3 64.1130 57.5812 83.7430 0.0057 0.0031 -0.0011
# 4 0.0006 0.0027 0.0057 25.6557 -0.0021 -0.0015
# 5 -0.0005 -0.0010 0.0031 -0.0021 25.3469 0.0005
# 6 0.0000 -0.0009 -0.0011 -0.0015 0.0005 28.9076
#
#
#
# Elastic Compliance Matrix: (Units=1/GPa)
#
#
# Indices 1 2 3 4 5 6 
#
# 1 0.016209 -0.005642 -0.008530 0.000002 0.000001 0.000000
# 2 -0.005642 0.013429 -0.004915 0.000000 0.000001 0.000000
# 3 -0.008530 -0.004915 0.021851 -0.000004 -0.000003 0.000001
# 4 0.000002 0.000000 -0.000004 0.038978 0.000003 0.000002
# 5 0.000001 0.000001 -0.000003 0.000003 0.039453 -0.000001
# 6 0.000000 0.000000 0.000001 0.000002 -0.000001 0.034593
#
#
# Mechanical properties :
#
#
# Convention : Reuss Voigt Hill
#
# Bulk Modulus (GPa) = 75.09583 80.46263 77.77923
# Shear Modulus (GPa) = 24.13997 25.03284 24.58641
#
# Velocity S-wave (km/s) = 3.66354 3.73068 3.69726
# Velocity P-wave (km/s) = 7.72320 7.95572 7.84032
#
# Compressibility (1/GPa) = 0.01331632
#
# Stress axis : x y z
#
# Youngs Moduli (GPa) = 61.69377 74.46446 45.76352
#
# Poissons Ratio (x) = 0.42010 0.39038
# Poissons Ratio (y) = 0.34805 0.22491
# Poissons Ratio (z) = 0.52628 0.36597
#
# Static dielectric constant tensor:
#      x y z
#    x 3.473710 0.000000 0.000000 
#    y 0.000000 3.548390 0.000000 
#    z 0.000000 0.000000 3.212870 
# 
# 
# High freq. dielectric constant tensor:
#      x y z
#    x 1.703520 0.000000 0.000000 
#    y 0.000000 1.707440 0.000000 
#    z 0.000000 0.000000 1.675150 
# 
# From -- ./inp_files/11607.got.cif
#   From: 2010.03.12/outbox.cif.g09.slc.cpg/sg24_6_cif.got.tgz:11607.got - 2010.04.14 03:06:53.
