data_PCOD8164249
_publ_section_title
;
Structure prediction by ZEFSAII (Michael W. Deem and Ramdas Pophale) SiO2 
 PCOD8164249
Probable space group: I 2 2 2
;
_chemical_formula_sum "Si O2"
_cell_formula_units_Z 46
_cell_length_a 11.618943
_cell_length_b 7.803531
_cell_length_c 23.141974
_cell_angle_alpha 90.000000
_cell_angle_beta 90.000000
_cell_angle_gamma 90.000000
_cell_volume 2098.254593
_symmetry_space_group_name_H-M "I 2 2 2"
_symmetry_group_IT_number 23
_symmetry_cell_setting 'orthorhombic'
loop_
_space_group_symop_operation_xyz
x,y,z
-x,-y,z
x,-y,-z
-x,y,-z
1/2+x,1/2+y,1/2+z
1/2-x,1/2-y,1/2+z
1/2+x,1/2-y,1/2-z
1/2-x,1/2+y,1/2-z
loop_
_atom_site_type_symbol
_atom_site_label
_atom_site_fract_x
_atom_site_fract_y
_atom_site_fract_z
Si Si1 0.363392 0.251778 0.419829
Si Si2 0.000000 0.000000 0.359557
Si Si3 0.000000 0.000000 0.153843
Si Si4 0.280519 0.000000 0.000000
Si Si5 0.089037 0.351164 0.601053
Si Si6 0.000000 0.500000 0.000000
Si Si7 0.744223 0.565331 0.816909
Si Si8 0.218294 0.812458 0.804990
O O1 0.467401 0.340713 0.386379
O O2 0.296783 0.391065 0.457043
O O3 0.415687 0.110266 0.461078
O O4 0.277014 0.168176 0.374077
O O5 0.892311 0.966433 0.317968
O O6 0.027245 0.833823 0.398789
O O7 0.106699 0.065336 0.192145
O O8 0.360087 0.872224 0.963104
O O9 0.189623 0.372049 0.647910
O O10 0.000000 0.500000 0.616176
O O11 0.813907 0.386073 0.815482
O O12 0.773580 0.671029 0.758980
#
# Coordination Sequence:
#
# PCOD8164249 Si02
#       8
#     8   4   4   4   8   2   8   8
#     4  12  26  45  73 103 145 191 241 300 361 436
#     4  10  25  44  73 102 150 181 247 296 364 434
#     4  12  23  47  72 104 142 193 233 292 374 426
#     4  12  25  47  74 100 146 191 243 302 366 436
#     4  11  25  48  72 107 141 196 239 301 366 433
#     4  12  28  42  68 106 140 190 252 294 360 436
#     4  11  25  46  70 109 139 188 239 297 360 440
#     4  11  25  45  72 104 147 183 240 295 368 433
#
# _framework density 21.922982000000001
#
# number of rings (size 3 to 8) (size 9 to 14) (size 15 to 20)
#    0.000    0.696    1.739    4.957    7.304    1.391 
#    1.565    5.217    0.000    0.000    0.000    0.000 
#    0.000    0.000    0.000    0.000    0.000    0.000 
#
# Total GULP energy -285328.343499 kJ/mol
# GULP energy per Si atom -12405.580152 kJ/mol
# Density = 2.187308 g / cm^3
# Si number density = 21.922982 Si / 1000 Ang^3
#
#
#
# Elastic Constant Matrix: (Units=GPa)
#
#
# Indices 1 2 3 4 5 6 
#
# 1 91.6432 48.4333 38.0171 0.0000 0.0000 0.0000
# 2 48.4333 140.6201 58.7564 0.0000 0.0000 0.0000
# 3 38.0171 58.7564 146.1903 0.0000 0.0000 0.0000
# 4 0.0000 0.0000 0.0000 32.0059 0.0000 0.0000
# 5 0.0000 0.0000 0.0000 0.0000 22.4233 0.0000
# 6 0.0000 0.0000 0.0000 0.0000 0.0000 45.3747
#
#
#
# Elastic Compliance Matrix: (Units=1/GPa)
#
#
# Indices 1 2 3 4 5 6 
#
# 1 0.013819 -0.003916 -0.002020 0.000000 0.000000 0.000000
# 2 -0.003916 0.009656 -0.002863 0.000000 0.000000 0.000000
# 3 -0.002020 -0.002863 0.008516 0.000000 0.000000 0.000000
# 4 0.000000 0.000000 0.000000 0.031244 0.000000 0.000000
# 5 0.000000 0.000000 0.000000 0.000000 0.044596 0.000000
# 6 0.000000 0.000000 0.000000 0.000000 0.000000 0.022039
#
#
# Mechanical properties :
#
#
# Convention : Reuss Voigt Hill
#
# Bulk Modulus (GPa) = 69.46850 74.31858 71.89354
# Shear Modulus (GPa) = 32.83724 35.51057 34.17390
#
# Velocity S-wave (km/s) = 3.87440 4.02902 3.95247
# Velocity P-wave (km/s) = 7.19520 7.45771 7.32763
#
# Compressibility (1/GPa) = 0.01439501
#
# Stress axis : x y z
#
# Youngs Moduli (GPa) = 72.36263 103.56067 117.42250
#
# Poissons Ratio (x) = 0.40551 0.23719
# Poissons Ratio (y) = 0.28335 0.33614
# Poissons Ratio (z) = 0.14617 0.29646
#
# Static dielectric constant tensor:
#      x y z
#    x 3.874050 0.000000 0.000000 
#    y 0.000000 3.844990 0.000000 
#    z 0.000000 0.000000 3.949140 
# 
# 
# High freq. dielectric constant tensor:
#      x y z
#    x 1.865430 0.000000 0.000000 
#    y 0.000000 1.878230 0.000000 
#    z 0.000000 0.000000 1.872380 
# 
# From -- ./inp_files/28320.got.cif
#   From: 2010.03.12/outbox.cif.g09.slc.cpg/sg23_15_cif.got.tgz:28320.got - 2010.04.14 02:50:06.
