data_PCOD8164976
_publ_section_title
;
Structure prediction by ZEFSAII (Michael W. Deem and Ramdas Pophale) SiO2 
 PCOD8164976
Probable space group: I 21 21 21
;
_chemical_formula_sum "Si O2"
_cell_formula_units_Z 56
_cell_length_a 5.184509
_cell_length_b 26.295449
_cell_length_c 19.916186
_cell_angle_alpha 90.000000
_cell_angle_beta 90.000000
_cell_angle_gamma 90.000000
_cell_volume 2715.153562
_symmetry_space_group_name_H-M "I 21 21 21"
_symmetry_group_IT_number 24
_symmetry_cell_setting 'orthorhombic'
loop_
_space_group_symop_operation_xyz
x,y,z
-x,1/2-y,z
x,-y,1/2-z
1/2-x,y,-z
1/2+x,1/2+y,1/2+z
1/2-x,-y,1/2+z
1/2+x,1/2-y,-z
-x,1/2+y,1/2-z
loop_
_atom_site_type_symbol
_atom_site_label
_atom_site_fract_x
_atom_site_fract_y
_atom_site_fract_z
Si Si1 0.506042 0.191035 0.428798
Si Si2 0.304123 0.392964 0.129705
Si Si3 0.297821 0.054262 0.922898
Si Si4 0.750259 0.782702 0.578090
Si Si5 0.511716 0.352527 0.576277
Si Si6 0.345110 0.555470 0.230019
Si Si7 0.331101 0.948112 0.852670
O O1 0.500000 0.250000 0.446910
O O2 0.500485 0.158618 0.497403
O O3 0.755911 0.170975 0.388297
O O4 0.248002 0.177619 0.388113
O O5 0.583465 0.405002 0.098828
O O6 0.249159 0.333289 0.122789
O O7 0.312352 0.406357 0.208096
O O8 0.083119 0.424078 0.090326
O O9 0.260039 0.002719 0.881780
O O10 0.250000 0.041395 0.000000
O O11 0.500000 0.750000 0.596631
O O12 0.750000 0.798652 0.500000
O O13 0.000000 0.750000 0.596382
O O14 0.556678 0.412148 0.588255
O O15 0.450304 0.500000 0.250000
O O16 0.568930 0.575760 0.179505
O O17 0.060964 0.548452 0.200346
#
# Coordination Sequence:
#
# PCOD8164976 Si02
#       7
#     8   8   8   8   8   8   8
#     4  10  19  36  60  85 116 163 210 249 308 384
#     4  12  24  42  67  93 127 169 214 259 305 381
#     4  12  24  38  61  96 134 166 195 259 317 380
#     4  10  21  39  65  96 127 159 200 259 328 395
#     4  10  20  33  54  85 116 150 201 262 310 361
#     4  12  23  44  65  85 123 176 223 250 293 371
#     4  12  24  40  60  91 129 166 217 253 312 369
#
# _framework density 20.624984999999999
#
# number of rings (size 3 to 8) (size 9 to 14) (size 15 to 20)
#    0.000    0.857    2.857    6.429    2.000    1.143 
#    2.571    0.000    0.000   11.143    0.000    0.000 
#    0.000    0.000    0.000    0.000    0.000    0.000 
#
# Total GULP energy -347108.885024 kJ/mol
# GULP energy per Si atom -12396.745894 kJ/mol
# Density = 2.057804 g / cm^3
# Si number density = 20.624985 Si / 1000 Ang^3
#
#
#
# Elastic Constant Matrix: (Units=GPa)
#
#
# Indices 1 2 3 4 5 6 
#
# 1 173.2345 42.0041 29.2581 0.0000 0.0000 0.0000
# 2 42.0041 139.7866 46.6883 0.0000 0.0000 0.0000
# 3 29.2581 46.6883 80.9833 0.0000 0.0000 0.0000
# 4 0.0000 0.0000 0.0000 21.7201 0.0000 0.0000
# 5 0.0000 0.0000 0.0000 0.0000 22.1016 0.0000
# 6 0.0000 0.0000 0.0000 0.0000 0.0000 29.3836
#
#
#
# Elastic Compliance Matrix: (Units=1/GPa)
#
#
# Indices 1 2 3 4 5 6 
#
# 1 0.006367 -0.001418 -0.001483 0.000000 0.000000 0.000000
# 2 -0.001418 0.009176 -0.004778 0.000000 0.000000 0.000000
# 3 -0.001483 -0.004778 0.015638 0.000000 0.000000 0.000000
# 4 0.000000 0.000000 0.000000 0.046040 0.000000 0.000000
# 5 0.000000 0.000000 0.000000 0.000000 0.045246 0.000000
# 6 0.000000 0.000000 0.000000 0.000000 0.000000 0.034033
#
#
# Mechanical properties :
#
#
# Convention : Reuss Voigt Hill
#
# Bulk Modulus (GPa) = 63.19491 69.98948 66.59220
# Shear Modulus (GPa) = 28.22784 33.04466 30.63625
#
# Velocity S-wave (km/s) = 3.70350 4.00705 3.85826
# Velocity P-wave (km/s) = 6.99960 7.44423 7.22534
#
# Compressibility (1/GPa) = 0.01582406
#
# Stress axis : x y z
#
# Youngs Moduli (GPa) = 157.06605 108.98564 63.94557
#
# Poissons Ratio (x) = 0.15453 0.09482
# Poissons Ratio (y) = 0.22270 0.30551
# Poissons Ratio (z) = 0.23289 0.52069
#
# Static dielectric constant tensor:
#      x y z
#    x 1.948350 0.000000 0.000000 
#    y 0.000000 3.695070 0.000000 
#    z 0.000000 0.000000 3.478320 
# 
# 
# High freq. dielectric constant tensor:
#      x y z
#    x 1.846120 0.000000 0.000000 
#    y 0.000000 1.805510 0.000000 
#    z 0.000000 0.000000 1.769560 
# 
# From -- ./inp_files/32271.got.cif
#   From: 2010.03.12/outbox.cif.g09.slc.cpg/sg24_17_cif.got.tgz:32271.got - 2010.04.14 03:06:53.
