data_PCOD8164463
_publ_section_title
;
Structure prediction by ZEFSAII (Michael W. Deem and Ramdas Pophale) SiO2 
 PCOD8164463
Probable space group: I 2 2 2
;
_chemical_formula_sum "Si O2"
_cell_formula_units_Z 56
_cell_length_a 13.163930
_cell_length_b 13.554174
_cell_length_c 13.807508
_cell_angle_alpha 90.000000
_cell_angle_beta 90.000000
_cell_angle_gamma 90.000000
_cell_volume 2463.621153
_symmetry_space_group_name_H-M "I 2 2 2"
_symmetry_group_IT_number 23
_symmetry_cell_setting 'orthorhombic'
loop_
_space_group_symop_operation_xyz
x,y,z
-x,-y,z
x,-y,-z
-x,y,-z
1/2+x,1/2+y,1/2+z
1/2-x,1/2-y,1/2+z
1/2+x,1/2-y,1/2-z
1/2-x,1/2+y,1/2-z
loop_
_atom_site_type_symbol
_atom_site_label
_atom_site_fract_x
_atom_site_fract_y
_atom_site_fract_z
Si Si1 0.185346 0.079795 0.298914
Si Si2 0.637404 0.777591 0.290607
Si Si3 0.455196 0.108613 0.782566
Si Si4 0.246050 0.378462 0.165910
Si Si5 0.609919 0.449877 0.409410
Si Si6 0.410250 0.256330 0.934586
Si Si7 0.307194 0.260030 0.506709
O O1 0.290753 0.129847 0.270951
O O2 0.143847 0.032211 0.199684
O O3 0.115741 0.159552 0.354149
O O4 0.203265 0.982796 0.364342
O O5 0.522900 0.815327 0.279844
O O6 0.668325 0.693162 0.213164
O O7 0.643552 0.741977 0.401125
O O8 0.340744 0.105403 0.745034
O O9 0.452484 0.155840 0.888715
O O10 0.500000 0.000000 0.786458
O O11 0.191886 0.341244 0.067657
O O12 0.500000 0.500000 0.415205
O O13 0.672935 0.500000 0.500000
O O14 0.624483 0.333901 0.429312
O O15 0.313494 0.220543 0.996788
O O16 0.500000 0.301921 0.000000
#
# Coordination Sequence:
#
# PCOD8164463 Si02
#       7
#     8   8   8   8   8   8   8
#     4  11  24  47  72 104 149 197 237 308 374 433
#     4  11  24  46  71 103 152 189 241 308 367 435
#     4  12  25  45  75 106 143 197 250 304 374 438
#     4  12  24  46  74 105 147 192 244 306 372 440
#     4  11  25  42  71 107 140 191 251 296 367 436
#     4  11  26  47  74 110 147 196 247 304 373 451
#     4  11  24  46  70 103 150 189 239 308 368 435
#
# _framework density 22.730767
#
# number of rings (size 3 to 8) (size 9 to 14) (size 15 to 20)
#    0.000    0.714    5.714    1.714    0.000   11.143 
#    0.000    2.857    0.000    0.000    0.000    0.000 
#    0.000    0.000    0.000    0.000    0.000    0.000 
#
# Total GULP energy -346922.586363 kJ/mol
# GULP energy per Si atom -12390.092370 kJ/mol
# Density = 2.267903 g / cm^3
# Si number density = 22.730767 Si / 1000 Ang^3
#
#
#
# Elastic Constant Matrix: (Units=GPa)
#
#
# Indices 1 2 3 4 5 6 
#
# 1 88.7497 51.4072 32.3543 0.0000 0.0000 0.0000
# 2 51.4072 99.4365 3.0054 0.0000 0.0000 0.0000
# 3 32.3543 3.0054 71.4598 0.0000 0.0000 0.0000
# 4 0.0000 0.0000 0.0000 35.6693 0.0000 0.0000
# 5 0.0000 0.0000 0.0000 0.0000 31.6372 0.0000
# 6 0.0000 0.0000 0.0000 0.0000 0.0000 31.9109
#
#
#
# Elastic Compliance Matrix: (Units=1/GPa)
#
#
# Indices 1 2 3 4 5 6 
#
# 1 0.020458 -0.010310 -0.008829 0.000000 0.000000 0.000000
# 2 -0.010310 0.015265 0.004026 0.000000 0.000000 0.000000
# 3 -0.008829 0.004026 0.017822 0.000000 0.000000 0.000000
# 4 0.000000 0.000000 0.000000 0.028035 0.000000 0.000000
# 5 0.000000 0.000000 0.000000 0.000000 0.031608 0.000000
# 6 0.000000 0.000000 0.000000 0.000000 0.000000 0.031337
#
#
# Mechanical properties :
#
#
# Convention : Reuss Voigt Hill
#
# Bulk Modulus (GPa) = 42.88300 48.13108 45.50704
# Shear Modulus (GPa) = 27.39353 31.36876 29.38114
#
# Velocity S-wave (km/s) = 3.47526 3.71888 3.59914
# Velocity P-wave (km/s) = 5.91691 6.29766 6.11025
#
# Compressibility (1/GPa) = 0.02331926
#
# Stress axis : x y z
#
# Youngs Moduli (GPa) = 48.88042 65.50959 56.11032
#
# Poissons Ratio (x) = 0.67538 0.49540
# Poissons Ratio (y) = 0.50394 -0.22589
# Poissons Ratio (z) = 0.43157 -0.26373
#
# Static dielectric constant tensor:
#      x y z
#    x 4.157720 0.000000 0.000000 
#    y 0.000000 4.194930 0.000000 
#    z 0.000000 0.000000 4.343260 
# 
# 
# High freq. dielectric constant tensor:
#      x y z
#    x 1.892630 0.000000 0.000000 
#    y 0.000000 1.900330 0.000000 
#    z 0.000000 0.000000 1.905770 
# 
# From -- ./inp_files/21609.got.cif
#   From: 2010.03.12/outbox.cif.g09.slc.cpg/sg23_11_cif.got.tgz:21609.got - 2010.04.14 02:50:06.
