data_PCOD8164590
_publ_section_title
;
Structure prediction by ZEFSAII (Michael W. Deem and Ramdas Pophale) SiO2 
 PCOD8164590
Probable space group: I 21 21 21
;
_chemical_formula_sum "Si O2"
_cell_formula_units_Z 52
_cell_length_a 20.711412
_cell_length_b 8.512325
_cell_length_c 14.671475
_cell_angle_alpha 90.000000
_cell_angle_beta 90.000000
_cell_angle_gamma 90.000000
_cell_volume 2586.614349
_symmetry_space_group_name_H-M "I 21 21 21"
_symmetry_group_IT_number 24
_symmetry_cell_setting 'orthorhombic'
loop_
_space_group_symop_operation_xyz
x,y,z
-x,1/2-y,z
x,-y,1/2-z
1/2-x,y,-z
1/2+x,1/2+y,1/2+z
1/2-x,-y,1/2+z
1/2+x,1/2-y,-z
-x,1/2+y,1/2-z
loop_
_atom_site_type_symbol
_atom_site_label
_atom_site_fract_x
_atom_site_fract_y
_atom_site_fract_z
Si Si1 0.668694 0.230362 0.189211
Si Si2 0.199250 0.623721 0.331475
Si Si3 0.250000 0.442033 0.500000
Si Si4 0.053381 0.383340 0.167394
Si Si5 0.856255 0.119116 0.620918
Si Si6 0.021407 0.585292 0.994047
Si Si7 0.954126 0.597295 0.657730
O O1 0.746228 0.262414 0.179502
O O2 0.646485 0.234242 0.293869
O O3 0.621616 0.357761 0.143670
O O4 0.657068 0.061275 0.145279
O O5 0.212862 0.500000 0.250000
O O6 0.207984 0.546629 0.430281
O O7 0.125951 0.689216 0.324625
O O8 0.199768 0.328590 0.551160
O O9 0.039877 0.500000 0.250000
O O10 0.000000 0.250000 0.172088
O O11 0.048067 0.472976 0.072041
O O12 0.925521 0.136114 0.578455
O O13 0.000000 0.750000 0.039760
O O14 0.966519 0.500254 0.934495
O O15 0.967409 0.500000 0.750000
O O16 0.000000 0.750000 0.661201
#
# Coordination Sequence:
#
# PCOD8164590 Si02
#       7
#     8   8   4   8   8   8   8
#     4  10  19  34  57  85 130 154 205 253 303 359
#     4  10  19  35  60  89 117 155 210 259 305 366
#     4  10  16  30  58  88 114 148 206 260 296 354
#     4  11  25  44  65  91 118 161 211 267 315 363
#     4  10  18  33  55  91 118 155 198 256 298 363
#     4  12  24  39  62  91 126 164 208 253 309 375
#     4  12  23  36  57  91 133 172 197 245 309 384
#
# _framework density 20.103498999999999
#
# number of rings (size 3 to 8) (size 9 to 14) (size 15 to 20)
#    0.000    1.231    6.154    3.231    0.000    0.000 
#    0.000    0.769    0.000    1.846    0.000    1.077 
#    0.000    0.000    0.000    0.000    0.000    0.000 
#
# Total GULP energy -322253.021080 kJ/mol
# GULP energy per Si atom -12394.346965 kJ/mol
# Density = 2.005774 g / cm^3
# Si number density = 20.103499 Si / 1000 Ang^3
#
#
#
# Elastic Constant Matrix: (Units=GPa)
#
#
# Indices 1 2 3 4 5 6 
#
# 1 179.6159 48.9553 37.3027 0.0000 0.0000 0.0000
# 2 48.9553 62.7279 16.4936 0.0000 0.0000 0.0000
# 3 37.3027 16.4936 95.5166 0.0000 0.0000 0.0000
# 4 0.0000 0.0000 0.0000 20.4508 0.0000 0.0000
# 5 0.0000 0.0000 0.0000 0.0000 33.1827 0.0000
# 6 0.0000 0.0000 0.0000 0.0000 0.0000 11.1171
#
#
#
# Elastic Compliance Matrix: (Units=1/GPa)
#
#
# Indices 1 2 3 4 5 6 
#
# 1 0.007415 -0.005264 -0.001987 0.000000 0.000000 0.000000
# 2 -0.005264 0.020438 -0.001473 0.000000 0.000000 0.000000
# 3 -0.001987 -0.001473 0.011500 0.000000 0.000000 0.000000
# 4 0.000000 0.000000 0.000000 0.048898 0.000000 0.000000
# 5 0.000000 0.000000 0.000000 0.000000 0.030136 0.000000
# 6 0.000000 0.000000 0.000000 0.000000 0.000000 0.089952
#
#
# Mechanical properties :
#
#
# Convention : Reuss Voigt Hill
#
# Bulk Modulus (GPa) = 45.65461 60.37374 53.01417
# Shear Modulus (GPa) = 21.45111 28.62405 25.03758
#
# Velocity S-wave (km/s) = 3.27009 3.77747 3.53290
# Velocity P-wave (km/s) = 6.08417 7.00873 6.56275
#
# Compressibility (1/GPa) = 0.02190359
#
# Stress axis : x y z
#
# Youngs Moduli (GPa) = 134.86340 48.92886 86.95909
#
# Poissons Ratio (x) = 0.25759 0.17276
# Poissons Ratio (y) = 0.70999 0.12811
# Poissons Ratio (z) = 0.26794 0.07208
#
# Static dielectric constant tensor:
#      x y z
#    x 4.156520 0.000000 0.000000 
#    y 0.000000 3.341590 0.000000 
#    z 0.000000 0.000000 3.866330 
# 
# 
# High freq. dielectric constant tensor:
#      x y z
#    x 1.805170 0.000000 0.000000 
#    y 0.000000 1.732270 0.000000 
#    z 0.000000 0.000000 1.798940 
# 
# From -- ./inp_files/27478.got.cif
#   From: 2010.03.12/outbox.cif.g09.slc.cpg/sg24_14_cif.got.tgz:27478.got - 2010.04.14 03:06:53.
