data_PCOD8164478
_publ_section_title
;
Structure prediction by ZEFSAII (Michael W. Deem and Ramdas Pophale) SiO2 
 PCOD8164478
Probable space group: I 2 2 2
;
_chemical_formula_sum "Si O2"
_cell_formula_units_Z 28
_cell_length_a 24.428924
_cell_length_b 7.124050
_cell_length_c 6.846069
_cell_angle_alpha 90.000000
_cell_angle_beta 90.000000
_cell_angle_gamma 90.000000
_cell_volume 1191.441078
_symmetry_space_group_name_H-M "I 2 2 2"
_symmetry_group_IT_number 23
_symmetry_cell_setting 'orthorhombic'
loop_
_space_group_symop_operation_xyz
x,y,z
-x,-y,z
x,-y,-z
-x,y,-z
1/2+x,1/2+y,1/2+z
1/2-x,1/2-y,1/2+z
1/2+x,1/2-y,1/2-z
1/2-x,1/2+y,1/2-z
loop_
_atom_site_type_symbol
_atom_site_label
_atom_site_fract_x
_atom_site_fract_y
_atom_site_fract_z
Si Si1 0.556504 0.831750 0.384259
Si Si2 0.871146 0.000000 0.000000
Si Si3 0.243763 0.500000 0.000000
Si Si4 0.679752 0.226217 0.201907
Si Si5 0.586819 0.000000 0.000000
O O1 0.500000 0.797352 0.500000
O O2 0.591270 0.643896 0.380643
O O3 0.588319 0.000000 0.500000
O O4 0.548020 0.898658 0.160538
O O5 0.832706 0.105529 0.849653
O O6 0.279366 0.686240 0.042113
O O7 0.206625 0.451148 0.188033
O O8 0.624528 0.158913 0.097794
#
# Coordination Sequence:
#
# PCOD8164478 Si02
#       5
#     8   4   4   8   4
#     4  11  25  47  74 105 144 181 239 302 354 425
#     4  12  23  47  72 106 144 194 236 299 355 426
#     4  12  24  42  64 110 144 190 234 302 344 418
#     4  12  24  42  71 102 149 187 245 287 359 425
#     4  12  24  48  76 106 140 200 232 297 367 424
#
# _framework density 23.50095
#
# number of rings (size 3 to 8) (size 9 to 14) (size 15 to 20)
#    0.000    0.286    2.857    7.286    0.000    2.286 
#    0.000    0.000   12.571    0.000    0.000    0.000 
#    0.000    0.000    0.000    0.000    0.000    0.000 
#
# Total GULP energy -173649.169833 kJ/mol
# GULP energy per Si atom -12403.512131 kJ/mol
# Density = 2.344746 g / cm^3
# Si number density = 23.500950 Si / 1000 Ang^3
#
#
#
# Elastic Constant Matrix: (Units=GPa)
#
#
# Indices 1 2 3 4 5 6 
#
# 1 86.7902 18.0168 35.8095 0.0000 0.0000 0.0000
# 2 18.0168 95.7331 21.7850 0.0000 0.0000 0.0000
# 3 35.8095 21.7850 125.2787 0.0000 0.0000 0.0000
# 4 0.0000 0.0000 0.0000 62.1813 0.0000 0.0000
# 5 0.0000 0.0000 0.0000 0.0000 40.1418 0.0000
# 6 0.0000 0.0000 0.0000 0.0000 0.0000 30.2952
#
#
#
# Elastic Compliance Matrix: (Units=1/GPa)
#
#
# Indices 1 2 3 4 5 6 
#
# 1 0.013326 -0.001709 -0.003512 0.000000 0.000000 0.000000
# 2 -0.001709 0.011095 -0.001441 0.000000 0.000000 0.000000
# 3 -0.003512 -0.001441 0.009237 0.000000 0.000000 0.000000
# 4 0.000000 0.000000 0.000000 0.016082 0.000000 0.000000
# 5 0.000000 0.000000 0.000000 0.000000 0.024912 0.000000
# 6 0.000000 0.000000 0.000000 0.000000 0.000000 0.033009
#
#
# Mechanical properties :
#
#
# Convention : Reuss Voigt Hill
#
# Bulk Modulus (GPa) = 49.17765 51.00273 50.09019
# Shear Modulus (GPa) = 39.13556 42.00304 40.56930
#
# Velocity S-wave (km/s) = 4.08521 4.23222 4.15936
# Velocity P-wave (km/s) = 6.57443 6.75513 6.66539
#
# Compressibility (1/GPa) = 0.02033444
#
# Stress axis : x y z
#
# Youngs Moduli (GPa) = 75.04264 90.12920 108.26490
#
# Poissons Ratio (x) = 0.15401 0.38021
# Poissons Ratio (y) = 0.12823 0.15600
# Poissons Ratio (z) = 0.26354 0.12987
#
# Static dielectric constant tensor:
#      x y z
#    x 4.054670 0.000000 0.000000 
#    y 0.000000 4.323930 0.000000 
#    z 0.000000 0.000000 4.716050 
# 
# 
# High freq. dielectric constant tensor:
#      x y z
#    x 1.929980 0.000000 0.000000 
#    y 0.000000 1.935890 0.000000 
#    z 0.000000 0.000000 1.940400 
# 
# From -- ./inp_files/4724.got.cif
#   From: 2010.03.12/outbox.cif.g09.slc.cpg/sg23_3_cif.got.tgz:4724.got - 2010.04.14 02:50:06.
