data_PCOD8164547
_publ_section_title
;
Structure prediction by ZEFSAII (Michael W. Deem and Ramdas Pophale) SiO2 
 PCOD8164547
Probable space group: I 2 2 2
;
_chemical_formula_sum "Si O2"
_cell_formula_units_Z 30
_cell_length_a 18.265234
_cell_length_b 12.884149
_cell_length_c 5.394125
_cell_angle_alpha 90.000000
_cell_angle_beta 90.000000
_cell_angle_gamma 90.000000
_cell_volume 1269.410205
_symmetry_space_group_name_H-M "I 2 2 2"
_symmetry_group_IT_number 23
_symmetry_cell_setting 'orthorhombic'
loop_
_space_group_symop_operation_xyz
x,y,z
-x,-y,z
x,-y,-z
-x,y,-z
1/2+x,1/2+y,1/2+z
1/2-x,1/2-y,1/2+z
1/2+x,1/2-y,1/2-z
1/2-x,1/2+y,1/2-z
loop_
_atom_site_type_symbol
_atom_site_label
_atom_site_fract_x
_atom_site_fract_y
_atom_site_fract_z
Si Si1 0.743796 0.184818 0.294733
Si Si2 0.102963 0.102310 0.655866
Si Si3 0.592798 0.934412 0.745391
Si Si4 0.500000 0.500000 0.500000
Si Si5 0.500000 0.221770 0.000000
O O1 0.752171 0.240045 0.559853
O O2 0.812169 0.106775 0.273455
O O3 0.669989 0.120806 0.295536
O O4 0.073167 0.209542 0.539948
O O5 0.086079 0.000000 0.500000
O O6 0.052719 0.086210 0.889385
O O7 0.525552 0.852800 0.773443
O O8 0.575504 0.000000 0.500000
O O9 0.597833 0.000000 0.000000
#
# Coordination Sequence:
#
# PCOD8164547 Si02
#       5
#     8   8   8   2   4
#     4  12  28  51  82 114 154 210 262 325 394 468
#     4  12  27  50  77 118 158 204 258 331 401 470
#     4  12  29  53  79 114 157 213 267 324 389 467
#     4  12  26  40  84 110 158 202 258 316 410 460
#     4  12  26  54  76 114 162 204 270 326 392 476
#
# _framework density 23.633023999999999
#
# number of rings (size 3 to 8) (size 9 to 14) (size 15 to 20)
#    0.000    0.000    5.333    2.800    9.333    2.133 
#    0.000    0.000    0.000    0.000    0.000    0.000 
#    0.000    0.000    0.000    0.000    0.000    0.000 
#
# Total GULP energy -185854.729305 kJ/mol
# GULP energy per Si atom -12390.315287 kJ/mol
# Density = 2.357923 g / cm^3
# Si number density = 23.633024 Si / 1000 Ang^3
#
#
#
# Elastic Constant Matrix: (Units=GPa)
#
#
# Indices 1 2 3 4 5 6 
#
# 1 181.9803 70.5058 36.7603 0.0000 0.0000 0.0000
# 2 70.5058 136.9963 56.0797 0.0000 0.0000 0.0000
# 3 36.7603 56.0797 111.3974 0.0000 0.0000 0.0000
# 4 0.0000 0.0000 0.0000 28.7386 0.0000 0.0000
# 5 0.0000 0.0000 0.0000 0.0000 40.3144 0.0000
# 6 0.0000 0.0000 0.0000 0.0000 0.0000 33.8402
#
#
#
# Elastic Compliance Matrix: (Units=1/GPa)
#
#
# Indices 1 2 3 4 5 6 
#
# 1 0.006897 -0.003297 -0.000616 0.000000 0.000000 0.000000
# 2 -0.003297 0.010771 -0.004334 0.000000 0.000000 0.000000
# 3 -0.000616 -0.004334 0.011362 0.000000 0.000000 0.000000
# 4 0.000000 0.000000 0.000000 0.034796 0.000000 0.000000
# 5 0.000000 0.000000 0.000000 0.000000 0.024805 0.000000
# 6 0.000000 0.000000 0.000000 0.000000 0.000000 0.029551
#
#
# Mechanical properties :
#
#
# Convention : Reuss Voigt Hill
#
# Bulk Modulus (GPa) = 79.77801 84.11841 81.94821
# Shear Modulus (GPa) = 36.00877 38.38052 37.19464
#
# Velocity S-wave (km/s) = 3.90765 4.03429 3.97147
# Velocity P-wave (km/s) = 7.36138 7.57440 7.46865
#
# Compressibility (1/GPa) = 0.01253478
#
# Stress axis : x y z
#
# Youngs Moduli (GPa) = 144.98874 92.84474 88.01283
#
# Poissons Ratio (x) = 0.30615 0.05421
# Poissons Ratio (y) = 0.47810 0.38145
# Poissons Ratio (z) = 0.08931 0.40239
#
# Static dielectric constant tensor:
#      x y z
#    x 4.714170 0.000000 0.000000 
#    y 0.000000 4.249220 0.000000 
#    z 0.000000 0.000000 4.590360 
# 
# 
# High freq. dielectric constant tensor:
#      x y z
#    x 1.969450 0.000000 0.000000 
#    y 0.000000 1.950340 0.000000 
#    z 0.000000 0.000000 1.938160 
# 
# From -- ./inp_files/3671.got.cif
#   From: 2010.03.12/outbox.cif.g09.slc.cpg/sg23_2_cif.got.tgz:3671.got - 2010.04.14 02:50:06.
