data_PCOD8164631
_publ_section_title
;
Structure prediction by ZEFSAII (Michael W. Deem and Ramdas Pophale) SiO2 
 PCOD8164631
Probable space group: I 21 21 21
;
_chemical_formula_sum "Si O2"
_cell_formula_units_Z 40
_cell_length_a 17.029224
_cell_length_b 4.974542
_cell_length_c 24.393212
_cell_angle_alpha 90.000000
_cell_angle_beta 90.000000
_cell_angle_gamma 90.000000
_cell_volume 2066.412167
_symmetry_space_group_name_H-M "I 21 21 21"
_symmetry_group_IT_number 24
_symmetry_cell_setting 'orthorhombic'
loop_
_space_group_symop_operation_xyz
x,y,z
-x,1/2-y,z
x,-y,1/2-z
1/2-x,y,-z
1/2+x,1/2+y,1/2+z
1/2-x,-y,1/2+z
1/2+x,1/2-y,-z
-x,1/2+y,1/2-z
loop_
_atom_site_type_symbol
_atom_site_label
_atom_site_fract_x
_atom_site_fract_y
_atom_site_fract_z
Si Si1 0.914325 0.858358 0.978093
Si Si2 0.153713 0.511592 0.632167
Si Si3 0.763601 0.500000 0.250000
Si Si4 0.263246 0.012390 0.632105
Si Si5 0.332908 0.854792 0.523006
Si Si6 0.653137 0.000000 0.250000
O O1 0.909781 0.962182 0.915409
O O2 0.000000 0.750000 0.992581
O O3 0.854617 0.613165 0.986621
O O4 0.894686 0.110585 0.017667
O O5 0.190035 0.808067 0.626905
O O6 0.107391 0.481431 0.691338
O O7 0.227008 0.308750 0.625587
O O8 0.809458 0.502771 0.191507
O O9 0.708204 0.749908 0.254539
O O10 0.328156 0.947789 0.586233
O O11 0.250000 0.746050 0.500000
#
# Coordination Sequence:
#
# PCOD8164631 Si02
#       6
#     8   8   4   8   8   4
#     4  12  24  36  52  79 116 148 183 228 282 327
#     4  10  17  32  49  75 104 140 177 221 264 317
#     4   8  16  28  44  79 104 125 160 228 274 304
#     4  10  18  30  54  77 105 132 178 224 270 319
#     4  12  21  36  57  81 105 146 191 229 271 333
#     4   8  16  26  48  69 100 135 174 214 258 302
#
# _framework density 19.357223999999999
#
# number of rings (size 3 to 8) (size 9 to 14) (size 15 to 20)
#    0.000    1.600    4.000    2.400    0.000    0.000 
#    0.000    0.000    0.000    9.600    0.000    2.800 
#    0.000    0.000    0.000    0.000    0.000    0.000 
#
# Total GULP energy -247764.637929 kJ/mol
# GULP energy per Si atom -12388.231896 kJ/mol
# Density = 1.931317 g / cm^3
# Si number density = 19.357224 Si / 1000 Ang^3
#
#
#
# Elastic Constant Matrix: (Units=GPa)
#
#
# Indices 1 2 3 4 5 6 
#
# 1 38.8519 8.0472 34.5800 0.0000 0.0000 0.0000
# 2 8.0472 87.5259 10.9073 0.0000 0.0000 0.0000
# 3 34.5800 10.9073 145.3345 0.0000 0.0000 0.0000
# 4 0.0000 0.0000 0.0000 28.0378 0.0000 0.0000
# 5 0.0000 0.0000 0.0000 0.0000 14.8219 0.0000
# 6 0.0000 0.0000 0.0000 0.0000 0.0000 21.8285
#
#
#
# Elastic Compliance Matrix: (Units=1/GPa)
#
#
# Indices 1 2 3 4 5 6 
#
# 1 0.033024 -0.002076 -0.007702 0.000000 0.000000 0.000000
# 2 -0.002076 0.011664 -0.000381 0.000000 0.000000 0.000000
# 3 -0.007702 -0.000381 0.008742 0.000000 0.000000 0.000000
# 4 0.000000 0.000000 0.000000 0.035666 0.000000 0.000000
# 5 0.000000 0.000000 0.000000 0.000000 0.067468 0.000000
# 6 0.000000 0.000000 0.000000 0.000000 0.000000 0.045812
#
#
# Mechanical properties :
#
#
# Convention : Reuss Voigt Hill
#
# Bulk Modulus (GPa) = 30.20204 42.08679 36.14442
# Shear Modulus (GPa) = 21.39220 27.48283 24.43751
#
# Velocity S-wave (km/s) = 3.32795 3.77207 3.55695
# Velocity P-wave (km/s) = 5.51392 6.38441 5.96507
#
# Compressibility (1/GPa) = 0.03311035
#
# Stress axis : x y z
#
# Youngs Moduli (GPa) = 30.28131 85.73674 114.39331
#
# Poissons Ratio (x) = 0.17803 0.88101
# Poissons Ratio (y) = 0.06288 0.04362
# Poissons Ratio (z) = 0.23321 0.03269
#
# Static dielectric constant tensor:
#      x y z
#    x 2.798150 0.000000 0.000000 
#    y 0.000000 3.804250 0.000000 
#    z 0.000000 0.000000 4.567590 
# 
# 
# High freq. dielectric constant tensor:
#      x y z
#    x 1.661100 0.000000 0.000000 
#    y 0.000000 1.786080 0.000000 
#    z 0.000000 0.000000 1.782510 
# 
# From -- ./inp_files/3523.got.cif
#   From: 2010.03.12/outbox.cif.g09.slc.cpg/sg24_2_cif.got.tgz:3523.got - 2010.04.14 03:06:53.
