data_PCOD8164158
_publ_section_title
;
Structure prediction by ZEFSAII (Michael W. Deem and Ramdas Pophale) SiO2 
 PCOD8164158
Probable space group: I 2 2 2
;
_chemical_formula_sum "Si O2"
_cell_formula_units_Z 58
_cell_length_a 10.198834
_cell_length_b 23.441688
_cell_length_c 11.299351
_cell_angle_alpha 90.000000
_cell_angle_beta 90.000000
_cell_angle_gamma 90.000000
_cell_volume 2701.424934
_symmetry_space_group_name_H-M "I 2 2 2"
_symmetry_group_IT_number 23
_symmetry_cell_setting 'orthorhombic'
loop_
_space_group_symop_operation_xyz
x,y,z
-x,-y,z
x,-y,-z
-x,y,-z
1/2+x,1/2+y,1/2+z
1/2-x,1/2-y,1/2+z
1/2+x,1/2-y,1/2-z
1/2-x,1/2+y,1/2-z
loop_
_atom_site_type_symbol
_atom_site_label
_atom_site_fract_x
_atom_site_fract_y
_atom_site_fract_z
Si Si1 0.978366 0.208935 0.192425
Si Si2 0.851866 0.361183 0.496185
Si Si3 0.500000 0.500000 0.500000
Si Si4 0.287653 0.362792 0.739121
Si Si5 0.633037 0.271362 0.943934
Si Si6 0.883820 0.682420 0.933064
Si Si7 0.857075 0.094684 0.151707
Si Si8 0.998867 0.066685 0.368562
O O1 0.883267 0.223329 0.303059
O O2 0.963429 0.260508 0.103022
O O3 0.941580 0.151147 0.122190
O O4 0.130362 0.197372 0.231128
O O5 0.767189 0.385068 0.386136
O O6 0.846669 0.292765 0.491368
O O7 0.790413 0.388873 0.614760
O O8 0.000000 0.383325 0.500000
O O9 0.410137 0.539392 0.583209
O O10 0.159752 0.352477 0.818507
O O11 0.375468 0.412914 0.794031
O O12 0.500000 0.297088 0.000000
O O13 0.757838 0.307714 0.984264
O O14 0.000000 0.647296 0.000000
O O15 0.868970 0.085044 0.294419
O O16 0.000000 0.094506 0.500000
O O17 0.000000 0.000000 0.381913
#
# Coordination Sequence:
#
# PCOD8164158 Si02
#       8
#     8   8   2   8   8   8   8   8
#     4  11  23  38  63  92 134 184 234 286 353 422
#     4  11  24  42  64  96 142 189 231 287 360 445
#     4  12  24  44  72 104 136 180 248 332 352 410
#     4  11  24  42  64  98 139 183 237 301 347 434
#     4  11  22  40  61  88 139 188 231 282 346 435
#     4  12  25  36  59  99 138 186 231 282 354 448
#     4  11  23  40  69 102 133 178 237 301 369 410
#     4  10  23  45  73 104 130 171 234 308 367 424
#
# _framework density 21.47015
#
# number of rings (size 3 to 8) (size 9 to 14) (size 15 to 20)
#    0.000    0.966    4.828    2.483    4.828    1.103 
#    0.000    0.345    0.000    0.000    0.000    0.000 
#    0.000    0.000    0.000    0.000    0.000    0.000 
#
# Total GULP energy -359467.265468 kJ/mol
# GULP energy per Si atom -12395.422947 kJ/mol
# Density = 2.142128 g / cm^3
# Si number density = 21.470150 Si / 1000 Ang^3
#
#
#
# Elastic Constant Matrix: (Units=GPa)
#
#
# Indices 1 2 3 4 5 6 
#
# 1 148.4131 23.9978 66.9002 0.0001 0.0000 0.0000
# 2 23.9978 68.8977 18.9748 -0.0001 0.0000 0.0001
# 3 66.9002 18.9748 133.2814 -0.0012 -0.0012 0.0007
# 4 0.0001 -0.0001 -0.0012 27.9971 -0.0002 0.0002
# 5 0.0000 0.0000 -0.0012 -0.0002 47.1308 -0.0002
# 6 0.0000 0.0001 0.0007 0.0002 -0.0002 20.3173
#
#
#
# Elastic Compliance Matrix: (Units=1/GPa)
#
#
# Indices 1 2 3 4 5 6 
#
# 1 0.008955 -0.001958 -0.004216 0.000000 0.000000 0.000000
# 2 -0.001958 0.015535 -0.001229 0.000000 0.000000 0.000000
# 3 -0.004216 -0.001229 0.009794 0.000000 0.000000 0.000000
# 4 0.000000 0.000000 0.000000 0.035718 0.000000 0.000000
# 5 0.000000 0.000000 0.000000 0.000000 0.021218 0.000000
# 6 0.000000 0.000000 0.000000 0.000000 0.000000 0.049219
#
#
# Mechanical properties :
#
#
# Convention : Reuss Voigt Hill
#
# Bulk Modulus (GPa) = 51.34018 63.37085 57.35552
# Shear Modulus (GPa) = 30.91431 35.13700 33.02566
#
# Velocity S-wave (km/s) = 3.79868 4.04982 3.92626
# Velocity P-wave (km/s) = 6.57300 7.17272 6.87940
#
# Compressibility (1/GPa) = 0.01947792
#
# Stress axis : x y z
#
# Youngs Moduli (GPa) = 111.66822 64.37209 102.10138
#
# Poissons Ratio (x) = 0.12604 0.43048
# Poissons Ratio (y) = 0.21864 0.12546
# Poissons Ratio (z) = 0.47082 0.07910
#
# Static dielectric constant tensor:
#      x y z
#    x 3.996010 0.000000 0.000000 
#    y 0.000000 3.629150 0.000000 
#    z 0.000000 0.000000 4.323660 
# 
# 
# High freq. dielectric constant tensor:
#      x y z
#    x 1.834510 0.000000 0.000000 
#    y 0.000000 1.811190 0.000000 
#    z 0.000000 0.000000 1.861640 
# 
# From -- ./inp_files/14905.got.cif
#   From: 2010.03.12/outbox.cif.g09.slc.cpg/sg23_8_cif.got.tgz:14905.got - 2010.04.14 02:50:06.
