data_PCOD8164956
_publ_section_title
;
Structure prediction by ZEFSAII (Michael W. Deem and Ramdas Pophale) SiO2 
 PCOD8164956
Probable space group: I 21 21 21
;
_chemical_formula_sum "Si O2"
_cell_formula_units_Z 64
_cell_length_a 8.739238
_cell_length_b 24.354803
_cell_length_c 15.093617
_cell_angle_alpha 90.000000
_cell_angle_beta 90.000000
_cell_angle_gamma 90.000000
_cell_volume 3212.561967
_symmetry_space_group_name_H-M "I 21 21 21"
_symmetry_group_IT_number 24
_symmetry_cell_setting 'orthorhombic'
loop_
_space_group_symop_operation_xyz
x,y,z
-x,1/2-y,z
x,-y,1/2-z
1/2-x,y,-z
1/2+x,1/2+y,1/2+z
1/2-x,-y,1/2+z
1/2+x,1/2-y,-z
-x,1/2+y,1/2-z
loop_
_atom_site_type_symbol
_atom_site_label
_atom_site_fract_x
_atom_site_fract_y
_atom_site_fract_z
Si Si1 0.817805 0.385475 0.906118
Si Si2 0.317205 0.497084 0.404000
Si Si3 0.682251 0.878605 0.097548
Si Si4 0.317763 0.615474 0.402441
Si Si5 0.675370 0.316016 0.751884
Si Si6 0.317793 0.119443 0.405345
Si Si7 0.151049 0.997845 0.853261
Si Si8 0.323182 0.686842 0.747558
O O1 0.756370 0.342625 0.835624
O O2 0.757559 0.446972 0.880417
O O3 0.999983 0.381718 0.907619
O O4 0.750000 0.368103 0.000000
O O5 0.250000 0.497381 0.500000
O O6 0.267171 0.438649 0.360941
O O7 0.267672 0.555481 0.360483
O O8 0.499633 0.496818 0.412488
O O9 0.499879 0.875544 0.093197
O O10 0.743808 0.832132 0.161993
O O11 0.750000 0.869018 0.000000
O O12 0.250000 0.624810 0.500000
O O13 0.258048 0.662214 0.338344
O O14 0.752690 0.336239 0.662137
O O15 0.497994 0.332285 0.751304
O O16 0.697167 0.251397 0.758883
O O17 0.250000 0.134539 0.500000
O O18 0.258981 0.058377 0.375938
O O19 0.107191 0.000000 0.750000
#
# Coordination Sequence:
#
# PCOD8164956 Si02
#       8
#     8   8   8   8   8   8   8   8
#     4  11  22  39  65  91 125 160 198 249 301 365
#     4   8  18  33  57  90 125 156 194 238 290 359
#     4  10  21  39  62  92 122 159 201 243 303 360
#     4  10  21  39  62  92 122 159 201 243 303 360
#     4  11  25  44  59  88 118 157 212 253 308 353
#     4  11  22  39  65  91 125 160 198 249 301 365
#     4  10  19  35  61  93 127 160 198 244 302 365
#     4  11  25  42  63  82 120 161 204 263 298 361
#
# _framework density 19.921793000000001
#
# number of rings (size 3 to 8) (size 9 to 14) (size 15 to 20)
#    0.000    1.750    1.250    2.625    5.250    3.000 
#    0.000    5.000    0.000    0.000    0.000    0.000 
#    0.000    0.000    0.000    0.000    0.000    0.000 
#
# Total GULP energy -396616.647386 kJ/mol
# GULP energy per Si atom -12394.270231 kJ/mol
# Density = 1.987645 g / cm^3
# Si number density = 19.921793 Si / 1000 Ang^3
#
#
#
# Elastic Constant Matrix: (Units=GPa)
#
#
# Indices 1 2 3 4 5 6 
#
# 1 91.9503 29.7256 36.5671 0.0000 0.0003 -0.0001
# 2 29.7256 54.6139 7.1571 -0.0003 0.0006 -0.0001
# 3 36.5671 7.1571 95.3572 0.0002 0.0010 0.0000
# 4 0.0000 -0.0003 0.0002 26.0264 -0.0001 0.0000
# 5 0.0003 0.0006 0.0010 -0.0001 31.2708 0.0000
# 6 -0.0001 -0.0001 0.0000 0.0000 0.0000 26.4052
#
#
#
# Elastic Compliance Matrix: (Units=1/GPa)
#
#
# Indices 1 2 3 4 5 6 
#
# 1 0.015512 -0.007740 -0.005368 0.000000 0.000000 0.000000
# 2 -0.007740 0.022354 0.001290 0.000000 0.000000 0.000000
# 3 -0.005368 0.001290 0.012448 0.000000 0.000000 0.000000
# 4 0.000000 0.000000 0.000000 0.038422 0.000000 0.000000
# 5 0.000000 0.000000 0.000000 0.000000 0.031979 0.000000
# 6 0.000000 0.000000 0.000000 0.000000 0.000000 0.037871
#
#
# Mechanical properties :
#
#
# Convention : Reuss Voigt Hill
#
# Bulk Modulus (GPa) = 37.48090 43.20234 40.34162
# Shear Modulus (GPa) = 26.16234 27.97192 27.06713
#
# Velocity S-wave (km/s) = 3.62781 3.75118 3.69001
# Velocity P-wave (km/s) = 6.03348 6.36356 6.20072
#
# Compressibility (1/GPa) = 0.02668026
#
# Stress axis : x y z
#
# Youngs Moduli (GPa) = 64.46582 44.73501 80.33161
#
# Poissons Ratio (x) = 0.34623 0.43119
# Poissons Ratio (y) = 0.49894 -0.10364
# Poissons Ratio (z) = 0.34603 -0.05772
#
# Static dielectric constant tensor:
#      x y z
#    x 3.604320 0.000000 0.000000 
#    y 0.000000 4.043520 0.000000 
#    z 0.000000 0.000000 3.542560 
# 
# 
# High freq. dielectric constant tensor:
#      x y z
#    x 1.770580 0.000000 0.000000 
#    y 0.000000 1.790700 0.000000 
#    z 0.000000 0.000000 1.779830 
# 
# From -- ./inp_files/25203.got.cif
#   From: 2010.03.12/outbox.cif.g09.slc.cpg/sg24_13_cif.got.tgz:25203.got - 2010.04.14 03:06:53.
