data_PCOD8164401
_publ_section_title
;
Structure prediction by ZEFSAII (Michael W. Deem and Ramdas Pophale) SiO2 
 PCOD8164401
Probable space group: I 2 2 2
;
_chemical_formula_sum "Si O2"
_cell_formula_units_Z 48
_cell_length_a 11.171400
_cell_length_b 14.076478
_cell_length_c 14.691968
_cell_angle_alpha 90.000000
_cell_angle_beta 90.000000
_cell_angle_gamma 90.000000
_cell_volume 2310.370241
_symmetry_space_group_name_H-M "I 2 2 2"
_symmetry_group_IT_number 23
_symmetry_cell_setting 'orthorhombic'
loop_
_space_group_symop_operation_xyz
x,y,z
-x,-y,z
x,-y,-z
-x,y,-z
1/2+x,1/2+y,1/2+z
1/2-x,1/2-y,1/2+z
1/2+x,1/2-y,1/2-z
1/2-x,1/2+y,1/2-z
loop_
_atom_site_type_symbol
_atom_site_label
_atom_site_fract_x
_atom_site_fract_y
_atom_site_fract_z
Si Si1 0.708776 0.732776 0.822536
Si Si2 0.266733 0.930904 0.919070
Si Si3 0.972622 0.700108 0.602239
Si Si4 0.861818 0.974185 0.257530
Si Si5 0.858208 0.748019 0.004187
Si Si6 0.289563 0.343334 0.150017
O O1 0.595391 0.801413 0.841634
O O2 0.657877 0.630593 0.795280
O O3 0.778869 0.779696 0.740308
O O4 0.798226 0.723709 0.907553
O O5 0.380192 0.882726 0.867161
O O6 0.193861 0.988455 0.842776
O O7 0.181563 0.851248 0.962349
O O8 0.308588 0.000000 0.000000
O O9 0.911816 0.804459 0.604587
O O10 0.000000 0.674324 0.500000
O O11 0.797955 0.046009 0.327342
O O12 0.000000 0.000000 0.249722
O O13 0.818935 0.670225 0.079329
O O14 0.000000 0.744192 0.000000
#
# Coordination Sequence:
#
# PCOD8164401 Si02
#       6
#     8   8   8   8   8   8
#     4  12  24  46  72  98 146 184 233 288 350 420
#     4  11  25  43  66 108 137 177 237 286 355 408
#     4  11  22  46  68  96 137 184 229 288 344 410
#     4  12  26  41  73 105 135 182 237 289 340 428
#     4  11  26  46  69  97 141 188 222 288 354 416
#     4  11  25  44  66 106 135 179 233 280 354 404
#
# _framework density 20.775891000000001
#
# number of rings (size 3 to 8) (size 9 to 14) (size 15 to 20)
#    0.000    0.667    8.333    1.000    7.000    1.000 
#    0.000    5.000    0.000    0.000    0.000    0.000 
#    0.000    0.000    0.000    0.000    0.000    0.000 
#
# Total GULP energy -297626.230856 kJ/mol
# GULP energy per Si atom -12401.092952 kJ/mol
# Density = 2.072860 g / cm^3
# Si number density = 20.775891 Si / 1000 Ang^3
#
#
#
# Elastic Constant Matrix: (Units=GPa)
#
#
# Indices 1 2 3 4 5 6 
#
# 1 125.7020 34.4717 37.0438 0.0000 0.0000 0.0000
# 2 34.4717 74.7073 19.5580 0.0002 0.0000 0.0000
# 3 37.0438 19.5580 98.2971 0.0001 0.0000 0.0000
# 4 0.0000 0.0002 0.0001 278.2492 0.0000 0.0001
# 5 0.0000 0.0000 0.0000 0.0000 28.4420 0.0000
# 6 0.0000 0.0000 0.0000 0.0001 0.0000 19.0206
#
#
#
# Elastic Compliance Matrix: (Units=1/GPa)
#
#
# Indices 1 2 3 4 5 6 
#
# 1 0.009865 -0.003775 -0.002966 0.000000 0.000000 0.000000
# 2 -0.003775 0.015566 -0.001674 0.000000 0.000000 0.000000
# 3 -0.002966 -0.001674 0.011624 0.000000 0.000000 0.000000
# 4 0.000000 0.000000 0.000000 0.003594 0.000000 0.000000
# 5 0.000000 0.000000 0.000000 0.000000 0.035159 0.000000
# 6 0.000000 0.000000 0.000000 0.000000 0.000000 0.052575
#
#
# Mechanical properties :
#
#
# Convention : Reuss Voigt Hill
#
# Bulk Modulus (GPa) = 49.44905 53.42815 51.43860
# Shear Modulus (GPa) = 32.90424 78.98454 55.94439
#
# Velocity S-wave (km/s) = 3.98398 6.17251 5.19481
# Velocity P-wave (km/s) = 6.70937 8.75055 7.79704
#
# Compressibility (1/GPa) = 0.02022283
#
# Stress axis : x y z
#
# Youngs Moduli (GPa) = 101.37029 64.24299 86.02660
#
# Poissons Ratio (x) = 0.24253 0.25519
# Poissons Ratio (y) = 0.38270 0.14404
# Poissons Ratio (z) = 0.30071 0.10757
#
# Static dielectric constant tensor:
#      x y z
#    x -3.621220 0.000000 0.000000 
#    y 0.000000 3.864210 0.000000 
#    z 0.000000 0.000000 3.956570 
# 
# 
# High freq. dielectric constant tensor:
#      x y z
#    x 1.820990 0.000000 0.000000 
#    y 0.000000 1.806690 0.000000 
#    z 0.000000 0.000000 1.821780 
# 
# From -- ./inp_files/16706.got.cif
#   From: 2010.03.12/outbox.cif.g09.slc.cpg/sg23_9_cif.got.tgz:16706.got - 2010.04.14 02:50:06.
