data_PCOD8164275
_publ_section_title
;
Structure prediction by ZEFSAII (Michael W. Deem and Ramdas Pophale) SiO2 
 PCOD8164275
Probable space group: I 2 2 2
;
_chemical_formula_sum "Si O2"
_cell_formula_units_Z 46
_cell_length_a 8.100311
_cell_length_b 24.897711
_cell_length_c 10.932877
_cell_angle_alpha 90.000000
_cell_angle_beta 90.000000
_cell_angle_gamma 90.000000
_cell_volume 2204.933912
_symmetry_space_group_name_H-M "I 2 2 2"
_symmetry_group_IT_number 23
_symmetry_cell_setting 'orthorhombic'
loop_
_space_group_symop_operation_xyz
x,y,z
-x,-y,z
x,-y,-z
-x,y,-z
1/2+x,1/2+y,1/2+z
1/2-x,1/2-y,1/2+z
1/2+x,1/2-y,1/2-z
1/2-x,1/2+y,1/2-z
loop_
_atom_site_type_symbol
_atom_site_label
_atom_site_fract_x
_atom_site_fract_y
_atom_site_fract_z
Si Si1 0.500000 0.235166 0.500000
Si Si2 0.910874 0.659914 0.214282
Si Si3 0.000000 0.500000 0.500000
Si Si4 0.666972 0.531114 0.836345
Si Si5 0.675450 0.093094 0.863679
Si Si6 0.187281 0.308480 0.465891
Si Si7 0.323714 0.066172 0.565516
O O1 0.505496 0.200627 0.624190
O O2 0.330129 0.268567 0.509681
O O3 0.802142 0.688982 0.318351
O O4 0.790597 0.621498 0.136946
O O5 0.041886 0.622107 0.280352
O O6 0.113206 0.537610 0.418106
O O7 0.500000 0.500000 0.818299
O O8 0.678591 0.574081 0.726096
O O9 0.811990 0.485387 0.843510
O O10 0.677650 0.563013 0.964888
O O11 0.728222 0.133767 0.971843
O O12 0.000000 0.289148 0.500000
O O13 0.500000 0.067765 0.500000
#
# Coordination Sequence:
#
# PCOD8164275 Si02
#       7
#     4   8   2   8   8   8   8
#     4  12  26  46  78  98 138 190 224 308 364 392
#     4  11  22  44  71 101 128 182 243 277 352 424
#     4  12  20  40  70  98 124 180 218 260 342 396
#     4  11  23  36  60  97 142 174 219 280 344 411
#     4  11  22  42  67  97 136 179 229 283 341 425
#     4  10  26  47  68 103 138 174 242 295 348 429
#     4  11  20  37  63  94 127 178 228 272 329 405
#
# _framework density 20.862304000000002
#
# number of rings (size 3 to 8) (size 9 to 14) (size 15 to 20)
#    0.000    1.043    5.217    3.130    4.870    1.391 
#    0.000    3.478    0.000    0.000    0.000    0.000 
#    0.000    0.000    0.000    0.000    0.000    0.000 
#
# Total GULP energy -285018.965163 kJ/mol
# GULP energy per Si atom -12392.128920 kJ/mol
# Density = 2.081482 g / cm^3
# Si number density = 20.862304 Si / 1000 Ang^3
#
#
#
# Elastic Constant Matrix: (Units=GPa)
#
#
# Indices 1 2 3 4 5 6 
#
# 1 77.0851 30.6599 31.4176 0.0001 -0.0001 -0.0001
# 2 30.6599 110.2486 59.8196 0.0004 -0.0001 -0.0001
# 3 31.4176 59.8196 119.3742 0.0015 -0.0010 -0.0007
# 4 0.0001 0.0004 0.0015 35.5229 -0.0004 -0.0002
# 5 -0.0001 -0.0001 -0.0010 -0.0004 18.6342 0.0002
# 6 -0.0001 -0.0001 -0.0007 -0.0002 0.0002 20.0648
#
#
#
# Elastic Compliance Matrix: (Units=1/GPa)
#
#
# Indices 1 2 3 4 5 6 
#
# 1 0.015141 -0.002814 -0.002575 0.000000 0.000000 0.000000
# 2 -0.002814 0.012980 -0.005764 0.000000 0.000000 0.000000
# 3 -0.002575 -0.005764 0.011943 0.000000 0.000001 0.000000
# 4 0.000000 0.000000 0.000000 0.028151 0.000001 0.000000
# 5 0.000000 0.000000 0.000001 0.000001 0.053665 -0.000001
# 6 0.000000 0.000000 0.000000 0.000000 -0.000001 0.049839
#
#
# Mechanical properties :
#
#
# Convention : Reuss Voigt Hill
#
# Bulk Modulus (GPa) = 56.30826 61.16690 58.73758
# Shear Modulus (GPa) = 25.00696 27.16510 26.08603
#
# Velocity S-wave (km/s) = 3.46593 3.61240 3.53992
# Velocity P-wave (km/s) = 6.56247 6.83975 6.70254
#
# Compressibility (1/GPa) = 0.01775938
#
# Stress axis : x y z
#
# Youngs Moduli (GPa) = 66.04471 77.03933 83.72975
#
# Poissons Ratio (x) = 0.21675 0.21561
# Poissons Ratio (y) = 0.18582 0.48263
# Poissons Ratio (z) = 0.17007 0.44406
#
# Static dielectric constant tensor:
#      x y z
#    x 3.487300 0.000000 0.000000 
#    y 0.000000 4.055590 0.000000 
#    z 0.000000 0.000000 4.434150 
# 
# 
# High freq. dielectric constant tensor:
#      x y z
#    x 1.786880 0.000000 0.000000 
#    y 0.000000 1.817210 0.000000 
#    z 0.000000 0.000000 1.835350 
# 
# From -- ./inp_files/14780.got.cif
#   From: 2010.03.12/outbox.cif.g09.slc.cpg/sg23_8_cif.got.tgz:14780.got - 2010.04.14 02:50:06.
