data_PCOD8164559
_publ_section_title
;
Structure prediction by ZEFSAII (Michael W. Deem and Ramdas Pophale) SiO2 
 PCOD8164559
Probable space group: I 2 2 2
;
_chemical_formula_sum "Si O2"
_cell_formula_units_Z 64
_cell_length_a 29.436756
_cell_length_b 12.620691
_cell_length_c 10.024210
_cell_angle_alpha 90.000000
_cell_angle_beta 90.000000
_cell_angle_gamma 90.000000
_cell_volume 3724.116326
_symmetry_space_group_name_H-M "I 2 2 2"
_symmetry_group_IT_number 23
_symmetry_cell_setting 'orthorhombic'
loop_
_space_group_symop_operation_xyz
x,y,z
-x,-y,z
x,-y,-z
-x,y,-z
1/2+x,1/2+y,1/2+z
1/2-x,1/2-y,1/2+z
1/2+x,1/2-y,1/2-z
1/2-x,1/2+y,1/2-z
loop_
_atom_site_type_symbol
_atom_site_label
_atom_site_fract_x
_atom_site_fract_y
_atom_site_fract_z
Si Si1 0.448104 1.000000 0.342011
Si Si2 0.918951 0.271961 0.841742
Si Si3 0.000000 0.878138 0.841120
Si Si4 0.581049 0.771961 0.341742
Si Si5 0.755315 0.117731 0.353086
Si Si6 0.181475 0.787982 0.155054
Si Si7 0.318525 0.712017 0.344946
Si Si8 0.255314 0.617731 0.146914
O O1 0.426202 0.891236 0.283791
O O2 0.500000 0.000000 0.297640
O O3 0.442839 0.000000 0.500000
O O4 0.426202 0.108764 0.283790
O O5 0.955948 0.186858 0.788506
O O6 0.869672 0.231786 0.796757
O O7 0.922862 0.278232 0.000000
O O8 0.955948 0.813142 0.788506
O O9 0.000000 0.000000 0.786152
O O10 0.000000 0.881991 0.000000
O O11 0.630327 0.731786 0.296756
O O12 0.796530 0.121668 0.247216
O O13 0.711256 0.184634 0.312908
O O14 0.773283 0.152376 0.500001
O O15 0.736297 0.000000 0.356269
O O16 0.211256 0.684634 0.187093
O O17 0.183197 0.821759 0.000000
O O18 0.296530 0.621667 0.252785
#
# Coordination Sequence:
#
# PCOD8164559 Si02
#       8
#     8   8   8   8   8   8   8   8
#     4   9  14  22  38  60  91 121 147 181 225 274
#     4   9  16  25  39  62  88 118 151 184 224 269
#     4   9  16  25  35  53  88 123 145 174 222 273
#     4   9  16  25  39  62  88 118 151 184 224 269
#     4   9  18  32  47  64  90 123 155 189 230 272
#     4   9  18  30  46  69  93 117 152 192 229 269
#     4   9  18  30  46  69  93 117 152 192 229 269
#     4   9  18  32  47  64  90 123 155 189 230 272
#
# _framework density 17.185285
#
# number of rings (size 3 to 8) (size 9 to 14) (size 15 to 20)
#    0.000    3.000    1.250    0.000    1.750    1.500 
#    0.000    2.500    0.000    0.000    0.000    0.875 
#    0.000    4.000    0.000    0.000    0.000    0.000 
#
# Total GULP energy -396523.612513 kJ/mol
# GULP energy per Si atom -12391.362891 kJ/mol
# Density = 1.714617 g / cm^3
# Si number density = 17.185285 Si / 1000 Ang^3
#
#
#
# Elastic Constant Matrix: (Units=GPa)
#
#
# Indices 1 2 3 4 5 6 
#
# 1 135.8453 46.6779 29.9834 0.0000 0.0000 0.0000
# 2 46.6779 100.8627 13.1954 0.0000 0.0000 0.0000
# 3 29.9834 13.1954 29.5059 0.0000 0.0000 0.0000
# 4 0.0000 0.0000 0.0000 11.7079 0.0000 0.0000
# 5 0.0000 0.0000 0.0000 0.0000 12.6543 0.0000
# 6 0.0000 0.0000 0.0000 0.0000 0.0000 17.4534
#
#
#
# Elastic Compliance Matrix: (Units=1/GPa)
#
#
# Indices 1 2 3 4 5 6 
#
# 1 0.010670 -0.003738 -0.009171 0.000000 0.000000 0.000000
# 2 -0.003738 0.011840 -0.001496 0.000000 0.000000 0.000000
# 3 -0.009171 -0.001496 0.043880 0.000000 0.000000 0.000000
# 4 0.000000 0.000000 0.000000 0.085412 0.000000 0.000000
# 5 0.000000 0.000000 0.000000 0.000000 0.079024 0.000000
# 6 0.000000 0.000000 0.000000 0.000000 0.000000 0.057295
#
#
# Mechanical properties :
#
#
# Convention : Reuss Voigt Hill
#
# Bulk Modulus (GPa) = 26.61043 49.54749 38.07896
# Shear Modulus (GPa) = 15.17639 20.12029 17.64834
#
# Velocity S-wave (km/s) = 2.97493 3.42539 3.20807
# Velocity P-wave (km/s) = 5.22669 6.67370 5.99402
#
# Compressibility (1/GPa) = 0.03757926
#
# Stress axis : x y z
#
# Youngs Moduli (GPa) = 93.72110 84.45806 22.78941
#
# Poissons Ratio (x) = 0.31572 0.20900
# Poissons Ratio (y) = 0.35034 0.03410
# Poissons Ratio (z) = 0.85951 0.12639
#
# Static dielectric constant tensor:
#      x y z
#    x 3.289120 0.000000 0.000000 
#    y 0.000000 3.394720 0.000000 
#    z 0.000000 0.000000 2.796690 
# 
# 
# High freq. dielectric constant tensor:
#      x y z
#    x 1.665560 0.000000 0.000000 
#    y 0.000000 1.672060 0.000000 
#    z 0.000000 0.000000 1.597870 
# 
# From -- ./inp_files/18684.got.cif
#   From: 2010.03.12/outbox.cif.g09.slc.cpg/sg23_10_cif.got.tgz:18684.got - 2010.04.14 02:50:06.
