data_PCOD8164667
_publ_section_title
;
Structure prediction by ZEFSAII (Michael W. Deem and Ramdas Pophale) SiO2 
 PCOD8164667
Probable space group: I 21 21 21
;
_chemical_formula_sum "Si O2"
_cell_formula_units_Z 48
_cell_length_a 7.426916
_cell_length_b 11.386679
_cell_length_c 25.954462
_cell_angle_alpha 90.000000
_cell_angle_beta 90.000000
_cell_angle_gamma 90.000000
_cell_volume 2194.914566
_symmetry_space_group_name_H-M "I 21 21 21"
_symmetry_group_IT_number 24
_symmetry_cell_setting 'orthorhombic'
loop_
_space_group_symop_operation_xyz
x,y,z
-x,1/2-y,z
x,-y,1/2-z
1/2-x,y,-z
1/2+x,1/2+y,1/2+z
1/2-x,-y,1/2+z
1/2+x,1/2-y,-z
-x,1/2+y,1/2-z
loop_
_atom_site_type_symbol
_atom_site_label
_atom_site_fract_x
_atom_site_fract_y
_atom_site_fract_z
Si Si1 0.706992 0.750780 0.778016
Si Si2 0.726001 0.509223 0.834270
Si Si3 0.057545 0.601962 0.710285
Si Si4 0.302984 0.102425 0.443347
Si Si5 0.280001 0.633750 0.056044
Si Si6 0.668116 0.026902 0.653397
O O1 0.500000 0.750000 0.757375
O O2 0.774338 0.629043 0.803380
O O3 0.858615 0.775732 0.733294
O O4 0.723642 0.849198 0.821466
O O5 0.738186 0.521264 0.896092
O O6 0.518421 0.477619 0.823032
O O7 0.849615 0.405208 0.809916
O O8 0.104722 0.500000 0.750000
O O9 0.180307 0.571834 0.660807
O O10 0.250000 0.048477 0.500000
O O11 0.212073 0.231240 0.440726
O O12 0.511961 0.118611 0.431608
O O13 0.154748 0.555208 0.092922
O O14 0.250000 0.581055 0.000000
#
# Coordination Sequence:
#
# PCOD8164667 Si02
#       6
#     8   8   8   8   8   8
#     4   9  20  36  57  77 109 157 202 244 298 352
#     4  11  20  34  56  77 111 156 197 244 294 350
#     4  10  22  35  52  78 109 151 202 245 287 349
#     4  10  19  29  48  76 108 153 203 229 283 365
#     4  10  18  28  46  72 108 150 195 239 278 355
#     4  10  19  33  50  73 109 149 195 242 288 341
#
# _framework density 21.868732999999999
#
# number of rings (size 3 to 8) (size 9 to 14) (size 15 to 20)
#    0.000    2.000    3.333    1.000    0.000    7.333 
#    0.000    1.667    0.000    0.000    0.000    0.000 
#    0.000    0.000   11.333    5.167    8.667    0.500 
#
# Total GULP energy -297391.801571 kJ/mol
# GULP energy per Si atom -12391.325065 kJ/mol
# Density = 2.181896 g / cm^3
# Si number density = 21.868733 Si / 1000 Ang^3
#
#
#
# Elastic Constant Matrix: (Units=GPa)
#
#
# Indices 1 2 3 4 5 6 
#
# 1 121.1713 31.4315 29.7063 0.0000 0.0000 0.0000
# 2 31.4315 51.5920 36.8622 0.0000 0.0000 0.0000
# 3 29.7063 36.8622 119.3566 0.0000 0.0000 0.0000
# 4 0.0000 0.0000 0.0000 23.7397 0.0000 0.0000
# 5 0.0000 0.0000 0.0000 0.0000 33.9493 0.0000
# 6 0.0000 0.0000 0.0000 0.0000 0.0000 16.1626
#
#
#
# Elastic Compliance Matrix: (Units=1/GPa)
#
#
# Indices 1 2 3 4 5 6 
#
# 1 0.009856 -0.005456 -0.000768 0.000000 0.000000 0.000000
# 2 -0.005456 0.027891 -0.007256 0.000000 0.000000 0.000000
# 3 -0.000768 -0.007256 0.010810 0.000000 0.000000 0.000000
# 4 0.000000 0.000000 0.000000 0.042124 0.000000 0.000000
# 5 0.000000 0.000000 0.000000 0.000000 0.029456 0.000000
# 6 0.000000 0.000000 0.000000 0.000000 0.000000 0.061871
#
#
# Mechanical properties :
#
#
# Convention : Reuss Voigt Hill
#
# Bulk Modulus (GPa) = 46.30120 54.23556 50.26838
# Shear Modulus (GPa) = 23.13015 27.71163 25.42089
#
# Velocity S-wave (km/s) = 3.25573 3.56361 3.41314
# Velocity P-wave (km/s) = 5.94570 6.46427 6.21040
#
# Compressibility (1/GPa) = 0.02159771
#
# Stress axis : x y z
#
# Youngs Moduli (GPa) = 101.45733 35.85354 92.50367
#
# Poissons Ratio (x) = 0.19562 0.07105
# Poissons Ratio (y) = 0.55356 0.67121
# Poissons Ratio (z) = 0.07793 0.26015
#
# Static dielectric constant tensor:
#      x y z
#    x 4.290430 0.000000 0.000000 
#    y 0.000000 3.588390 0.000000 
#    z 0.000000 0.000000 4.049810 
# 
# 
# High freq. dielectric constant tensor:
#      x y z
#    x 1.887350 0.000000 0.000000 
#    y 0.000000 1.801110 0.000000 
#    z 0.000000 0.000000 1.856000 
# 
# From -- ./inp_files/35194.got.cif
#   From: 2010.03.12/outbox.cif.g09.slc.cpg/sg24_18_cif.got.tgz:35194.got - 2010.04.14 03:06:53.
