data_PCOD8164019
_publ_section_title
;
Structure prediction by ZEFSAII (Michael W. Deem and Ramdas Pophale) SiO2 
 PCOD8164019
Probable space group: I 2 2 2
;
_chemical_formula_sum "Si O2"
_cell_formula_units_Z 58
_cell_length_a 28.273837
_cell_length_b 11.123588
_cell_length_c 9.059921
_cell_angle_alpha 90.000000
_cell_angle_beta 90.000000
_cell_angle_gamma 90.000000
_cell_volume 2849.404171
_symmetry_space_group_name_H-M "I 2 2 2"
_symmetry_group_IT_number 23
_symmetry_cell_setting 'orthorhombic'
loop_
_space_group_symop_operation_xyz
x,y,z
-x,-y,z
x,-y,-z
-x,y,-z
1/2+x,1/2+y,1/2+z
1/2-x,1/2-y,1/2+z
1/2+x,1/2-y,1/2-z
1/2-x,1/2+y,1/2-z
loop_
_atom_site_type_symbol
_atom_site_label
_atom_site_fract_x
_atom_site_fract_y
_atom_site_fract_z
Si Si1 0.432396 0.685607 0.374277
Si Si2 0.197859 0.770344 0.600432
Si Si3 0.646654 0.970533 0.830454
Si Si4 0.206859 0.698505 0.263567
Si Si5 0.645567 0.391324 0.598147
Si Si6 0.450506 0.948238 0.342040
Si Si7 0.383447 0.444310 0.856398
Si Si8 0.000000 0.000000 0.000000
O O1 0.391759 0.682716 0.499564
O O2 0.460335 0.808892 0.372156
O O3 0.411676 0.668103 0.210130
O O4 0.468914 0.579193 0.392855
O O5 0.172845 0.658125 0.685151
O O6 0.211720 0.735555 0.434108
O O7 0.241300 0.816917 0.697983
O O8 0.166292 0.889579 0.591310
O O9 0.594123 0.969789 0.763091
O O10 0.677843 0.073716 0.750474
O O11 0.639495 0.000000 0.000000
O O12 0.184190 0.800947 0.160445
O O13 0.668750 0.500000 0.500000
O O14 0.618868 0.450840 0.735267
O O15 0.500000 0.000000 0.276517
O O16 0.437489 0.000000 0.500000
O O17 0.409004 0.500000 0.000000
#
# Coordination Sequence:
#
# PCOD8164019 Si02
#       8
#     8   8   8   8   8   8   8   2
#     4  11  23  41  68  94 133 173 213 278 328 401
#     4  11  25  40  63  96 135 173 221 272 324 396
#     4  10  24  45  65  92 133 173 218 271 328 392
#     4  11  25  40  65  97 132 178 219 274 329 397
#     4  10  22  40  65  93 125 176 215 266 329 386
#     4  11  23  42  68 100 128 168 223 273 326 396
#     4  11  21  42  66  93 127 173 219 270 331 390
#     4  12  20  40  64 100 128 164 226 262 344 384
#
# _framework density 20.355132000000001
#
# number of rings (size 3 to 8) (size 9 to 14) (size 15 to 20)
#    0.000    1.241    4.828    1.655    5.793    1.931 
#    0.000    0.345    3.034    0.000    0.000    0.000 
#    0.000    0.000    0.000    0.000    0.000    0.000 
#
# Total GULP energy -359517.239172 kJ/mol
# GULP energy per Si atom -12397.146178 kJ/mol
# Density = 2.030880 g / cm^3
# Si number density = 20.355132 Si / 1000 Ang^3
#
#
#
# Elastic Constant Matrix: (Units=GPa)
#
#
# Indices 1 2 3 4 5 6 
#
# 1 112.8808 46.1150 42.7611 0.0000 0.0000 0.0000
# 2 46.1150 126.8949 41.5887 0.0000 0.0000 0.0000
# 3 42.7611 41.5887 110.1195 0.0000 0.0000 0.0000
# 4 0.0000 0.0000 0.0000 27.3259 0.0000 0.0000
# 5 0.0000 0.0000 0.0000 0.0000 -151.4576 0.0000
# 6 0.0000 0.0000 0.0000 0.0000 0.0000 40.7596
#
#
#
# Elastic Compliance Matrix: (Units=1/GPa)
#
#
# Indices 1 2 3 4 5 6 
#
# 1 0.011338 -0.003056 -0.003249 0.000000 0.000000 0.000000
# 2 -0.003056 0.009817 -0.002521 0.000000 0.000000 0.000000
# 3 -0.003249 -0.002521 0.011295 0.000000 0.000000 0.000000
# 4 0.000000 0.000000 0.000000 0.036595 0.000000 0.000000
# 5 0.000000 0.000000 0.000000 0.000000 -0.006603 0.000000
# 6 0.000000 0.000000 0.000000 0.000000 0.000000 0.024534
#
#
# Mechanical properties :
#
#
# Convention : Reuss Voigt Hill
#
# Bulk Modulus (GPa) = 67.57197 67.86942 67.72069
# Shear Modulus (GPa) = 45.63693 -2.04572 21.79560
#
# Velocity S-wave (km/s) = 4.74015 -1.00359 3.27581
# Velocity P-wave (km/s) = 7.95156 5.66322 6.90288
#
# Compressibility (1/GPa) = 0.01479904
#
# Stress axis : x y z
#
# Youngs Moduli (GPa) = 88.20028 101.86152 88.53707
#
# Poissons Ratio (x) = 0.31125 0.28763
# Poissons Ratio (y) = 0.26950 0.22321
# Poissons Ratio (z) = 0.28653 0.25681
#
# Static dielectric constant tensor:
#      x y z
#    x 3.735880 0.000000 0.000000 
#    y 0.000000 4.050730 0.000000 
#    z 0.000000 0.000000 3.759820 
# 
# 
# High freq. dielectric constant tensor:
#      x y z
#    x 1.786380 0.000000 0.000000 
#    y 0.000000 1.811800 0.000000 
#    z 0.000000 0.000000 1.799390 
# 
# From -- ./inp_files/13061.got.cif
#   From: 2010.03.12/outbox.cif.g09.slc.cpg/sg23_7_cif.got.tgz:13061.got - 2010.04.14 02:50:06.
