data_PCOD8164728
_publ_section_title
;
Structure prediction by ZEFSAII (Michael W. Deem and Ramdas Pophale) SiO2 
 PCOD8164728
Probable space group: I 21 21 21
;
_chemical_formula_sum "Si O2"
_cell_formula_units_Z 56
_cell_length_a 7.762763
_cell_length_b 18.225560
_cell_length_c 20.762289
_cell_angle_alpha 90.000000
_cell_angle_beta 90.000000
_cell_angle_gamma 90.000000
_cell_volume 2937.463240
_symmetry_space_group_name_H-M "I 21 21 21"
_symmetry_group_IT_number 24
_symmetry_cell_setting 'orthorhombic'
loop_
_space_group_symop_operation_xyz
x,y,z
-x,1/2-y,z
x,-y,1/2-z
1/2-x,y,-z
1/2+x,1/2+y,1/2+z
1/2-x,-y,1/2+z
1/2+x,1/2-y,-z
-x,1/2+y,1/2-z
loop_
_atom_site_type_symbol
_atom_site_label
_atom_site_fract_x
_atom_site_fract_y
_atom_site_fract_z
Si Si1 0.532720 0.937065 0.304455
Si Si2 0.568184 0.966741 0.926873
Si Si3 0.090642 0.403773 0.170136
Si Si4 0.140315 0.000000 0.250000
Si Si5 0.952500 0.032701 0.573420
Si Si6 0.163310 0.197090 0.747289
Si Si7 0.000000 0.750000 0.314320
Si Si8 0.753147 0.403766 0.360286
O O1 0.717820 0.898165 0.302011
O O2 0.386243 0.876006 0.289058
O O3 0.531290 0.000000 0.250000
O O4 0.514104 0.965078 0.378183
O O5 0.561788 0.042520 0.888906
O O6 0.760228 0.933423 0.918879
O O7 0.434364 0.907425 0.898414
O O8 0.521469 0.990319 0.999416
O O9 0.028468 0.324011 0.144667
O O10 0.976018 0.429943 0.231155
O O11 0.257257 0.973994 0.189492
O O12 0.094707 0.093554 0.589968
O O13 0.324966 0.241202 0.774121
O O14 0.227774 0.172143 0.676752
O O15 0.000000 0.250000 0.741471
#
# Coordination Sequence:
#
# PCOD8164728 Si02
#       8
#     8   8   8   4   8   8   4   8
#     4  11  20  36  64  92 118 152 199 259 307 350
#     4   9  22  37  58  92 117 155 198 252 301 351
#     4  10  20  35  60  85 125 159 198 241 304 355
#     4  10  18  32  58  92 114 148 198 256 304 344
#     4  10  20  37  61  91 120 146 199 260 301 347
#     4  12  25  37  56  91 125 163 198 238 312 365
#     4  12  24  38  54  82 136 170 192 240 300 376
#     4  11  20  34  59  87 117 151 199 246 303 352
#
# _framework density 19.064067999999999
#
# number of rings (size 3 to 8) (size 9 to 14) (size 15 to 20)
#    0.000    1.429    5.000    1.286    2.000    1.143 
#    0.000    0.000    1.571    0.000   14.857    0.000 
#    0.000    0.000    0.000    0.000    0.000    0.000 
#
# Total GULP energy -346990.229736 kJ/mol
# GULP energy per Si atom -12392.508205 kJ/mol
# Density = 1.902068 g / cm^3
# Si number density = 19.064068 Si / 1000 Ang^3
#
#
#
# Elastic Constant Matrix: (Units=GPa)
#
#
# Indices 1 2 3 4 5 6 
#
# 1 138.7648 18.4735 45.4740 0.0000 0.0000 0.0000
# 2 18.4735 44.5023 11.5680 0.0000 0.0000 0.0000
# 3 45.4740 11.5680 99.7098 0.0000 0.0000 0.0000
# 4 0.0000 0.0000 0.0000 15.6532 0.0000 0.0000
# 5 0.0000 0.0000 0.0000 0.0000 27.7397 0.0000
# 6 0.0000 0.0000 0.0000 0.0000 0.0000 22.8090
#
#
#
# Elastic Compliance Matrix: (Units=1/GPa)
#
#
# Indices 1 2 3 4 5 6 
#
# 1 0.008773 -0.002683 -0.003690 0.000000 0.000000 0.000000
# 2 -0.002683 0.023990 -0.001560 0.000000 0.000000 0.000000
# 3 -0.003690 -0.001560 0.011893 0.000000 0.000000 0.000000
# 4 0.000000 0.000000 0.000000 0.063885 0.000000 0.000000
# 5 0.000000 0.000000 0.000000 0.000000 0.036049 0.000000
# 6 0.000000 0.000000 0.000000 0.000000 0.000000 0.043842
#
#
# Mechanical properties :
#
#
# Convention : Reuss Voigt Hill
#
# Bulk Modulus (GPa) = 34.73285 48.22308 41.47797
# Shear Modulus (GPa) = 23.37619 27.07115 25.22367
#
# Velocity S-wave (km/s) = 3.50550 3.77239 3.64139
# Velocity P-wave (km/s) = 5.88585 6.65768 6.28363
#
# Compressibility (1/GPa) = 0.02879118
#
# Stress axis : x y z
#
# Youngs Moduli (GPa) = 113.99017 41.68447 84.08454
#
# Poissons Ratio (x) = 0.11182 0.31024
# Poissons Ratio (y) = 0.30578 0.13115
# Poissons Ratio (z) = 0.42059 0.06502
#
# Static dielectric constant tensor:
#      x y z
#    x 4.070290 0.000000 0.000000 
#    y 0.000000 3.276470 0.000000 
#    z 0.000000 0.000000 3.424660 
# 
# 
# High freq. dielectric constant tensor:
#      x y z
#    x 1.780520 0.000000 0.000000 
#    y 0.000000 1.708980 0.000000 
#    z 0.000000 0.000000 1.721800 
# 
# From -- ./inp_files/32929.got.cif
#   From: 2010.03.12/outbox.cif.g09.slc.cpg/sg24_17_cif.got.tgz:32929.got - 2010.04.14 03:06:53.
