data_PCOD8164569
_publ_section_title
;
Structure prediction by ZEFSAII (Michael W. Deem and Ramdas Pophale) SiO2 
 PCOD8164569
Probable space group: I 21 21 21
;
_chemical_formula_sum "Si O2"
_cell_formula_units_Z 64
_cell_length_a 21.388525
_cell_length_b 9.903094
_cell_length_c 17.489528
_cell_angle_alpha 90.000000
_cell_angle_beta 90.000000
_cell_angle_gamma 90.000000
_cell_volume 3704.501937
_symmetry_space_group_name_H-M "I 21 21 21"
_symmetry_group_IT_number 24
_symmetry_cell_setting 'orthorhombic'
loop_
_space_group_symop_operation_xyz
x,y,z
-x,1/2-y,z
x,-y,1/2-z
1/2-x,y,-z
1/2+x,1/2+y,1/2+z
1/2-x,-y,1/2+z
1/2+x,1/2-y,-z
-x,1/2+y,1/2-z
loop_
_atom_site_type_symbol
_atom_site_label
_atom_site_fract_x
_atom_site_fract_y
_atom_site_fract_z
Si Si1 0.099719 0.512360 0.500576
Si Si2 0.095288 0.685220 0.648752
Si Si3 0.648270 0.717359 0.000564
Si Si4 0.969596 0.450594 0.829557
Si Si5 0.219330 0.576956 0.422848
Si Si6 0.723757 0.152531 0.224988
Si Si7 0.248227 0.725081 0.112847
Si Si8 0.976261 0.397531 0.522428
O O1 0.114602 0.612671 0.570326
O O2 0.117089 0.359983 0.523250
O O3 0.143604 0.562036 0.430492
O O4 0.024181 0.507331 0.482658
O O5 0.075559 0.839533 0.631445
O O6 0.152026 0.685293 0.708148
O O7 0.037765 0.609996 0.689132
O O8 0.697434 0.691082 0.069335
O O9 0.596150 0.598159 0.994666
O O10 0.681760 0.719809 0.917792
O O11 0.939841 0.500000 0.750000
O O12 0.976516 0.575921 0.886855
O O13 0.250000 0.638567 0.500000
O O14 0.233726 0.675432 0.351023
O O15 0.253324 0.432755 0.410196
O O16 0.746867 0.246361 0.295590
O O17 0.732436 0.000000 0.250000
O O18 0.000000 0.250000 0.502810
#
# Coordination Sequence:
#
# PCOD8164569 Si02
#       8
#     8   8   8   8   8   8   8   8
#     4   9  15  29  45  68  92 120 157 193 237 280
#     4  10  19  31  44  61  95 128 158 189 229 278
#     4   9  15  28  46  65  95 126 152 196 239 279
#     4  10  22  31  39  63  94 130 160 195 222 272
#     4  10  14  26  43  66 101 122 146 197 239 281
#     4  10  18  25  45  74  95 124 155 194 245 287
#     4   9  16  25  42  67  97 125 153 192 235 281
#     4   9  19  29  47  65  90 125 166 190 233 287
#
# _framework density 17.276277
#
# number of rings (size 3 to 8) (size 9 to 14) (size 15 to 20)
#    0.000    2.500    3.750    1.125    3.500    1.000 
#    0.000    0.000    0.000    3.000    0.000    0.000 
#   86.250    0.000    0.000    0.000    0.000    0.000 
#
# Total GULP energy -396468.943020 kJ/mol
# GULP energy per Si atom -12389.654469 kJ/mol
# Density = 1.723696 g / cm^3
# Si number density = 17.276277 Si / 1000 Ang^3
#
#
#
# Elastic Constant Matrix: (Units=GPa)
#
#
# Indices 1 2 3 4 5 6 
#
# 1 122.0077 23.0502 66.5814 0.0000 0.0000 0.0000
# 2 23.0502 19.5286 15.3381 0.0000 0.0000 0.0000
# 3 66.5814 15.3381 109.8028 0.0000 0.0000 0.0000
# 4 0.0000 0.0000 0.0000 8.9028 0.0000 0.0000
# 5 0.0000 0.0000 0.0000 0.0000 25.1436 0.0000
# 6 0.0000 0.0000 0.0000 0.0000 0.0000 18.3657
#
#
#
# Elastic Compliance Matrix: (Units=1/GPa)
#
#
# Indices 1 2 3 4 5 6 
#
# 1 0.014132 -0.011176 -0.007008 0.000000 0.000000 0.000000
# 2 -0.011176 0.066356 -0.002492 0.000000 0.000000 0.000000
# 3 -0.007008 -0.002492 0.013705 0.000000 0.000000 0.000000
# 4 0.000000 0.000000 0.000000 0.112324 0.000000 0.000000
# 5 0.000000 0.000000 0.000000 0.000000 0.039772 0.000000
# 6 0.000000 0.000000 0.000000 0.000000 0.000000 0.054449
#
#
# Mechanical properties :
#
#
# Convention : Reuss Voigt Hill
#
# Bulk Modulus (GPa) = 18.92513 51.25317 35.08915
# Shear Modulus (GPa) = 13.90032 20.24038 17.07035
#
# Velocity S-wave (km/s) = 2.83961 3.42654 3.14678
# Velocity P-wave (km/s) = 4.66147 6.73692 5.79290
#
# Compressibility (1/GPa) = 0.05283980
#
# Stress axis : x y z
#
# Youngs Moduli (GPa) = 70.76086 15.07029 72.96660
#
# Poissons Ratio (x) = 0.16843 0.51136
# Poissons Ratio (y) = 0.79084 0.18184
# Poissons Ratio (z) = 0.49590 0.03756
#
# Static dielectric constant tensor:
#      x y z
#    x 3.580760 0.000000 0.000000 
#    y 0.000000 2.866030 0.000000 
#    z 0.000000 0.000000 3.251520 
# 
# 
# High freq. dielectric constant tensor:
#      x y z
#    x 1.675050 0.000000 0.000000 
#    y 0.000000 1.618530 0.000000 
#    z 0.000000 0.000000 1.639590 
# 
# From -- ./inp_files/31438.got.cif
#   From: 2010.03.12/outbox.cif.g09.slc.cpg/sg24_16_cif.got.tgz:31438.got - 2010.04.14 03:06:53.
