data_PCOD8164810
_publ_section_title
;
Structure prediction by ZEFSAII (Michael W. Deem and Ramdas Pophale) SiO2 
 PCOD8164810
Probable space group: I 21 21 21
;
_chemical_formula_sum "Si O2"
_cell_formula_units_Z 52
_cell_length_a 10.154277
_cell_length_b 9.746567
_cell_length_c 25.712574
_cell_angle_alpha 90.000000
_cell_angle_beta 90.000000
_cell_angle_gamma 90.000000
_cell_volume 2544.756507
_symmetry_space_group_name_H-M "I 21 21 21"
_symmetry_group_IT_number 24
_symmetry_cell_setting 'orthorhombic'
loop_
_space_group_symop_operation_xyz
x,y,z
-x,1/2-y,z
x,-y,1/2-z
1/2-x,y,-z
1/2+x,1/2+y,1/2+z
1/2-x,-y,1/2+z
1/2+x,1/2-y,-z
-x,1/2+y,1/2-z
loop_
_atom_site_type_symbol
_atom_site_label
_atom_site_fract_x
_atom_site_fract_y
_atom_site_fract_z
Si Si1 0.029700 0.500000 0.250000
Si Si2 0.892035 0.865664 0.522717
Si Si3 0.173361 0.009387 0.164638
Si Si4 0.986926 0.911708 0.419005
Si Si5 0.249890 0.702084 0.286246
Si Si6 0.217206 0.485310 0.874741
Si Si7 0.850379 0.256990 0.675396
O O1 0.115331 0.629379 0.268044
O O2 0.937054 0.552774 0.202995
O O3 0.750000 0.808443 0.500000
O O4 0.955274 0.964494 0.477743
O O5 0.869356 0.955920 0.574162
O O6 0.000000 0.750000 0.537103
O O7 0.217928 0.156368 0.185418
O O8 0.118067 0.023342 0.105745
O O9 0.295641 0.906922 0.161850
O O10 0.868209 0.942516 0.380423
O O11 0.000000 0.750000 0.425012
O O12 0.333274 0.605163 0.325650
O O13 0.340337 0.726394 0.236451
O O14 0.221867 0.644682 0.860126
O O15 0.000000 0.250000 0.658231
#
# Coordination Sequence:
#
# PCOD8164810 Si02
#       7
#     4   8   8   8   8   8   8
#     4  12  20  36  66 102 132 158 222 288 340 380
#     4   9  21  39  67 102 131 164 223 301 354 403
#     4  12  23  37  68  99 135 177 220 277 332 404
#     4  10  18  39  70 103 127 149 225 298 348 390
#     4  12  22  39  67  99 132 176 220 275 333 410
#     4  11  22  40  66  91 132 177 213 279 337 394
#     4  12  28  44  56  91 146 188 223 260 327 425
#
# _framework density 20.434176000000001
#
# number of rings (size 3 to 8) (size 9 to 14) (size 15 to 20)
#    0.000    0.923    6.154    0.462    0.000    6.154 
#    0.000    0.000   10.154    0.000    0.000    0.000 
#    0.000    0.000    0.000    0.000    0.000    0.000 
#
# Total GULP energy -322329.039000 kJ/mol
# GULP energy per Si atom -12397.270731 kJ/mol
# Density = 2.038767 g / cm^3
# Si number density = 20.434176 Si / 1000 Ang^3
#
#
#
# Elastic Constant Matrix: (Units=GPa)
#
#
# Indices 1 2 3 4 5 6 
#
# 1 83.1406 43.9815 32.3512 0.0000 0.0000 0.0000
# 2 43.9815 122.8220 39.6171 0.0000 0.0000 0.0000
# 3 32.3512 39.6171 116.5266 0.0000 0.0000 0.0000
# 4 0.0000 0.0000 0.0000 13.6370 0.0000 0.0000
# 5 0.0000 0.0000 0.0000 0.0000 48.7292 0.0000
# 6 0.0000 0.0000 0.0000 0.0000 0.0000 32.8818
#
#
#
# Elastic Compliance Matrix: (Units=1/GPa)
#
#
# Indices 1 2 3 4 5 6 
#
# 1 0.015574 -0.004697 -0.002727 0.000000 0.000000 0.000000
# 2 -0.004697 0.010561 -0.002287 0.000000 0.000000 0.000000
# 3 -0.002727 -0.002287 0.010116 0.000000 0.000000 0.000000
# 4 0.000000 0.000000 0.000000 0.073330 0.000000 0.000000
# 5 0.000000 0.000000 0.000000 0.000000 0.020522 0.000000
# 6 0.000000 0.000000 0.000000 0.000000 0.000000 0.030412
#
#
# Mechanical properties :
#
#
# Convention : Reuss Voigt Hill
#
# Bulk Modulus (GPa) = 59.41738 61.59876 60.50807
# Shear Modulus (GPa) = 26.94745 32.81889 29.88317
#
# Velocity S-wave (km/s) = 3.63539 4.01194 3.82830
# Velocity P-wave (km/s) = 6.83827 7.18827 7.01546
#
# Compressibility (1/GPa) = 0.01683009
#
# Stress axis : x y z
#
# Youngs Moduli (GPa) = 64.21078 94.68366 98.85170
#
# Poissons Ratio (x) = 0.44476 0.26954
# Poissons Ratio (y) = 0.30162 0.22604
# Poissons Ratio (z) = 0.17509 0.21651
#
# Static dielectric constant tensor:
#      x y z
#    x 3.665450 0.000000 0.000000 
#    y 0.000000 0.658050 0.000000 
#    z 0.000000 0.000000 4.113600 
# 
# 
# High freq. dielectric constant tensor:
#      x y z
#    x 1.790550 0.000000 0.000000 
#    y 0.000000 1.776680 0.000000 
#    z 0.000000 0.000000 1.811740 
# 
# From -- ./inp_files/37175.got.cif
#   From: 2010.03.12/outbox.cif.g09.slc.cpg/sg24_19_cif.got.tgz:37175.got - 2010.04.14 03:06:53.
