data_PCOD8164304
_publ_section_title
;
Structure prediction by ZEFSAII (Michael W. Deem and Ramdas Pophale) SiO2 
 PCOD8164304
Probable space group: I 2 2 2
;
_chemical_formula_sum "Si O2"
_cell_formula_units_Z 46
_cell_length_a 16.229218
_cell_length_b 6.181699
_cell_length_c 21.555328
_cell_angle_alpha 90.000000
_cell_angle_beta 90.000000
_cell_angle_gamma 90.000000
_cell_volume 2162.519759
_symmetry_space_group_name_H-M "I 2 2 2"
_symmetry_group_IT_number 23
_symmetry_cell_setting 'orthorhombic'
loop_
_space_group_symop_operation_xyz
x,y,z
-x,-y,z
x,-y,-z
-x,y,-z
1/2+x,1/2+y,1/2+z
1/2-x,1/2-y,1/2+z
1/2+x,1/2-y,1/2-z
1/2-x,1/2+y,1/2-z
loop_
_atom_site_type_symbol
_atom_site_label
_atom_site_fract_x
_atom_site_fract_y
_atom_site_fract_z
Si Si1 0.500000 0.500000 0.000000
Si Si2 0.731001 0.000000 0.000000
Si Si3 0.865151 0.807795 0.413304
Si Si4 0.771332 0.683284 0.096729
Si Si5 0.854297 0.696969 0.278181
Si Si6 0.315826 0.461446 0.309851
Si Si7 0.592256 0.939291 0.335660
O O1 0.444126 0.644412 0.044841
O O2 0.678671 0.104174 0.055270
O O3 0.782536 0.802054 0.030086
O O4 0.895068 0.720568 0.346046
O O5 0.807006 0.020433 0.405295
O O6 0.854487 0.560592 0.112728
O O7 0.763441 0.872009 0.147897
O O8 0.754692 0.690705 0.281372
O O9 0.890661 0.501700 0.236715
O O10 0.870967 0.918831 0.241403
O O11 0.383538 0.312435 0.344781
O O12 0.500000 0.000000 0.353294
#
# Coordination Sequence:
#
# PCOD8164304 Si02
#       7
#     2   4   8   8   8   8   8
#     4  12  28  46  64 104 152 172 244 288 344 412
#     4  12  22  43  72  95 130 192 242 278 351 425
#     4  12  25  45  66  99 138 193 232 292 342 424
#     4  11  22  42  72  95 133 182 243 282 354 423
#     4  11  21  38  67  98 133 183 234 275 350 427
#     4  11  20  39  71  98 129 181 233 288 347 428
#     4  11  25  42  66 108 142 176 228 302 362 419
#
# _framework density 21.271483
#
# number of rings (size 3 to 8) (size 9 to 14) (size 15 to 20)
#    0.000    0.696    6.957    1.043    0.000    4.522 
#    3.130    0.000    0.000   14.609    0.000    0.000 
#    0.000    0.000    0.000    0.000    0.000    0.000 
#
# Total GULP energy -285020.197706 kJ/mol
# GULP energy per Si atom -12392.182509 kJ/mol
# Density = 2.122307 g / cm^3
# Si number density = 21.271483 Si / 1000 Ang^3
#
#
#
# Elastic Constant Matrix: (Units=GPa)
#
#
# Indices 1 2 3 4 5 6 
#
# 1 105.7963 35.1284 27.7357 0.0000 0.0000 0.0000
# 2 35.1284 112.7156 35.4039 0.0000 0.0000 0.0000
# 3 27.7357 35.4039 126.5109 0.0000 0.0000 0.0000
# 4 0.0000 0.0000 0.0000 41.5765 0.0000 0.0000
# 5 0.0000 0.0000 0.0000 0.0000 29.5488 0.0000
# 6 0.0000 0.0000 0.0000 0.0000 0.0000 16.2372
#
#
#
# Elastic Compliance Matrix: (Units=1/GPa)
#
#
# Indices 1 2 3 4 5 6 
#
# 1 0.010819 -0.002880 -0.001566 0.000000 0.000000 0.000000
# 2 -0.002880 0.010493 -0.002305 0.000000 0.000000 0.000000
# 3 -0.001566 -0.002305 0.008893 0.000000 0.000000 0.000000
# 4 0.000000 0.000000 0.000000 0.024052 0.000000 0.000000
# 5 0.000000 0.000000 0.000000 0.000000 0.033842 0.000000
# 6 0.000000 0.000000 0.000000 0.000000 0.000000 0.061587
#
#
# Mechanical properties :
#
#
# Convention : Reuss Voigt Hill
#
# Bulk Modulus (GPa) = 59.86900 60.17321 60.02111
# Shear Modulus (GPa) = 29.62848 33.92280 31.77564
#
# Velocity S-wave (km/s) = 3.73617 3.99777 3.86918
# Velocity P-wave (km/s) = 6.84239 7.04693 6.94541
#
# Compressibility (1/GPa) = 0.01670313
#
# Stress axis : x y z
#
# Youngs Moduli (GPa) = 92.43086 95.29720 112.44954
#
# Poissons Ratio (x) = 0.27445 0.17609
# Poissons Ratio (y) = 0.26619 0.25922
# Poissons Ratio (z) = 0.14474 0.21968
#
# Static dielectric constant tensor:
#      x y z
#    x 3.513310 0.000000 0.000000 
#    y 0.000000 4.215610 0.000000 
#    z 0.000000 0.000000 4.074190 
# 
# 
# High freq. dielectric constant tensor:
#      x y z
#    x 1.793640 0.000000 0.000000 
#    y 0.000000 1.854470 0.000000 
#    z 0.000000 0.000000 1.839890 
# 
# From -- ./inp_files/28634.got.cif
#   From: 2010.03.12/outbox.cif.g09.slc.cpg/sg23_15_cif.got.tgz:28634.got - 2010.04.14 02:50:06.
