data_PCOD8164932
_publ_section_title
;
Structure prediction by ZEFSAII (Michael W. Deem and Ramdas Pophale) SiO2 
 PCOD8164932
Probable space group: I 21 21 21
;
_chemical_formula_sum "Si O2"
_cell_formula_units_Z 32
_cell_length_a 4.885159
_cell_length_b 18.636532
_cell_length_c 17.158934
_cell_angle_alpha 90.000000
_cell_angle_beta 90.000000
_cell_angle_gamma 90.000000
_cell_volume 1562.190911
_symmetry_space_group_name_H-M "I 21 21 21"
_symmetry_group_IT_number 24
_symmetry_cell_setting 'orthorhombic'
loop_
_space_group_symop_operation_xyz
x,y,z
-x,1/2-y,z
x,-y,1/2-z
1/2-x,y,-z
1/2+x,1/2+y,1/2+z
1/2-x,-y,1/2+z
1/2+x,1/2-y,-z
-x,1/2+y,1/2-z
loop_
_atom_site_type_symbol
_atom_site_label
_atom_site_fract_x
_atom_site_fract_y
_atom_site_fract_z
Si Si1 0.532478 0.829550 0.154965
Si Si2 0.144193 0.469459 0.167877
Si Si3 0.032023 0.829697 0.260087
Si Si4 0.640295 0.529127 0.085094
O O1 0.500000 0.750000 0.118208
O O2 0.157582 0.660271 0.183619
O O3 0.464752 0.888638 0.089499
O O4 0.342881 0.840193 0.231473
O O5 0.256167 0.500000 0.250000
O O6 0.047813 0.386805 0.173399
O O7 0.387372 0.476264 0.104984
O O8 0.884676 0.518078 0.145890
O O9 0.000000 0.750000 0.296124
O O10 0.750000 0.510335 0.000000
#
# Coordination Sequence:
#
# PCOD8164932 Si02
#       4
#     8   8   8   8
#     4  10  19  35  55  84 119 155 193 237 293 363
#     4  12  21  38  64  86 117 161 208 251 297 354
#     4  10  20  34  59  89 113 145 200 255 299 342
#     4  12  24  38  57  90 126 162 198 248 304 361
#
# _framework density 20.484051999999998
#
# number of rings (size 3 to 8) (size 9 to 14) (size 15 to 20)
#    0.000    1.000    5.000    3.000    0.000    0.000 
#    0.000    6.250    0.000    3.000    0.000    0.000 
#    0.000    0.000    0.000    0.000    0.000    0.000 
#
# Total GULP energy -198453.711803 kJ/mol
# GULP energy per Si atom -12403.356988 kJ/mol
# Density = 2.043743 g / cm^3
# Si number density = 20.484052 Si / 1000 Ang^3
#
#
#
# Elastic Constant Matrix: (Units=GPa)
#
#
# Indices 1 2 3 4 5 6 
#
# 1 94.4197 28.0939 19.2377 0.0000 0.0000 0.0000
# 2 28.0939 133.6788 48.4183 0.0000 0.0000 0.0000
# 3 19.2377 48.4183 59.4142 0.0000 0.0000 0.0000
# 4 0.0000 0.0000 0.0000 23.3813 0.0000 0.0000
# 5 0.0000 0.0000 0.0000 0.0000 33.8182 0.0000
# 6 0.0000 0.0000 0.0000 0.0000 0.0000 32.5957
#
#
#
# Elastic Compliance Matrix: (Units=1/GPa)
#
#
# Indices 1 2 3 4 5 6 
#
# 1 0.011553 -0.001523 -0.002500 0.000000 0.000000 0.000000
# 2 -0.001523 0.010814 -0.008320 0.000000 0.000000 0.000000
# 3 -0.002500 -0.008320 0.024420 0.000000 0.000000 0.000000
# 4 0.000000 0.000000 0.000000 0.042769 0.000000 0.000000
# 5 0.000000 0.000000 0.000000 0.000000 0.029570 0.000000
# 6 0.000000 0.000000 0.000000 0.000000 0.000000 0.030679
#
#
# Mechanical properties :
#
#
# Convention : Reuss Voigt Hill
#
# Bulk Modulus (GPa) = 45.24221 53.22359 49.23290
# Shear Modulus (GPa) = 27.49396 30.74322 29.11859
#
# Velocity S-wave (km/s) = 3.66760 3.87827 3.77440
# Velocity P-wave (km/s) = 6.33005 6.78925 6.56367
#
# Compressibility (1/GPa) = 0.02210325
#
# Stress axis : x y z
#
# Youngs Moduli (GPa) = 86.55444 92.47313 40.94934
#
# Poissons Ratio (x) = 0.14079 0.10238
# Poissons Ratio (y) = 0.13178 0.34068
# Poissons Ratio (z) = 0.21640 0.76934
#
# Static dielectric constant tensor:
#      x y z
#    x 3.945350 0.000000 0.000000 
#    y 0.000000 4.054380 0.000000 
#    z 0.000000 0.000000 3.105390 
# 
# 
# High freq. dielectric constant tensor:
#      x y z
#    x 1.828220 0.000000 0.000000 
#    y 0.000000 1.813060 0.000000 
#    z 0.000000 0.000000 1.735300 
# 
# From -- ./inp_files/23519.got.cif
#   From: 2010.03.12/outbox.cif.g09.slc.cpg/sg24_12_cif.got.tgz:23519.got - 2010.04.14 03:06:53.
