data_PCOD8164271
_publ_section_title
;
Structure prediction by ZEFSAII (Michael W. Deem and Ramdas Pophale) SiO2 
 PCOD8164271
Probable space group: I 2 2 2
;
_chemical_formula_sum "Si O2"
_cell_formula_units_Z 30
_cell_length_a 16.976349
_cell_length_b 14.648399
_cell_length_c 5.187187
_cell_angle_alpha 90.000000
_cell_angle_beta 90.000000
_cell_angle_gamma 90.000000
_cell_volume 1289.930645
_symmetry_space_group_name_H-M "I 2 2 2"
_symmetry_group_IT_number 23
_symmetry_cell_setting 'orthorhombic'
loop_
_space_group_symop_operation_xyz
x,y,z
-x,-y,z
x,-y,-z
-x,y,-z
1/2+x,1/2+y,1/2+z
1/2-x,1/2-y,1/2+z
1/2+x,1/2-y,1/2-z
1/2-x,1/2+y,1/2-z
loop_
_atom_site_type_symbol
_atom_site_label
_atom_site_fract_x
_atom_site_fract_y
_atom_site_fract_z
Si Si1 0.619749 0.561834 0.748180
Si Si2 0.258427 0.194660 0.147520
Si Si3 0.500000 0.000000 0.500000
Si Si4 0.500000 0.312236 0.500000
Si Si5 0.429893 0.158582 0.197286
O O1 0.627494 0.500000 0.500000
O O2 0.699207 0.620648 0.767563
O O3 0.542630 0.625844 0.717220
O O4 0.609392 0.500000 0.000000
O O5 0.274012 0.266042 0.379308
O O6 0.343654 0.152590 0.071821
O O7 0.441801 0.062215 0.335141
O O8 0.432540 0.246722 0.383513
O O9 0.500000 0.174061 0.000000
#
# Coordination Sequence:
#
# PCOD8164271 Si02
#       5
#     8   8   2   4   8
#     4  12  28  47  74 113 152 195 250 312 370 437
#     4  12  26  50  77 107 147 197 251 300 377 447
#     4  10  26  44  66 122 134 200 246 324 362 438
#     4  11  25  49  71 106 146 206 245 303 377 453
#     4  11  25  46  79 103 151 194 256 304 378 447
#
# _framework density 23.257062000000001
#
# number of rings (size 3 to 8) (size 9 to 14) (size 15 to 20)
#    0.000    0.533    2.667    4.000    9.333    3.200 
#    0.000    0.000    0.000    0.000    0.000    0.000 
#    0.000    0.000    0.000    0.000    0.000    0.000 
#
# Total GULP energy -186006.264626 kJ/mol
# GULP energy per Si atom -12400.417642 kJ/mol
# Density = 2.320413 g / cm^3
# Si number density = 23.257062 Si / 1000 Ang^3
#
#
#
# Elastic Constant Matrix: (Units=GPa)
#
#
# Indices 1 2 3 4 5 6 
#
# 1 165.1746 46.1594 23.4194 0.0000 0.0000 0.0000
# 2 46.1594 127.5459 40.4243 0.0000 0.0000 0.0000
# 3 23.4194 40.4243 121.0618 0.0000 0.0000 0.0000
# 4 0.0000 0.0000 0.0000 -15.1056 0.0000 0.0000
# 5 0.0000 0.0000 0.0000 0.0000 38.8736 0.0000
# 6 0.0000 0.0000 0.0000 0.0000 0.0000 12.4378
#
#
#
# Elastic Compliance Matrix: (Units=1/GPa)
#
#
# Indices 1 2 3 4 5 6 
#
# 1 0.006768 -0.002275 -0.000550 0.000000 0.000000 0.000000
# 2 -0.002275 0.009533 -0.002743 0.000000 0.000000 0.000000
# 3 -0.000550 -0.002743 0.009283 0.000000 0.000000 0.000000
# 4 0.000000 0.000000 0.000000 -0.066200 0.000000 0.000000
# 5 0.000000 0.000000 0.000000 0.000000 0.025724 0.000000
# 6 0.000000 0.000000 0.000000 0.000000 0.000000 0.080400
#
#
# Mechanical properties :
#
#
# Convention : Reuss Voigt Hill
#
# Bulk Modulus (GPa) = 69.21417 70.42093 69.81755
# Shear Modulus (GPa) = 61.38033 27.49310 44.43671
#
# Velocity S-wave (km/s) = 5.14290 3.44196 4.37587
# Velocity P-wave (km/s) = 8.06790 6.79273 7.45762
#
# Compressibility (1/GPa) = 0.01444791
#
# Stress axis : x y z
#
# Youngs Moduli (GPa) = 147.75561 104.89753 107.72936
#
# Poissons Ratio (x) = 0.23866 0.05920
# Poissons Ratio (y) = 0.33617 0.29551
# Poissons Ratio (z) = 0.08120 0.28775
#
# Static dielectric constant tensor:
#      x y z
#    x 4.155350 0.000000 0.000000 
#    y 0.000000 4.305900 0.000000 
#    z 0.000000 0.000000 4.044770 
# 
# 
# High freq. dielectric constant tensor:
#      x y z
#    x 1.933960 0.000000 0.000000 
#    y 0.000000 1.929890 0.000000 
#    z 0.000000 0.000000 1.919610 
# 
# From -- ./inp_files/2953.got.cif
#   From: 2010.03.12/outbox.cif.g09.slc.cpg/sg23_2_cif.got.tgz:2953.got - 2010.04.14 02:50:06.
