data_PCOD8164098
_publ_section_title
;
Structure prediction by ZEFSAII (Michael W. Deem and Ramdas Pophale) SiO2 
 PCOD8164098
Probable space group: I 2 2 2
;
_chemical_formula_sum "Si O2"
_cell_formula_units_Z 56
_cell_length_a 15.765232
_cell_length_b 8.507759
_cell_length_c 20.056559
_cell_angle_alpha 90.000000
_cell_angle_beta 90.000000
_cell_angle_gamma 90.000000
_cell_volume 2690.121966
_symmetry_space_group_name_H-M "I 2 2 2"
_symmetry_group_IT_number 23
_symmetry_cell_setting 'orthorhombic'
loop_
_space_group_symop_operation_xyz
x,y,z
-x,-y,z
x,-y,-z
-x,y,-z
1/2+x,1/2+y,1/2+z
1/2-x,1/2-y,1/2+z
1/2+x,1/2-y,1/2-z
1/2-x,1/2+y,1/2-z
loop_
_atom_site_type_symbol
_atom_site_label
_atom_site_fract_x
_atom_site_fract_y
_atom_site_fract_z
Si Si1 0.713380 0.764396 0.407668
Si Si2 0.097808 0.206261 0.178602
Si Si3 0.209806 0.488185 0.203176
Si Si4 0.687790 0.500000 0.000000
Si Si5 0.366723 0.340302 0.128788
Si Si6 0.265075 0.948054 0.853975
Si Si7 0.500000 0.500000 0.783433
Si Si8 0.027519 0.179021 0.931386
O O1 0.687339 0.866725 0.344055
O O2 0.753871 0.864762 0.467446
O O3 0.775445 0.621361 0.385790
O O4 0.627868 0.686018 0.431845
O O5 0.131843 0.367835 0.209607
O O6 0.170886 0.124027 0.132810
O O7 0.067920 0.091157 0.238000
O O8 0.018628 0.257307 0.132084
O O9 0.291608 0.405026 0.173886
O O10 0.228599 0.556675 0.274742
O O11 0.628437 0.574355 0.057039
O O12 0.343094 0.156639 0.116933
O O13 0.453604 0.371870 0.168914
O O14 0.000000 0.000000 0.930077
O O15 0.000000 0.263577 0.000000
#
# Coordination Sequence:
#
# PCOD8164098 Si02
#       8
#     8   8   8   4   8   8   4   8
#     4  11  23  42  65  92 137 169 226 273 320 403
#     4  11  22  40  63  95 136 171 223 268 342 389
#     4  10  23  39  64  97 127 173 213 279 324 402
#     4  10  26  45  65  96 122 178 224 278 336 400
#     4  10  24  41  68  95 128 172 223 266 344 389
#     4  11  21  40  70  98 125 173 223 271 323 409
#     4  12  22  43  69  98 132 172 218 296 340 388
#     4  11  24  37  58  92 131 182 214 266 326 390
#
# _framework density 20.8169
#
# number of rings (size 3 to 8) (size 9 to 14) (size 15 to 20)
#    0.000    1.286    3.571    1.714   10.000    1.429 
#    0.000    0.000    0.000    0.000    3.714    0.000 
#    0.000    0.000    0.000    0.000    0.000    0.000 
#
# Total GULP energy -347151.533787 kJ/mol
# GULP energy per Si atom -12398.269064 kJ/mol
# Density = 2.076952 g / cm^3
# Si number density = 20.816900 Si / 1000 Ang^3
#
#
#
# Elastic Constant Matrix: (Units=GPa)
#
#
# Indices 1 2 3 4 5 6 
#
# 1 63.4814 32.3723 25.2858 0.0000 0.0000 0.0000
# 2 32.3723 117.2670 27.2453 0.0000 0.0000 0.0000
# 3 25.2858 27.2453 98.8470 0.0000 0.0000 0.0000
# 4 0.0000 0.0000 0.0000 14.2219 0.0000 0.0000
# 5 0.0000 0.0000 0.0000 0.0000 21.4970 0.0000
# 6 0.0000 0.0000 0.0000 0.0000 0.0000 27.6328
#
#
#
# Elastic Compliance Matrix: (Units=1/GPa)
#
#
# Indices 1 2 3 4 5 6 
#
# 1 0.019557 -0.004526 -0.003755 0.000000 0.000000 0.000000
# 2 -0.004526 0.010159 -0.001642 0.000000 0.000000 0.000000
# 3 -0.003755 -0.001642 0.011530 0.000000 0.000000 0.000000
# 4 0.000000 0.000000 0.000000 0.070314 0.000000 0.000000
# 5 0.000000 0.000000 0.000000 0.000000 0.046518 0.000000
# 6 0.000000 0.000000 0.000000 0.000000 0.000000 0.036189
#
#
# Mechanical properties :
#
#
# Convention : Reuss Voigt Hill
#
# Bulk Modulus (GPa) = 46.73363 49.93360 48.33362
# Shear Modulus (GPa) = 22.59927 25.64979 24.12453
#
# Velocity S-wave (km/s) = 3.29845 3.51402 3.40794
# Velocity P-wave (km/s) = 6.08317 6.36425 6.22529
#
# Compressibility (1/GPa) = 0.02139787
#
# Stress axis : x y z
#
# Youngs Moduli (GPa) = 51.13374 98.43887 86.73122
#
# Poissons Ratio (x) = 0.44556 0.32569
# Poissons Ratio (y) = 0.23144 0.14243
# Poissons Ratio (z) = 0.19201 0.16165
#
# Static dielectric constant tensor:
#      x y z
#    x 3.634750 0.000000 0.000000 
#    y 0.000000 3.957800 0.000000 
#    z 0.000000 0.000000 4.080930 
# 
# 
# High freq. dielectric constant tensor:
#      x y z
#    x 1.794990 0.000000 0.000000 
#    y 0.000000 1.815330 0.000000 
#    z 0.000000 0.000000 1.818090 
# 
# From -- ./inp_files/12098.got.cif
#   From: 2010.03.12/outbox.cif.g09.slc.cpg/sg23_7_cif.got.tgz:12098.got - 2010.04.14 02:50:06.
