data_PCOD8164848
_publ_section_title
;
Structure prediction by ZEFSAII (Michael W. Deem and Ramdas Pophale) SiO2 
 PCOD8164848
Probable space group: I 21 21 21
;
_chemical_formula_sum "Si O2"
_cell_formula_units_Z 36
_cell_length_a 8.519109
_cell_length_b 12.822143
_cell_length_c 19.057132
_cell_angle_alpha 90.000000
_cell_angle_beta 90.000000
_cell_angle_gamma 90.000000
_cell_volume 2081.672156
_symmetry_space_group_name_H-M "I 21 21 21"
_symmetry_group_IT_number 24
_symmetry_cell_setting 'orthorhombic'
loop_
_space_group_symop_operation_xyz
x,y,z
-x,1/2-y,z
x,-y,1/2-z
1/2-x,y,-z
1/2+x,1/2+y,1/2+z
1/2-x,-y,1/2+z
1/2+x,1/2-y,-z
-x,1/2+y,1/2-z
loop_
_atom_site_type_symbol
_atom_site_label
_atom_site_fract_x
_atom_site_fract_y
_atom_site_fract_z
Si Si1 0.374780 0.946081 0.650817
Si Si2 0.020088 0.633577 0.217849
Si Si3 0.570066 0.643787 0.510584
Si Si4 0.303117 0.500000 0.250000
Si Si5 0.978572 0.627707 0.645060
O O1 0.480213 0.871034 0.699518
O O2 0.442827 0.942657 0.571557
O O3 0.197259 0.908838 0.659831
O O4 0.392293 0.065476 0.675409
O O5 0.195344 0.585714 0.209297
O O6 0.000000 0.750000 0.188794
O O7 0.500000 0.750000 0.540726
O O8 0.750000 0.670110 0.500000
O O9 0.485734 0.608764 0.438000
O O10 0.406702 0.557660 0.308437
O O11 0.000000 0.750000 0.663699
#
# Coordination Sequence:
#
# PCOD8164848 Si02
#       5
#     8   8   8   4   8
#     4   9  18  32  50  71  99 130 158 200 249 291
#     4  10  20  33  49  70  97 133 169 202 239 286
#     4   9  18  30  49  74 100 127 158 199 249 294
#     4  10  20  32  50  76  98 126 168 202 238 290
#     4  10  19  32  51  76 101 126 158 202 248 291
#
# _framework density 17.293789
#
# number of rings (size 3 to 8) (size 9 to 14) (size 15 to 20)
#    0.000    2.667    0.000    3.333    0.000    8.889 
#    0.000    0.000    0.000    9.333    0.000    0.000 
#    0.000    0.000    0.000    0.000    0.000    0.000 
#
# Total GULP energy -223052.915576 kJ/mol
# GULP energy per Si atom -12391.828643 kJ/mol
# Density = 1.725443 g / cm^3
# Si number density = 17.293789 Si / 1000 Ang^3
#
#
#
# Elastic Constant Matrix: (Units=GPa)
#
#
# Indices 1 2 3 4 5 6 
#
# 1 80.3796 55.1650 56.2830 0.0000 0.0000 0.0000
# 2 55.1650 140.6241 63.6093 0.0000 0.0000 0.0000
# 3 56.2830 63.6093 106.9297 0.0000 0.0000 0.0000
# 4 0.0000 0.0000 0.0000 17.5696 0.0000 0.0000
# 5 0.0000 0.0000 0.0000 0.0000 20.7048 0.0000
# 6 0.0000 0.0000 0.0000 0.0000 0.0000 24.5421
#
#
#
# Elastic Compliance Matrix: (Units=1/GPa)
#
#
# Indices 1 2 3 4 5 6 
#
# 1 0.021654 -0.004568 -0.008680 0.000000 0.000000 0.000000
# 2 -0.004568 0.010693 -0.003956 0.000000 0.000000 0.000000
# 3 -0.008680 -0.003956 0.016274 0.000000 0.000000 0.000000
# 4 0.000000 0.000000 0.000000 0.056917 0.000000 0.000000
# 5 0.000000 0.000000 0.000000 0.000000 0.048298 0.000000
# 6 0.000000 0.000000 0.000000 0.000000 0.000000 0.040746
#
#
# Mechanical properties :
#
#
# Convention : Reuss Voigt Hill
#
# Bulk Modulus (GPa) = 70.36471 75.33868 72.85169
# Shear Modulus (GPa) = 21.39226 22.75502 22.07364
#
# Velocity S-wave (km/s) = 3.52090 3.63132 3.57654
# Velocity P-wave (km/s) = 7.57002 7.82563 7.69889
#
# Compressibility (1/GPa) = 0.01421167
#
# Stress axis : x y z
#
# Youngs Moduli (GPa) = 46.18022 93.52074 61.44637
#
# Poissons Ratio (x) = 0.42723 0.53337
# Poissons Ratio (y) = 0.21096 0.24310
# Poissons Ratio (z) = 0.40086 0.37000
#
# Static dielectric constant tensor:
#      x y z
#    x 3.296570 0.000000 0.000000 
#    y 0.000000 3.217000 0.000000 
#    z 0.000000 0.000000 3.449740 
# 
# 
# High freq. dielectric constant tensor:
#      x y z
#    x 1.674570 0.000000 0.000000 
#    y 0.000000 1.650690 0.000000 
#    z 0.000000 0.000000 1.664300 
# 
# From -- ./inp_files/13934.got.cif
#   From: 2010.03.12/outbox.cif.g09.slc.cpg/sg24_7_cif.got.tgz:13934.got - 2010.04.14 03:06:53.
