data_PCOD8164577
_publ_section_title
;
Structure prediction by ZEFSAII (Michael W. Deem and Ramdas Pophale) SiO2 
 PCOD8164577
Probable space group: I 21 21 21
;
_chemical_formula_sum "Si O2"
_cell_formula_units_Z 56
_cell_length_a 26.498710
_cell_length_b 9.727510
_cell_length_c 13.633413
_cell_angle_alpha 90.000000
_cell_angle_beta 90.000000
_cell_angle_gamma 90.000000
_cell_volume 3514.236696
_symmetry_space_group_name_H-M "I 21 21 21"
_symmetry_group_IT_number 24
_symmetry_cell_setting 'orthorhombic'
loop_
_space_group_symop_operation_xyz
x,y,z
-x,1/2-y,z
x,-y,1/2-z
1/2-x,y,-z
1/2+x,1/2+y,1/2+z
1/2-x,-y,1/2+z
1/2+x,1/2-y,-z
-x,1/2+y,1/2-z
loop_
_atom_site_type_symbol
_atom_site_label
_atom_site_fract_x
_atom_site_fract_y
_atom_site_fract_z
Si Si1 0.617377 0.483462 0.586210
Si Si2 0.196901 0.500000 0.250000
Si Si3 0.753933 0.249996 0.339033
Si Si4 0.057433 0.250002 0.079051
Si Si5 0.117368 0.516632 0.086269
Si Si6 0.443751 0.750078 0.811345
Si Si7 0.803106 0.500000 0.250000
Si Si8 0.331305 0.750009 0.017035
O O1 0.586687 0.613121 0.542479
O O2 0.582811 0.388667 0.654643
O O3 0.663272 0.536126 0.654403
O O4 0.635856 0.389791 0.494401
O O5 0.235482 0.378165 0.270135
O O6 0.163280 0.463908 0.154394
O O7 0.764522 0.378179 0.270160
O O8 0.791744 0.249977 0.429376
O O9 0.696280 0.249987 0.377836
O O10 0.086640 0.387011 0.042600
O O11 0.056843 0.249804 0.195347
O O12 0.000000 0.250000 0.037794
O O13 0.082856 0.611482 0.154771
O O14 0.135827 0.610276 0.994428
O O15 0.500000 0.750000 0.854071
#
# Coordination Sequence:
#
# PCOD8164577 Si02
#       8
#     8   4   8   8   8   8   4   8
#     4  10  17  27  40  59  83 119 143 177 202 241
#     4  10  16  26  45  60  82 106 149 176 206 236
#     4   9  17  30  44  63  76 108 143 185 207 251
#     4  11  18  24  37  60  86 111 148 180 194 222
#     4  10  17  27  40  59  83 119 143 177 202 241
#     4  10  17  25  37  56  84 117 151 175 193 228
#     4  10  16  26  45  60  82 106 149 176 206 236
#     4   8  18  31  43  54  84 114 145 165 218 254
#
# _framework density 15.935183
#
# number of rings (size 3 to 8) (size 9 to 14) (size 15 to 20)
#    0.000    2.286    2.857    2.571    0.000    2.286 
#    0.000    1.429    0.000    6.857    0.000    0.000 
#    0.000    0.000    0.000   64.286    0.000    0.000 
#
# Total GULP energy -347090.631375 kJ/mol
# GULP energy per Si atom -12396.093978 kJ/mol
# Density = 1.589891 g / cm^3
# Si number density = 15.935183 Si / 1000 Ang^3
#
#
#
# Elastic Constant Matrix: (Units=GPa)
#
#
# Indices 1 2 3 4 5 6 
#
# 1 97.7314 65.5800 36.2060 0.0000 0.0000 0.0000
# 2 65.5800 144.9980 33.4904 0.0000 0.0000 0.0000
# 3 36.2060 33.4904 28.0146 0.0000 0.0000 0.0000
# 4 0.0000 0.0000 0.0000 -5.0173 0.0000 0.0000
# 5 0.0000 0.0000 0.0000 0.0000 18.5856 0.0000
# 6 0.0000 0.0000 0.0000 0.0000 0.0000 2.5782
#
#
#
# Elastic Compliance Matrix: (Units=1/GPa)
#
#
# Indices 1 2 3 4 5 6 
#
# 1 0.021644 -0.004598 -0.022476 0.000000 0.000000 0.000000
# 2 -0.004598 0.010504 -0.006615 0.000000 0.000000 0.000000
# 3 -0.022476 -0.006615 0.072652 0.000000 0.000000 0.000000
# 4 0.000000 0.000000 0.000000 -0.199311 0.000000 0.000000
# 5 0.000000 0.000000 0.000000 0.000000 0.053805 0.000000
# 6 0.000000 0.000000 0.000000 0.000000 0.000000 0.387872
#
#
# Mechanical properties :
#
#
# Convention : Reuss Voigt Hill
#
# Bulk Modulus (GPa) = 26.72225 60.14408 43.43316
# Shear Modulus (GPa) = 11.70913 12.26047 11.98480
#
# Velocity S-wave (km/s) = 2.71365 2.77681 2.74541
# Velocity P-wave (km/s) = 5.15987 6.93583 6.11269
#
# Compressibility (1/GPa) = 0.03742200
#
# Stress axis : x y z
#
# Youngs Moduli (GPa) = 46.20216 95.20151 13.76426
#
# Poissons Ratio (x) = 0.43772 0.30937
# Poissons Ratio (y) = 0.21243 0.09105
# Poissons Ratio (z) = 1.03845 0.62975
#
# Static dielectric constant tensor:
#      x y z
#    x 3.292880 0.000000 0.000000 
#    y 0.000000 3.274650 0.000000 
#    z 0.000000 0.000000 2.551250 
# 
# 
# High freq. dielectric constant tensor:
#      x y z
#    x 1.608780 0.000000 0.000000 
#    y 0.000000 1.628830 0.000000 
#    z 0.000000 0.000000 1.536950 
# 
# From -- ./inp_files/28273.got.cif
#   From: 2010.03.12/outbox.cif.g09.slc.cpg/sg24_15_cif.got.tgz:28273.got - 2010.04.14 03:06:53.
