data_PCOD8164598
_publ_section_title
;
Structure prediction by ZEFSAII (Michael W. Deem and Ramdas Pophale) SiO2 
 PCOD8164598
Probable space group: I 21 21 21
;
_chemical_formula_sum "Si O2"
_cell_formula_units_Z 60
_cell_length_a 18.071026
_cell_length_b 18.292305
_cell_length_c 9.046529
_cell_angle_alpha 90.000000
_cell_angle_beta 90.000000
_cell_angle_gamma 90.000000
_cell_volume 2990.427133
_symmetry_space_group_name_H-M "I 21 21 21"
_symmetry_group_IT_number 24
_symmetry_cell_setting 'orthorhombic'
loop_
_space_group_symop_operation_xyz
x,y,z
-x,1/2-y,z
x,-y,1/2-z
1/2-x,y,-z
1/2+x,1/2+y,1/2+z
1/2-x,-y,1/2+z
1/2+x,1/2-y,-z
-x,1/2+y,1/2-z
loop_
_atom_site_type_symbol
_atom_site_label
_atom_site_fract_x
_atom_site_fract_y
_atom_site_fract_z
Si Si1 0.457117 0.177472 0.727064
Si Si2 0.423995 0.427592 0.834750
Si Si3 0.598268 0.680740 0.441819
Si Si4 0.518482 0.073045 0.163435
Si Si5 0.629277 0.186595 0.246925
Si Si6 0.294655 0.679892 0.709741
Si Si7 0.250000 0.802862 0.500000
Si Si8 0.332165 0.773844 0.969987
O O1 0.500000 0.250000 0.676597
O O2 0.513747 0.109423 0.728678
O O3 0.387810 0.168287 0.611927
O O4 0.429514 0.185519 0.892582
O O5 0.399374 0.500000 0.750000
O O6 0.350051 0.379597 0.857011
O O7 0.453400 0.444923 0.998560
O O8 0.553314 0.624251 0.342702
O O9 0.595076 0.764670 0.385487
O O10 0.683775 0.650543 0.427013
O O11 0.578103 0.115810 0.264752
O O12 0.497071 0.000000 0.250000
O O13 0.709926 0.152638 0.210773
O O14 0.630441 0.243441 0.382149
O O15 0.296382 0.753962 0.615203
O O16 0.321802 0.700904 0.872569
O O17 0.250000 0.809216 0.000000
#
# Coordination Sequence:
#
# PCOD8164598 Si02
#       8
#     8   8   8   8   8   8   4   8
#     4  11  19  36  64  88 117 155 206 252 294 360
#     4  11  24  39  61  86 121 169 208 247 298 363
#     4  10  20  37  63  89 116 153 209 257 301 370
#     4  11  25  40  55  87 127 161 210 249 307 365
#     4  10  22  37  60  89 124 161 194 249 318 360
#     4  10  19  36  58  89 122 151 202 245 295 368
#     4  10  16  34  70  92 108 150 198 258 316 350
#     4  10  21  35  57  93 125 148 194 259 307 356
#
# _framework density 20.064025000000001
#
# number of rings (size 3 to 8) (size 9 to 14) (size 15 to 20)
#    0.000    1.600    2.667    3.600    1.867    2.667 
#    0.000    0.000    0.000    3.200    6.933    0.000 
#    0.000    0.000    0.000    0.000    0.000    0.000 
#
# Total GULP energy -371795.570487 kJ/mol
# GULP energy per Si atom -12393.185683 kJ/mol
# Density = 2.001836 g / cm^3
# Si number density = 20.064025 Si / 1000 Ang^3
#
#
#
# Elastic Constant Matrix: (Units=GPa)
#
#
# Indices 1 2 3 4 5 6 
#
# 1 144.9980 61.6406 35.3571 0.0000 0.0000 0.0000
# 2 61.6406 56.0287 18.4328 0.0000 0.0000 0.0000
# 3 35.3571 18.4328 66.5582 0.0000 0.0000 0.0000
# 4 0.0000 0.0000 0.0000 26.0769 0.0000 0.0000
# 5 0.0000 0.0000 0.0000 0.0000 30.3781 0.0000
# 6 0.0000 0.0000 0.0000 0.0000 0.0000 17.7405
#
#
#
# Elastic Compliance Matrix: (Units=1/GPa)
#
#
# Indices 1 2 3 4 5 6 
#
# 1 0.013619 -0.013867 -0.003395 0.000000 0.000000 0.000000
# 2 -0.013867 0.033756 -0.001982 0.000000 0.000000 0.000000
# 3 -0.003395 -0.001982 0.017377 0.000000 0.000000 0.000000
# 4 0.000000 0.000000 0.000000 0.038348 0.000000 0.000000
# 5 0.000000 0.000000 0.000000 0.000000 0.032918 0.000000
# 6 0.000000 0.000000 0.000000 0.000000 0.000000 0.056368
#
#
# Mechanical properties :
#
#
# Convention : Reuss Voigt Hill
#
# Bulk Modulus (GPa) = 38.07367 55.38288 46.72827
# Shear Modulus (GPa) = 20.86567 24.98273 22.92420
#
# Velocity S-wave (km/s) = 3.22833 3.53250 3.38383
# Velocity P-wave (km/s) = 5.73702 6.65590 6.21347
#
# Compressibility (1/GPa) = 0.02626487
#
# Stress axis : x y z
#
# Youngs Moduli (GPa) = 73.42525 29.62465 57.54849
#
# Poissons Ratio (x) = 0.41079 0.19535
# Poissons Ratio (y) = 1.01816 0.11407
# Poissons Ratio (z) = 0.24925 0.05872
#
# Static dielectric constant tensor:
#      x y z
#    x 4.190150 0.000000 0.000000 
#    y 0.000000 3.219610 0.000000 
#    z 0.000000 0.000000 3.803100 
# 
# 
# High freq. dielectric constant tensor:
#      x y z
#    x 1.808330 0.000000 0.000000 
#    y 0.000000 1.725250 0.000000 
#    z 0.000000 0.000000 1.792200 
# 
# From -- ./inp_files/14457.got.cif
#   From: 2010.03.12/outbox.cif.g09.slc.cpg/sg24_8_cif.got.tgz:14457.got - 2010.04.14 03:06:53.
