data_PCOD8164351
_publ_section_title
;
Structure prediction by ZEFSAII (Michael W. Deem and Ramdas Pophale) SiO2 
 PCOD8164351
Probable space group: I 2 2 2
;
_chemical_formula_sum "Si O2"
_cell_formula_units_Z 38
_cell_length_a 16.786315
_cell_length_b 7.510523
_cell_length_c 13.869172
_cell_angle_alpha 90.000000
_cell_angle_beta 90.000000
_cell_angle_gamma 90.000000
_cell_volume 1748.542059
_symmetry_space_group_name_H-M "I 2 2 2"
_symmetry_group_IT_number 23
_symmetry_cell_setting 'orthorhombic'
loop_
_space_group_symop_operation_xyz
x,y,z
-x,-y,z
x,-y,-z
-x,y,-z
1/2+x,1/2+y,1/2+z
1/2-x,1/2-y,1/2+z
1/2+x,1/2-y,1/2-z
1/2-x,1/2+y,1/2-z
loop_
_atom_site_type_symbol
_atom_site_label
_atom_site_fract_x
_atom_site_fract_y
_atom_site_fract_z
Si Si1 0.600830 0.224823 0.144746
Si Si2 0.000000 0.500000 0.500000
Si Si3 0.202491 0.611730 0.317731
Si Si4 0.735492 0.694455 0.988219
Si Si5 0.000000 0.000000 0.225786
Si Si6 0.340783 0.381185 0.345368
O O1 0.667240 0.342918 0.091303
O O2 0.544450 0.348816 0.210972
O O3 0.648250 0.064015 0.196600
O O4 0.548496 0.133000 0.064981
O O5 0.192853 0.715923 0.419147
O O6 0.296056 0.560542 0.310145
O O7 0.178449 0.728617 0.229315
O O8 0.805978 0.824645 0.949969
O O9 0.774671 0.500000 0.000000
O O10 0.064510 0.911147 0.154288
#
# Coordination Sequence:
#
# PCOD8164351 Si02
#       6
#     8   2   8   8   4   8
#     4  11  23  37  60  95 136 168 207 266 338 399
#     4  12  20  34  56  96 140 160 194 276 342 388
#     4  11  21  45  66  95 126 176 221 267 328 409
#     4  11  23  42  67  95 123 174 225 269 326 405
#     4  12  26  39  61 100 132 176 210 274 336 392
#     4  11  23  41  66  92 132 167 219 270 330 396
#
# _framework density 21.732392999999998
#
# number of rings (size 3 to 8) (size 9 to 14) (size 15 to 20)
#    0.000    0.842    2.105    8.211    2.947    0.000 
#    0.000    2.105    0.000    1.263    0.000    0.000 
#    0.000    0.000    0.000    0.000    0.000    0.000 
#
# Total GULP energy -235466.039867 kJ/mol
# GULP energy per Si atom -12392.949467 kJ/mol
# Density = 2.168293 g / cm^3
# Si number density = 21.732393 Si / 1000 Ang^3
#
#
#
# Elastic Constant Matrix: (Units=GPa)
#
#
# Indices 1 2 3 4 5 6 
#
# 1 120.4088 30.5041 -1.9971 0.0000 0.0000 0.0000
# 2 30.5041 106.0140 14.8246 0.0000 0.0000 0.0000
# 3 -1.9971 14.8246 22.9387 0.0000 0.0000 0.0000
# 4 0.0000 0.0000 0.0000 27.5758 0.0000 0.0000
# 5 0.0000 0.0000 0.0000 0.0000 8.1549 0.0000
# 6 0.0000 0.0000 0.0000 0.0000 0.0000 29.1773
#
#
#
# Elastic Compliance Matrix: (Units=1/GPa)
#
#
# Indices 1 2 3 4 5 6 
#
# 1 0.009111 -0.003004 0.002735 0.000000 0.000000 0.000000
# 2 -0.003004 0.011360 -0.007603 0.000000 0.000000 0.000000
# 3 0.002735 -0.007603 0.048746 0.000000 0.000000 0.000000
# 4 0.000000 0.000000 0.000000 0.036264 0.000000 0.000000
# 5 0.000000 0.000000 0.000000 0.000000 0.122625 0.000000
# 6 0.000000 0.000000 0.000000 0.000000 0.000000 0.034273
#
#
# Mechanical properties :
#
#
# Convention : Reuss Voigt Hill
#
# Bulk Modulus (GPa) = 18.70118 37.33608 28.01863
# Shear Modulus (GPa) = 16.89475 26.71693 21.80584
#
# Velocity S-wave (km/s) = 2.79121 3.51003 3.17105
# Velocity P-wave (km/s) = 4.36024 5.80037 5.13108
#
# Compressibility (1/GPa) = 0.05347257
#
# Stress axis : x y z
#
# Youngs Moduli (GPa) = 109.75201 88.02562 20.51436
#
# Poissons Ratio (x) = 0.26444 -0.05610
# Poissons Ratio (y) = 0.32971 0.15598
# Poissons Ratio (z) = -0.30014 0.66929
#
# Static dielectric constant tensor:
#      x y z
#    x 4.291270 0.000000 0.000000 
#    y 0.000000 4.032400 0.000000 
#    z 0.000000 0.000000 3.929080 
# 
# 
# High freq. dielectric constant tensor:
#      x y z
#    x 1.851720 0.000000 0.000000 
#    y 0.000000 1.870280 0.000000 
#    z 0.000000 0.000000 1.842890 
# 
# From -- ./inp_files/17275.got.cif
#   From: 2010.03.12/outbox.cif.g09.slc.cpg/sg23_9_cif.got.tgz:17275.got - 2010.04.14 02:50:06.
