data_PCOD8164780
_publ_section_title
;
Structure prediction by ZEFSAII (Michael W. Deem and Ramdas Pophale) SiO2 
 PCOD8164780
Probable space group: I 21 21 21
;
_chemical_formula_sum "Si O2"
_cell_formula_units_Z 40
_cell_length_a 8.506730
_cell_length_b 11.478066
_cell_length_c 20.728598
_cell_angle_alpha 90.000000
_cell_angle_beta 90.000000
_cell_angle_gamma 90.000000
_cell_volume 2023.957065
_symmetry_space_group_name_H-M "I 21 21 21"
_symmetry_group_IT_number 24
_symmetry_cell_setting 'orthorhombic'
loop_
_space_group_symop_operation_xyz
x,y,z
-x,1/2-y,z
x,-y,1/2-z
1/2-x,y,-z
1/2+x,1/2+y,1/2+z
1/2-x,-y,1/2+z
1/2+x,1/2-y,-z
-x,1/2+y,1/2-z
loop_
_atom_site_type_symbol
_atom_site_label
_atom_site_fract_x
_atom_site_fract_y
_atom_site_fract_z
Si Si1 0.991900 0.039764 0.377344
Si Si2 0.934209 0.869011 0.987235
Si Si3 0.000000 0.750000 0.219276
Si Si4 0.692160 0.926586 0.428450
Si Si5 0.000000 0.250000 0.855341
Si Si6 0.266243 0.103746 0.798192
O O1 0.028665 0.099194 0.446934
O O2 0.956410 0.139092 0.324553
O O3 0.833104 0.965580 0.382028
O O4 0.132977 0.952251 0.357339
O O5 0.000000 0.750000 0.957043
O O6 0.944392 0.972893 0.934329
O O7 0.750000 0.852106 0.000000
O O8 0.856487 0.711825 0.264982
O O9 0.750000 0.897848 0.500000
O O10 0.628038 0.808735 0.400357
O O11 0.905723 0.347574 0.815824
O O12 0.230701 0.000000 0.750000
#
# Coordination Sequence:
#
# PCOD8164780 Si02
#       6
#     8   8   4   8   4   8
#     4   9  18  37  59  83 110 148 195 225 276 333
#     4   9  18  34  56  86 115 143 188 234 279 336
#     4  10  18  36  63  80 107 152 190 234 268 338
#     4   9  22  38  56  85 116 149 189 225 280 346
#     4  12  24  40  55  82 123 146 182 242 288 320
#     4  10  23  37  57  85 110 148 197 230 280 335
#
# _framework density 19.763263999999999
#
# number of rings (size 3 to 8) (size 9 to 14) (size 15 to 20)
#    0.000    2.800    1.000    1.200    0.000    6.400 
#    3.600    0.000    0.000    0.000    0.000    0.000 
#    0.000    0.000    0.000    0.000    0.000    0.000 
#
# Total GULP energy -247856.441949 kJ/mol
# GULP energy per Si atom -12392.822097 kJ/mol
# Density = 1.971828 g / cm^3
# Si number density = 19.763264 Si / 1000 Ang^3
#
#
#
# Elastic Constant Matrix: (Units=GPa)
#
#
# Indices 1 2 3 4 5 6 
#
# 1 84.2813 50.4980 46.0552 0.0000 0.0000 0.0000
# 2 50.4980 99.3702 32.8010 0.0000 0.0000 0.0000
# 3 46.0552 32.8010 65.9385 0.0000 0.0000 0.0000
# 4 0.0000 0.0000 0.0000 18.8138 0.0000 0.0000
# 5 0.0000 0.0000 0.0000 0.0000 24.9217 0.0000
# 6 0.0000 0.0000 0.0000 0.0000 0.0000 45.5081
#
#
#
# Elastic Compliance Matrix: (Units=1/GPa)
#
#
# Indices 1 2 3 4 5 6 
#
# 1 0.023283 -0.007734 -0.012415 0.000000 0.000000 0.000000
# 2 -0.007734 0.014609 -0.001866 0.000000 0.000000 0.000000
# 3 -0.012415 -0.001866 0.024765 0.000000 0.000000 0.000000
# 4 0.000000 0.000000 0.000000 0.053152 0.000000 0.000000
# 5 0.000000 0.000000 0.000000 0.000000 0.040126 0.000000
# 6 0.000000 0.000000 0.000000 0.000000 0.000000 0.021974
#
#
# Mechanical properties :
#
#
# Convention : Reuss Voigt Hill
#
# Bulk Modulus (GPa) = 53.68135 56.47760 55.07948
# Shear Modulus (GPa) = 21.91561 25.86446 23.89003
#
# Velocity S-wave (km/s) = 3.33364 3.62154 3.48057
# Velocity P-wave (km/s) = 6.48372 6.79165 6.63947
#
# Compressibility (1/GPa) = 0.01862844
#
# Stress axis : x y z
#
# Youngs Moduli (GPa) = 42.94984 68.44898 40.37963
#
# Poissons Ratio (x) = 0.52938 0.50131
# Poissons Ratio (y) = 0.33217 0.07533
# Poissons Ratio (z) = 0.53322 0.12770
#
# Static dielectric constant tensor:
#      x y z
#    x 3.395560 0.000000 0.000000 
#    y 0.000000 4.066970 0.000000 
#    z 0.000000 0.000000 3.589580 
# 
# 
# High freq. dielectric constant tensor:
#      x y z
#    x 1.752410 0.000000 0.000000 
#    y 0.000000 1.788360 0.000000 
#    z 0.000000 0.000000 1.760530 
# 
# From -- ./inp_files/11047.got.cif
#   From: 2010.03.12/outbox.cif.g09.slc.cpg/sg24_6_cif.got.tgz:11047.got - 2010.04.14 03:06:53.
