data_PCOD8164379
_publ_section_title
;
Structure prediction by ZEFSAII (Michael W. Deem and Ramdas Pophale) SiO2 
 PCOD8164379
Probable space group: I 2 2 2
;
_chemical_formula_sum "Si O2"
_cell_formula_units_Z 38
_cell_length_a 24.670494
_cell_length_b 8.283134
_cell_length_c 7.470368
_cell_angle_alpha 90.000000
_cell_angle_beta 90.000000
_cell_angle_gamma 90.000000
_cell_volume 1526.562288
_symmetry_space_group_name_H-M "I 2 2 2"
_symmetry_group_IT_number 23
_symmetry_cell_setting 'orthorhombic'
loop_
_space_group_symop_operation_xyz
x,y,z
-x,-y,z
x,-y,-z
-x,y,-z
1/2+x,1/2+y,1/2+z
1/2-x,1/2-y,1/2+z
1/2+x,1/2-y,1/2-z
1/2-x,1/2+y,1/2-z
loop_
_atom_site_type_symbol
_atom_site_label
_atom_site_fract_x
_atom_site_fract_y
_atom_site_fract_z
Si Si1 0.642312 0.248219 0.964438
Si Si2 0.000000 0.000000 0.000000
Si Si3 0.663041 0.481618 0.284878
Si Si4 0.561751 0.956706 0.226193
Si Si5 0.915633 0.242113 0.933346
Si Si6 0.764921 0.500000 0.500000
O O1 0.643638 0.339311 0.771310
O O2 0.590691 0.125830 0.947223
O O3 0.698495 0.157309 0.998519
O O4 0.639354 0.373357 0.124503
O O5 0.962699 0.884893 0.125224
O O6 0.637684 0.375511 0.454841
O O7 0.727296 0.489503 0.321438
O O8 0.564402 0.829982 0.388067
O O9 0.500000 0.000000 0.180778
O O10 0.594132 0.120873 0.281418
#
# Coordination Sequence:
#
# PCOD8164379 Si02
#       6
#     8   2   8   8   8   4
#     4  11  25  44  70 103 145 187 244 305 379 440
#     4  12  18  34  64  98 132 184 244 294 314 410
#     4  11  25  44  70 105 139 185 244 312 371 435
#     4  11  22  44  69 106 150 201 242 295 358 430
#     4  11  22  39  70 104 143 194 251 288 350 436
#     4  12  23  46  71  99 138 189 236 306 372 460
#
# _framework density 24.892531999999999
#
# number of rings (size 3 to 8) (size 9 to 14) (size 15 to 20)
#    0.000    0.842    2.105    6.316    0.000    0.000 
#    0.000   10.000    0.000    0.000    0.000    0.000 
#    0.000    0.000    0.000    0.000    0.000    0.000 
#
# Total GULP energy -235386.874597 kJ/mol
# GULP energy per Si atom -12388.782874 kJ/mol
# Density = 2.483588 g / cm^3
# Si number density = 24.892532 Si / 1000 Ang^3
#
#
#
# Elastic Constant Matrix: (Units=GPa)
#
#
# Indices 1 2 3 4 5 6 
#
# 1 172.3296 77.0294 18.0063 0.0000 0.0000 0.0000
# 2 77.0294 161.5667 43.7813 0.0000 0.0000 0.0000
# 3 18.0063 43.7813 103.8728 0.0000 0.0000 0.0000
# 4 0.0000 0.0000 0.0000 46.4554 0.0000 0.0000
# 5 0.0000 0.0000 0.0000 0.0000 28.4510 0.0000
# 6 0.0000 0.0000 0.0000 0.0000 0.0000 54.0978
#
#
#
# Elastic Compliance Matrix: (Units=1/GPa)
#
#
# Indices 1 2 3 4 5 6 
#
# 1 0.007379 -0.003580 0.000230 0.000000 0.000000 0.000000
# 2 -0.003580 0.008725 -0.003057 0.000000 0.000000 0.000000
# 3 0.000230 -0.003057 0.010876 0.000000 0.000000 0.000000
# 4 0.000000 0.000000 0.000000 0.021526 0.000000 0.000000
# 5 0.000000 0.000000 0.000000 0.000000 0.035148 0.000000
# 6 0.000000 0.000000 0.000000 0.000000 0.000000 0.018485
#
#
# Mechanical properties :
#
#
# Convention : Reuss Voigt Hill
#
# Bulk Modulus (GPa) = 70.59573 79.48925 75.04249
# Shear Modulus (GPa) = 41.77977 45.73097 43.75537
#
# Velocity S-wave (km/s) = 4.10128 4.29083 4.19713
# Velocity P-wave (km/s) = 7.13086 7.52001 7.32802
#
# Compressibility (1/GPa) = 0.01416516
#
# Stress axis : x y z
#
# Youngs Moduli (GPa) = 135.51534 114.61646 91.94833
#
# Poissons Ratio (x) = 0.41038 -0.02114
# Poissons Ratio (y) = 0.48521 0.28106
# Poissons Ratio (z) = -0.03116 0.35035
#
# Static dielectric constant tensor:
#      x y z
#    x 4.279970 0.000000 0.000000 
#    y 0.000000 5.231240 0.000000 
#    z 0.000000 0.000000 5.187640 
# 
# 
# High freq. dielectric constant tensor:
#      x y z
#    x 1.974370 0.000000 0.000000 
#    y 0.000000 2.040460 0.000000 
#    z 0.000000 0.000000 2.005790 
# 
# From -- ./inp_files/12426.got.cif
#   From: 2010.03.12/outbox.cif.g09.slc.cpg/sg23_7_cif.got.tgz:12426.got - 2010.04.14 02:50:06.
