data_PCOD8164626
_publ_section_title
;
Structure prediction by ZEFSAII (Michael W. Deem and Ramdas Pophale) SiO2 
 PCOD8164626
Probable space group: I 21 21 21
;
_chemical_formula_sum "Si O2"
_cell_formula_units_Z 56
_cell_length_a 26.867483
_cell_length_b 12.389760
_cell_length_c 9.877082
_cell_angle_alpha 90.000000
_cell_angle_beta 90.000000
_cell_angle_gamma 90.000000
_cell_volume 3287.899513
_symmetry_space_group_name_H-M "I 21 21 21"
_symmetry_group_IT_number 24
_symmetry_cell_setting 'orthorhombic'
loop_
_space_group_symop_operation_xyz
x,y,z
-x,1/2-y,z
x,-y,1/2-z
1/2-x,y,-z
1/2+x,1/2+y,1/2+z
1/2-x,-y,1/2+z
1/2+x,1/2-y,-z
-x,1/2+y,1/2-z
loop_
_atom_site_type_symbol
_atom_site_label
_atom_site_fract_x
_atom_site_fract_y
_atom_site_fract_z
Si Si1 0.915076 0.111284 0.468987
Si Si2 0.000000 0.250000 0.517667
Si Si3 0.058658 0.125670 0.738814
Si Si4 0.836726 0.128367 0.258217
Si Si5 0.370202 0.312849 0.267675
Si Si6 0.595351 0.132752 0.978331
Si Si7 0.000000 0.250000 0.950582
Si Si8 0.265395 0.605032 0.157734
O O1 0.963740 0.178496 0.423681
O O2 0.868656 0.161508 0.388817
O O3 0.907356 0.126893 0.629317
O O4 0.921687 0.986206 0.433194
O O5 0.968620 0.338364 0.602003
O O6 0.111510 0.189082 0.750290
O O7 0.020619 0.152589 0.859663
O O8 0.071025 0.000000 0.750000
O O9 0.862619 0.176724 0.124604
O O10 0.780631 0.172867 0.277838
O O11 0.831044 0.000000 0.250000
O O12 0.314166 0.320007 0.326254
O O13 0.378315 0.371811 0.124341
O O14 0.546309 0.206121 0.962515
O O15 0.276417 0.500000 0.250000
O O16 0.250000 0.576893 0.000000
#
# Coordination Sequence:
#
# PCOD8164626 Si02
#       8
#     8   4   8   8   8   8   4   8
#     4  10  17  31  44  70  99 129 161 199 243 293
#     4   9  18  25  48  72  94 130 166 198 248 290
#     4   9  17  31  47  75 102 125 167 211 246 292
#     4   9  20  31  45  68 100 131 158 196 248 299
#     4  10  20  30  51  74  95 131 163 200 252 296
#     4  10  19  31  47  70 103 131 160 199 244 296
#     4   9  18  29  48  74  96 134 166 198 254 288
#     4  11  21  33  51  78 106 131 162 204 258 307
#
# _framework density 17.032152
#
# number of rings (size 3 to 8) (size 9 to 14) (size 15 to 20)
#    0.000    2.286    1.429    3.000    4.000    0.571 
#    0.000    0.000    0.000    0.000    7.429    9.000 
#    0.000    0.000    0.000    0.000    0.000    0.000 
#
# Total GULP energy -346963.757646 kJ/mol
# GULP energy per Si atom -12391.562773 kJ/mol
# Density = 1.699339 g / cm^3
# Si number density = 17.032152 Si / 1000 Ang^3
#
#
#
# Elastic Constant Matrix: (Units=GPa)
#
#
# Indices 1 2 3 4 5 6 
#
# 1 127.7232 31.3818 25.0041 0.0000 0.0000 0.0000
# 2 31.3818 68.9758 7.8441 0.0000 0.0000 0.0000
# 3 25.0041 7.8441 66.8982 0.0000 0.0000 0.0000
# 4 0.0000 0.0000 0.0000 10.0609 0.0000 0.0000
# 5 0.0000 0.0000 0.0000 0.0000 29.4340 0.0000
# 6 0.0000 0.0000 0.0000 0.0000 0.0000 24.9692
#
#
#
# Elastic Compliance Matrix: (Units=1/GPa)
#
#
# Indices 1 2 3 4 5 6 
#
# 1 0.009391 -0.003926 -0.003050 0.000000 0.000000 0.000000
# 2 -0.003926 0.016335 -0.000448 0.000000 0.000000 0.000000
# 3 -0.003050 -0.000448 0.016140 0.000000 0.000000 0.000000
# 4 0.000000 0.000000 0.000000 0.099395 0.000000 0.000000
# 5 0.000000 0.000000 0.000000 0.000000 0.033974 0.000000
# 6 0.000000 0.000000 0.000000 0.000000 0.000000 0.040049
#
#
# Mechanical properties :
#
#
# Convention : Reuss Voigt Hill
#
# Bulk Modulus (GPa) = 37.01049 43.56190 40.28620
# Shear Modulus (GPa) = 20.90838 26.18396 23.54617
#
# Velocity S-wave (km/s) = 3.50749 3.92513 3.72217
# Velocity P-wave (km/s) = 6.17902 6.79514 6.49439
#
# Compressibility (1/GPa) = 0.02701937
#
# Stress axis : x y z
#
# Youngs Moduli (GPa) = 106.48453 61.21864 61.95601
#
# Poissons Ratio (x) = 0.24033 0.18895
# Poissons Ratio (y) = 0.41804 0.02776
# Poissons Ratio (z) = 0.32475 0.02743
#
# Static dielectric constant tensor:
#      x y z
#    x 3.498440 0.000000 0.000000 
#    y 0.000000 2.818570 0.000000 
#    z 0.000000 0.000000 3.196520 
# 
# 
# High freq. dielectric constant tensor:
#      x y z
#    x 1.669760 0.000000 0.000000 
#    y 0.000000 1.607930 0.000000 
#    z 0.000000 0.000000 1.654520 
# 
# From -- ./inp_files/23013.got.cif
#   From: 2010.03.12/outbox.cif.g09.slc.cpg/sg24_12_cif.got.tgz:23013.got - 2010.04.14 03:06:53.
