data_PCOD8164858
_publ_section_title
;
Structure prediction by ZEFSAII (Michael W. Deem and Ramdas Pophale) SiO2 
 PCOD8164858
Probable space group: I 21 21 21
;
_chemical_formula_sum "Si O2"
_cell_formula_units_Z 64
_cell_length_a 21.979182
_cell_length_b 9.032111
_cell_length_c 17.369593
_cell_angle_alpha 90.000000
_cell_angle_beta 90.000000
_cell_angle_gamma 90.000000
_cell_volume 3448.184011
_symmetry_space_group_name_H-M "I 21 21 21"
_symmetry_group_IT_number 24
_symmetry_cell_setting 'orthorhombic'
loop_
_space_group_symop_operation_xyz
x,y,z
-x,1/2-y,z
x,-y,1/2-z
1/2-x,y,-z
1/2+x,1/2+y,1/2+z
1/2-x,-y,1/2+z
1/2+x,1/2-y,-z
-x,1/2+y,1/2-z
loop_
_atom_site_type_symbol
_atom_site_label
_atom_site_fract_x
_atom_site_fract_y
_atom_site_fract_z
Si Si1 0.030120 0.409927 0.825644
Si Si2 0.623496 0.419607 0.532803
Si Si3 0.705969 0.395918 0.069212
Si Si4 0.792991 0.579580 0.170327
Si Si5 0.495407 0.582729 0.022953
Si Si6 0.863873 0.918058 0.026340
Si Si7 0.667859 0.085919 0.124402
Si Si8 0.213640 0.426127 0.325140
O O1 0.010649 0.500000 0.750000
O O2 0.103429 0.413895 0.831825
O O3 0.000000 0.250000 0.817113
O O4 0.001375 0.480484 0.902154
O O5 0.646653 0.531308 0.467842
O O6 0.647732 0.452377 0.618201
O O7 0.551345 0.443797 0.534864
O O8 0.646241 0.255461 0.509046
O O9 0.734659 0.515318 0.126715
O O10 0.688606 0.254915 0.119220
O O11 0.750000 0.348848 0.000000
O O12 0.805464 0.500000 0.250000
O O13 0.780959 0.751235 0.185420
O O14 0.500000 0.750000 0.054384
O O15 0.436140 0.550891 0.970725
O O16 0.830410 0.968143 0.104139
O O17 0.834802 0.014705 0.959618
O O18 0.718531 0.992815 0.169330
O O19 0.182945 0.500000 0.250000
#
# Coordination Sequence:
#
# PCOD8164858 Si02
#       8
#     8   8   8   8   8   8   8   8
#     4  11  23  38  54  77 108 140 174 216 263 310
#     4   9  18  35  56  78 104 139 179 216 259 315
#     4  10  19  32  53  79 107 137 172 215 264 316
#     4  10  21  35  52  77 109 142 175 218 269 315
#     4   9  18  36  59  79 101 136 179 216 257 312
#     4   9  19  34  56  79 104 138 175 218 263 313
#     4  11  21  35  56  80 105 137 177 216 263 318
#     4  11  21  35  53  77 109 139 174 219 267 317
#
# _framework density 18.560495
#
# number of rings (size 3 to 8) (size 9 to 14) (size 15 to 20)
#    0.000    2.000    0.000    4.125    0.000    3.000 
#    0.000    6.875    0.000    0.000    0.000    0.000 
#    0.000    0.000    0.000    0.000    0.000    0.000 
#
# Total GULP energy -396791.099586 kJ/mol
# GULP energy per Si atom -12399.721862 kJ/mol
# Density = 1.851825 g / cm^3
# Si number density = 18.560495 Si / 1000 Ang^3
#
#
#
# Elastic Constant Matrix: (Units=GPa)
#
#
# Indices 1 2 3 4 5 6 
#
# 1 93.5552 40.8722 52.7931 0.0000 0.0000 0.0000
# 2 40.8722 108.7717 57.9366 0.0000 0.0000 0.0000
# 3 52.7931 57.9366 111.1757 0.0000 0.0000 0.0000
# 4 0.0000 0.0000 0.0000 35.0621 0.0000 0.0000
# 5 0.0000 0.0000 0.0000 0.0000 17.2979 0.0000
# 6 0.0000 0.0000 0.0000 0.0000 0.0000 27.7139
#
#
#
# Elastic Compliance Matrix: (Units=1/GPa)
#
#
# Indices 1 2 3 4 5 6 
#
# 1 0.015103 -0.002568 -0.005833 0.000000 0.000000 0.000000
# 2 -0.002568 0.013163 -0.005640 0.000000 0.000000 0.000000
# 3 -0.005833 -0.005640 0.014704 0.000000 0.000000 0.000000
# 4 0.000000 0.000000 0.000000 0.028521 0.000000 0.000000
# 5 0.000000 0.000000 0.000000 0.000000 0.057810 0.000000
# 6 0.000000 0.000000 0.000000 0.000000 0.000000 0.036083
#
#
# Mechanical properties :
#
#
# Convention : Reuss Voigt Hill
#
# Bulk Modulus (GPa) = 67.17466 68.52293 67.84880
# Shear Modulus (GPa) = 25.19805 26.80816 26.00310
#
# Velocity S-wave (km/s) = 3.68858 3.80461 3.74704
# Velocity P-wave (km/s) = 7.37643 7.50326 7.44011
#
# Compressibility (1/GPa) = 0.01488657
#
# Stress axis : x y z
#
# Youngs Moduli (GPa) = 66.21416 75.97300 68.00861
#
# Poissons Ratio (x) = 0.19508 0.39673
# Poissons Ratio (y) = 0.17002 0.38357
# Poissons Ratio (z) = 0.38626 0.42849
#
# Static dielectric constant tensor:
#      x y z
#    x 3.474500 0.000000 0.000000 
#    y 0.000000 3.478000 0.000000 
#    z 0.000000 0.000000 3.452140 
# 
# 
# High freq. dielectric constant tensor:
#      x y z
#    x 1.720150 0.000000 0.000000 
#    y 0.000000 1.729960 0.000000 
#    z 0.000000 0.000000 1.715520 
# 
# From -- ./inp_files/15428.got.cif
#   From: 2010.03.12/outbox.cif.g09.slc.cpg/sg24_8_cif.got.tgz:15428.got - 2010.04.14 03:06:53.
