data_PCOD8164987
_publ_section_title
;
Structure prediction by ZEFSAII (Michael W. Deem and Ramdas Pophale) SiO2 
 PCOD8164987
Probable space group: I 21 21 21
;
_chemical_formula_sum "Si O2"
_cell_formula_units_Z 56
_cell_length_a 19.497671
_cell_length_b 14.969260
_cell_length_c 8.571816
_cell_angle_alpha 90.000000
_cell_angle_beta 90.000000
_cell_angle_gamma 90.000000
_cell_volume 2501.819134
_symmetry_space_group_name_H-M "I 21 21 21"
_symmetry_group_IT_number 24
_symmetry_cell_setting 'orthorhombic'
loop_
_space_group_symop_operation_xyz
x,y,z
-x,1/2-y,z
x,-y,1/2-z
1/2-x,y,-z
1/2+x,1/2+y,1/2+z
1/2-x,-y,1/2+z
1/2+x,1/2-y,-z
-x,1/2+y,1/2-z
loop_
_atom_site_type_symbol
_atom_site_label
_atom_site_fract_x
_atom_site_fract_y
_atom_site_fract_z
Si Si1 0.407942 0.349455 0.844969
Si Si2 0.982366 0.036220 0.900876
Si Si3 0.373442 0.092894 0.176626
Si Si4 0.855705 0.341075 0.153688
Si Si5 0.022967 0.913855 0.156316
Si Si6 0.724962 0.725160 0.177119
Si Si7 0.759584 0.905529 0.315519
O O1 0.392353 0.249797 0.903260
O O2 0.465139 0.341689 0.707583
O O3 0.339623 0.392970 0.772244
O O4 0.431894 0.406886 0.993295
O O5 0.044062 0.098212 0.836760
O O6 0.940472 0.000000 0.750000
O O7 0.017505 0.946691 0.978275
O O8 0.346156 0.173421 0.287746
O O9 0.347393 0.000000 0.250000
O O10 0.346772 0.097184 0.997672
O O11 0.900859 0.385603 0.291840
O O12 0.780615 0.324197 0.217059
O O13 0.998066 0.000000 0.250000
O O14 0.715979 0.827981 0.230233
O O15 0.750000 0.720438 0.000000
O O16 0.750000 0.898827 0.500000
O O17 0.733469 0.000000 0.250000
#
# Coordination Sequence:
#
# PCOD8164987 Si02
#       7
#     8   8   8   8   8   8   8
#     4  10  21  41  68  97 130 176 223 277 344 416
#     4  10  22  39  66  97 137 171 222 280 336 410
#     4  11  24  42  64  95 138 180 228 281 334 399
#     4  11  22  41  69  91 133 180 228 279 339 403
#     4  10  19  36  64  91 125 170 220 266 332 405
#     4  11  26  42  64 100 137 182 239 282 339 418
#     4  11  23  44  72  99 137 179 226 292 355 415
#
# _framework density 22.383714000000001
#
# number of rings (size 3 to 8) (size 9 to 14) (size 15 to 20)
#    0.000    1.429    2.857    4.286    4.000    2.286 
#    0.000    7.143    6.286    0.000    0.000    0.000 
#    0.000    0.000    0.000    0.000    0.000    0.000 
#
# Total GULP energy -347076.863416 kJ/mol
# GULP energy per Si atom -12395.602265 kJ/mol
# Density = 2.233277 g / cm^3
# Si number density = 22.383714 Si / 1000 Ang^3
#
#
#
# Elastic Constant Matrix: (Units=GPa)
#
#
# Indices 1 2 3 4 5 6 
#
# 1 53.7718 29.9111 -5.3573 0.0000 0.0000 0.0000
# 2 29.9111 121.4943 38.4167 0.0000 0.0000 0.0000
# 3 -5.3573 38.4167 97.2022 0.0000 0.0000 0.0000
# 4 0.0000 0.0000 0.0000 40.1679 0.0000 0.0000
# 5 0.0000 0.0000 0.0000 0.0000 21.0132 0.0000
# 6 0.0000 0.0000 0.0000 0.0000 0.0000 26.4305
#
#
#
# Elastic Compliance Matrix: (Units=1/GPa)
#
#
# Indices 1 2 3 4 5 6 
#
# 1 0.022817 -0.006874 0.003974 0.000000 0.000000 0.000000
# 2 -0.006874 0.011477 -0.004915 0.000000 0.000000 0.000000
# 3 0.003974 -0.004915 0.012449 0.000000 0.000000 0.000000
# 4 0.000000 0.000000 0.000000 0.024896 0.000000 0.000000
# 5 0.000000 0.000000 0.000000 0.000000 0.047589 0.000000
# 6 0.000000 0.000000 0.000000 0.000000 0.000000 0.037835
#
#
# Mechanical properties :
#
#
# Convention : Reuss Voigt Hill
#
# Bulk Modulus (GPa) = 32.13969 44.26769 38.20369
# Shear Modulus (GPa) = 27.31285 31.48884 29.40084
#
# Velocity S-wave (km/s) = 3.49694 3.75477 3.62815
# Velocity P-wave (km/s) = 5.54026 6.21429 5.88693
#
# Compressibility (1/GPa) = 0.03111418
#
# Stress axis : x y z
#
# Youngs Moduli (GPa) = 43.82729 87.12841 80.32513
#
# Poissons Ratio (x) = 0.59893 -0.31924
# Poissons Ratio (y) = 0.30127 0.39480
# Poissons Ratio (z) = -0.17418 0.42823
#
# Static dielectric constant tensor:
#      x y z
#    x 3.912430 0.000000 0.000000 
#    y 0.000000 4.299520 0.000000 
#    z 0.000000 0.000000 4.421000 
# 
# 
# High freq. dielectric constant tensor:
#      x y z
#    x 1.872220 0.000000 0.000000 
#    y 0.000000 1.880030 0.000000 
#    z 0.000000 0.000000 1.883770 
# 
# From -- ./inp_files/15229.got.cif
#   From: 2010.03.12/outbox.cif.g09.slc.cpg/sg24_8_cif.got.tgz:15229.got - 2010.04.14 03:06:53.
