data_PCOD8164486
_publ_section_title
;
Structure prediction by ZEFSAII (Michael W. Deem and Ramdas Pophale) SiO2 
 PCOD8164486
Probable space group: I 2 2 2
;
_chemical_formula_sum "Si O2"
_cell_formula_units_Z 44
_cell_length_a 19.578982
_cell_length_b 14.037097
_cell_length_c 7.238987
_cell_angle_alpha 90.000000
_cell_angle_beta 90.000000
_cell_angle_gamma 90.000000
_cell_volume 1989.505778
_symmetry_space_group_name_H-M "I 2 2 2"
_symmetry_group_IT_number 23
_symmetry_cell_setting 'orthorhombic'
loop_
_space_group_symop_operation_xyz
x,y,z
-x,-y,z
x,-y,-z
-x,y,-z
1/2+x,1/2+y,1/2+z
1/2-x,1/2-y,1/2+z
1/2+x,1/2-y,1/2-z
1/2-x,1/2+y,1/2-z
loop_
_atom_site_type_symbol
_atom_site_label
_atom_site_fract_x
_atom_site_fract_y
_atom_site_fract_z
Si Si1 0.522781 0.897922 0.710569
Si Si2 0.290745 0.676949 0.702087
Si Si3 0.000000 0.247140 0.500000
Si Si4 0.173623 0.450367 0.193968
Si Si5 0.242459 0.123400 0.205373
Si Si6 0.380379 0.605662 0.006379
O O1 0.500000 0.882013 0.500000
O O2 0.485039 0.814918 0.824913
O O3 0.603638 0.899662 0.754372
O O4 0.500000 0.000000 0.784456
O O5 0.225487 0.637297 0.813728
O O6 0.289477 0.790612 0.722470
O O7 0.291989 0.645593 0.490254
O O8 0.357430 0.634567 0.800040
O O9 0.062893 0.181634 0.435877
O O10 0.206878 0.533036 0.322711
O O11 0.160458 0.500000 0.000000
O O12 0.182616 0.103408 0.351284
O O13 0.412391 0.500000 0.000000
#
# Coordination Sequence:
#
# PCOD8164486 Si02
#       6
#     8   8   4   8   8   8
#     4  11  26  47  70 105 146 186 233 291 356 434
#     4  12  24  41  69 104 138 180 229 291 359 424
#     4  12  30  46  74  98 138 204 244 284 356 446
#     4  12  22  44  71 103 144 177 224 296 354 419
#     4  12  24  41  70 106 138 178 229 292 361 422
#     4  12  26  49  68 103 142 186 246 298 355 418
#
# _framework density 22.116046999999998
#
# number of rings (size 3 to 8) (size 9 to 14) (size 15 to 20)
#    0.000    0.182    7.273    2.182    2.545    4.364 
#    0.000    0.000    0.000    3.273    0.000    0.000 
#    0.000    0.000    0.000    0.000    0.000    0.000 
#
# Total GULP energy -272769.679453 kJ/mol
# GULP energy per Si atom -12398.621793 kJ/mol
# Density = 2.206571 g / cm^3
# Si number density = 22.116047 Si / 1000 Ang^3
#
#
#
# Elastic Constant Matrix: (Units=GPa)
#
#
# Indices 1 2 3 4 5 6 
#
# 1 78.1844 35.7685 12.2927 0.0000 0.0000 0.0000
# 2 35.7685 138.6596 32.5195 0.0000 0.0000 0.0000
# 3 12.2927 32.5195 111.4849 0.0000 0.0000 0.0000
# 4 0.0000 0.0000 0.0000 16.9955 0.0000 0.0000
# 5 0.0000 0.0000 0.0000 0.0000 17.9896 0.0000
# 6 0.0000 0.0000 0.0000 0.0000 0.0000 41.7528
#
#
#
# Elastic Compliance Matrix: (Units=1/GPa)
#
#
# Indices 1 2 3 4 5 6 
#
# 1 0.014533 -0.003621 -0.000546 0.000000 0.000000 0.000000
# 2 -0.003621 0.008644 -0.002122 0.000000 0.000000 0.000000
# 3 -0.000546 -0.002122 0.009649 0.000000 0.000000 0.000000
# 4 0.000000 0.000000 0.000000 0.058839 0.000000 0.000000
# 5 0.000000 0.000000 0.000000 0.000000 0.055588 0.000000
# 6 0.000000 0.000000 0.000000 0.000000 0.000000 0.023951
#
#
# Mechanical properties :
#
#
# Convention : Reuss Voigt Hill
#
# Bulk Modulus (GPa) = 49.38959 54.38779 51.88869
# Shear Modulus (GPa) = 26.24265 31.86413 29.05339
#
# Velocity S-wave (km/s) = 3.44843 3.79987 3.62840
# Velocity P-wave (km/s) = 6.18353 6.62551 6.40833
#
# Compressibility (1/GPa) = 0.02024718
#
# Stress axis : x y z
#
# Youngs Moduli (GPa) = 68.81084 115.69292 103.63715
#
# Poissons Ratio (x) = 0.41889 0.05661
# Poissons Ratio (y) = 0.24914 0.21992
# Poissons Ratio (z) = 0.03759 0.24551
#
# Static dielectric constant tensor:
#      x y z
#    x 3.859440 0.000000 0.000000 
#    y 0.000000 4.337790 0.000000 
#    z 0.000000 0.000000 3.966180 
# 
# 
# High freq. dielectric constant tensor:
#      x y z
#    x 1.852060 0.000000 0.000000 
#    y 0.000000 1.892720 0.000000 
#    z 0.000000 0.000000 1.873440 
# 
# From -- ./inp_files/10966.got.cif
#   From: 2010.03.12/outbox.cif.g09.slc.cpg/sg23_6_cif.got.tgz:10966.got - 2010.04.14 02:50:06.
