data_PCOD8164091
_publ_section_title
;
Structure prediction by ZEFSAII (Michael W. Deem and Ramdas Pophale) SiO2 
 PCOD8164091
Probable space group: I 2 2 2
;
_chemical_formula_sum "Si O2"
_cell_formula_units_Z 28
_cell_length_a 5.209604
_cell_length_b 28.289939
_cell_length_c 7.337969
_cell_angle_alpha 90.000000
_cell_angle_beta 90.000000
_cell_angle_gamma 90.000000
_cell_volume 1081.465317
_symmetry_space_group_name_H-M "I 2 2 2"
_symmetry_group_IT_number 23
_symmetry_cell_setting 'orthorhombic'
loop_
_space_group_symop_operation_xyz
x,y,z
-x,-y,z
x,-y,-z
-x,y,-z
1/2+x,1/2+y,1/2+z
1/2-x,1/2-y,1/2+z
1/2+x,1/2-y,1/2-z
1/2-x,1/2+y,1/2-z
loop_
_atom_site_type_symbol
_atom_site_label
_atom_site_fract_x
_atom_site_fract_y
_atom_site_fract_z
Si Si1 0.491559 0.891106 0.784369
Si Si2 0.296148 0.311717 0.138957
Si Si3 0.500000 0.726318 0.500000
Si Si4 0.990699 0.947545 0.785188
O O1 0.535260 0.842441 0.670226
O O2 0.228709 0.915346 0.718743
O O3 0.725662 0.924454 0.723102
O O4 0.500000 0.880941 0.000000
O O5 0.425631 0.308671 0.337589
O O6 0.500000 0.335411 0.000000
O O7 0.233013 0.259505 0.065383
O O8 0.000000 0.000000 0.698130
O O9 0.000000 0.952297 0.000000
#
# Coordination Sequence:
#
# PCOD8164091 Si02
#       4
#     8   8   4   8
#     4  10  23  37  69 106 147 191 245 309 370 446
#     4  12  28  46  72 104 150 199 259 317 384 449
#     4  12  28  48  70 102 144 204 256 314 382 456
#     4   9  18  37  64 104 149 189 238 300 371 450
#
# _framework density 25.890799000000001
#
# number of rings (size 3 to 8) (size 9 to 14) (size 15 to 20)
#    0.000    1.429    2.857    0.857   14.000    3.429 
#    0.000    0.000    0.000    0.857    0.000    0.000 
#    0.000    0.000    0.000    0.000    0.000    0.000 
#
# Total GULP energy -173633.417060 kJ/mol
# GULP energy per Si atom -12402.386933 kJ/mol
# Density = 2.583187 g / cm^3
# Si number density = 25.890799 Si / 1000 Ang^3
#
#
#
# Elastic Constant Matrix: (Units=GPa)
#
#
# Indices 1 2 3 4 5 6 
#
# 1 151.0278 44.7291 36.1746 -0.0002 0.0000 0.0000
# 2 44.7291 121.9170 34.2798 -0.0001 0.0002 -0.0001
# 3 36.1746 34.2798 122.8484 -0.0024 0.0006 -0.0005
# 4 -0.0002 -0.0001 -0.0024 -5.9874 -0.0001 0.0000
# 5 0.0000 0.0002 0.0006 -0.0001 24.0218 0.0000
# 6 0.0000 -0.0001 -0.0005 0.0000 0.0000 47.4109
#
#
#
# Elastic Compliance Matrix: (Units=1/GPa)
#
#
# Indices 1 2 3 4 5 6 
#
# 1 0.007710 -0.002377 -0.001607 0.000000 0.000000 0.000000
# 2 -0.002377 0.009633 -0.001988 0.000001 0.000000 0.000000
# 3 -0.001607 -0.001988 0.009168 -0.000004 0.000000 0.000000
# 4 0.000000 0.000001 -0.000004 -0.167016 -0.000001 0.000000
# 5 0.000000 0.000000 0.000000 -0.000001 0.041629 0.000000
# 6 0.000000 0.000000 0.000000 0.000000 0.000000 0.021092
#
#
# Mechanical properties :
#
#
# Convention : Reuss Voigt Hill
#
# Bulk Modulus (GPa) = 68.64687 69.57335 69.11011
# Shear Modulus (GPa) = -81.98968 31.79637 -25.09666
#
# Velocity S-wave (km/s) = -5.63349 3.50822 -3.11678
# Velocity P-wave (km/s) = 3.96780 6.58334 3.71463
#
# Compressibility (1/GPa) = 0.01456731
#
# Stress axis : x y z
#
# Youngs Moduli (GPa) = 129.69866 103.80609 109.07319
#
# Poissons Ratio (x) = 0.24673 0.17530
# Poissons Ratio (y) = 0.30827 0.21686
# Poissons Ratio (z) = 0.20845 0.20639
#
# Static dielectric constant tensor:
#      x y z
#    x 4.709060 0.000000 0.000000 
#    y 0.000000 4.665980 0.000000 
#    z 0.000000 0.000000 4.548100 
# 
# 
# High freq. dielectric constant tensor:
#      x y z
#    x 2.041480 0.000000 0.000000 
#    y 0.000000 2.031370 0.000000 
#    z 0.000000 0.000000 2.037950 
# 
# From -- ./inp_files/5697.got.cif
#   From: 2010.03.12/outbox.cif.g09.slc.cpg/sg23_3_cif.got.tgz:5697.got - 2010.04.14 02:50:06.
