data_PCOD8164466
_publ_section_title
;
Structure prediction by ZEFSAII (Michael W. Deem and Ramdas Pophale) SiO2 
 PCOD8164466
Probable space group: I 2 2 2
;
_chemical_formula_sum "Si O2"
_cell_formula_units_Z 48
_cell_length_a 9.798460
_cell_length_b 14.162547
_cell_length_c 16.676141
_cell_angle_alpha 90.000000
_cell_angle_beta 90.000000
_cell_angle_gamma 90.000000
_cell_volume 2314.167269
_symmetry_space_group_name_H-M "I 2 2 2"
_symmetry_group_IT_number 23
_symmetry_cell_setting 'orthorhombic'
loop_
_space_group_symop_operation_xyz
x,y,z
-x,-y,z
x,-y,-z
-x,y,-z
1/2+x,1/2+y,1/2+z
1/2-x,1/2-y,1/2+z
1/2+x,1/2-y,1/2-z
1/2-x,1/2+y,1/2-z
loop_
_atom_site_type_symbol
_atom_site_label
_atom_site_fract_x
_atom_site_fract_y
_atom_site_fract_z
Si Si1 0.027333 0.737507 0.914225
Si Si2 0.749432 0.833106 0.692683
Si Si3 0.509362 0.388311 0.093883
Si Si4 0.869953 0.948291 0.084176
Si Si5 0.223453 0.320738 0.819072
Si Si6 0.344614 0.010565 0.215673
O O1 0.129212 0.664705 0.871943
O O2 0.093656 0.839440 0.928934
O O3 0.885860 0.743700 0.865557
O O4 0.000000 0.690298 0.000000
O O5 0.732678 0.734666 0.739461
O O6 0.892132 0.838958 0.646082
O O7 0.727947 0.914890 0.757101
O O8 0.500000 0.500000 0.108479
O O9 0.650103 0.344120 0.123985
O O10 0.500000 0.363465 0.000000
O O11 0.737759 0.951874 0.139455
O O12 0.000000 0.000000 0.125561
O O13 0.838331 0.000000 0.000000
O O14 0.157363 0.418693 0.790802
O O15 0.500000 0.000000 0.187128
#
# Coordination Sequence:
#
# PCOD8164466 Si02
#       6
#     8   8   8   8   8   8
#     4  12  24  44  69 102 140 180 232 284 354 420
#     4  12  25  43  70 101 137 185 233 293 345 423
#     4  11  25  46  70 100 138 185 237 292 357 416
#     4  11  24  46  73 101 136 188 236 289 352 417
#     4  12  25  44  70 102 141 182 235 294 340 424
#     4  12  26  45  67 106 144 182 237 289 356 416
#
# _framework density 20.741803999999998
#
# number of rings (size 3 to 8) (size 9 to 14) (size 15 to 20)
#    0.000    0.333    6.667    3.000    2.333    0.333 
#    0.000    0.833    0.000    0.000    0.000    0.000 
#    0.000    0.000    0.000    0.000    0.000    0.000 
#
# Total GULP energy -297703.284627 kJ/mol
# GULP energy per Si atom -12404.303526 kJ/mol
# Density = 2.069459 g / cm^3
# Si number density = 20.741804 Si / 1000 Ang^3
#
#
#
# Elastic Constant Matrix: (Units=GPa)
#
#
# Indices 1 2 3 4 5 6 
#
# 1 155.5813 33.9671 74.7205 0.0000 0.0000 0.0000
# 2 33.9671 78.4372 31.1696 0.0000 0.0000 0.0000
# 3 74.7205 31.1696 119.1624 0.0000 0.0000 0.0000
# 4 0.0000 0.0000 0.0000 25.3711 0.0000 0.0000
# 5 0.0000 0.0000 0.0000 0.0000 41.1165 0.0000
# 6 0.0000 0.0000 0.0000 0.0000 0.0000 29.1527
#
#
#
# Elastic Compliance Matrix: (Units=1/GPa)
#
#
# Indices 1 2 3 4 5 6 
#
# 1 0.009455 -0.001940 -0.005421 0.000000 0.000000 0.000000
# 2 -0.001940 0.014626 -0.002609 0.000000 0.000000 0.000000
# 3 -0.005421 -0.002609 0.012474 0.000000 0.000000 0.000000
# 4 0.000000 0.000000 0.000000 0.039415 0.000000 0.000000
# 5 0.000000 0.000000 0.000000 0.000000 0.024321 0.000000
# 6 0.000000 0.000000 0.000000 0.000000 0.000000 0.034302
#
#
# Mechanical properties :
#
#
# Convention : Reuss Voigt Hill
#
# Bulk Modulus (GPa) = 60.19152 70.32168 65.25660
# Shear Modulus (GPa) = 31.23611 33.34964 32.29288
#
# Velocity S-wave (km/s) = 3.88487 4.01415 3.95004
# Velocity P-wave (km/s) = 7.01465 7.44724 7.23418
#
# Compressibility (1/GPa) = 0.01661363
#
# Stress axis : x y z
#
# Youngs Moduli (GPa) = 105.76863 68.37100 80.16906
#
# Poissons Ratio (x) = 0.13265 0.43460
# Poissons Ratio (y) = 0.20520 0.20918
# Poissons Ratio (z) = 0.57337 0.17840
#
# Static dielectric constant tensor:
#      x y z
#    x 3.816440 0.000000 0.000000 
#    y 0.000000 3.705710 0.000000 
#    z 0.000000 0.000000 3.826790 
# 
# 
# High freq. dielectric constant tensor:
#      x y z
#    x 1.821810 0.000000 0.000000 
#    y 0.000000 1.815230 0.000000 
#    z 0.000000 0.000000 1.820850 
# 
# From -- ./inp_files/9924.got.cif
#   From: 2010.03.12/outbox.cif.g09.slc.cpg/sg23_5_cif.got.tgz:9924.got - 2010.04.14 02:50:06.
