data_PCOD8164641
_publ_section_title
;
Structure prediction by ZEFSAII (Michael W. Deem and Ramdas Pophale) SiO2 
 PCOD8164641
Probable space group: I 21 21 21
;
_chemical_formula_sum "Si O2"
_cell_formula_units_Z 64
_cell_length_a 22.048590
_cell_length_b 8.565828
_cell_length_c 19.069349
_cell_angle_alpha 90.000000
_cell_angle_beta 90.000000
_cell_angle_gamma 90.000000
_cell_volume 3601.521721
_symmetry_space_group_name_H-M "I 21 21 21"
_symmetry_group_IT_number 24
_symmetry_cell_setting 'orthorhombic'
loop_
_space_group_symop_operation_xyz
x,y,z
-x,1/2-y,z
x,-y,1/2-z
1/2-x,y,-z
1/2+x,1/2+y,1/2+z
1/2-x,-y,1/2+z
1/2+x,1/2-y,-z
-x,1/2+y,1/2-z
loop_
_atom_site_type_symbol
_atom_site_label
_atom_site_fract_x
_atom_site_fract_y
_atom_site_fract_z
Si Si1 0.521375 0.075838 0.463397
Si Si2 0.661137 0.005247 0.475722
Si Si3 0.138879 0.274395 0.858965
Si Si4 0.240577 0.942015 0.674966
Si Si5 0.902430 0.569014 0.522305
Si Si6 0.198826 0.235225 0.054888
Si Si7 0.299600 0.156147 0.445290
Si Si8 0.473606 0.419422 0.180880
O O1 0.500000 0.250000 0.479252
O O2 0.589332 0.036152 0.488522
O O3 0.471276 0.966917 0.502660
O O4 0.514445 0.041247 0.381054
O O5 0.676522 0.877378 0.415251
O O6 0.690215 0.925268 0.546256
O O7 0.696287 0.157813 0.450682
O O8 0.181654 0.166279 0.811235
O O9 0.094148 0.164648 0.904862
O O10 0.099015 0.389688 0.811042
O O11 0.286795 0.827808 0.633029
O O12 0.266814 0.000000 0.750000
O O13 0.222809 0.096114 0.630688
O O14 0.867353 0.665632 0.463180
O O15 0.866035 0.408451 0.536519
O O16 0.250000 0.172749 0.000000
O O17 0.250000 0.094229 0.500000
O O18 0.500000 0.250000 0.168198
O O19 0.500306 0.500000 0.250000
#
# Coordination Sequence:
#
# PCOD8164641 Si02
#       8
#     8   8   8   8   8   8   8   8
#     4  11  21  34  49  80 108 138 186 235 278 317
#     4  10  21  31  60  78 111 142 183 242 272 326
#     4   9  20  35  48  71  98 147 181 223 267 311
#     4  11  22  36  55  79 112 145 185 231 283 347
#     4  10  17  34  56  71 110 132 186 229 262 328
#     4  11  18  37  57  79 104 148 189 229 284 335
#     4  11  19  34  56  84 103 145 185 221 280 326
#     4  11  22  34  46  65 100 150 191 222 265 317
#
# _framework density 17.770267
#
# number of rings (size 3 to 8) (size 9 to 14) (size 15 to 20)
#    0.000    1.500    7.500    0.750    0.000    2.500 
#    0.000    0.000    0.000    0.000    0.000    0.000 
#   11.250    0.000    0.000    0.000    0.000    0.000 
#
# Total GULP energy -396437.481921 kJ/mol
# GULP energy per Si atom -12388.671310 kJ/mol
# Density = 1.772982 g / cm^3
# Si number density = 17.770267 Si / 1000 Ang^3
#
#
#
# Elastic Constant Matrix: (Units=GPa)
#
#
# Indices 1 2 3 4 5 6 
#
# 1 67.5100 19.1440 26.7033 0.0000 0.0000 0.0000
# 2 19.1440 109.3379 26.6068 0.0000 0.0000 0.0000
# 3 26.7033 26.6068 65.7084 0.0000 0.0000 0.0000
# 4 0.0000 0.0000 0.0000 22.1125 0.0000 0.0000
# 5 0.0000 0.0000 0.0000 0.0000 15.7654 0.0000
# 6 0.0000 0.0000 0.0000 0.0000 0.0000 17.9444
#
#
#
# Elastic Compliance Matrix: (Units=1/GPa)
#
#
# Indices 1 2 3 4 5 6 
#
# 1 0.017872 -0.001511 -0.006651 0.000000 0.000000 0.000000
# 2 -0.001511 0.010273 -0.003546 0.000000 0.000000 0.000000
# 3 -0.006651 -0.003546 0.019358 0.000000 0.000000 0.000000
# 4 0.000000 0.000000 0.000000 0.045223 0.000000 0.000000
# 5 0.000000 0.000000 0.000000 0.000000 0.063430 0.000000
# 6 0.000000 0.000000 0.000000 0.000000 0.000000 0.055728
#
#
# Mechanical properties :
#
#
# Convention : Reuss Voigt Hill
#
# Bulk Modulus (GPa) = 41.51611 43.05160 42.28385
# Shear Modulus (GPa) = 20.54835 22.50462 21.52648
#
# Velocity S-wave (km/s) = 3.40418 3.56254 3.48426
# Velocity P-wave (km/s) = 6.23415 6.41885 6.32717
#
# Compressibility (1/GPa) = 0.02408704
#
# Stress axis : x y z
#
# Youngs Moduli (GPa) = 55.95383 97.33915 51.65920
#
# Poissons Ratio (x) = 0.14704 0.34360
# Poissons Ratio (y) = 0.08453 0.18318
# Poissons Ratio (z) = 0.37216 0.34516
#
# Static dielectric constant tensor:
#      x y z
#    x 3.457540 0.000000 0.000000 
#    y 0.000000 3.534470 0.000000 
#    z 0.000000 0.000000 2.828710 
# 
# 
# High freq. dielectric constant tensor:
#      x y z
#    x 1.689430 0.000000 0.000000 
#    y 0.000000 1.709590 0.000000 
#    z 0.000000 0.000000 1.622440 
# 
# From -- ./inp_files/34206.got.cif
#   From: 2010.03.12/outbox.cif.g09.slc.cpg/sg24_18_cif.got.tgz:34206.got - 2010.04.14 03:06:53.
