data_PCOD8164464
_publ_section_title
;
Structure prediction by ZEFSAII (Michael W. Deem and Ramdas Pophale) SiO2 
 PCOD8164464
Probable space group: I 2 2 2
;
_chemical_formula_sum "Si O2"
_cell_formula_units_Z 54
_cell_length_a 11.427201
_cell_length_b 18.880287
_cell_length_c 11.061238
_cell_angle_alpha 90.000000
_cell_angle_beta 90.000000
_cell_angle_gamma 90.000000
_cell_volume 2386.449206
_symmetry_space_group_name_H-M "I 2 2 2"
_symmetry_group_IT_number 23
_symmetry_cell_setting 'orthorhombic'
loop_
_space_group_symop_operation_xyz
x,y,z
-x,-y,z
x,-y,-z
-x,y,-z
1/2+x,1/2+y,1/2+z
1/2-x,1/2-y,1/2+z
1/2+x,1/2-y,1/2-z
1/2-x,1/2+y,1/2-z
loop_
_atom_site_type_symbol
_atom_site_label
_atom_site_fract_x
_atom_site_fract_y
_atom_site_fract_z
Si Si1 0.569246 0.849221 0.228423
Si Si2 0.853186 0.902216 0.833988
Si Si3 0.000000 0.000000 0.000000
Si Si4 0.000000 0.500000 0.799796
Si Si5 0.048942 0.202490 0.236740
Si Si6 0.762504 0.827890 0.422620
Si Si7 0.756290 0.180845 0.963235
Si Si8 0.737802 0.050478 0.401301
O O1 0.517010 0.928862 0.217265
O O2 0.472056 0.788154 0.256568
O O3 0.663705 0.856893 0.333950
O O4 0.633370 0.826527 0.105022
O O5 0.796546 0.949935 0.729680
O O6 0.924034 0.835471 0.778684
O O7 0.757611 0.878881 0.933198
O O8 0.933097 0.953045 0.907198
O O9 0.107638 0.519528 0.886965
O O10 0.109853 0.172371 0.358590
O O11 0.132168 0.180912 0.125423
O O12 0.732578 0.749590 0.457384
O O13 0.752270 0.870938 0.546852
O O14 0.802513 0.000000 0.500000
#
# Coordination Sequence:
#
# PCOD8164464 Si02
#       8
#     8   8   2   4   8   8   8   8
#     4  11  25  43  75 108 145 190 245 307 368 453
#     4  12  27  46  74 103 143 198 244 309 371 443
#     4  12  28  48  74  94 148 190 244 298 376 450
#     4  12  27  48  75 108 148 199 235 296 404 452
#     4  11  24  48  74 106 141 199 250 304 379 431
#     4  11  25  44  74 104 146 185 249 314 352 446
#     4  11  24  46  71 107 141 189 252 305 363 444
#     4  12  28  47  71 108 149 189 245 303 372 458
#
# _framework density 22.627759000000001
#
# number of rings (size 3 to 8) (size 9 to 14) (size 15 to 20)
#    0.000    0.593    4.444    2.000    8.296    3.556 
#    0.000    0.741    0.000    0.000    0.000    0.000 
#    0.000    0.000    0.000    0.000    0.000    0.000 
#
# Total GULP energy -334659.609680 kJ/mol
# GULP energy per Si atom -12394.800359 kJ/mol
# Density = 2.257626 g / cm^3
# Si number density = 22.627759 Si / 1000 Ang^3
#
#
#
# Elastic Constant Matrix: (Units=GPa)
#
#
# Indices 1 2 3 4 5 6 
#
# 1 70.7480 36.7558 51.2266 0.0001 0.0000 0.0000
# 2 36.7558 132.6217 44.0379 0.0006 0.0001 0.0001
# 3 51.2266 44.0379 130.2069 0.0013 0.0003 0.0001
# 4 0.0001 0.0006 0.0013 43.2872 0.0002 0.0002
# 5 0.0000 0.0001 0.0003 0.0002 26.0876 0.0000
# 6 0.0000 0.0001 0.0001 0.0002 0.0000 29.6349
#
#
#
# Elastic Compliance Matrix: (Units=1/GPa)
#
#
# Indices 1 2 3 4 5 6 
#
# 1 0.021103 -0.003483 -0.007124 0.000000 0.000000 0.000000
# 2 -0.003483 0.009069 -0.001697 0.000000 0.000000 0.000000
# 3 -0.007124 -0.001697 0.011057 0.000000 0.000000 0.000000
# 4 0.000000 0.000000 0.000000 0.023102 0.000000 0.000000
# 5 0.000000 0.000000 0.000000 0.000000 0.038332 0.000000
# 6 0.000000 0.000000 0.000000 0.000000 0.000000 0.033744
#
#
# Mechanical properties :
#
#
# Convention : Reuss Voigt Hill
#
# Bulk Modulus (GPa) = 60.16800 66.40190 63.28495
# Shear Modulus (GPa) = 30.02009 33.23902 31.62956
#
# Velocity S-wave (km/s) = 3.64633 3.83684 3.74280
# Velocity P-wave (km/s) = 6.66151 7.00268 6.83422
#
# Compressibility (1/GPa) = 0.01662013
#
# Stress axis : x y z
#
# Youngs Moduli (GPa) = 47.38743 110.26550 90.44101
#
# Poissons Ratio (x) = 0.38404 0.64433
# Poissons Ratio (y) = 0.16504 0.15348
# Poissons Ratio (z) = 0.33760 0.18712
#
# Static dielectric constant tensor:
#      x y z
#    x 4.046510 0.000000 0.000000 
#    y 0.000000 4.288300 0.000000 
#    z 0.000000 0.000000 4.668940 
# 
# 
# High freq. dielectric constant tensor:
#      x y z
#    x 1.880340 0.000000 0.000000 
#    y 0.000000 1.904710 0.000000 
#    z 0.000000 0.000000 1.904800 
# 
# From -- ./inp_files/15953.got.cif
#   From: 2010.03.12/outbox.cif.g09.slc.cpg/sg23_8_cif.got.tgz:15953.got - 2010.04.14 02:50:06.
