data_PCOD8164764
_publ_section_title
;
Structure prediction by ZEFSAII (Michael W. Deem and Ramdas Pophale) SiO2 
 PCOD8164764
Probable space group: I 21 21 21
;
_chemical_formula_sum "Si O2"
_cell_formula_units_Z 64
_cell_length_a 18.868813
_cell_length_b 15.408971
_cell_length_c 11.706291
_cell_angle_alpha 90.000000
_cell_angle_beta 90.000000
_cell_angle_gamma 90.000000
_cell_volume 3403.592312
_symmetry_space_group_name_H-M "I 21 21 21"
_symmetry_group_IT_number 24
_symmetry_cell_setting 'orthorhombic'
loop_
_space_group_symop_operation_xyz
x,y,z
-x,1/2-y,z
x,-y,1/2-z
1/2-x,y,-z
1/2+x,1/2+y,1/2+z
1/2-x,-y,1/2+z
1/2+x,1/2-y,-z
-x,1/2+y,1/2-z
loop_
_atom_site_type_symbol
_atom_site_label
_atom_site_fract_x
_atom_site_fract_y
_atom_site_fract_z
Si Si1 0.824744 0.843368 0.370974
Si Si2 0.903994 0.950895 0.546193
Si Si3 0.456605 0.876853 0.812929
Si Si4 0.170981 0.318549 0.811780
Si Si5 0.394577 0.300088 0.645169
Si Si6 0.447723 0.052069 0.931967
Si Si7 0.169368 0.177705 0.982608
Si Si8 0.322723 0.375416 0.440032
O O1 0.862436 0.923863 0.431709
O O2 0.739974 0.853116 0.381009
O O3 0.846281 0.847279 0.238810
O O4 0.850465 0.753150 0.427278
O O5 0.892809 0.881709 0.648870
O O6 0.987465 0.954960 0.520300
O O7 0.873785 0.043467 0.584666
O O8 0.399721 0.800831 0.824479
O O9 0.530914 0.848649 0.865860
O O10 0.469834 0.892592 0.678738
O O11 0.425731 0.957602 0.884442
O O12 0.186550 0.322505 0.677680
O O13 0.157815 0.219232 0.855094
O O14 0.358753 0.306004 0.522545
O O15 0.382016 0.095745 0.998543
O O16 0.250000 0.145044 0.000000
O O17 0.250000 0.406486 0.500000
#
# Coordination Sequence:
#
# PCOD8164764 Si02
#       8
#     8   8   8   8   8   8   8   8
#     4  10  18  35  56  89 119 152 193 244 297 345
#     4  11  22  34  56  89 123 154 201 240 293 358
#     4  10  22  36  59  91 122 140 191 253 309 347
#     4  10  22  37  55  84 122 166 200 237 290 351
#     4  11  20  36  58  85 120 153 189 244 299 361
#     4  11  20  37  62  92 114 151 192 249 306 354
#     4   9  20  38  64  88 114 143 200 257 298 346
#     4  12  23  37  57  84 124 165 198 238 291 359
#
# _framework density 18.803661999999999
#
# number of rings (size 3 to 8) (size 9 to 14) (size 15 to 20)
#    0.000    1.500    5.000    2.250    0.000    2.500 
#    0.000    3.125    0.000    0.000    0.000    0.000 
#    0.000    0.000    0.000    0.000    0.000    0.000 
#
# Total GULP energy -396790.068364 kJ/mol
# GULP energy per Si atom -12399.689636 kJ/mol
# Density = 1.876086 g / cm^3
# Si number density = 18.803662 Si / 1000 Ang^3
#
#
#
# Elastic Constant Matrix: (Units=GPa)
#
#
# Indices 1 2 3 4 5 6 
#
# 1 81.0654 31.8722 24.4986 0.0000 0.0000 0.0000
# 2 31.8722 82.4335 26.6816 0.0000 0.0000 0.0000
# 3 24.4986 26.6816 103.7977 0.0000 0.0000 0.0000
# 4 0.0000 0.0000 0.0000 24.7621 0.0000 0.0000
# 5 0.0000 0.0000 0.0000 0.0000 30.3080 0.0000
# 6 0.0000 0.0000 0.0000 0.0000 0.0000 29.0032
#
#
#
# Elastic Compliance Matrix: (Units=1/GPa)
#
#
# Indices 1 2 3 4 5 6 
#
# 1 0.015009 -0.005079 -0.002237 0.000000 0.000000 0.000000
# 2 -0.005079 0.014951 -0.002644 0.000000 0.000000 0.000000
# 3 -0.002237 -0.002644 0.010842 0.000000 0.000000 0.000000
# 4 0.000000 0.000000 0.000000 0.040384 0.000000 0.000000
# 5 0.000000 0.000000 0.000000 0.000000 0.032995 0.000000
# 6 0.000000 0.000000 0.000000 0.000000 0.000000 0.034479
#
#
# Mechanical properties :
#
#
# Convention : Reuss Voigt Hill
#
# Bulk Modulus (GPa) = 47.89093 48.15571 48.02332
# Shear Modulus (GPa) = 28.48363 29.09760 28.79061
#
# Velocity S-wave (km/s) = 3.89625 3.93802 3.91719
# Velocity P-wave (km/s) = 6.76501 6.80755 6.78631
#
# Compressibility (1/GPa) = 0.02088078
#
# Stress axis : x y z
#
# Youngs Moduli (GPa) = 66.62864 66.88679 92.23559
#
# Poissons Ratio (x) = 0.33971 0.20631
# Poissons Ratio (y) = 0.33840 0.24390
# Poissons Ratio (z) = 0.14904 0.17687
#
# Static dielectric constant tensor:
#      x y z
#    x 3.329500 0.000000 0.000000 
#    y 0.000000 3.302210 0.000000 
#    z 0.000000 0.000000 3.379100 
# 
# 
# High freq. dielectric constant tensor:
#      x y z
#    x 1.720590 0.000000 0.000000 
#    y 0.000000 1.713760 0.000000 
#    z 0.000000 0.000000 1.725980 
# 
# From -- ./inp_files/21715.got.cif
#   From: 2010.03.12/outbox.cif.g09.slc.cpg/sg24_11_cif.got.tgz:21715.got - 2010.04.14 03:06:53.
