data_PCOD8164320
_publ_section_title
;
Structure prediction by ZEFSAII (Michael W. Deem and Ramdas Pophale) SiO2 
 PCOD8164320
Probable space group: I 2 2 2
;
_chemical_formula_sum "Si O2"
_cell_formula_units_Z 64
_cell_length_a 21.665180
_cell_length_b 27.023323
_cell_length_c 5.554858
_cell_angle_alpha 90.000000
_cell_angle_beta 90.000000
_cell_angle_gamma 90.000000
_cell_volume 3252.175811
_symmetry_space_group_name_H-M "I 2 2 2"
_symmetry_group_IT_number 23
_symmetry_cell_setting 'orthorhombic'
loop_
_space_group_symop_operation_xyz
x,y,z
-x,-y,z
x,-y,-z
-x,y,-z
1/2+x,1/2+y,1/2+z
1/2-x,1/2-y,1/2+z
1/2+x,1/2-y,1/2-z
1/2-x,1/2+y,1/2-z
loop_
_atom_site_type_symbol
_atom_site_label
_atom_site_fract_x
_atom_site_fract_y
_atom_site_fract_z
Si Si1 0.035020 0.746483 0.743602
Si Si2 0.164694 0.205948 0.317425
Si Si3 0.221895 0.872223 0.402430
Si Si4 0.441406 0.862927 0.341721
Si Si5 0.746379 0.028663 0.248967
Si Si6 0.665308 0.123096 0.695174
Si Si7 0.383950 0.052631 0.938986
Si Si8 0.225423 0.695907 0.528112
O O1 0.096696 0.779114 0.764075
O O2 0.049221 0.688603 0.701524
O O3 0.000000 0.764459 0.500000
O O4 0.000000 0.754396 0.000000
O O5 0.162263 0.156270 0.487076
O O6 0.200327 0.248721 0.461295
O O7 0.206303 0.193979 0.086611
O O8 0.209236 0.921677 0.244683
O O9 0.266276 0.892229 0.613594
O O10 0.265576 0.830778 0.281350
O O11 0.500000 0.876518 0.500000
O O12 0.380012 0.855490 0.495188
O O13 0.434155 0.909150 0.162131
O O14 0.674468 0.045917 0.241916
O O15 0.759590 0.000000 0.500000
O O16 0.762642 0.000000 0.000000
O O17 0.639359 0.072798 0.806186
O O18 0.671665 0.166609 0.889952
O O19 0.415576 0.000000 0.000000
#
# Coordination Sequence:
#
# PCOD8164320 Si02
#       8
#     8   8   8   8   8   8   8   8
#     4  11  28  47  67  88 124 177 220 262 313 392
#     4  11  24  36  62  92 130 165 211 261 329 383
#     4  11  21  37  59  92 123 165 196 259 313 393
#     4  11  26  40  61  76 109 159 223 282 326 384
#     4  11  23  39  62  89 123 169 208 248 318 392
#     4  11  21  39  58  81 119 154 212 255 328 384
#     4  11  23  37  61  77 112 154 213 275 330 381
#     4  11  22  35  59  93 127 159 201 267 321 389
#
# _framework density 19.679134000000001
#
# number of rings (size 3 to 8) (size 9 to 14) (size 15 to 20)
#    0.000    1.000    3.750    3.000   12.250    0.000 
#    0.000    1.875    0.000    0.000    0.000    0.000 
#    0.000    0.500    1.500    0.000    0.000    0.000 
#
# Total GULP energy -396584.911652 kJ/mol
# GULP energy per Si atom -12393.278489 kJ/mol
# Density = 1.963434 g / cm^3
# Si number density = 19.679134 Si / 1000 Ang^3
#
#
#
# Elastic Constant Matrix: (Units=GPa)
#
#
# Indices 1 2 3 4 5 6 
#
# 1 83.4506 42.2437 26.6633 0.0000 0.0000 0.0000
# 2 42.2437 107.2489 30.1382 0.0000 0.0000 0.0000
# 3 26.6633 30.1382 84.4588 0.0000 0.0000 0.0000
# 4 0.0000 0.0000 0.0000 27.7912 0.0000 0.0000
# 5 0.0000 0.0000 0.0000 0.0000 26.1481 0.0000
# 6 0.0000 0.0000 0.0000 0.0000 0.0000 26.9597
#
#
#
# Elastic Compliance Matrix: (Units=1/GPa)
#
#
# Indices 1 2 3 4 5 6 
#
# 1 0.015642 -0.005305 -0.003045 0.000000 0.000000 0.000000
# 2 -0.005305 0.012163 -0.002665 0.000000 0.000000 0.000000
# 3 -0.003045 -0.002665 0.013752 0.000000 0.000000 0.000000
# 4 0.000000 0.000000 0.000000 0.035983 0.000000 0.000000
# 5 0.000000 0.000000 0.000000 0.000000 0.038244 0.000000
# 6 0.000000 0.000000 0.000000 0.000000 0.000000 0.037092
#
#
# Mechanical properties :
#
#
# Convention : Reuss Voigt Hill
#
# Bulk Modulus (GPa) = 51.21410 52.58318 51.89864
# Shear Modulus (GPa) = 27.56111 27.92068 27.74089
#
# Velocity S-wave (km/s) = 3.74642 3.77078 3.75862
# Velocity P-wave (km/s) = 6.69293 6.76289 6.72800
#
# Compressibility (1/GPa) = 0.01952587
#
# Stress axis : x y z
#
# Youngs Moduli (GPa) = 63.93193 82.21805 72.71458
#
# Poissons Ratio (x) = 0.43620 0.22140
# Poissons Ratio (y) = 0.33918 0.19380
# Poissons Ratio (z) = 0.19466 0.21913
#
# Static dielectric constant tensor:
#      x y z
#    x 3.305270 0.000000 0.000000 
#    y 0.000000 3.910210 0.000000 
#    z 0.000000 0.000000 3.747860 
# 
# 
# High freq. dielectric constant tensor:
#      x y z
#    x 1.714540 0.000000 0.000000 
#    y 0.000000 1.770880 0.000000 
#    z 0.000000 0.000000 1.783760 
# 
# From -- ./inp_files/4101.got.cif
#   From: 2010.03.12/outbox.cif.g09.slc.cpg/sg23_3_cif.got.tgz:4101.got - 2010.04.14 02:50:06.
