data_PCOD8164367
_publ_section_title
;
Structure prediction by ZEFSAII (Michael W. Deem and Ramdas Pophale) SiO2 
 PCOD8164367
Probable space group: I 2 2 2
;
_chemical_formula_sum "Si O2"
_cell_formula_units_Z 56
_cell_length_a 13.478483
_cell_length_b 9.668388
_cell_length_c 20.939692
_cell_angle_alpha 90.000000
_cell_angle_beta 90.000000
_cell_angle_gamma 90.000000
_cell_volume 2728.760220
_symmetry_space_group_name_H-M "I 2 2 2"
_symmetry_group_IT_number 23
_symmetry_cell_setting 'orthorhombic'
loop_
_space_group_symop_operation_xyz
x,y,z
-x,-y,z
x,-y,-z
-x,y,-z
1/2+x,1/2+y,1/2+z
1/2-x,1/2-y,1/2+z
1/2+x,1/2-y,1/2-z
1/2-x,1/2+y,1/2-z
loop_
_atom_site_type_symbol
_atom_site_label
_atom_site_fract_x
_atom_site_fract_y
_atom_site_fract_z
Si Si1 0.906881 0.591333 0.258449
Si Si2 0.305316 0.763132 0.918610
Si Si3 0.011008 0.848628 0.573666
Si Si4 0.598658 0.583957 0.748501
Si Si5 0.735142 0.529060 0.356926
Si Si6 0.766819 0.512667 0.155212
Si Si7 0.770687 0.782060 0.434542
O O1 0.930827 0.753574 0.248131
O O2 0.817841 0.578473 0.307899
O O3 0.870402 0.519539 0.192739
O O4 0.000000 0.500000 0.281944
O O5 0.423259 0.753705 0.906323
O O6 0.256448 0.669119 0.864410
O O7 0.276589 0.919558 0.907117
O O8 0.268850 0.719031 0.988948
O O9 0.114845 0.775952 0.590332
O O10 0.000000 0.878794 0.500000
O O11 0.000000 0.000000 0.607784
O O12 0.500000 0.500000 0.764917
O O13 0.639599 0.531447 0.679838
O O14 0.680979 0.555571 0.801953
O O15 0.707823 0.658710 0.402251
O O16 0.778536 0.423938 0.090343
#
# Coordination Sequence:
#
# PCOD8164367 Si02
#       7
#     8   8   8   8   8   8   8
#     4  11  26  43  65  93 122 165 214 265 311 358
#     4  11  22  38  63  90 132 167 199 255 309 381
#     4   9  18  31  51  86 124 163 201 232 286 362
#     4  11  26  43  66  91 122 167 212 264 316 358
#     4  11  25  42  62  94 128 159 209 253 317 376
#     4  11  23  40  65  93 125 163 215 248 309 379
#     4  11  22  38  62  95 126 169 202 251 314 377
#
# _framework density 20.52214
#
# number of rings (size 3 to 8) (size 9 to 14) (size 15 to 20)
#    0.000    1.286    4.286    0.857    8.000    0.000 
#    0.000    2.143    0.000    5.143    0.000    0.000 
#    0.000    0.000    0.000    0.000    0.000    0.000 
#
# Total GULP energy -347112.067219 kJ/mol
# GULP energy per Si atom -12396.859544 kJ/mol
# Density = 2.047543 g / cm^3
# Si number density = 20.522140 Si / 1000 Ang^3
#
#
#
# Elastic Constant Matrix: (Units=GPa)
#
#
# Indices 1 2 3 4 5 6 
#
# 1 43.1071 24.3312 5.6005 0.0000 0.0000 0.0000
# 2 24.3312 111.8867 15.4630 0.0000 0.0000 0.0000
# 3 5.6005 15.4630 65.2670 0.0000 0.0000 0.0000
# 4 0.0000 0.0000 0.0000 49.5998 0.0000 0.0000
# 5 0.0000 0.0000 0.0000 0.0000 21.1315 0.0000
# 6 0.0000 0.0000 0.0000 0.0000 0.0000 19.6769
#
#
#
# Elastic Compliance Matrix: (Units=1/GPa)
#
#
# Indices 1 2 3 4 5 6 
#
# 1 0.026499 -0.005633 -0.000939 0.000000 0.000000 0.000000
# 2 -0.005633 0.010438 -0.001989 0.000000 0.000000 0.000000
# 3 -0.000939 -0.001989 0.015874 0.000000 0.000000 0.000000
# 4 0.000000 0.000000 0.000000 0.020161 0.000000 0.000000
# 5 0.000000 0.000000 0.000000 0.000000 0.047323 0.000000
# 6 0.000000 0.000000 0.000000 0.000000 0.000000 0.050821
#
#
# Mechanical properties :
#
#
# Convention : Reuss Voigt Hill
#
# Bulk Modulus (GPa) = 28.02125 34.56114 31.29120
# Shear Modulus (GPa) = 24.98318 29.73939 27.36129
#
# Velocity S-wave (km/s) = 3.49288 3.81088 3.65534
# Velocity P-wave (km/s) = 5.47273 6.02007 5.75291
#
# Compressibility (1/GPa) = 0.03568720
#
# Stress axis : x y z
#
# Youngs Moduli (GPa) = 37.73661 95.80836 62.99757
#
# Poissons Ratio (x) = 0.53967 0.05918
# Poissons Ratio (y) = 0.21256 0.12533
# Poissons Ratio (z) = 0.03545 0.19061
#
# Static dielectric constant tensor:
#      x y z
#    x 3.376290 0.000000 0.000000 
#    y 0.000000 3.756860 0.000000 
#    z 0.000000 0.000000 3.883680 
# 
# 
# High freq. dielectric constant tensor:
#      x y z
#    x 1.765910 0.000000 0.000000 
#    y 0.000000 1.814830 0.000000 
#    z 0.000000 0.000000 1.810000 
# 
# From -- ./inp_files/22384.got.cif
#   From: 2010.03.12/outbox.cif.g09.slc.cpg/sg23_12_cif.got.tgz:22384.got - 2010.04.14 02:50:06.
