data_PCOD8164828
_publ_section_title
;
Structure prediction by ZEFSAII (Michael W. Deem and Ramdas Pophale) SiO2 
 PCOD8164828
Probable space group: I 21 21 21
;
_chemical_formula_sum "Si O2"
_cell_formula_units_Z 52
_cell_length_a 7.706282
_cell_length_b 14.270193
_cell_length_c 28.010396
_cell_angle_alpha 90.000000
_cell_angle_beta 90.000000
_cell_angle_gamma 90.000000
_cell_volume 3080.306930
_symmetry_space_group_name_H-M "I 21 21 21"
_symmetry_group_IT_number 24
_symmetry_cell_setting 'orthorhombic'
loop_
_space_group_symop_operation_xyz
x,y,z
-x,1/2-y,z
x,-y,1/2-z
1/2-x,y,-z
1/2+x,1/2+y,1/2+z
1/2-x,-y,1/2+z
1/2+x,1/2-y,-z
-x,1/2+y,1/2-z
loop_
_atom_site_type_symbol
_atom_site_label
_atom_site_fract_x
_atom_site_fract_y
_atom_site_fract_z
Si Si1 0.203250 0.144029 0.447660
Si Si2 0.000000 0.750000 0.275281
Si Si3 0.000000 0.543272 0.303428
Si Si4 0.296750 0.644031 0.947660
Si Si5 0.195111 0.061062 0.647102
Si Si6 0.301675 0.750000 0.201318
Si Si7 0.804888 0.061063 0.647102
O O1 0.250000 0.105294 0.500000
O O2 0.277902 0.249999 0.442071
O O3 0.290116 0.073465 0.409886
O O4 1.000000 0.143660 0.438854
O O5 0.000002 0.655525 0.305989
O O6 0.823202 0.749999 0.245962
O O7 0.000002 0.500000 0.250000
O O8 0.827722 0.513865 0.331724
O O9 0.172275 0.513865 0.331725
O O10 0.209882 0.573467 0.909886
O O11 0.250000 0.605295 0.000000
O O12 0.242025 0.160698 0.669584
O O13 0.999999 0.028509 0.660090
O O14 0.500000 0.750000 0.219491
O O15 0.257973 0.660698 0.169584
#
# Coordination Sequence:
#
# PCOD8164828 Si02
#       7
#     8   4   8   8   8   8   8
#     4  10  19  30  50  80 118 152 184 223 269 328
#     4  12  24  40  56  78 110 142 196 240 278 324
#     4  12  24  38  58  80 108 150 192 232 283 330
#     4  10  19  30  50  80 118 152 184 223 269 328
#     4  11  21  35  55  81 115 152 187 223 275 335
#     4  10  20  32  55  81 111 151 183 226 273 327
#     4  11  21  35  55  81 115 152 187 223 275 335
#
# _framework density 16.881436000000001
#
# number of rings (size 3 to 8) (size 9 to 14) (size 15 to 20)
#    0.000    1.231    6.154    0.923    0.000    3.077 
#    0.000    0.000    0.000    0.000    0.000    1.077 
#    0.000    0.000    0.000    0.000    0.000    0.000 
#
# Total GULP energy -322443.625971 kJ/mol
# GULP energy per Si atom -12401.677922 kJ/mol
# Density = 1.684301 g / cm^3
# Si number density = 16.881436 Si / 1000 Ang^3
#
#
#
# Elastic Constant Matrix: (Units=GPa)
#
#
# Indices 1 2 3 4 5 6 
#
# 1 103.5936 47.6042 43.4264 0.0000 0.0000 0.0000
# 2 47.6042 104.7320 51.5622 0.0000 0.0000 0.0000
# 3 43.4264 51.5622 107.5317 0.0000 0.0000 0.0000
# 4 0.0000 0.0000 0.0000 39.9420 0.0000 0.0000
# 5 0.0000 0.0000 0.0000 0.0000 30.9395 0.0000
# 6 0.0000 0.0000 0.0000 0.0000 0.0000 23.7224
#
#
#
# Elastic Compliance Matrix: (Units=1/GPa)
#
#
# Indices 1 2 3 4 5 6 
#
# 1 0.012972 -0.004342 -0.003157 0.000000 0.000000 0.000000
# 2 -0.004342 0.013952 -0.004937 0.000000 0.000000 0.000000
# 3 -0.003157 -0.004937 0.012942 0.000000 0.000000 0.000000
# 4 0.000000 0.000000 0.000000 0.025036 0.000000 0.000000
# 5 0.000000 0.000000 0.000000 0.000000 0.032321 0.000000
# 6 0.000000 0.000000 0.000000 0.000000 0.000000 0.042154
#
#
# Mechanical properties :
#
#
# Convention : Reuss Voigt Hill
#
# Bulk Modulus (GPa) = 66.68926 66.78255 66.73590
# Shear Modulus (GPa) = 29.54287 30.47176 30.00731
#
# Velocity S-wave (km/s) = 4.18786 4.25319 4.22065
# Velocity P-wave (km/s) = 7.93565 7.98531 7.96052
#
# Compressibility (1/GPa) = 0.01499492
#
# Stress axis : x y z
#
# Youngs Moduli (GPa) = 77.09155 71.67332 77.27070
#
# Poissons Ratio (x) = 0.31120 0.24391
# Poissons Ratio (y) = 0.33473 0.38146
# Poissons Ratio (z) = 0.24334 0.35383
#
# Static dielectric constant tensor:
#      x y z
#    x 3.293870 0.000000 0.000000 
#    y 0.000000 2.871310 0.000000 
#    z 0.000000 0.000000 3.180260 
# 
# 
# High freq. dielectric constant tensor:
#      x y z
#    x 1.673510 0.000000 0.000000 
#    y 0.000000 1.603130 0.000000 
#    z 0.000000 0.000000 1.646890 
# 
# From -- ./inp_files/36882.got.cif
#   From: 2010.03.12/outbox.cif.g09.slc.cpg/sg24_19_cif.got.tgz:36882.got - 2010.04.14 03:06:53.
