data_PCOD8164123
_publ_section_title
;
Structure prediction by ZEFSAII (Michael W. Deem and Ramdas Pophale) SiO2 
 PCOD8164123
Probable space group: I 2 2 2
;
_chemical_formula_sum "Si O2"
_cell_formula_units_Z 48
_cell_length_a 11.601125
_cell_length_b 17.000264
_cell_length_c 11.690161
_cell_angle_alpha 90.000000
_cell_angle_beta 90.000000
_cell_angle_gamma 90.000000
_cell_volume 2305.559127
_symmetry_space_group_name_H-M "I 2 2 2"
_symmetry_group_IT_number 23
_symmetry_cell_setting 'orthorhombic'
loop_
_space_group_symop_operation_xyz
x,y,z
-x,-y,z
x,-y,-z
-x,y,-z
1/2+x,1/2+y,1/2+z
1/2-x,1/2-y,1/2+z
1/2+x,1/2-y,1/2-z
1/2-x,1/2+y,1/2-z
loop_
_atom_site_type_symbol
_atom_site_label
_atom_site_fract_x
_atom_site_fract_y
_atom_site_fract_z
Si Si1 0.739088 0.970568 0.625115
Si Si2 0.187557 0.113275 0.237473
Si Si3 0.544214 0.632367 0.125798
Si Si4 0.937777 0.659957 0.110242
Si Si5 0.853915 0.252798 0.214899
Si Si6 0.129530 0.820912 0.986398
O O1 0.870385 0.941424 0.618256
O O2 0.647621 0.904327 0.666441
O O3 0.702083 0.000000 0.500000
O O4 0.735819 0.040729 0.717921
O O5 0.240498 0.195188 0.278730
O O6 0.190204 0.115347 0.097570
O O7 0.058162 0.110846 0.286754
O O8 0.618366 0.706523 0.169138
O O9 0.500000 0.653410 0.000000
O O10 0.862311 0.734751 0.071327
O O11 0.035798 0.690717 0.195736
O O12 0.000000 0.621575 0.000000
O O13 0.823137 0.188626 0.115328
O O14 0.000000 0.850402 0.000000
#
# Coordination Sequence:
#
# PCOD8164123 Si02
#       6
#     8   8   8   8   8   8
#     4  12  24  38  60  96 137 163 203 265 334 383
#     4  12  23  38  63  97 125 167 207 263 330 375
#     4  12  25  40  63  94 130 167 207 265 322 373
#     4   9  19  38  63  89 122 172 213 261 310 371
#     4  10  23  41  69  90 125 167 219 267 303 380
#     4   9  18  40  61  86 120 164 218 248 300 377
#
# _framework density 20.819244999999999
#
# number of rings (size 3 to 8) (size 9 to 14) (size 15 to 20)
#    0.000    1.667    5.000    3.500    2.333    2.333 
#    0.000    0.833    0.000    0.000    0.000    1.167 
#    0.000    0.000    0.000    0.000    0.000    0.000 
#
# Total GULP energy -297442.578635 kJ/mol
# GULP energy per Si atom -12393.440776 kJ/mol
# Density = 2.077186 g / cm^3
# Si number density = 20.819245 Si / 1000 Ang^3
#
#
#
# Elastic Constant Matrix: (Units=GPa)
#
#
# Indices 1 2 3 4 5 6 
#
# 1 45.7683 18.5728 24.7406 0.0000 0.0000 0.0000
# 2 18.5728 71.5079 46.8384 0.0001 0.0000 0.0000
# 3 24.7406 46.8384 125.0555 0.0001 0.0000 0.0000
# 4 0.0000 0.0001 0.0001 35.5331 0.0000 0.0000
# 5 0.0000 0.0000 0.0000 0.0000 25.1867 0.0000
# 6 0.0000 0.0000 0.0000 0.0000 0.0000 36.2037
#
#
#
# Elastic Compliance Matrix: (Units=1/GPa)
#
#
# Indices 1 2 3 4 5 6 
#
# 1 0.025466 -0.004392 -0.003393 0.000000 0.000000 0.000000
# 2 -0.004392 0.019288 -0.006355 0.000000 0.000000 0.000000
# 3 -0.003393 -0.006355 0.011048 0.000000 0.000000 0.000000
# 4 0.000000 0.000000 0.000000 0.028143 0.000000 0.000000
# 5 0.000000 0.000000 0.000000 0.000000 0.039704 0.000000
# 6 0.000000 0.000000 0.000000 0.000000 0.000000 0.027621
#
#
# Mechanical properties :
#
#
# Convention : Reuss Voigt Hill
#
# Bulk Modulus (GPa) = 36.33545 46.95946 41.64745
# Shear Modulus (GPa) = 26.49383 29.53003 28.01193
#
# Velocity S-wave (km/s) = 3.57117 3.77025 3.67206
# Velocity P-wave (km/s) = 5.87325 6.44654 6.16656
#
# Compressibility (1/GPa) = 0.02752134
#
# Stress axis : x y z
#
# Youngs Moduli (GPa) = 39.26876 51.84599 90.51365
#
# Poissons Ratio (x) = 0.22769 0.30713
# Poissons Ratio (y) = 0.17245 0.57524
# Poissons Ratio (z) = 0.13325 0.32950
#
# Static dielectric constant tensor:
#      x y z
#    x 3.734900 0.000000 0.000000 
#    y 0.000000 3.660560 0.000000 
#    z 0.000000 0.000000 4.054730 
# 
# 
# High freq. dielectric constant tensor:
#      x y z
#    x 1.810280 0.000000 0.000000 
#    y 0.000000 1.798220 0.000000 
#    z 0.000000 0.000000 1.802290 
# 
# From -- ./inp_files/15763.got.cif
#   From: 2010.03.12/outbox.cif.g09.slc.cpg/sg23_8_cif.got.tgz:15763.got - 2010.04.14 02:50:06.
