data_PCOD8164276
_publ_section_title
;
Structure prediction by ZEFSAII (Michael W. Deem and Ramdas Pophale) SiO2 
 PCOD8164276
Probable space group: I 2 2 2
;
_chemical_formula_sum "Si O2"
_cell_formula_units_Z 40
_cell_length_a 6.234726
_cell_length_b 17.772522
_cell_length_c 15.867622
_cell_angle_alpha 90.000000
_cell_angle_beta 90.000000
_cell_angle_gamma 90.000000
_cell_volume 1758.240497
_symmetry_space_group_name_H-M "I 2 2 2"
_symmetry_group_IT_number 23
_symmetry_cell_setting 'orthorhombic'
loop_
_space_group_symop_operation_xyz
x,y,z
-x,-y,z
x,-y,-z
-x,y,-z
1/2+x,1/2+y,1/2+z
1/2-x,1/2-y,1/2+z
1/2+x,1/2-y,1/2-z
1/2-x,1/2+y,1/2-z
loop_
_atom_site_type_symbol
_atom_site_label
_atom_site_fract_x
_atom_site_fract_y
_atom_site_fract_z
Si Si1 0.943310 0.850689 0.278459
Si Si2 0.000000 0.500000 0.000000
Si Si3 0.500000 0.241687 0.500000
Si Si4 0.903502 0.424447 0.338332
Si Si5 0.000000 0.500000 0.500000
Si Si6 0.253843 0.208674 0.852075
Si Si7 0.308595 0.382518 0.066895
O O1 0.799935 0.903852 0.218888
O O2 0.826900 0.795118 0.344170
O O3 0.077186 0.797363 0.218936
O O4 0.100087 0.897101 0.339308
O O5 0.851031 0.451594 0.940024
O O6 0.358787 0.297638 0.442745
O O7 0.334464 0.192945 0.556742
O O8 0.852621 0.447768 0.436918
O O9 0.000000 0.500000 0.294967
O O10 0.064768 0.354093 0.340799
O O11 0.500000 0.384455 0.000000
#
# Coordination Sequence:
#
# PCOD8164276 Si02
#       7
#     8   2   4   8   2   8   8
#     4  12  25  46  77 111 148 199 262 327 385 460
#     4  10  26  48  70 110 150 210 240 316 404 502
#     4  11  26  41  76 113 145 202 260 326 393 472
#     4  10  26  50  73 111 152 202 252 319 393 480
#     4   8  24  52  72 100 164 204 242 316 400 460
#     4  12  25  44  75 112 150 196 261 326 387 463
#     4  11  24  49  70 109 151 197 256 320 404 470
#
# _framework density 22.750015999999999
#
# number of rings (size 3 to 8) (size 9 to 14) (size 15 to 20)
#    0.600    0.400    4.000    1.500    2.800    0.800 
#   10.800    1.000    0.000    0.000    0.000    0.000 
#    0.000    0.000    0.000    0.000    0.000    0.000 
#
# Total GULP energy -247815.893180 kJ/mol
# GULP energy per Si atom -12390.794659 kJ/mol
# Density = 2.269824 g / cm^3
# Si number density = 22.750016 Si / 1000 Ang^3
#
#
#
# Elastic Constant Matrix: (Units=GPa)
#
#
# Indices 1 2 3 4 5 6 
#
# 1 123.0484 49.6336 68.1528 0.0000 0.0000 0.0000
# 2 49.6336 101.8696 52.5497 0.0000 0.0000 0.0000
# 3 68.1528 52.5497 154.0051 0.0000 0.0000 0.0000
# 4 0.0000 0.0000 0.0000 -2.1242 0.0000 0.0000
# 5 0.0000 0.0000 0.0000 0.0000 57.3409 0.0000
# 6 0.0000 0.0000 0.0000 0.0000 0.0000 13.7241
#
#
#
# Elastic Compliance Matrix: (Units=1/GPa)
#
#
# Indices 1 2 3 4 5 6 
#
# 1 0.011821 -0.003715 -0.003963 0.000000 0.000000 0.000000
# 2 -0.003715 0.013081 -0.002820 0.000000 0.000000 0.000000
# 3 -0.003963 -0.002820 0.009209 0.000000 0.000000 0.000000
# 4 0.000000 0.000000 0.000000 -0.470765 0.000000 0.000000
# 5 0.000000 0.000000 0.000000 0.000000 0.017440 0.000000
# 6 0.000000 0.000000 0.000000 0.000000 0.000000 0.072864
#
#
# Mechanical properties :
#
#
# Convention : Reuss Voigt Hill
#
# Bulk Modulus (GPa) = 76.24710 79.95504 78.10107
# Shear Modulus (GPa) = -15.57715 27.69397 6.05841
#
# Velocity S-wave (km/s) = -2.61953 3.49279 1.63365
# Velocity P-wave (km/s) = 4.94355 7.17548 6.16142
#
# Compressibility (1/GPa) = 0.01311525
#
# Stress axis : x y z
#
# Youngs Moduli (GPa) = 84.59865 76.44755 108.58514
#
# Poissons Ratio (x) = 0.28398 0.43037
# Poissons Ratio (y) = 0.31426 0.30616
# Poissons Ratio (z) = 0.33530 0.21555
#
# Static dielectric constant tensor:
#      x y z
#    x 5.131930 0.000000 0.000000 
#    y 0.000000 3.986290 0.000000 
#    z 0.000000 0.000000 4.017010 
# 
# 
# High freq. dielectric constant tensor:
#      x y z
#    x 1.897270 0.000000 0.000000 
#    y 0.000000 1.896010 0.000000 
#    z 0.000000 0.000000 1.907390 
# 
# From -- ./inp_files/23064.got.cif
#   From: 2010.03.12/outbox.cif.g09.slc.cpg/sg23_12_cif.got.tgz:23064.got - 2010.04.14 02:50:06.
