data_PCOD8164650
_publ_section_title
;
Structure prediction by ZEFSAII (Michael W. Deem and Ramdas Pophale) SiO2 
 PCOD8164650
Probable space group: I 21 21 21
;
_chemical_formula_sum "Si O2"
_cell_formula_units_Z 36
_cell_length_a 17.197089
_cell_length_b 14.335000
_cell_length_c 8.720105
_cell_angle_alpha 90.000000
_cell_angle_beta 90.000000
_cell_angle_gamma 90.000000
_cell_volume 2149.682646
_symmetry_space_group_name_H-M "I 21 21 21"
_symmetry_group_IT_number 24
_symmetry_cell_setting 'orthorhombic'
loop_
_space_group_symop_operation_xyz
x,y,z
-x,1/2-y,z
x,-y,1/2-z
1/2-x,y,-z
1/2+x,1/2+y,1/2+z
1/2-x,-y,1/2+z
1/2+x,1/2-y,-z
-x,1/2+y,1/2-z
loop_
_atom_site_type_symbol
_atom_site_label
_atom_site_fract_x
_atom_site_fract_y
_atom_site_fract_z
Si Si1 0.500000 0.750000 0.143671
Si Si2 0.985335 0.911845 0.094762
Si Si3 0.841572 0.000000 0.250000
Si Si4 0.250000 0.618612 0.500000
Si Si5 0.029218 0.116252 0.077865
Si Si6 0.394566 0.731893 0.418553
O O1 0.422277 0.754080 0.246053
O O2 0.509214 0.842463 0.045046
O O3 0.029552 0.867005 0.239524
O O4 0.896533 0.932701 0.147662
O O5 0.028694 0.006388 0.041177
O O6 0.787569 0.056891 0.133633
O O7 0.310431 0.686359 0.415229
O O8 0.104911 0.169167 0.010583
O O9 0.952773 0.160160 0.000826
#
# Coordination Sequence:
#
# PCOD8164650 Si02
#       6
#     4   8   4   4   8   8
#     4  10  22  30  58  84 106 140 198 236 262 320
#     4  10  17  36  56  80 104 141 190 243 263 323
#     4  10  24  34  56  84 112 158 170 232 296 336
#     4  12  22  38  54  82 128 146 180 220 294 358
#     4   8  17  34  54  73 105 144 193 216 280 310
#     4  10  20  33  50  81 109 151 174 229 274 335
#
# _framework density 16.746656000000002
#
# number of rings (size 3 to 8) (size 9 to 14) (size 15 to 20)
#    0.000    2.667    4.444    1.333    3.111    3.556 
#    0.000    0.000    0.000    5.333    0.000    0.000 
#    0.000    0.000    0.000    0.000    0.000    0.000 
#
# Total GULP energy -223069.867281 kJ/mol
# GULP energy per Si atom -12392.770405 kJ/mol
# Density = 1.670854 g / cm^3
# Si number density = 16.746656 Si / 1000 Ang^3
#
#
#
# Elastic Constant Matrix: (Units=GPa)
#
#
# Indices 1 2 3 4 5 6 
#
# 1 78.7946 51.6031 51.4423 0.0000 0.0000 0.0000
# 2 51.6031 112.8008 84.2493 0.0000 0.0000 0.0000
# 3 51.4423 84.2493 130.4398 0.0000 0.0000 0.0000
# 4 0.0000 0.0000 0.0000 30.0017 0.0000 0.0000
# 5 0.0000 0.0000 0.0000 0.0000 21.2849 0.0000
# 6 0.0000 0.0000 0.0000 0.0000 0.0000 24.7353
#
#
#
# Elastic Compliance Matrix: (Units=1/GPa)
#
#
# Indices 1 2 3 4 5 6 
#
# 1 0.018967 -0.005970 -0.003624 0.000000 0.000000 0.000000
# 2 -0.005970 0.019007 -0.009922 0.000000 0.000000 0.000000
# 3 -0.003624 -0.009922 0.015504 0.000000 0.000000 0.000000
# 4 0.000000 0.000000 0.000000 0.033331 0.000000 0.000000
# 5 0.000000 0.000000 0.000000 0.000000 0.046982 0.000000
# 6 0.000000 0.000000 0.000000 0.000000 0.000000 0.040428
#
#
# Mechanical properties :
#
#
# Convention : Reuss Voigt Hill
#
# Bulk Modulus (GPa) = 69.22394 77.40272 73.31333
# Shear Modulus (GPa) = 22.92881 24.18709 23.55795
#
# Velocity S-wave (km/s) = 3.70423 3.80451 3.75470
# Velocity P-wave (km/s) = 7.72792 8.10057 7.91644
#
# Compressibility (1/GPa) = 0.01444587
#
# Stress axis : x y z
#
# Youngs Moduli (GPa) = 52.72258 52.61299 64.49952
#
# Poissons Ratio (x) = 0.31410 0.23376
# Poissons Ratio (y) = 0.31476 0.63995
# Poissons Ratio (z) = 0.19108 0.52201
#
# Static dielectric constant tensor:
#      x y z
#    x 2.995530 0.000000 0.000000 
#    y 0.000000 3.380090 0.000000 
#    z 0.000000 0.000000 3.241430 
# 
# 
# High freq. dielectric constant tensor:
#      x y z
#    x 1.608000 0.000000 0.000000 
#    y 0.000000 1.655430 0.000000 
#    z 0.000000 0.000000 1.655900 
# 
# From -- ./inp_files/12510.got.cif
#   From: 2010.03.12/outbox.cif.g09.slc.cpg/sg24_7_cif.got.tgz:12510.got - 2010.04.14 03:06:53.
