data_PCOD8164972
_publ_section_title
;
Structure prediction by ZEFSAII (Michael W. Deem and Ramdas Pophale) SiO2 
 PCOD8164972
Probable space group: I 21 21 21
;
_chemical_formula_sum "Si O2"
_cell_formula_units_Z 64
_cell_length_a 10.503594
_cell_length_b 32.281839
_cell_length_c 9.182708
_cell_angle_alpha 90.000000
_cell_angle_beta 90.000000
_cell_angle_gamma 90.000000
_cell_volume 3113.629749
_symmetry_space_group_name_H-M "I 21 21 21"
_symmetry_group_IT_number 24
_symmetry_cell_setting 'orthorhombic'
loop_
_space_group_symop_operation_xyz
x,y,z
-x,1/2-y,z
x,-y,1/2-z
1/2-x,y,-z
1/2+x,1/2+y,1/2+z
1/2-x,-y,1/2+z
1/2+x,1/2-y,-z
-x,1/2+y,1/2-z
loop_
_atom_site_type_symbol
_atom_site_label
_atom_site_fract_x
_atom_site_fract_y
_atom_site_fract_z
Si Si1 0.111065 0.908511 0.044556
Si Si2 0.949713 0.885419 0.776681
Si Si3 0.543847 0.319102 0.084491
Si Si4 0.827466 0.762493 0.631914
Si Si5 0.623894 0.496735 0.920580
Si Si6 0.775330 0.825884 0.166946
Si Si7 0.496924 0.133867 0.815124
Si Si8 0.897502 0.063303 0.987070
O O1 0.091606 0.894530 0.212361
O O2 0.101571 0.957357 0.021417
O O3 0.250000 0.891909 0.000000
O O4 0.999525 0.892023 0.939781
O O5 0.815324 0.862394 0.777494
O O6 0.929692 0.927505 0.682987
O O7 0.054599 0.857288 0.695060
O O8 0.400914 0.301982 0.061911
O O9 0.601317 0.279931 0.172662
O O10 0.586640 0.335646 0.922577
O O11 0.750000 0.743570 0.500000
O O12 0.749422 0.780175 0.767395
O O13 0.651457 0.500000 0.750000
O O14 0.750000 0.477522 0.000000
O O15 0.495835 0.471121 0.954801
O O16 0.918544 0.838574 0.206524
O O17 0.750000 0.819124 0.000000
O O18 0.584341 0.105121 0.918575
O O19 0.750000 0.048096 0.000000
#
# Coordination Sequence:
#
# PCOD8164972 Si02
#       8
#     8   8   8   8   8   8   8   8
#     4  11  25  43  63  90 134 175 221 269 325 402
#     4  10  22  38  64  96 126 166 209 269 331 391
#     4   9  21  36  60  89 120 157 212 255 314 392
#     4  10  19  36  59  86 120 161 205 256 312 386
#     4  11  26  47  66  93 136 184 226 273 338 411
#     4  11  20  36  65  93 129 166 207 266 343 396
#     4  11  20  40  65  95 126 169 215 273 333 388
#     4  11  23  41  69 103 131 170 228 288 333 397
#
# _framework density 20.554787999999999
#
# number of rings (size 3 to 8) (size 9 to 14) (size 15 to 20)
#    0.000    1.500    5.000    0.000    3.500    1.000 
#    4.500    4.375    2.750    0.000    0.000    0.000 
#    0.000    0.000    0.000    0.000    0.000    0.000 
#
# Total GULP energy -396459.996143 kJ/mol
# GULP energy per Si atom -12389.374879 kJ/mol
# Density = 2.050800 g / cm^3
# Si number density = 20.554788 Si / 1000 Ang^3
#
#
#
# Elastic Constant Matrix: (Units=GPa)
#
#
# Indices 1 2 3 4 5 6 
#
# 1 75.4881 28.7702 17.8057 -0.0109 0.0004 0.0009
# 2 28.7702 79.3436 23.6956 -0.0160 0.0006 0.0000
# 3 17.8057 23.6956 99.7637 -0.0415 0.0017 0.0109
# 4 -0.0109 -0.0160 -0.0415 95.6462 0.0060 -0.0127
# 5 0.0004 0.0006 0.0017 0.0060 31.1384 0.0042
# 6 0.0009 0.0000 0.0109 -0.0127 0.0042 33.4379
#
#
#
# Elastic Compliance Matrix: (Units=1/GPa)
#
#
# Indices 1 2 3 4 5 6 
#
# 1 0.015591 -0.005190 -0.001550 0.000000 0.000000 0.000000
# 2 -0.005190 0.015294 -0.002706 0.000001 0.000000 0.000001
# 3 -0.001550 -0.002706 0.010943 0.000004 -0.000001 -0.000004
# 4 0.000000 0.000001 0.000004 0.010455 -0.000002 0.000004
# 5 0.000000 0.000000 -0.000001 -0.000002 0.032115 -0.000004
# 6 0.000000 0.000001 -0.000004 0.000004 -0.000004 0.029906
#
#
# Mechanical properties :
#
#
# Convention : Reuss Voigt Hill
#
# Bulk Modulus (GPa) = 43.60183 43.90423 43.75303
# Shear Modulus (GPa) = 35.50091 44.33274 39.91683
#
# Velocity S-wave (km/s) = 4.16039 4.64918 4.41156
# Velocity P-wave (km/s) = 6.65860 7.08702 6.87615
#
# Compressibility (1/GPa) = 0.02293482
#
# Stress axis : x y z
#
# Youngs Moduli (GPa) = 64.14007 65.38660 91.38220
#
# Poissons Ratio (x) = 0.33939 0.14163
# Poissons Ratio (y) = 0.33292 0.24729
# Poissons Ratio (z) = 0.09941 0.17694
#
# Static dielectric constant tensor:
#      x y z
#    x 1.957110 0.000230 0.000120 
#    y 0.000230 3.662660 -0.000010 
#    z 0.000120 -0.000010 3.657670 
# 
# 
# High freq. dielectric constant tensor:
#      x y z
#    x 1.789980 0.000000 0.000000 
#    y 0.000000 1.800320 0.000000 
#    z 0.000000 0.000000 1.807990 
# 
# From -- ./inp_files/11651.got.cif
#   From: 2010.03.12/outbox.cif.g09.slc.cpg/sg24_6_cif.got.tgz:11651.got - 2010.04.14 03:06:53.
