data_PCOD8164191
_publ_section_title
;
Structure prediction by ZEFSAII (Michael W. Deem and Ramdas Pophale) SiO2 
 PCOD8164191
Probable space group: I 2 2 2
;
_chemical_formula_sum "Si O2"
_cell_formula_units_Z 56
_cell_length_a 8.935175
_cell_length_b 15.382060
_cell_length_c 20.259241
_cell_angle_alpha 90.000000
_cell_angle_beta 90.000000
_cell_angle_gamma 90.000000
_cell_volume 2784.458405
_symmetry_space_group_name_H-M "I 2 2 2"
_symmetry_group_IT_number 23
_symmetry_cell_setting 'orthorhombic'
loop_
_space_group_symop_operation_xyz
x,y,z
-x,-y,z
x,-y,-z
-x,y,-z
1/2+x,1/2+y,1/2+z
1/2-x,1/2-y,1/2+z
1/2+x,1/2-y,1/2-z
1/2-x,1/2+y,1/2-z
loop_
_atom_site_type_symbol
_atom_site_label
_atom_site_fract_x
_atom_site_fract_y
_atom_site_fract_z
Si Si1 0.669962 0.994213 0.258337
Si Si2 0.689219 0.748923 0.565438
Si Si3 0.892282 0.904983 0.560037
Si Si4 0.691267 0.184615 0.209063
Si Si5 0.843919 0.682225 0.689907
Si Si6 0.824015 0.078542 0.616582
Si Si7 0.844352 0.250679 0.082867
O O1 0.724924 0.087203 0.232576
O O2 0.500000 0.000000 0.284144
O O3 0.684759 0.919760 0.203079
O O4 0.776860 0.967824 0.317224
O O5 0.744397 0.848081 0.566112
O O6 0.794231 0.693428 0.613915
O O7 0.521834 0.748251 0.592852
O O8 0.699036 0.714448 0.489889
O O9 0.000000 0.876056 0.500000
O O10 0.004001 0.886375 0.623443
O O11 0.837014 0.005482 0.558523
O O12 0.751223 0.256391 0.260333
O O13 0.517095 0.204218 0.199600
O O14 0.770737 0.190874 0.138217
O O15 0.706805 0.150065 0.592673
#
# Coordination Sequence:
#
# PCOD8164191 Si02
#       7
#     8   8   8   8   8   8   8
#     4  10  24  42  64  96 133 169 218 271 332 394
#     4  11  25  41  63  94 128 174 221 274 325 396
#     4  11  23  38  58  94 132 166 213 262 325 403
#     4  11  23  44  67  96 133 175 220 278 327 398
#     4  11  23  41  68  97 131 175 223 272 334 392
#     4  11  21  37  60  90 131 165 208 263 321 399
#     4  11  24  42  64  91 130 174 222 269 335 386
#
# _framework density 20.111630999999999
#
# number of rings (size 3 to 8) (size 9 to 14) (size 15 to 20)
#    0.000    1.143    2.857    3.429    4.000    1.143 
#    5.143    2.143    0.000    4.286    0.000    0.000 
#    0.000    0.000    0.000    0.000    0.000    0.000 
#
# Total GULP energy -347072.014115 kJ/mol
# GULP energy per Si atom -12395.429076 kJ/mol
# Density = 2.006586 g / cm^3
# Si number density = 20.111631 Si / 1000 Ang^3
#
#
#
# Elastic Constant Matrix: (Units=GPa)
#
#
# Indices 1 2 3 4 5 6 
#
# 1 110.9035 38.4315 63.2144 0.0000 0.0000 0.0000
# 2 38.4315 85.5454 37.9223 0.0000 0.0000 0.0000
# 3 63.2144 37.9223 127.6576 0.0000 0.0000 0.0000
# 4 0.0000 0.0000 0.0000 29.4682 0.0000 0.0000
# 5 0.0000 0.0000 0.0000 0.0000 37.8901 0.0000
# 6 0.0000 0.0000 0.0000 0.0000 0.0000 29.8534
#
#
#
# Elastic Compliance Matrix: (Units=1/GPa)
#
#
# Indices 1 2 3 4 5 6 
#
# 1 0.013441 -0.003556 -0.005599 0.000000 0.000000 0.000000
# 2 -0.003556 0.014403 -0.002518 0.000000 0.000000 0.000000
# 3 -0.005599 -0.002518 0.011354 0.000000 0.000000 0.000000
# 4 0.000000 0.000000 0.000000 0.033935 0.000000 0.000000
# 5 0.000000 0.000000 0.000000 0.000000 0.026392 0.000000
# 6 0.000000 0.000000 0.000000 0.000000 0.000000 0.033497
#
#
# Mechanical properties :
#
#
# Convention : Reuss Voigt Hill
#
# Bulk Modulus (GPa) = 63.08402 67.02701 65.05551
# Shear Modulus (GPa) = 30.93055 31.74490 31.33772
#
# Velocity S-wave (km/s) = 3.92592 3.97726 3.95167
# Velocity P-wave (km/s) = 7.21009 7.38182 7.29646
#
# Compressibility (1/GPa) = 0.01585187
#
# Stress axis : x y z
#
# Youngs Moduli (GPa) = 74.40083 69.42795 88.07400
#
# Poissons Ratio (x) = 0.24689 0.49315
# Poissons Ratio (y) = 0.26458 0.22175
# Poissons Ratio (z) = 0.41659 0.17480
#
# Static dielectric constant tensor:
#      x y z
#    x 4.448210 0.000000 0.000000 
#    y 0.000000 3.624000 0.000000 
#    z 0.000000 0.000000 3.877930 
# 
# 
# High freq. dielectric constant tensor:
#      x y z
#    x 1.799970 0.000000 0.000000 
#    y 0.000000 1.769810 0.000000 
#    z 0.000000 0.000000 1.790910 
# 
# From -- ./inp_files/26240.got.cif
#   From: 2010.03.12/outbox.cif.g09.slc.cpg/sg23_14_cif.got.tgz:26240.got - 2010.04.14 02:50:06.
