data_PCOD8164434
_publ_section_title
;
Structure prediction by ZEFSAII (Michael W. Deem and Ramdas Pophale) SiO2 
 PCOD8164434
Probable space group: I 2 2 2
;
_chemical_formula_sum "Si O2"
_cell_formula_units_Z 34
_cell_length_a 19.728848
_cell_length_b 9.204829
_cell_length_c 8.049436
_cell_angle_alpha 90.000000
_cell_angle_beta 90.000000
_cell_angle_gamma 90.000000
_cell_volume 1461.782988
_symmetry_space_group_name_H-M "I 2 2 2"
_symmetry_group_IT_number 23
_symmetry_cell_setting 'orthorhombic'
loop_
_space_group_symop_operation_xyz
x,y,z
-x,-y,z
x,-y,-z
-x,y,-z
1/2+x,1/2+y,1/2+z
1/2-x,1/2-y,1/2+z
1/2+x,1/2-y,1/2-z
1/2-x,1/2+y,1/2-z
loop_
_atom_site_type_symbol
_atom_site_label
_atom_site_fract_x
_atom_site_fract_y
_atom_site_fract_z
Si Si1 0.500000 0.000000 0.500000
Si Si2 0.214952 0.876080 0.229250
Si Si3 0.417327 0.343829 0.079983
Si Si4 0.542337 0.239964 0.251456
Si Si5 0.320775 0.683815 0.371862
O O1 0.456616 0.901556 0.371242
O O2 0.161054 0.835965 0.372264
O O3 0.289782 0.824914 0.281717
O O4 0.220665 0.046976 0.198239
O O5 0.189087 0.794410 0.066213
O O6 0.467260 0.312671 0.238835
O O7 0.435602 0.500000 0.000000
O O8 0.431766 0.218957 0.939851
O O9 0.599751 0.343589 0.333262
#
# Coordination Sequence:
#
# PCOD8164434 Si02
#       5
#     2   8   8   8   8
#     4  12  28  46  62 108 152 190 236 308 384 458
#     4  11  25  43  70 108 144 194 250 306 381 440
#     4  11  23  45  76 108 138 190 256 313 360 447
#     4  11  24  44  70 103 142 191 241 304 376 435
#     4  11  25  44  70 104 148 194 247 311 370 457
#
# _framework density 23.259267000000001
#
# number of rings (size 3 to 8) (size 9 to 14) (size 15 to 20)
#    0.000    0.941    2.353    4.235    0.000    5.647 
#    0.000    2.353    0.000    0.000    0.000    0.000 
#    0.000    0.000    0.000    0.000    0.000    0.000 
#
# Total GULP energy -210631.697094 kJ/mol
# GULP energy per Si atom -12390.099829 kJ/mol
# Density = 2.320633 g / cm^3
# Si number density = 23.259267 Si / 1000 Ang^3
#
#
#
# Elastic Constant Matrix: (Units=GPa)
#
#
# Indices 1 2 3 4 5 6 
#
# 1 93.2226 26.5170 34.0023 0.0000 0.0000 0.0000
# 2 26.5170 90.9439 51.5451 0.0000 0.0000 0.0000
# 3 34.0023 51.5451 120.0522 0.0000 0.0000 0.0000
# 4 0.0000 0.0000 0.0000 49.6965 0.0000 0.0000
# 5 0.0000 0.0000 0.0000 0.0000 44.4732 0.0000
# 6 0.0000 0.0000 0.0000 0.0000 0.0000 27.4972
#
#
#
# Elastic Compliance Matrix: (Units=1/GPa)
#
#
# Indices 1 2 3 4 5 6 
#
# 1 0.012266 -0.002124 -0.002562 0.000000 0.000000 0.000000
# 2 -0.002124 0.014900 -0.005796 0.000000 0.000000 0.000000
# 3 -0.002562 -0.005796 0.011544 0.000000 0.000000 0.000000
# 4 0.000000 0.000000 0.000000 0.020122 0.000000 0.000000
# 5 0.000000 0.000000 0.000000 0.000000 0.022485 0.000000
# 6 0.000000 0.000000 0.000000 0.000000 0.000000 0.036367
#
#
# Mechanical properties :
#
#
# Convention : Reuss Voigt Hill
#
# Bulk Modulus (GPa) = 56.35217 58.70528 57.52872
# Shear Modulus (GPa) = 34.58682 37.14367 35.86525
#
# Velocity S-wave (km/s) = 3.86036 4.00051 3.93106
# Velocity P-wave (km/s) = 6.64457 6.82884 6.73734
#
# Compressibility (1/GPa) = 0.01774555
#
# Stress axis : x y z
#
# Youngs Moduli (GPa) = 81.52801 67.11361 86.62689
#
# Poissons Ratio (x) = 0.14257 0.22193
# Poissons Ratio (y) = 0.17319 0.50207
# Poissons Ratio (z) = 0.20887 0.38897
#
# Static dielectric constant tensor:
#      x y z
#    x 4.152310 0.000000 0.000000 
#    y 0.000000 3.926160 0.000000 
#    z 0.000000 0.000000 4.565380 
# 
# 
# High freq. dielectric constant tensor:
#      x y z
#    x 1.924010 0.000000 0.000000 
#    y 0.000000 1.885030 0.000000 
#    z 0.000000 0.000000 1.936790 
# 
# From -- ./inp_files/11656.got.cif
#   From: 2010.03.12/outbox.cif.g09.slc.cpg/sg23_6_cif.got.tgz:11656.got - 2010.04.14 02:50:06.
