data_PCOD8164240
_publ_section_title
;
Structure prediction by ZEFSAII (Michael W. Deem and Ramdas Pophale) SiO2 
 PCOD8164240
Probable space group: I 2 2 2
;
_chemical_formula_sum "Si O2"
_cell_formula_units_Z 64
_cell_length_a 14.630809
_cell_length_b 17.719988
_cell_length_c 11.508160
_cell_angle_alpha 90.000000
_cell_angle_beta 90.000000
_cell_angle_gamma 90.000000
_cell_volume 2983.579782
_symmetry_space_group_name_H-M "I 2 2 2"
_symmetry_group_IT_number 23
_symmetry_cell_setting 'orthorhombic'
loop_
_space_group_symop_operation_xyz
x,y,z
-x,-y,z
x,-y,-z
-x,y,-z
1/2+x,1/2+y,1/2+z
1/2-x,1/2-y,1/2+z
1/2+x,1/2-y,1/2-z
1/2-x,1/2+y,1/2-z
loop_
_atom_site_type_symbol
_atom_site_label
_atom_site_fract_x
_atom_site_fract_y
_atom_site_fract_z
Si Si1 0.018830 0.661461 0.868174
Si Si2 0.288345 0.840934 0.447474
Si Si3 0.020095 0.168606 0.168886
Si Si4 0.727069 0.329205 0.409795
Si Si5 0.452182 0.428711 0.877504
Si Si6 0.158111 0.605066 0.197515
Si Si7 0.643846 0.429044 0.580211
Si Si8 0.714397 0.479322 0.827680
O O1 0.127730 0.650448 0.854250
O O2 0.987132 0.745914 0.838199
O O3 0.952727 0.609018 0.788138
O O4 0.000000 0.640276 0.000000
O O5 0.245154 0.757641 0.432494
O O6 0.316411 0.847374 0.581861
O O7 0.216120 0.905214 0.409410
O O8 0.120632 0.159036 0.118381
O O9 0.028037 0.145646 0.303835
O O10 0.947720 0.120109 0.096391
O O11 0.792288 0.360342 0.309608
O O12 0.729671 0.380242 0.526953
O O13 0.500000 0.500000 0.813508
O O14 0.346001 0.453249 0.886818
O O15 0.500000 0.414913 0.000000
O O16 0.185325 0.517334 0.182025
O O17 0.619179 0.500000 0.500000
O O18 0.676995 0.459206 0.702935
#
# Coordination Sequence:
#
# PCOD8164240 Si02
#       8
#     8   8   8   8   8   8   8   8
#     4   9  21  43  65  92 122 167 218 276 320 383
#     4  10  25  41  66  91 130 171 218 266 335 390
#     4  11  21  39  63  91 130 173 212 261 324 392
#     4  11  24  40  62  99 127 171 216 273 322 402
#     4  11  24  37  57  92 142 170 212 256 327 408
#     4  11  22  41  65  95 130 160 219 279 322 380
#     4  12  23  39  62  95 130 171 217 262 327 395
#     4  12  25  40  63  96 131 177 217 272 327 393
#
# _framework density 21.450742999999999
#
# number of rings (size 3 to 8) (size 9 to 14) (size 15 to 20)
#    0.000    1.125    3.750    3.000    7.000    2.000 
#    0.000    1.875    0.000    0.000    0.000    0.000 
#    0.000    0.000    0.000    0.000    0.000    0.000 
#
# Total GULP energy -396579.141829 kJ/mol
# GULP energy per Si atom -12393.098182 kJ/mol
# Density = 2.140192 g / cm^3
# Si number density = 21.450743 Si / 1000 Ang^3
#
#
#
# Elastic Constant Matrix: (Units=GPa)
#
#
# Indices 1 2 3 4 5 6 
#
# 1 73.3534 14.1885 26.8487 0.0000 0.0000 0.0000
# 2 14.1885 54.3967 13.3733 0.0000 0.0000 0.0000
# 3 26.8487 13.3733 100.6904 0.0000 0.0000 0.0000
# 4 0.0000 0.0000 0.0000 28.8197 0.0000 0.0000
# 5 0.0000 0.0000 0.0000 0.0000 27.7826 0.0000
# 6 0.0000 0.0000 0.0000 0.0000 0.0000 26.5770
#
#
#
# Elastic Compliance Matrix: (Units=1/GPa)
#
#
# Indices 1 2 3 4 5 6 
#
# 1 0.015613 -0.003152 -0.003744 0.000000 0.000000 0.000000
# 2 -0.003152 0.019640 -0.001768 0.000000 0.000000 0.000000
# 3 -0.003744 -0.001768 0.011165 0.000000 0.000000 0.000000
# 4 0.000000 0.000000 0.000000 0.034698 0.000000 0.000000
# 5 0.000000 0.000000 0.000000 0.000000 0.035994 0.000000
# 6 0.000000 0.000000 0.000000 0.000000 0.000000 0.037627
#
#
# Mechanical properties :
#
#
# Convention : Reuss Voigt Hill
#
# Bulk Modulus (GPa) = 34.37728 37.47352 35.92540
# Shear Modulus (GPa) = 27.50855 28.23786 27.87321
#
# Velocity S-wave (km/s) = 3.58495 3.63217 3.60864
# Velocity P-wave (km/s) = 5.76167 5.92433 5.84356
#
# Compressibility (1/GPa) = 0.02908898
#
# Stress axis : x y z
#
# Youngs Moduli (GPa) = 64.04987 50.91586 89.56782
#
# Poissons Ratio (x) = 0.16048 0.33539
# Poissons Ratio (y) = 0.20187 0.15837
# Poissons Ratio (z) = 0.23983 0.09003
#
# Static dielectric constant tensor:
#      x y z
#    x 4.174100 0.000000 0.000000 
#    y 0.000000 4.126100 0.000000 
#    z 0.000000 0.000000 3.847570 
# 
# 
# High freq. dielectric constant tensor:
#      x y z
#    x 1.830120 0.000000 0.000000 
#    y 0.000000 1.840900 0.000000 
#    z 0.000000 0.000000 1.837060 
# 
# From -- ./inp_files/16968.got.cif
#   From: 2010.03.12/outbox.cif.g09.slc.cpg/sg23_9_cif.got.tgz:16968.got - 2010.04.14 02:50:06.
