data_PCOD8164657
_publ_section_title
;
Structure prediction by ZEFSAII (Michael W. Deem and Ramdas Pophale) SiO2 
 PCOD8164657
Probable space group: I 21 21 21
;
_chemical_formula_sum "Si O2"
_cell_formula_units_Z 52
_cell_length_a 22.044632
_cell_length_b 27.660305
_cell_length_c 5.188256
_cell_angle_alpha 90.000000
_cell_angle_beta 90.000000
_cell_angle_gamma 90.000000
_cell_volume 3163.597437
_symmetry_space_group_name_H-M "I 21 21 21"
_symmetry_group_IT_number 24
_symmetry_cell_setting 'orthorhombic'
loop_
_space_group_symop_operation_xyz
x,y,z
-x,1/2-y,z
x,-y,1/2-z
1/2-x,y,-z
1/2+x,1/2+y,1/2+z
1/2-x,-y,1/2+z
1/2+x,1/2-y,-z
-x,1/2+y,1/2-z
loop_
_atom_site_type_symbol
_atom_site_label
_atom_site_fract_x
_atom_site_fract_y
_atom_site_fract_z
Si Si1 0.909330 0.350043 0.136574
Si Si2 0.938000 0.187799 0.619812
Si Si3 0.112910 0.955562 0.448544
Si Si4 0.789009 0.500000 0.750000
Si Si5 0.051818 0.634292 0.384567
Si Si6 0.081420 0.203829 0.629571
Si Si7 0.022564 0.469989 0.991265
O O1 0.879610 0.402853 0.177256
O O2 0.887240 0.319333 0.380047
O O3 0.981270 0.354564 0.133117
O O4 0.888791 0.321605 0.879320
O O5 0.918150 0.153200 0.381387
O O6 0.904231 0.239228 0.614239
O O7 0.009805 0.195166 0.623234
O O8 0.916626 0.162596 0.882313
O O9 0.046958 0.957226 0.584850
O O10 0.121870 0.000000 0.250000
O O11 0.165662 0.956977 0.664357
O O12 0.750000 0.483516 0.500000
O O13 0.061900 0.577566 0.445556
O O14 0.050581 0.500000 0.750000
O O15 0.022788 0.500000 0.250000
#
# Coordination Sequence:
#
# PCOD8164657 Si02
#       7
#     8   8   8   4   8   8   8
#     4   9  18  26  40  55  70  86 114 134 172 211
#     4   9  15  24  35  48  73  92 115 135 165 200
#     4  10  21  33  47  58  74  91 111 147 186 227
#     4  12  24  36  48  60  72  90 116 142 188 244
#     4   9  16  24  35  51  68  95 116 140 171 210
#     4   9  16  25  36  54  70  92 110 138 160 202
#     4  10  18  27  40  55  73  92 121 153 186 216
#
# _framework density 16.436983999999999
#
# number of rings (size 3 to 8) (size 9 to 14) (size 15 to 20)
#    0.000    2.462    1.538    1.846    2.154    7.385 
#    0.000    0.000    0.000    0.000    0.000    0.000 
#    0.000    0.000    0.000    0.000    0.000    0.000 
#
# Total GULP energy -322179.401862 kJ/mol
# GULP energy per Si atom -12391.515456 kJ/mol
# Density = 1.639957 g / cm^3
# Si number density = 16.436984 Si / 1000 Ang^3
#
#
#
# Elastic Constant Matrix: (Units=GPa)
#
#
# Indices 1 2 3 4 5 6 
#
# 1 10.4313 19.5360 13.6947 0.0000 0.0000 0.0000
# 2 19.5360 137.3517 60.3857 0.0000 0.0000 0.0000
# 3 13.6947 60.3857 133.7391 0.0000 0.0000 0.0000
# 4 0.0000 0.0000 0.0000 36.1390 0.0000 0.0000
# 5 0.0000 0.0000 0.0000 0.0000 71.7829 0.0000
# 6 0.0000 0.0000 0.0000 0.0000 0.0000 2.7255
#
#
#
# Elastic Compliance Matrix: (Units=1/GPa)
#
#
# Indices 1 2 3 4 5 6 
#
# 1 0.134964 -0.016370 -0.006429 0.000000 0.000000 0.000000
# 2 -0.016370 0.011069 -0.003322 0.000000 0.000000 0.000000
# 3 -0.006429 -0.003322 0.009635 0.000000 0.000000 0.000000
# 4 0.000000 0.000000 0.000000 0.027671 0.000000 0.000000
# 5 0.000000 0.000000 0.000000 0.000000 0.013931 0.000000
# 6 0.000000 0.000000 0.000000 0.000000 0.000000 0.366899
#
#
# Mechanical properties :
#
#
# Convention : Reuss Voigt Hill
#
# Bulk Modulus (GPa) = 9.66859 52.08386 30.87623
# Shear Modulus (GPa) = 7.68183 34.65654 21.16918
#
# Velocity S-wave (km/s) = 2.16417 4.59677 3.59263
# Velocity P-wave (km/s) = 3.48423 7.74141 6.00289
#
# Compressibility (1/GPa) = 0.10342769
#
# Stress axis : x y z
#
# Youngs Moduli (GPa) = 7.40938 90.33967 103.78440
#
# Poissons Ratio (x) = 1.47887 0.66720
# Poissons Ratio (y) = 0.12129 0.34474
# Poissons Ratio (z) = 0.04763 0.30008
#
# Static dielectric constant tensor:
#      x y z
#    x 2.363690 0.000000 0.000000 
#    y 0.000000 1.958500 0.000000 
#    z 0.000000 0.000000 3.357010 
# 
# 
# High freq. dielectric constant tensor:
#      x y z
#    x 1.520300 0.000000 0.000000 
#    y 0.000000 1.644600 0.000000 
#    z 0.000000 0.000000 1.655050 
# 
# From -- ./inp_files/4968.got.cif
#   From: 2010.03.12/outbox.cif.g09.slc.cpg/sg24_3_cif.got.tgz:4968.got - 2010.04.14 03:06:53.
