data_PCOD8164053
_publ_section_title
;
Structure prediction by ZEFSAII (Michael W. Deem and Ramdas Pophale) SiO2 
 PCOD8164053
Probable space group: I 2 2 2
;
_chemical_formula_sum "Si O2"
_cell_formula_units_Z 56
_cell_length_a 19.080517
_cell_length_b 15.392426
_cell_length_c 8.820293
_cell_angle_alpha 90.000000
_cell_angle_beta 90.000000
_cell_angle_gamma 90.000000
_cell_volume 2590.479886
_symmetry_space_group_name_H-M "I 2 2 2"
_symmetry_group_IT_number 23
_symmetry_cell_setting 'orthorhombic'
loop_
_space_group_symop_operation_xyz
x,y,z
-x,-y,z
x,-y,-z
-x,y,-z
1/2+x,1/2+y,1/2+z
1/2-x,1/2-y,1/2+z
1/2+x,1/2-y,1/2-z
1/2-x,1/2+y,1/2-z
loop_
_atom_site_type_symbol
_atom_site_label
_atom_site_fract_x
_atom_site_fract_y
_atom_site_fract_z
Si Si1 0.301994 0.493259 0.165025
Si Si2 0.602544 0.809755 0.821811
Si Si3 0.857112 0.519220 0.168484
Si Si4 0.473325 0.744152 0.658168
Si Si5 0.110728 0.910075 0.081075
Si Si6 0.860416 0.659437 0.660928
Si Si7 0.700720 0.674275 0.675011
O O1 0.224107 0.453526 0.155592
O O2 0.345803 0.428800 0.268232
O O3 0.301185 0.590641 0.221490
O O4 0.337065 0.500000 0.000000
O O5 0.598794 0.901196 0.734844
O O6 0.532564 0.755141 0.785463
O O7 0.669547 0.755567 0.765785
O O8 0.602317 0.828829 0.999897
O O9 0.864077 0.440283 0.286720
O O10 0.886739 0.500000 0.000000
O O11 0.500000 0.786451 0.500000
O O12 0.459401 0.641240 0.629961
O O13 0.400276 0.786140 0.710285
O O14 0.156969 0.845675 0.976812
O O15 0.090160 0.000000 0.000000
O O16 0.781650 0.694952 0.639492
#
# Coordination Sequence:
#
# PCOD8164053 Si02
#       7
#     8   8   8   8   8   8   8
#     4   9  20  39  66 105 135 173 227 290 347 411
#     4  12  25  43  67 101 143 180 232 289 345 418
#     4  10  22  42  69 100 140 183 230 281 356 418
#     4  12  26  45  67  98 139 183 235 269 352 412
#     4  10  22  44  69  97 139 183 228 286 343 422
#     4  11  26  43  70 102 137 184 233 293 344 409
#     4  10  23  41  69 103 133 180 228 286 351 404
#
# _framework density 21.617616999999999
#
# number of rings (size 3 to 8) (size 9 to 14) (size 15 to 20)
#    0.000    1.429    1.429    2.571    6.000    4.286 
#    0.000    2.857    0.000    0.857    0.000    0.000 
#    0.000    0.000    0.000    0.000    0.000    0.000 
#
# Total GULP energy -347262.178495 kJ/mol
# GULP energy per Si atom -12402.220661 kJ/mol
# Density = 2.156841 g / cm^3
# Si number density = 21.617617 Si / 1000 Ang^3
#
#
#
# Elastic Constant Matrix: (Units=GPa)
#
#
# Indices 1 2 3 4 5 6 
#
# 1 98.8166 56.7681 42.5231 0.0000 0.0000 0.0000
# 2 56.7681 83.8216 45.4646 0.0000 0.0000 0.0000
# 3 42.5231 45.4646 159.8853 0.0000 0.0000 0.0000
# 4 0.0000 0.0000 0.0000 29.3329 0.0000 0.0000
# 5 0.0000 0.0000 0.0000 0.0000 36.0422 0.0000
# 6 0.0000 0.0000 0.0000 0.0000 0.0000 39.2620
#
#
#
# Elastic Compliance Matrix: (Units=1/GPa)
#
#
# Indices 1 2 3 4 5 6 
#
# 1 0.016848 -0.010618 -0.001462 0.000000 0.000000 0.000000
# 2 -0.010618 0.020797 -0.003090 0.000000 0.000000 0.000000
# 3 -0.001462 -0.003090 0.007522 0.000000 0.000000 0.000000
# 4 0.000000 0.000000 0.000000 0.034091 0.000000 0.000000
# 5 0.000000 0.000000 0.000000 0.000000 0.027745 0.000000
# 6 0.000000 0.000000 0.000000 0.000000 0.000000 0.025470
#
#
# Mechanical properties :
#
#
# Convention : Reuss Voigt Hill
#
# Bulk Modulus (GPa) = 67.43783 70.22611 68.83197
# Shear Modulus (GPa) = 29.80533 34.11195 31.95864
#
# Velocity S-wave (km/s) = 3.71718 3.97668 3.84912
# Velocity P-wave (km/s) = 7.04888 7.32403 7.18777
#
# Compressibility (1/GPa) = 0.01482847
#
# Stress axis : x y z
#
# Youngs Moduli (GPa) = 59.35266 48.08421 132.94545
#
# Poissons Ratio (x) = 0.51054 0.19434
# Poissons Ratio (y) = 0.63019 0.41078
# Poissons Ratio (z) = 0.08676 0.14857
#
# Static dielectric constant tensor:
#      x y z
#    x 3.894810 0.000000 0.000000 
#    y 0.000000 3.813410 0.000000 
#    z 0.000000 0.000000 4.029450 
# 
# 
# High freq. dielectric constant tensor:
#      x y z
#    x 1.841720 0.000000 0.000000 
#    y 0.000000 1.849610 0.000000 
#    z 0.000000 0.000000 1.861500 
# 
# From -- ./inp_files/12075.got.cif
#   From: 2010.03.12/outbox.cif.g09.slc.cpg/sg23_7_cif.got.tgz:12075.got - 2010.04.14 02:50:06.
