data_PCOD8164144
_publ_section_title
;
Structure prediction by ZEFSAII (Michael W. Deem and Ramdas Pophale) SiO2 
 PCOD8164144
Probable space group: I 2 2 2
;
_chemical_formula_sum "Si O2"
_cell_formula_units_Z 48
_cell_length_a 14.169029
_cell_length_b 16.470113
_cell_length_c 9.640557
_cell_angle_alpha 90.000000
_cell_angle_beta 90.000000
_cell_angle_gamma 90.000000
_cell_volume 2249.773489
_symmetry_space_group_name_H-M "I 2 2 2"
_symmetry_group_IT_number 23
_symmetry_cell_setting 'orthorhombic'
loop_
_space_group_symop_operation_xyz
x,y,z
-x,-y,z
x,-y,-z
-x,y,-z
1/2+x,1/2+y,1/2+z
1/2-x,1/2-y,1/2+z
1/2+x,1/2-y,1/2-z
1/2-x,1/2+y,1/2-z
loop_
_atom_site_type_symbol
_atom_site_label
_atom_site_fract_x
_atom_site_fract_y
_atom_site_fract_z
Si Si1 0.396302 0.537270 0.360951
Si Si2 0.660511 0.716441 0.580592
Si Si3 0.746551 0.554415 0.867560
Si Si4 0.444504 0.078647 0.232867
Si Si5 0.814094 0.765925 0.387962
Si Si6 0.500000 0.801618 0.000000
Si Si7 0.000000 0.332407 0.000000
O O1 0.500000 0.500000 0.338851
O O2 0.350366 0.500000 0.500000
O O3 0.396176 0.634351 0.382877
O O4 0.335917 0.514281 0.225444
O O5 0.749136 0.703973 0.477092
O O6 0.698680 0.753940 0.725061
O O7 0.592619 0.777599 0.500287
O O8 0.836791 0.559065 0.768310
O O9 0.716608 0.642445 0.923139
O O10 0.769277 0.500000 0.000000
O O11 0.500120 0.111005 0.366251
O O12 0.500000 0.000000 0.178774
O O13 0.445253 0.144722 0.112256
O O14 0.923639 0.755630 0.426290
#
# Coordination Sequence:
#
# PCOD8164144 Si02
#       7
#     8   8   8   8   8   4   4
#     4  10  23  44  66 100 137 180 228 273 344 416
#     4  11  24  42  72  99 137 181 228 281 343 410
#     4  11  25  45  70 102 138 178 227 288 344 410
#     4  12  26  45  68 101 137 182 233 281 345 408
#     4  11  25  44  67 104 136 180 230 280 345 409
#     4  12  25  46  69 100 144 180 228 290 339 414
#     4  12  21  44  69  98 136 178 228 284 339 408
#
# _framework density 21.33548
#
# number of rings (size 3 to 8) (size 9 to 14) (size 15 to 20)
#    0.000    0.833    3.333    4.500    0.000    7.000 
#    0.000    0.000    0.000    0.000    0.000    0.000 
#    0.000    0.000    0.000    0.000    0.000    0.000 
#
# Total GULP energy -297698.066907 kJ/mol
# GULP energy per Si atom -12404.086121 kJ/mol
# Density = 2.128692 g / cm^3
# Si number density = 21.335480 Si / 1000 Ang^3
#
#
#
# Elastic Constant Matrix: (Units=GPa)
#
#
# Indices 1 2 3 4 5 6 
#
# 1 136.0073 45.9548 45.3504 0.0000 0.0000 0.0000
# 2 45.9548 74.9374 24.4509 0.0000 0.0000 0.0000
# 3 45.3504 24.4509 121.3901 0.0000 0.0000 0.0000
# 4 0.0000 0.0000 0.0000 34.3962 0.0000 0.0000
# 5 0.0000 0.0000 0.0000 0.0000 41.2650 0.0000
# 6 0.0000 0.0000 0.0000 0.0000 0.0000 24.6018
#
#
#
# Elastic Compliance Matrix: (Units=1/GPa)
#
#
# Indices 1 2 3 4 5 6 
#
# 1 0.010030 -0.005275 -0.002685 0.000000 0.000000 0.000000
# 2 -0.005275 0.017057 -0.001465 0.000000 0.000000 0.000000
# 3 -0.002685 -0.001465 0.009536 0.000000 0.000000 0.000000
# 4 0.000000 0.000000 0.000000 0.029073 0.000000 0.000000
# 5 0.000000 0.000000 0.000000 0.000000 0.024234 0.000000
# 6 0.000000 0.000000 0.000000 0.000000 0.000000 0.040647
#
#
# Mechanical properties :
#
#
# Convention : Reuss Voigt Hill
#
# Bulk Modulus (GPa) = 56.26185 62.64966 59.45575
# Shear Modulus (GPa) = 32.18513 34.49118 33.33815
#
# Velocity S-wave (km/s) = 3.88819 4.02507 3.95722
# Velocity P-wave (km/s) = 6.82530 7.14349 6.98620
#
# Compressibility (1/GPa) = 0.01777403
#
# Stress axis : x y z
#
# Youngs Moduli (GPa) = 99.70077 58.62602 104.86612
#
# Poissons Ratio (x) = 0.30924 0.28153
# Poissons Ratio (y) = 0.52591 0.15364
# Poissons Ratio (z) = 0.26766 0.08589
#
# Static dielectric constant tensor:
#      x y z
#    x 3.756880 0.000000 0.000000 
#    y 0.000000 3.782120 0.000000 
#    z 0.000000 0.000000 4.092080 
# 
# 
# High freq. dielectric constant tensor:
#      x y z
#    x 1.844560 0.000000 0.000000 
#    y 0.000000 1.830880 0.000000 
#    z 0.000000 0.000000 1.851270 
# 
# From -- ./inp_files/9977.got.cif
#   From: 2010.03.12/outbox.cif.g09.slc.cpg/sg23_5_cif.got.tgz:9977.got - 2010.04.14 02:50:06.
