data_PCOD8164627
_publ_section_title
;
Structure prediction by ZEFSAII (Michael W. Deem and Ramdas Pophale) SiO2 
 PCOD8164627
Probable space group: I 21 21 21
;
_chemical_formula_sum "Si O2"
_cell_formula_units_Z 60
_cell_length_a 11.234367
_cell_length_b 11.261805
_cell_length_c 27.517759
_cell_angle_alpha 90.000000
_cell_angle_beta 90.000000
_cell_angle_gamma 90.000000
_cell_volume 3481.526243
_symmetry_space_group_name_H-M "I 21 21 21"
_symmetry_group_IT_number 24
_symmetry_cell_setting 'orthorhombic'
loop_
_space_group_symop_operation_xyz
x,y,z
-x,1/2-y,z
x,-y,1/2-z
1/2-x,y,-z
1/2+x,1/2+y,1/2+z
1/2-x,-y,1/2+z
1/2+x,1/2-y,-z
-x,1/2+y,1/2-z
loop_
_atom_site_type_symbol
_atom_site_label
_atom_site_fract_x
_atom_site_fract_y
_atom_site_fract_z
Si Si1 0.358111 0.572259 0.891809
Si Si2 0.544279 0.377388 0.870484
Si Si3 0.000000 0.750000 0.173551
Si Si4 0.187722 0.032786 0.047049
Si Si5 0.673471 0.552338 0.801047
Si Si6 0.894390 0.110135 0.594866
Si Si7 0.967842 0.882888 0.010058
Si Si8 0.349875 0.119249 0.382022
O O1 0.427133 0.452938 0.880385
O O2 0.405437 0.682756 0.860346
O O3 0.219189 0.543089 0.881844
O O4 0.368631 0.608597 0.948260
O O5 0.500000 0.250000 0.852746
O O6 0.625563 0.367230 0.919228
O O7 0.620875 0.439543 0.829017
O O8 0.927552 0.654587 0.206076
O O9 0.284065 0.960021 0.077945
O O10 0.087525 0.943801 0.028663
O O11 0.250000 0.093140 0.000000
O O12 0.717993 0.500000 0.750000
O O13 0.784248 0.608792 0.830147
O O14 0.916623 0.063597 0.539919
O O15 0.856534 0.248296 0.597115
O O16 0.012838 0.077983 0.625616
O O17 0.000000 0.750000 0.997013
#
# Coordination Sequence:
#
# PCOD8164627 Si02
#       8
#     8   8   4   8   8   8   8   8
#     4  10  19  31  50  75 115 138 168 223 255 314
#     4   9  21  37  54  76 100 140 183 224 269 303
#     4  10  18  34  54  82 102 126 170 216 292 296
#     4  10  17  31  49  69 107 147 183 212 251 307
#     4  10  21  36  60  78 104 135 171 233 268 332
#     4  11  18  28  47  79 116 143 171 206 257 322
#     4  11  17  24  44  76 113 148 173 207 253 316
#     4  10  19  31  48  78 111 147 170 209 268 323
#
# _framework density 17.233820999999999
#
# number of rings (size 3 to 8) (size 9 to 14) (size 15 to 20)
#    0.000    1.867    4.667    2.000    0.933    0.000 
#    0.000    2.667    0.000    8.800    0.000    0.000 
#    0.000    0.000    0.000    0.000    0.000    0.000 
#
# Total GULP energy -371828.979205 kJ/mol
# GULP energy per Si atom -12394.299307 kJ/mol
# Density = 1.719460 g / cm^3
# Si number density = 17.233821 Si / 1000 Ang^3
#
#
#
# Elastic Constant Matrix: (Units=GPa)
#
#
# Indices 1 2 3 4 5 6 
#
# 1 122.2675 17.5636 32.7056 0.0000 0.0000 0.0000
# 2 17.5636 58.5473 18.6463 0.0000 0.0000 0.0000
# 3 32.7056 18.6463 83.4598 0.0000 0.0000 0.0000
# 4 0.0000 0.0000 0.0000 14.6744 0.0000 0.0000
# 5 0.0000 0.0000 0.0000 0.0000 -16.7797 0.0000
# 6 0.0000 0.0000 0.0000 0.0000 0.0000 14.4961
#
#
#
# Elastic Compliance Matrix: (Units=1/GPa)
#
#
# Indices 1 2 3 4 5 6 
#
# 1 0.009301 -0.001754 -0.003253 0.000000 0.000000 0.000000
# 2 -0.001754 0.018719 -0.003495 0.000000 0.000000 0.000000
# 3 -0.003253 -0.003495 0.014037 0.000000 0.000000 0.000000
# 4 0.000000 0.000000 0.000000 0.068146 0.000000 0.000000
# 5 0.000000 0.000000 0.000000 0.000000 -0.059596 0.000000
# 6 0.000000 0.000000 0.000000 0.000000 0.000000 0.068984
#
#
# Mechanical properties :
#
#
# Convention : Reuss Voigt Hill
#
# Bulk Modulus (GPa) = 39.91386 44.67841 42.29613
# Shear Modulus (GPa) = 34.49532 15.50209 24.99870
#
# Velocity S-wave (km/s) = 4.47878 3.00245 3.81275
# Velocity P-wave (km/s) = 7.06799 6.16447 6.63164
#
# Compressibility (1/GPa) = 0.02505396
#
# Stress axis : x y z
#
# Youngs Moduli (GPa) = 107.51664 53.42028 71.23866
#
# Poissons Ratio (x) = 0.09371 0.23173
# Poissons Ratio (y) = 0.18860 0.24897
# Poissons Ratio (z) = 0.34974 0.18669
#
# Static dielectric constant tensor:
#      x y z
#    x 3.570150 0.000000 0.000000 
#    y 0.000000 3.095490 0.000000 
#    z 0.000000 0.000000 3.126590 
# 
# 
# High freq. dielectric constant tensor:
#      x y z
#    x 1.678660 0.000000 0.000000 
#    y 0.000000 1.627330 0.000000 
#    z 0.000000 0.000000 1.647740 
# 
# From -- ./inp_files/38656.got.cif
#   From: 2010.03.12/outbox.cif.g09.slc.cpg/sg24_20_cif.got.tgz:38656.got - 2010.04.14 03:06:53.
