data_PCOD8164485
_publ_section_title
;
Structure prediction by ZEFSAII (Michael W. Deem and Ramdas Pophale) SiO2 
 PCOD8164485
Probable space group: I 2 2 2
;
_chemical_formula_sum "Si O2"
_cell_formula_units_Z 34
_cell_length_a 8.830824
_cell_length_b 9.465571
_cell_length_c 18.120638
_cell_angle_alpha 90.000000
_cell_angle_beta 90.000000
_cell_angle_gamma 90.000000
_cell_volume 1514.682233
_symmetry_space_group_name_H-M "I 2 2 2"
_symmetry_group_IT_number 23
_symmetry_cell_setting 'orthorhombic'
loop_
_space_group_symop_operation_xyz
x,y,z
-x,-y,z
x,-y,-z
-x,y,-z
1/2+x,1/2+y,1/2+z
1/2-x,1/2-y,1/2+z
1/2+x,1/2-y,1/2-z
1/2-x,1/2+y,1/2-z
loop_
_atom_site_type_symbol
_atom_site_label
_atom_site_fract_x
_atom_site_fract_y
_atom_site_fract_z
Si Si1 0.681930 0.781464 0.340986
Si Si2 0.000000 0.000000 0.000000
Si Si3 0.323408 0.997908 0.779282
Si Si4 0.354531 0.302234 0.613168
Si Si5 0.334302 0.663609 0.003839
O O1 0.708280 0.934889 0.303078
O O2 0.750147 0.652683 0.291314
O O3 0.501023 0.760555 0.345897
O O4 0.750864 0.779939 0.422749
O O5 0.109924 0.087634 0.050197
O O6 0.251152 0.879665 0.829809
O O7 0.500000 0.000000 0.797413
O O8 0.261857 0.183260 0.570566
O O9 0.360692 0.500000 0.000000
O O10 0.500000 0.738491 0.000000
#
# Coordination Sequence:
#
# PCOD8164485 Si02
#       5
#     8   2   8   8   8
#     4  12  26  47  71 108 142 191 236 288 359 423
#     4  12  20  44  72  96 132 176 244 290 340 408
#     4  12  27  45  71 107 146 190 234 292 356 421
#     4  12  23  46  76 101 139 188 241 294 349 422
#     4  11  26  46  74 106 141 180 238 298 355 417
#
# _framework density 22.446950999999999
#
# number of rings (size 3 to 8) (size 9 to 14) (size 15 to 20)
#    0.000    0.235    4.706    2.824    6.588    0.941 
#    4.235    2.353    0.000    0.000    0.000    0.000 
#    0.000    0.000    0.000    0.000    0.000    0.000 
#
# Total GULP energy -210738.549001 kJ/mol
# GULP energy per Si atom -12396.385235 kJ/mol
# Density = 2.239586 g / cm^3
# Si number density = 22.446951 Si / 1000 Ang^3
#
#
#
# Elastic Constant Matrix: (Units=GPa)
#
#
# Indices 1 2 3 4 5 6 
#
# 1 165.5113 37.9292 41.9469 0.0000 0.0000 0.0000
# 2 37.9292 82.2363 29.4487 0.0000 0.0000 0.0000
# 3 41.9469 29.4487 81.0932 0.0000 0.0000 0.0000
# 4 0.0000 0.0000 0.0000 61.6585 0.0000 0.0000
# 5 0.0000 0.0000 0.0000 0.0000 28.0432 0.0000
# 6 0.0000 0.0000 0.0000 0.0000 0.0000 28.7873
#
#
#
# Elastic Compliance Matrix: (Units=1/GPa)
#
#
# Indices 1 2 3 4 5 6 
#
# 1 0.007320 -0.002322 -0.002943 0.000000 0.000000 0.000000
# 2 -0.002322 0.014714 -0.004142 0.000000 0.000000 0.000000
# 3 -0.002943 -0.004142 0.015358 0.000000 0.000000 0.000000
# 4 0.000000 0.000000 0.000000 0.016218 0.000000 0.000000
# 5 0.000000 0.000000 0.000000 0.000000 0.035659 0.000000
# 6 0.000000 0.000000 0.000000 0.000000 0.000000 0.034738
#
#
# Mechanical properties :
#
#
# Convention : Reuss Voigt Hill
#
# Bulk Modulus (GPa) = 53.82894 60.83226 57.33060
# Shear Modulus (GPa) = 33.55360 38.33221 35.94291
#
# Velocity S-wave (km/s) = 3.87045 4.13689 4.00589
# Velocity P-wave (km/s) = 6.63374 7.06950 6.85508
#
# Compressibility (1/GPa) = 0.01857737
#
# Stress axis : x y z
#
# Youngs Moduli (GPa) = 136.61329 67.96022 65.11227
#
# Poissons Ratio (x) = 0.15782 0.19163
# Poissons Ratio (y) = 0.31725 0.26971
# Poissons Ratio (z) = 0.40206 0.28151
#
# Static dielectric constant tensor:
#      x y z
#    x 4.423700 0.000000 0.000000 
#    y 0.000000 4.150960 0.000000 
#    z 0.000000 0.000000 3.896660 
# 
# 
# High freq. dielectric constant tensor:
#      x y z
#    x 1.899670 0.000000 0.000000 
#    y 0.000000 1.891630 0.000000 
#    z 0.000000 0.000000 1.899380 
# 
# From -- ./inp_files/6728.got.cif
#   From: 2010.03.12/outbox.cif.g09.slc.cpg/sg23_4_cif.got.tgz:6728.got - 2010.04.14 02:50:06.
