data_PCOD8164455
_publ_section_title
;
Structure prediction by ZEFSAII (Michael W. Deem and Ramdas Pophale) SiO2 
 PCOD8164455
Probable space group: I 2 2 2
;
_chemical_formula_sum "Si O2"
_cell_formula_units_Z 48
_cell_length_a 8.578030
_cell_length_b 20.853824
_cell_length_c 10.771545
_cell_angle_alpha 90.000000
_cell_angle_beta 90.000000
_cell_angle_gamma 90.000000
_cell_volume 1926.864896
_symmetry_space_group_name_H-M "I 2 2 2"
_symmetry_group_IT_number 23
_symmetry_cell_setting 'orthorhombic'
loop_
_space_group_symop_operation_xyz
x,y,z
-x,-y,z
x,-y,-z
-x,y,-z
1/2+x,1/2+y,1/2+z
1/2-x,1/2-y,1/2+z
1/2+x,1/2-y,1/2-z
1/2-x,1/2+y,1/2-z
loop_
_atom_site_type_symbol
_atom_site_label
_atom_site_fract_x
_atom_site_fract_y
_atom_site_fract_z
Si Si1 0.603411 0.322475 0.112925
Si Si2 0.269234 0.095666 0.198961
Si Si3 0.157074 0.633813 0.942865
Si Si4 0.424911 0.816779 0.190916
Si Si5 0.157924 0.112191 0.942261
Si Si6 0.837119 0.972048 0.700646
O O1 0.622698 0.365179 0.237512
O O2 0.527284 0.254839 0.151666
O O3 0.500000 0.352390 0.000000
O O4 0.775841 0.322155 0.054228
O O5 0.429471 0.135195 0.190624
O O6 0.287288 0.029834 0.276942
O O7 0.227797 0.074184 0.060036
O O8 0.140931 0.683166 0.829632
O O9 0.265083 0.574383 0.902548
O O10 0.000000 0.604648 0.000000
O O11 0.286214 0.835372 0.097140
O O12 0.126860 0.063938 0.829803
O O13 0.000000 0.144144 0.000000
O O14 0.000000 0.000000 0.649957
#
# Coordination Sequence:
#
# PCOD8164455 Si02
#       6
#     8   8   8   8   8   8
#     4  12  28  47  75 109 156 199 266 317 393 482
#     4  12  25  47  76 112 155 208 254 323 401 467
#     4  11  26  52  78 114 150 209 259 332 402 483
#     4  11  28  49  75 114 152 202 266 322 403 467
#     4  11  24  43  78 112 151 197 252 323 380 463
#     4  11  24  48  81 116 158 203 263 323 405 480
#
# _framework density 24.910931000000001
#
# number of rings (size 3 to 8) (size 9 to 14) (size 15 to 20)
#    0.000    0.667    3.333    3.000    7.000    4.000 
#    3.000    5.000    0.000    0.000    0.000    0.000 
#    0.000    0.000    0.000    0.000    0.000    0.000 
#
# Total GULP energy -297366.286416 kJ/mol
# GULP energy per Si atom -12390.261934 kJ/mol
# Density = 2.485423 g / cm^3
# Si number density = 24.910931 Si / 1000 Ang^3
#
#
#
# Elastic Constant Matrix: (Units=GPa)
#
#
# Indices 1 2 3 4 5 6 
#
# 1 124.8742 46.1311 43.7645 0.0002 -0.0001 -0.0001
# 2 46.1311 100.0812 42.9437 -0.0002 0.0001 0.0001
# 3 43.7645 42.9437 121.0693 -0.0003 0.0001 0.0007
# 4 0.0002 -0.0002 -0.0003 12.3829 0.0001 0.0003
# 5 -0.0001 0.0001 0.0001 0.0001 51.2793 -0.0002
# 6 -0.0001 0.0001 0.0007 0.0003 -0.0002 34.7881
#
#
#
# Elastic Compliance Matrix: (Units=1/GPa)
#
#
# Indices 1 2 3 4 5 6 
#
# 1 0.010203 -0.003680 -0.002383 0.000000 0.000000 0.000000
# 2 -0.003680 0.013113 -0.003321 0.000000 0.000000 0.000000
# 3 -0.002383 -0.003321 0.010299 0.000000 0.000000 0.000000
# 4 0.000000 0.000000 0.000000 0.080757 0.000000 -0.000001
# 5 0.000000 0.000000 0.000000 0.000000 0.019501 0.000000
# 6 0.000000 0.000000 0.000000 -0.000001 0.000000 0.028745
#
#
# Mechanical properties :
#
#
# Convention : Reuss Voigt Hill
#
# Bulk Modulus (GPa) = 67.35379 67.96705 67.66042
# Shear Modulus (GPa) = 26.83339 33.90242 30.36790
#
# Velocity S-wave (km/s) = 3.28559 3.69310 3.49529
# Velocity P-wave (km/s) = 6.44128 6.74749 6.59616
#
# Compressibility (1/GPa) = 0.01484697
#
# Stress axis : x y z
#
# Youngs Moduli (GPa) = 98.01290 76.25843 97.09716
#
# Poissons Ratio (x) = 0.28066 0.23135
# Poissons Ratio (y) = 0.36073 0.32245
# Poissons Ratio (z) = 0.23353 0.25325
#
# Static dielectric constant tensor:
#      x y z
#    x 5.093420 0.000000 0.000000 
#    y 0.000000 4.178660 0.000000 
#    z 0.000000 0.000000 4.983900 
# 
# 
# High freq. dielectric constant tensor:
#      x y z
#    x 1.999780 0.000000 0.000000 
#    y 0.000000 1.966530 0.000000 
#    z 0.000000 0.000000 2.020720 
# 
# From -- ./inp_files/14752.got.cif
#   From: 2010.03.12/outbox.cif.g09.slc.cpg/sg23_8_cif.got.tgz:14752.got - 2010.04.14 02:50:06.
