data_PCOD8164410
_publ_section_title
;
Structure prediction by ZEFSAII (Michael W. Deem and Ramdas Pophale) SiO2 
 PCOD8164410
Probable space group: I 2 2 2
;
_chemical_formula_sum "Si O2"
_cell_formula_units_Z 32
_cell_length_a 34.786453
_cell_length_b 4.767041
_cell_length_c 8.455383
_cell_angle_alpha 90.000000
_cell_angle_beta 90.000000
_cell_angle_gamma 90.000000
_cell_volume 1402.143038
_symmetry_space_group_name_H-M "I 2 2 2"
_symmetry_group_IT_number 23
_symmetry_cell_setting 'orthorhombic'
loop_
_space_group_symop_operation_xyz
x,y,z
-x,-y,z
x,-y,-z
-x,y,-z
1/2+x,1/2+y,1/2+z
1/2-x,1/2-y,1/2+z
1/2+x,1/2-y,1/2-z
1/2-x,1/2+y,1/2-z
loop_
_atom_site_type_symbol
_atom_site_label
_atom_site_fract_x
_atom_site_fract_y
_atom_site_fract_z
Si Si1 0.580123 0.463170 0.174487
Si Si2 0.338451 0.272185 0.111395
Si Si3 0.042690 0.545868 0.183500
Si Si4 0.270678 0.596313 0.682992
O O1 0.623214 0.583649 0.181418
O O2 0.553076 0.631196 0.293388
O O3 0.575446 0.139588 0.227335
O O4 0.563247 0.500000 0.000000
O O5 0.309264 0.236786 0.258867
O O6 0.318151 0.500000 0.000000
O O7 0.346775 0.000000 0.000000
O O8 0.000000 0.500000 0.252764
O O9 0.044105 0.500000 0.000000
O O10 0.273242 0.500000 0.500000
O O11 0.263517 0.320640 0.790925
#
# Coordination Sequence:
#
# PCOD8164410 Si02
#       4
#     8   8   8   8
#     4  11  23  41  65  93 124 165 214 264 319 380
#     4  11  23  43  66  92 130 170 212 266 325 383
#     4  11  24  41  62  91 129 169 210 263 323 382
#     4  12  25  42  66  96 129 169 216 266 323 383
#
# _framework density 22.822206999999999
#
# number of rings (size 3 to 8) (size 9 to 14) (size 15 to 20)
#    0.000    0.750    0.000    9.750    0.000    7.000 
#    0.000    0.000    0.000    0.000    0.000    0.000 
#    0.000    0.000    0.000    0.000    0.000    0.000 
#
# Total GULP energy -198275.073833 kJ/mol
# GULP energy per Si atom -12392.192115 kJ/mol
# Density = 2.277026 g / cm^3
# Si number density = 22.822207 Si / 1000 Ang^3
#
#
#
# Elastic Constant Matrix: (Units=GPa)
#
#
# Indices 1 2 3 4 5 6 
#
# 1 108.9636 22.3773 52.6859 0.0000 0.0000 0.0000
# 2 22.3773 91.4289 22.7909 0.0000 0.0000 0.0000
# 3 52.6859 22.7909 102.6961 0.0000 0.0000 0.0000
# 4 0.0000 0.0000 0.0000 47.9766 0.0000 0.0000
# 5 0.0000 0.0000 0.0000 0.0000 548.1177 0.0000
# 6 0.0000 0.0000 0.0000 0.0000 0.0000 53.4369
#
#
#
# Elastic Compliance Matrix: (Units=1/GPa)
#
#
# Indices 1 2 3 4 5 6 
#
# 1 0.012405 -0.001535 -0.006024 0.000000 0.000000 0.000000
# 2 -0.001535 0.011768 -0.001824 0.000000 0.000000 0.000000
# 3 -0.006024 -0.001824 0.013233 0.000000 0.000000 0.000000
# 4 0.000000 0.000000 0.000000 0.020844 0.000000 0.000000
# 5 0.000000 0.000000 0.000000 0.000000 0.001824 0.000000
# 6 0.000000 0.000000 0.000000 0.000000 0.000000 0.018714
#
#
# Mechanical properties :
#
#
# Convention : Reuss Voigt Hill
#
# Bulk Modulus (GPa) = 53.64663 55.42190 54.53426
# Shear Modulus (GPa) = 48.18561 143.58852 95.88707
#
# Velocity S-wave (km/s) = 4.59993 7.94057 6.48892
# Velocity P-wave (km/s) = 7.19512 10.41188 8.94922
#
# Compressibility (1/GPa) = 0.01864050
#
# Stress axis : x y z
#
# Youngs Moduli (GPa) = 80.61244 84.97760 75.57112
#
# Poissons Ratio (x) = 0.13041 0.45521
# Poissons Ratio (y) = 0.12371 0.13786
# Poissons Ratio (z) = 0.48557 0.15502
#
# Static dielectric constant tensor:
#      x y z
#    x 4.045790 0.000000 0.000000 
#    y 0.000000 -58.247210 0.000000 
#    z 0.000000 0.000000 3.999160 
# 
# 
# High freq. dielectric constant tensor:
#      x y z
#    x 1.900420 0.000000 0.000000 
#    y 0.000000 1.919820 0.000000 
#    z 0.000000 0.000000 1.897180 
# 
# From -- ./inp_files/13158.got.cif
#   From: 2010.03.12/outbox.cif.g09.slc.cpg/sg23_7_cif.got.tgz:13158.got - 2010.04.14 02:50:06.
