data_PCOD8164670
_publ_section_title
;
Structure prediction by ZEFSAII (Michael W. Deem and Ramdas Pophale) SiO2 
 PCOD8164670
Probable space group: I 21 21 21
;
_chemical_formula_sum "Si O2"
_cell_formula_units_Z 48
_cell_length_a 17.512091
_cell_length_b 12.657362
_cell_length_c 12.359639
_cell_angle_alpha 90.000000
_cell_angle_beta 90.000000
_cell_angle_gamma 90.000000
_cell_volume 2739.598959
_symmetry_space_group_name_H-M "I 21 21 21"
_symmetry_group_IT_number 24
_symmetry_cell_setting 'orthorhombic'
loop_
_space_group_symop_operation_xyz
x,y,z
-x,1/2-y,z
x,-y,1/2-z
1/2-x,y,-z
1/2+x,1/2+y,1/2+z
1/2-x,-y,1/2+z
1/2+x,1/2-y,-z
-x,1/2+y,1/2-z
loop_
_atom_site_type_symbol
_atom_site_label
_atom_site_fract_x
_atom_site_fract_y
_atom_site_fract_z
Si Si1 0.050382 0.336844 0.344939
Si Si2 0.948199 0.500000 0.250000
Si Si3 0.000000 0.750000 0.546551
Si Si4 0.170662 0.538278 0.047403
Si Si5 0.893312 0.293444 0.148936
Si Si6 0.239866 0.651993 0.372523
Si Si7 0.599703 0.923358 0.348271
O O1 0.130485 0.358645 0.402325
O O2 0.062198 0.289097 0.224892
O O3 0.000000 0.250000 0.411027
O O4 0.002514 0.445085 0.338674
O O5 0.895565 0.413230 0.191515
O O6 0.071237 0.786713 0.471510
O O7 0.030335 0.656585 0.624794
O O8 0.186134 0.452457 0.144447
O O9 0.250000 0.581857 0.000000
O O10 0.115855 0.492499 0.954387
O O11 0.803835 0.260276 0.154636
O O12 0.250000 0.644945 0.500000
O O13 0.322392 0.641301 0.314382
O O14 0.574989 0.000000 0.250000
#
# Coordination Sequence:
#
# PCOD8164670 Si02
#       7
#     8   4   4   8   8   8   8
#     4  10  19  30  50  82 110 136 171 218 295 340
#     4  10  18  28  48  80 114 128 172 212 284 344
#     4  12  18  38  58  82 116 136 198 228 280 346
#     4   9  18  33  51  81 108 137 180 236 280 332
#     4  11  19  31  56  84 107 144 170 233 284 336
#     4   9  18  33  54  81 103 137 184 232 281 320
#     4  10  22  36  56  81 104 152 193 236 271 333
#
# _framework density 17.520811999999999
#
# number of rings (size 3 to 8) (size 9 to 14) (size 15 to 20)
#    0.000    2.333    5.833    2.000    4.667    0.000 
#    1.500    0.000    1.833    4.000    0.000    0.000 
#    0.000    0.000    0.000    0.000    0.000    0.000 
#
# Total GULP energy -297356.453216 kJ/mol
# GULP energy per Si atom -12389.852217 kJ/mol
# Density = 1.748093 g / cm^3
# Si number density = 17.520812 Si / 1000 Ang^3
#
#
#
# Elastic Constant Matrix: (Units=GPa)
#
#
# Indices 1 2 3 4 5 6 
#
# 1 99.2218 67.9835 32.9577 0.0000 0.0000 0.0000
# 2 67.9835 118.4698 43.4171 0.0000 0.0000 0.0000
# 3 32.9577 43.4171 56.3792 0.0000 0.0000 0.0000
# 4 0.0000 0.0000 0.0000 25.5382 0.0000 0.0000
# 5 0.0000 0.0000 0.0000 0.0000 12.0243 0.0000
# 6 0.0000 0.0000 0.0000 0.0000 0.0000 48.9324
#
#
#
# Elastic Compliance Matrix: (Units=1/GPa)
#
#
# Indices 1 2 3 4 5 6 
#
# 1 0.017062 -0.008548 -0.003391 0.000000 0.000000 0.000000
# 2 -0.008548 0.016043 -0.007357 0.000000 0.000000 0.000000
# 3 -0.003391 -0.007357 0.025385 0.000000 0.000000 0.000000
# 4 0.000000 0.000000 0.000000 0.039157 0.000000 0.000000
# 5 0.000000 0.000000 0.000000 0.000000 0.083165 0.000000
# 6 0.000000 0.000000 0.000000 0.000000 0.000000 0.020436
#
#
# Mechanical properties :
#
#
# Convention : Reuss Voigt Hill
#
# Bulk Modulus (GPa) = 50.25967 62.53191 56.39579
# Shear Modulus (GPa) = 20.28626 25.94649 23.11638
#
# Velocity S-wave (km/s) = 3.40639 3.85242 3.63625
# Velocity P-wave (km/s) = 6.64976 7.45357 7.06311
#
# Compressibility (1/GPa) = 0.01989667
#
# Stress axis : x y z
#
# Youngs Moduli (GPa) = 58.61115 62.33442 39.39318
#
# Poissons Ratio (x) = 0.53283 0.13358
# Poissons Ratio (y) = 0.50101 0.28983
# Poissons Ratio (z) = 0.19875 0.45861
#
# Static dielectric constant tensor:
#      x y z
#    x 3.495010 0.000000 0.000000 
#    y 0.000000 3.488920 0.000000 
#    z 0.000000 0.000000 2.997100 
# 
# 
# High freq. dielectric constant tensor:
#      x y z
#    x 1.673680 0.000000 0.000000 
#    y 0.000000 1.661310 0.000000 
#    z 0.000000 0.000000 1.650020 
# 
# From -- ./inp_files/22173.got.cif
#   From: 2010.03.12/outbox.cif.g09.slc.cpg/sg24_12_cif.got.tgz:22173.got - 2010.04.14 03:06:53.
