data_PCOD8164799
_publ_section_title
;
Structure prediction by ZEFSAII (Michael W. Deem and Ramdas Pophale) SiO2 
 PCOD8164799
Probable space group: I 21 21 21
;
_chemical_formula_sum "Si O2"
_cell_formula_units_Z 36
_cell_length_a 15.627687
_cell_length_b 11.257269
_cell_length_c 11.001863
_cell_angle_alpha 90.000000
_cell_angle_beta 90.000000
_cell_angle_gamma 90.000000
_cell_volume 1935.503589
_symmetry_space_group_name_H-M "I 21 21 21"
_symmetry_group_IT_number 24
_symmetry_cell_setting 'orthorhombic'
loop_
_space_group_symop_operation_xyz
x,y,z
-x,1/2-y,z
x,-y,1/2-z
1/2-x,y,-z
1/2+x,1/2+y,1/2+z
1/2-x,-y,1/2+z
1/2+x,1/2-y,-z
-x,1/2+y,1/2-z
loop_
_atom_site_type_symbol
_atom_site_label
_atom_site_fract_x
_atom_site_fract_y
_atom_site_fract_z
Si Si1 0.750000 0.950596 0.000000
Si Si2 0.825063 0.340924 0.913440
Si Si3 0.250000 0.068117 0.500000
Si Si4 0.761323 0.755560 0.191316
Si Si5 0.882311 0.093623 0.150655
Si Si6 0.000000 0.750000 0.484403
O O1 0.723316 0.867671 0.115057
O O2 0.827504 0.034693 0.041585
O O3 0.821062 0.484112 0.934414
O O4 0.811728 0.303919 0.773698
O O5 0.750000 0.283196 0.000000
O O6 0.918936 0.292122 0.938849
O O7 0.295651 0.153336 0.599666
O O8 0.835497 0.797230 0.282020
O O9 0.971033 0.139487 0.097064
O O10 0.909811 0.000000 0.250000
#
# Coordination Sequence:
#
# PCOD8164799 Si02
#       6
#     4   8   4   8   8   4
#     4   9  20  37  62  84 108 153 196 233 284 332
#     4  10  21  36  59  83 115 150 186 229 282 336
#     4   9  20  35  62  88 110 151 192 229 290 336
#     4  10  18  38  62  83 114 150 190 239 281 333
#     4  10  20  34  56  85 114 147 194 238 280 332
#     4  12  22  36  56  86 116 154 188 228 288 340
#
# _framework density 18.599810999999999
#
# number of rings (size 3 to 8) (size 9 to 14) (size 15 to 20)
#    0.667    1.333    2.222    2.000    0.000    1.778 
#    0.000    4.444    0.000    2.667    0.000    0.000 
#    0.000    0.000    0.000    0.000    0.000    0.000 
#
# Total GULP energy -223008.356390 kJ/mol
# GULP energy per Si atom -12389.353133 kJ/mol
# Density = 1.855748 g / cm^3
# Si number density = 18.599811 Si / 1000 Ang^3
#
#
#
# Elastic Constant Matrix: (Units=GPa)
#
#
# Indices 1 2 3 4 5 6 
#
# 1 96.7899 49.0560 45.0200 0.0000 0.0000 0.0000
# 2 49.0560 114.0068 52.6308 0.0000 0.0000 0.0000
# 3 45.0200 52.6308 105.4419 0.0000 0.0000 0.0000
# 4 0.0000 0.0000 0.0000 40.0579 0.0000 0.0000
# 5 0.0000 0.0000 0.0000 0.0000 15.0377 0.0000
# 6 0.0000 0.0000 0.0000 0.0000 0.0000 18.6306
#
#
#
# Elastic Compliance Matrix: (Units=1/GPa)
#
#
# Indices 1 2 3 4 5 6 
#
# 1 0.014386 -0.004359 -0.003967 0.000000 0.000000 0.000000
# 2 -0.004359 0.012719 -0.004487 0.000000 0.000000 0.000000
# 3 -0.003967 -0.004487 0.013417 0.000000 0.000000 0.000000
# 4 0.000000 0.000000 0.000000 0.024964 0.000000 0.000000
# 5 0.000000 0.000000 0.000000 0.000000 0.066500 0.000000
# 6 0.000000 0.000000 0.000000 0.000000 0.000000 0.053675
#
#
# Mechanical properties :
#
#
# Convention : Reuss Voigt Hill
#
# Bulk Modulus (GPa) = 67.13132 67.73912 67.43522
# Shear Modulus (GPa) = 23.12128 26.04737 24.58433
#
# Velocity S-wave (km/s) = 3.52958 3.74627 3.63953
# Velocity P-wave (km/s) = 7.26508 7.43041 7.34821
#
# Compressibility (1/GPa) = 0.01489618
#
# Stress axis : x y z
#
# Youngs Moduli (GPa) = 69.51271 78.62528 74.53091
#
# Poissons Ratio (x) = 0.34273 0.29563
# Poissons Ratio (y) = 0.30300 0.33444
# Poissons Ratio (z) = 0.27572 0.35281
#
# Static dielectric constant tensor:
#      x y z
#    x 2.963740 0.000000 0.000000 
#    y 0.000000 3.678420 0.000000 
#    z 0.000000 0.000000 3.634740 
# 
# 
# High freq. dielectric constant tensor:
#      x y z
#    x 1.669160 0.000000 0.000000 
#    y 0.000000 1.742170 0.000000 
#    z 0.000000 0.000000 1.736270 
# 
# From -- ./inp_files/20491.got.cif
#   From: 2010.03.12/outbox.cif.g09.slc.cpg/sg24_11_cif.got.tgz:20491.got - 2010.04.14 03:06:53.
