data_PCOD8164443
_publ_section_title
;
Structure prediction by ZEFSAII (Michael W. Deem and Ramdas Pophale) SiO2 
 PCOD8164443
Probable space group: I 2 2 2
;
_chemical_formula_sum "Si O2"
_cell_formula_units_Z 64
_cell_length_a 11.394428
_cell_length_b 14.829242
_cell_length_c 18.685772
_cell_angle_alpha 90.000000
_cell_angle_beta 90.000000
_cell_angle_gamma 90.000000
_cell_volume 3157.348540
_symmetry_space_group_name_H-M "I 2 2 2"
_symmetry_group_IT_number 23
_symmetry_cell_setting 'orthorhombic'
loop_
_space_group_symop_operation_xyz
x,y,z
-x,-y,z
x,-y,-z
-x,y,-z
1/2+x,1/2+y,1/2+z
1/2-x,1/2-y,1/2+z
1/2+x,1/2-y,1/2-z
1/2-x,1/2+y,1/2-z
loop_
_atom_site_type_symbol
_atom_site_label
_atom_site_fract_x
_atom_site_fract_y
_atom_site_fract_z
Si Si1 0.790881 0.830512 0.681677
Si Si2 0.958989 0.898540 0.075407
Si Si3 0.184916 0.250206 0.420566
Si Si4 0.091326 0.765940 0.175063
Si Si5 0.505798 0.601835 0.084816
Si Si6 0.489034 0.898424 0.116583
Si Si7 0.952562 0.594956 0.216537
Si Si8 0.726636 0.809591 0.073917
O O1 0.873040 0.801366 0.746957
O O2 0.871541 0.866238 0.617105
O O3 0.689045 0.899697 0.706832
O O4 0.729497 0.745075 0.644059
O O5 0.817457 0.892964 0.072183
O O6 0.014747 0.844140 0.140182
O O7 0.000000 0.000000 0.084756
O O8 0.000000 0.856855 0.000000
O O9 0.294538 0.241760 0.369289
O O10 0.227157 0.246064 0.503012
O O11 0.099737 0.169433 0.393366
O O12 0.127668 0.349341 0.411278
O O13 0.014482 0.675803 0.175187
O O14 0.500000 0.500000 0.114764
O O15 0.500000 0.602230 0.000000
O O16 0.490216 0.897096 0.201642
O O17 0.595688 0.843311 0.084043
O O18 0.500000 0.000000 0.087173
O O19 0.000000 0.500000 0.185290
#
# Coordination Sequence:
#
# PCOD8164443 Si02
#       8
#     8   8   8   8   8   8   8   8
#     4  12  24  45  68  96 136 180 224 287 341 399
#     4  11  26  44  66 101 139 178 224 275 342 421
#     4  12  23  42  65 101 133 176 220 277 340 408
#     4  12  25  43  68  96 135 181 228 278 342 411
#     4  11  24  43  69 101 133 172 225 285 342 402
#     4  11  24  41  65 100 133 169 222 277 341 409
#     4  11  25  44  67 100 137 178 228 282 338 405
#     4  12  23  41  70  92 137 180 217 279 340 404
#
# _framework density 20.270171999999999
#
# number of rings (size 3 to 8) (size 9 to 14) (size 15 to 20)
#    0.000    0.500    7.500    0.375    3.500    1.500 
#    0.000    0.000    0.000    2.625    0.000    0.000 
#    0.000    0.000    0.000    0.000    0.000    0.000 
#
# Total GULP energy -396728.206530 kJ/mol
# GULP energy per Si atom -12397.756454 kJ/mol
# Density = 2.022404 g / cm^3
# Si number density = 20.270172 Si / 1000 Ang^3
#
#
#
# Elastic Constant Matrix: (Units=GPa)
#
#
# Indices 1 2 3 4 5 6 
#
# 1 112.4948 38.3261 29.7460 0.0000 0.0000 0.0000
# 2 38.3261 113.8838 37.2225 0.0000 0.0000 0.0000
# 3 29.7460 37.2225 96.4240 0.0000 0.0000 0.0000
# 4 0.0000 0.0000 0.0000 27.2227 0.0000 0.0000
# 5 0.0000 0.0000 0.0000 0.0000 31.5323 0.0000
# 6 0.0000 0.0000 0.0000 0.0000 0.0000 31.2136
#
#
#
# Elastic Compliance Matrix: (Units=1/GPa)
#
#
# Indices 1 2 3 4 5 6 
#
# 1 0.010408 -0.002808 -0.002127 0.000000 0.000000 0.000000
# 2 -0.002808 0.010806 -0.003305 0.000000 0.000000 0.000000
# 3 -0.002127 -0.003305 0.012303 0.000000 0.000000 0.000000
# 4 0.000000 0.000000 0.000000 0.036734 0.000000 0.000000
# 5 0.000000 0.000000 0.000000 0.000000 0.031714 0.000000
# 6 0.000000 0.000000 0.000000 0.000000 0.000000 0.032037
#
#
# Mechanical properties :
#
#
# Convention : Reuss Voigt Hill
#
# Bulk Modulus (GPa) = 58.69440 59.26576 58.98008
# Shear Modulus (GPa) = 32.01818 32.49425 32.25621
#
# Velocity S-wave (km/s) = 3.97869 4.00816 3.99346
# Velocity P-wave (km/s) = 7.07994 7.12193 7.10097
#
# Compressibility (1/GPa) = 0.01703740
#
# Stress axis : x y z
#
# Youngs Moduli (GPa) = 96.07762 92.54069 81.28101
#
# Poissons Ratio (x) = 0.25981 0.17289
# Poissons Ratio (y) = 0.26974 0.26866
# Poissons Ratio (z) = 0.20436 0.30588
#
# Static dielectric constant tensor:
#      x y z
#    x 3.680210 0.000000 0.000000 
#    y 0.000000 4.027450 0.000000 
#    z 0.000000 0.000000 3.814290 
# 
# 
# High freq. dielectric constant tensor:
#      x y z
#    x 1.801110 0.000000 0.000000 
#    y 0.000000 1.790710 0.000000 
#    z 0.000000 0.000000 1.799600 
# 
# From -- ./inp_files/24429.got.cif
#   From: 2010.03.12/outbox.cif.g09.slc.cpg/sg23_13_cif.got.tgz:24429.got - 2010.04.14 02:50:06.
