data_PCOD8164833
_publ_section_title
;
Structure prediction by ZEFSAII (Michael W. Deem and Ramdas Pophale) SiO2 
 PCOD8164833
Probable space group: I 21 21 21
;
_chemical_formula_sum "Si O2"
_cell_formula_units_Z 52
_cell_length_a 14.535567
_cell_length_b 22.370090
_cell_length_c 8.216158
_cell_angle_alpha 90.000000
_cell_angle_beta 90.000000
_cell_angle_gamma 90.000000
_cell_volume 2671.581891
_symmetry_space_group_name_H-M "I 21 21 21"
_symmetry_group_IT_number 24
_symmetry_cell_setting 'orthorhombic'
loop_
_space_group_symop_operation_xyz
x,y,z
-x,1/2-y,z
x,-y,1/2-z
1/2-x,y,-z
1/2+x,1/2+y,1/2+z
1/2-x,-y,1/2+z
1/2+x,1/2-y,-z
-x,1/2+y,1/2-z
loop_
_atom_site_type_symbol
_atom_site_label
_atom_site_fract_x
_atom_site_fract_y
_atom_site_fract_z
Si Si1 0.574648 0.562403 0.170027
Si Si2 0.367249 0.822203 0.772573
Si Si3 0.929850 0.334494 0.920234
Si Si4 0.039845 0.350765 0.483367
Si Si5 0.391476 0.706070 0.299766
Si Si6 0.250000 0.099439 0.500000
Si Si7 0.205898 0.697200 0.169227
O O1 0.546769 0.500000 0.250000
O O2 0.595672 0.609374 0.311137
O O3 0.488629 0.584627 0.058169
O O4 0.667115 0.556965 0.061482
O O5 0.389659 0.849267 0.596490
O O6 0.283856 0.859027 0.851446
O O7 0.343685 0.752893 0.746413
O O8 0.455767 0.824115 0.885216
O O9 0.882702 0.276312 0.838482
O O10 0.041596 0.325265 0.932895
O O11 0.058888 0.303214 0.626136
O O12 0.131350 0.355453 0.368167
O O13 0.288973 0.676429 0.290354
O O14 0.250000 0.719779 0.000000
#
# Coordination Sequence:
#
# PCOD8164833 Si02
#       7
#     8   8   8   8   8   4   8
#     4  10  22  40  58  79 113 161 201 253 297 354
#     4  11  21  34  53  86 117 157 191 243 303 362
#     4  10  22  35  52  82 124 152 188 251 308 361
#     4   9  21  35  57  79 114 156 203 235 301 372
#     4   9  20  35  51  84 119 150 187 243 307 367
#     4  10  22  36  56  80 110 154 210 236 288 374
#     4  10  19  30  55  82 112 151 194 233 285 375
#
# _framework density 19.464122
#
# number of rings (size 3 to 8) (size 9 to 14) (size 15 to 20)
#    0.000    2.154    0.769    1.385   21.538    3.692 
#    0.000    2.308    0.000    0.000    0.000   43.077 
#    0.000    0.000    0.000    0.000    0.000    0.000 
#
# Total GULP energy -322234.157636 kJ/mol
# GULP energy per Si atom -12393.621448 kJ/mol
# Density = 1.941982 g / cm^3
# Si number density = 19.464122 Si / 1000 Ang^3
#
#
#
# Elastic Constant Matrix: (Units=GPa)
#
#
# Indices 1 2 3 4 5 6 
#
# 1 135.0900 37.9962 39.5888 0.0001 0.0001 0.0000
# 2 37.9962 73.9107 24.0192 0.0000 0.0000 0.0000
# 3 39.5888 24.0192 71.6750 0.0006 0.0005 -0.0001
# 4 0.0001 0.0000 0.0006 19.2637 0.0001 0.0000
# 5 0.0001 0.0000 0.0005 0.0001 27.5511 0.0000
# 6 0.0000 0.0000 -0.0001 0.0000 0.0000 13.3315
#
#
#
# Elastic Compliance Matrix: (Units=1/GPa)
#
#
# Indices 1 2 3 4 5 6 
#
# 1 0.009621 -0.003612 -0.004103 0.000000 0.000000 0.000000
# 2 -0.003612 0.016540 -0.003547 0.000000 0.000000 0.000000
# 3 -0.004103 -0.003547 0.017407 0.000000 0.000000 0.000000
# 4 0.000000 0.000000 0.000000 0.051911 0.000000 0.000000
# 5 0.000000 0.000000 0.000000 0.000000 0.036296 0.000000
# 6 0.000000 0.000000 0.000000 0.000000 0.000000 0.075010
#
#
# Mechanical properties :
#
#
# Convention : Reuss Voigt Hill
#
# Bulk Modulus (GPa) = 47.52562 53.76490 50.64526
# Shear Modulus (GPa) = 21.15719 23.96734 22.56227
#
# Velocity S-wave (km/s) = 3.30052 3.51288 3.40836
# Velocity P-wave (km/s) = 6.24457 6.64352 6.44713
#
# Compressibility (1/GPa) = 0.02104128
#
# Stress axis : x y z
#
# Youngs Moduli (GPa) = 103.93832 60.46029 57.44768
#
# Poissons Ratio (x) = 0.21841 0.23574
# Poissons Ratio (y) = 0.37548 0.20379
# Poissons Ratio (z) = 0.42651 0.21448
#
# Static dielectric constant tensor:
#      x y z
#    x 4.015250 0.000000 0.000000 
#    y 0.000000 3.047680 0.000000 
#    z 0.000000 0.000000 3.621950 
# 
# 
# High freq. dielectric constant tensor:
#      x y z
#    x 1.776280 0.000000 0.000000 
#    y 0.000000 1.692390 0.000000 
#    z 0.000000 0.000000 1.758730 
# 
# From -- ./inp_files/13061.got.cif
#   From: 2010.03.12/outbox.cif.g09.slc.cpg/sg24_7_cif.got.tgz:13061.got - 2010.04.14 03:06:53.
