data_PCOD8164969
_publ_section_title
;
Structure prediction by ZEFSAII (Michael W. Deem and Ramdas Pophale) SiO2 
 PCOD8164969
Probable space group: I 21 21 21
;
_chemical_formula_sum "Si O2"
_cell_formula_units_Z 52
_cell_length_a 28.492091
_cell_length_b 5.110484
_cell_length_c 18.860479
_cell_angle_alpha 90.000000
_cell_angle_beta 90.000000
_cell_angle_gamma 90.000000
_cell_volume 2746.243702
_symmetry_space_group_name_H-M "I 21 21 21"
_symmetry_group_IT_number 24
_symmetry_cell_setting 'orthorhombic'
loop_
_space_group_symop_operation_xyz
x,y,z
-x,1/2-y,z
x,-y,1/2-z
1/2-x,y,-z
1/2+x,1/2+y,1/2+z
1/2-x,-y,1/2+z
1/2+x,1/2-y,-z
-x,1/2+y,1/2-z
loop_
_atom_site_type_symbol
_atom_site_label
_atom_site_fract_x
_atom_site_fract_y
_atom_site_fract_z
Si Si1 0.362939 0.736084 0.914119
Si Si2 0.320737 0.749118 0.204791
Si Si3 0.113353 0.777097 0.927268
Si Si4 0.920306 0.271655 0.099768
Si Si5 0.288997 0.249298 0.704040
Si Si6 0.053211 0.735684 0.556705
Si Si7 0.000000 0.250000 0.205412
O O1 0.378955 0.438471 0.905035
O O2 0.313904 0.760187 0.872646
O O3 0.399581 0.943411 0.880694
O O4 0.358767 0.800287 0.997938
O O5 0.335695 0.500000 0.250000
O O6 0.347183 0.734077 0.130802
O O7 0.265872 0.749390 0.186894
O O8 0.335689 0.000000 0.250000
O O9 0.075383 0.545437 0.926896
O O10 0.085299 0.040973 0.907867
O O11 0.955320 0.170937 0.159326
O O12 0.948920 0.290764 0.026918
O O13 0.304403 0.500000 0.750000
O O14 0.303968 0.000000 0.750000
O O15 0.000000 0.750000 0.586581
O O16 0.985498 0.500000 0.250000
#
# Coordination Sequence:
#
# PCOD8164969 Si02
#       7
#     8   8   8   8   8   8   4
#     4  10  21  35  56  81 109 139 188 235 268 314
#     4  10  21  39  60  82 113 146 177 220 277 346
#     4  10  21  35  59  88 106 143 188 224 279 320
#     4  10  21  36  50  74 107 143 180 233 273 307
#     4  10  21  36  56  80 110 152 186 217 277 332
#     4  10  19  36  59  79 109 141 181 227 270 330
#     4  12  24  34  48  72 104 148 190 222 270 320
#
# _framework density 18.934954999999999
#
# number of rings (size 3 to 8) (size 9 to 14) (size 15 to 20)
#    0.000    1.846    0.769    3.231    0.000    4.308 
#    0.000    0.000    0.000   20.308    0.000    0.000 
#    0.000    0.000    0.000    0.000    0.000    0.000 
#
# Total GULP energy -322458.271902 kJ/mol
# GULP energy per Si atom -12402.241227 kJ/mol
# Density = 1.889186 g / cm^3
# Si number density = 18.934955 Si / 1000 Ang^3
#
#
#
# Elastic Constant Matrix: (Units=GPa)
#
#
# Indices 1 2 3 4 5 6 
#
# 1 81.1966 21.2600 59.9778 0.0000 0.0000 0.0000
# 2 21.2600 113.0205 26.4359 0.0000 0.0000 0.0000
# 3 59.9778 26.4359 96.2728 0.0000 0.0000 0.0000
# 4 0.0000 0.0000 0.0000 21.1108 0.0000 0.0000
# 5 0.0000 0.0000 0.0000 0.0000 32.4433 0.0000
# 6 0.0000 0.0000 0.0000 0.0000 0.0000 22.4015
#
#
#
# Elastic Compliance Matrix: (Units=1/GPa)
#
#
# Indices 1 2 3 4 5 6 
#
# 1 0.022929 -0.001039 -0.013999 0.000000 0.000000 0.000000
# 2 -0.001039 0.009502 -0.001962 0.000000 0.000000 0.000000
# 3 -0.013999 -0.001962 0.019648 0.000000 0.000000 0.000000
# 4 0.000000 0.000000 0.000000 0.047369 0.000000 0.000000
# 5 0.000000 0.000000 0.000000 0.000000 0.030823 0.000000
# 6 0.000000 0.000000 0.000000 0.000000 0.000000 0.044640
#
#
# Mechanical properties :
#
#
# Convention : Reuss Voigt Hill
#
# Bulk Modulus (GPa) = 55.31526 56.20416 55.75971
# Shear Modulus (GPa) = 23.26264 27.37886 25.32075
#
# Velocity S-wave (km/s) = 3.50888 3.80668 3.66081
# Velocity P-wave (km/s) = 6.75966 7.00488 6.88336
#
# Compressibility (1/GPa) = 0.01807819
#
# Stress axis : x y z
#
# Youngs Moduli (GPa) = 43.61353 105.23777 50.89693
#
# Poissons Ratio (x) = 0.10930 0.71252
# Poissons Ratio (y) = 0.04530 0.09987
# Poissons Ratio (z) = 0.61056 0.20650
#
# Static dielectric constant tensor:
#      x y z
#    x 3.258140 0.000000 0.000000 
#    y 0.000000 3.654730 0.000000 
#    z 0.000000 0.000000 3.328100 
# 
# 
# High freq. dielectric constant tensor:
#      x y z
#    x 1.726850 0.000000 0.000000 
#    y 0.000000 1.757680 0.000000 
#    z 0.000000 0.000000 1.721730 
# 
# From -- ./inp_files/31640.got.cif
#   From: 2010.03.12/outbox.cif.g09.slc.cpg/sg24_16_cif.got.tgz:31640.got - 2010.04.14 03:06:53.
