data_PCOD8164832
_publ_section_title
;
Structure prediction by ZEFSAII (Michael W. Deem and Ramdas Pophale) SiO2 
 PCOD8164832
Probable space group: I 21 21 21
;
_chemical_formula_sum "Si O2"
_cell_formula_units_Z 56
_cell_length_a 14.116636
_cell_length_b 16.373885
_cell_length_c 13.340592
_cell_angle_alpha 90.000000
_cell_angle_beta 90.000000
_cell_angle_gamma 90.000000
_cell_volume 3083.600125
_symmetry_space_group_name_H-M "I 21 21 21"
_symmetry_group_IT_number 24
_symmetry_cell_setting 'orthorhombic'
loop_
_space_group_symop_operation_xyz
x,y,z
-x,1/2-y,z
x,-y,1/2-z
1/2-x,y,-z
1/2+x,1/2+y,1/2+z
1/2-x,-y,1/2+z
1/2+x,1/2-y,-z
-x,1/2+y,1/2-z
loop_
_atom_site_type_symbol
_atom_site_label
_atom_site_fract_x
_atom_site_fract_y
_atom_site_fract_z
Si Si1 0.362012 0.675795 0.407842
Si Si2 0.973555 0.989993 0.060740
Si Si3 0.124602 0.074391 0.183846
Si Si4 0.510268 0.550003 0.352611
Si Si5 0.031405 0.337492 0.305353
Si Si6 0.304284 0.856741 0.395699
Si Si7 0.844261 0.127148 0.126578
O O1 0.449140 0.633756 0.349589
O O2 0.351589 0.769336 0.374411
O O3 0.380309 0.677785 0.528475
O O4 0.269260 0.623919 0.377640
O O5 0.962129 0.897404 0.099184
O O6 0.886701 0.036227 0.115724
O O7 0.073978 0.034499 0.086072
O O8 0.966783 0.992257 0.940279
O O9 0.217181 0.129782 0.178027
O O10 0.048805 0.132973 0.231554
O O11 0.157743 0.000000 0.250000
O O12 0.503369 0.500000 0.250000
O O13 0.618281 0.573180 0.377715
O O14 0.124621 0.333570 0.233605
O O15 0.000000 0.250000 0.348619
O O16 0.250000 0.863930 0.500000
#
# Coordination Sequence:
#
# PCOD8164832 Si02
#       7
#     8   8   8   8   8   8   8
#     4  10  21  35  54  85 114 142 182 235 289 335
#     4   9  19  35  52  79 108 142 189 229 282 336
#     4   9  18  33  53  80 113 140 174 228 288 344
#     4  11  24  39  55  77 113 157 189 223 282 356
#     4  10  19  30  53  82 110 143 181 233 280 332
#     4  12  20  34  58  86 109 141 181 242 290 328
#     4   9  17  32  54  81 110 141 178 230 294 337
#
# _framework density 18.160591
#
# number of rings (size 3 to 8) (size 9 to 14) (size 15 to 20)
#    0.000    2.000    2.857    3.000    0.000    1.143 
#    0.000    1.429    0.000    0.000    0.000   10.000 
#    0.000    0.000    0.000    0.000    0.000    0.000 
#
# Total GULP energy -346939.958754 kJ/mol
# GULP energy per Si atom -12390.712813 kJ/mol
# Density = 1.811926 g / cm^3
# Si number density = 18.160591 Si / 1000 Ang^3
#
#
#
# Elastic Constant Matrix: (Units=GPa)
#
#
# Indices 1 2 3 4 5 6 
#
# 1 72.3148 13.2328 25.9193 0.0000 0.0000 0.0000
# 2 13.2328 85.6603 38.8771 0.0000 0.0000 0.0000
# 3 25.9193 38.8771 84.9006 0.0000 0.0000 0.0000
# 4 0.0000 0.0000 0.0000 28.6652 0.0000 0.0000
# 5 0.0000 0.0000 0.0000 0.0000 25.5091 0.0000
# 6 0.0000 0.0000 0.0000 0.0000 0.0000 -106.2545
#
#
#
# Elastic Compliance Matrix: (Units=1/GPa)
#
#
# Indices 1 2 3 4 5 6 
#
# 1 0.015534 -0.000312 -0.004599 0.000000 0.000000 0.000000
# 2 -0.000312 0.014743 -0.006656 0.000000 0.000000 0.000000
# 3 -0.004599 -0.006656 0.016230 0.000000 0.000000 0.000000
# 4 0.000000 0.000000 0.000000 0.034886 0.000000 0.000000
# 5 0.000000 0.000000 0.000000 0.000000 0.039202 0.000000
# 6 0.000000 0.000000 0.000000 0.000000 0.000000 -0.009411
#
#
# Mechanical properties :
#
#
# Convention : Reuss Voigt Hill
#
# Bulk Modulus (GPa) = 42.78489 44.32600 43.55545
# Shear Modulus (GPa) = 35.18431 0.57372 17.87902
#
# Velocity S-wave (km/s) = 4.40636 0.56267 3.14107
# Velocity P-wave (km/s) = 7.03551 4.98828 6.09841
#
# Compressibility (1/GPa) = 0.02337274
#
# Stress axis : x y z
#
# Youngs Moduli (GPa) = 64.37447 67.82904 61.61291
#
# Poissons Ratio (x) = 0.02118 0.28338
# Poissons Ratio (y) = 0.02010 0.41008
# Poissons Ratio (z) = 0.29609 0.45145
#
# Static dielectric constant tensor:
#      x y z
#    x 3.400240 0.000000 0.000000 
#    y 0.000000 3.263820 0.000000 
#    z 0.000000 0.000000 5.283280 
# 
# 
# High freq. dielectric constant tensor:
#      x y z
#    x 1.709290 0.000000 0.000000 
#    y 0.000000 1.694110 0.000000 
#    z 0.000000 0.000000 1.676940 
# 
# From -- ./inp_files/26635.got.cif
#   From: 2010.03.12/outbox.cif.g09.slc.cpg/sg24_14_cif.got.tgz:26635.got - 2010.04.14 03:06:53.
