data_PCOD8164405
_publ_section_title
;
Structure prediction by ZEFSAII (Michael W. Deem and Ramdas Pophale) SiO2 
 PCOD8164405
Probable space group: I 2 2 2
;
_chemical_formula_sum "Si O2"
_cell_formula_units_Z 24
_cell_length_a 7.203726
_cell_length_b 12.993432
_cell_length_c 12.669085
_cell_angle_alpha 90.000000
_cell_angle_beta 90.000000
_cell_angle_gamma 90.000000
_cell_volume 1185.840595
_symmetry_space_group_name_H-M "I 2 2 2"
_symmetry_group_IT_number 23
_symmetry_cell_setting 'orthorhombic'
loop_
_space_group_symop_operation_xyz
x,y,z
-x,-y,z
x,-y,-z
-x,y,-z
1/2+x,1/2+y,1/2+z
1/2-x,1/2-y,1/2+z
1/2+x,1/2-y,1/2-z
1/2-x,1/2+y,1/2-z
loop_
_atom_site_type_symbol
_atom_site_label
_atom_site_fract_x
_atom_site_fract_y
_atom_site_fract_z
Si Si1 0.482571 0.614231 0.758495
Si Si2 0.733762 0.892206 0.438865
Si Si3 0.375170 0.807463 0.355937
O O1 0.500000 0.500000 0.710338
O O2 0.575995 0.617033 0.874860
O O3 0.580853 0.691462 0.678270
O O4 0.266432 0.642141 0.772249
O O5 0.560522 0.878169 0.358317
O O6 0.717762 0.802668 0.527450
O O7 0.720377 0.000000 0.500000
#
# Coordination Sequence:
#
# PCOD8164405 Si02
#       3
#     8   8   8
#     4  12  24  40  66 100 126 170 217 266 328 383
#     4  11  23  40  68  96 124 170 223 266 313 380
#     4  11  23  39  61  98 133 160 211 277 317 376
#
# _framework density 20.238806
#
# number of rings (size 3 to 8) (size 9 to 14) (size 15 to 20)
#    0.000    0.667    6.667    3.000    0.000    0.000 
#    0.000    3.333    0.000    0.000   17.333    0.000 
#    0.000    0.000    0.000    0.000    0.000    0.000 
#
# Total GULP energy -148782.241272 kJ/mol
# GULP energy per Si atom -12398.520106 kJ/mol
# Density = 2.019274 g / cm^3
# Si number density = 20.238806 Si / 1000 Ang^3
#
#
#
# Elastic Constant Matrix: (Units=GPa)
#
#
# Indices 1 2 3 4 5 6 
#
# 1 103.5220 58.3740 21.0872 0.0000 0.0000 0.0000
# 2 58.3740 169.2310 69.7548 0.0000 0.0000 0.0000
# 3 21.0872 69.7548 71.3327 0.0000 0.0000 0.0000
# 4 0.0000 0.0000 0.0000 46.9621 0.0000 0.0000
# 5 0.0000 0.0000 0.0000 0.0000 35.3725 0.0000
# 6 0.0000 0.0000 0.0000 0.0000 0.0000 34.5040
#
#
#
# Elastic Compliance Matrix: (Units=1/GPa)
#
#
# Indices 1 2 3 4 5 6 
#
# 1 0.012022 -0.004493 0.000840 0.000000 0.000000 0.000000
# 2 -0.004493 0.011578 -0.009994 0.000000 0.000000 0.000000
# 3 0.000840 -0.009994 0.023543 0.000000 0.000000 0.000000
# 4 0.000000 0.000000 0.000000 0.021294 0.000000 0.000000
# 5 0.000000 0.000000 0.000000 0.000000 0.028271 0.000000
# 6 0.000000 0.000000 0.000000 0.000000 0.000000 0.028982
#
#
# Mechanical properties :
#
#
# Convention : Reuss Voigt Hill
#
# Bulk Modulus (GPa) = 50.37941 71.39085 60.88513
# Shear Modulus (GPa) = 31.32800 36.35901 33.84351
#
# Velocity S-wave (km/s) = 3.93863 4.24311 4.09370
# Velocity P-wave (km/s) = 6.75501 7.70429 7.24522
#
# Compressibility (1/GPa) = 0.01984938
#
# Stress axis : x y z
#
# Youngs Moduli (GPa) = 83.17893 86.36881 42.47460
#
# Poissons Ratio (x) = 0.38806 -0.03566
# Poissons Ratio (y) = 0.37372 0.42449
# Poissons Ratio (z) = -0.06984 0.86316
#
# Static dielectric constant tensor:
#      x y z
#    x 4.030480 0.000000 0.000000 
#    y 0.000000 3.720670 0.000000 
#    z 0.000000 0.000000 3.718840 
# 
# 
# High freq. dielectric constant tensor:
#      x y z
#    x 1.815310 0.000000 0.000000 
#    y 0.000000 1.778680 0.000000 
#    z 0.000000 0.000000 1.760980 
# 
# From -- ./inp_files/6205.got.cif
#   From: 2010.03.12/outbox.cif.g09.slc.cpg/sg23_4_cif.got.tgz:6205.got - 2010.04.14 02:50:06.
