data_PCOD8164075
_publ_section_title
;
Structure prediction by ZEFSAII (Michael W. Deem and Ramdas Pophale) SiO2 
 PCOD8164075
Probable space group: I 2 2 2
;
_chemical_formula_sum "Si O2"
_cell_formula_units_Z 40
_cell_length_a 8.843511
_cell_length_b 9.988825
_cell_length_c 18.830440
_cell_angle_alpha 90.000000
_cell_angle_beta 90.000000
_cell_angle_gamma 90.000000
_cell_volume 1663.411091
_symmetry_space_group_name_H-M "I 2 2 2"
_symmetry_group_IT_number 23
_symmetry_cell_setting 'orthorhombic'
loop_
_space_group_symop_operation_xyz
x,y,z
-x,-y,z
x,-y,-z
-x,y,-z
1/2+x,1/2+y,1/2+z
1/2-x,1/2-y,1/2+z
1/2+x,1/2-y,1/2-z
1/2-x,1/2+y,1/2-z
loop_
_atom_site_type_symbol
_atom_site_label
_atom_site_fract_x
_atom_site_fract_y
_atom_site_fract_z
Si Si1 0.276768 0.117738 0.949073
Si Si2 0.500000 0.500000 0.885787
Si Si3 0.464765 0.228732 0.824484
Si Si4 0.677609 0.741488 0.682290
Si Si5 0.000000 0.000000 0.868709
Si Si6 0.218501 0.622264 0.957948
O O1 0.403900 0.138643 0.889043
O O2 0.115598 0.079002 0.917864
O O3 0.245785 0.252857 0.991469
O O4 0.337541 0.000000 0.000000
O O5 0.424285 0.385084 0.837184
O O6 0.381230 0.569778 0.936284
O O7 0.376431 0.181731 0.753321
O O8 0.355679 0.790640 0.816660
O O9 0.588399 0.602321 0.681451
O O10 0.631121 0.831186 0.613525
O O11 0.134061 0.500000 0.000000
#
# Coordination Sequence:
#
# PCOD8164075 Si02
#       6
#     8   4   8   8   4   8
#     4  12  26  48  79 112 162 206 265 324 396 473
#     4  10  22  44  76 108 155 195 256 322 400 458
#     4  11  25  48  79 118 153 210 261 326 401 486
#     4  11  26  48  82 111 159 205 261 324 403 470
#     4  12  26  52  72 110 167 209 260 334 394 458
#     4  11  23  46  78 112 148 205 251 322 391 473
#
# _framework density 24.046972
#
# number of rings (size 3 to 8) (size 9 to 14) (size 15 to 20)
#    0.000    0.800    4.000    2.400    2.800    2.400 
#    7.200    2.000    8.800    0.000    0.000    0.000 
#    0.000    0.000    0.000    0.000    0.000    0.000 
#
# Total GULP energy -248006.819190 kJ/mol
# GULP energy per Si atom -12400.340960 kJ/mol
# Density = 2.399224 g / cm^3
# Si number density = 24.046972 Si / 1000 Ang^3
#
#
#
# Elastic Constant Matrix: (Units=GPa)
#
#
# Indices 1 2 3 4 5 6 
#
# 1 124.4734 35.9255 57.4839 0.0000 0.0000 0.0000
# 2 35.9255 149.4860 73.8904 0.0000 0.0000 0.0000
# 3 57.4839 73.8904 190.0409 0.0000 0.0000 0.0000
# 4 0.0000 0.0000 0.0000 37.8877 0.0000 0.0000
# 5 0.0000 0.0000 0.0000 0.0000 32.5351 0.0000
# 6 0.0000 0.0000 0.0000 0.0000 0.0000 46.5336
#
#
#
# Elastic Compliance Matrix: (Units=1/GPa)
#
#
# Indices 1 2 3 4 5 6 
#
# 1 0.009473 -0.001065 -0.002451 0.000000 0.000000 0.000000
# 2 -0.001065 0.008401 -0.002944 0.000000 0.000000 0.000000
# 3 -0.002451 -0.002944 0.007148 0.000000 0.000000 0.000000
# 4 0.000000 0.000000 0.000000 0.026394 0.000000 0.000000
# 5 0.000000 0.000000 0.000000 0.000000 0.030736 0.000000
# 6 0.000000 0.000000 0.000000 0.000000 0.000000 0.021490
#
#
# Mechanical properties :
#
#
# Convention : Reuss Voigt Hill
#
# Bulk Modulus (GPa) = 82.63630 88.73332 85.68481
# Shear Modulus (GPa) = 41.46034 43.17130 42.31582
#
# Velocity S-wave (km/s) = 4.15678 4.24168 4.19945
# Velocity P-wave (km/s) = 7.58140 7.80828 7.69568
#
# Compressibility (1/GPa) = 0.01210122
#
# Stress axis : x y z
#
# Youngs Moduli (GPa) = 105.55948 119.03558 139.89348
#
# Poissons Ratio (x) = 0.12677 0.34294
# Poissons Ratio (y) = 0.11242 0.41188
# Poissons Ratio (z) = 0.25877 0.35047
#
# Static dielectric constant tensor:
#      x y z
#    x 4.263240 0.000000 0.000000 
#    y 0.000000 4.983270 0.000000 
#    z 0.000000 0.000000 4.753860 
# 
# 
# High freq. dielectric constant tensor:
#      x y z
#    x 1.948320 0.000000 0.000000 
#    y 0.000000 1.961120 0.000000 
#    z 0.000000 0.000000 1.972460 
# 
# From -- ./inp_files/26606.got.cif
#   From: 2010.03.12/outbox.cif.g09.slc.cpg/sg23_14_cif.got.tgz:26606.got - 2010.04.14 02:50:06.
