data_PCOD8164093
_publ_section_title
;
Structure prediction by ZEFSAII (Michael W. Deem and Ramdas Pophale) SiO2 
 PCOD8164093
Probable space group: I 2 2 2
;
_chemical_formula_sum "Si O2"
_cell_formula_units_Z 60
_cell_length_a 23.114041
_cell_length_b 10.016546
_cell_length_c 12.303152
_cell_angle_alpha 90.000000
_cell_angle_beta 90.000000
_cell_angle_gamma 90.000000
_cell_volume 2848.460876
_symmetry_space_group_name_H-M "I 2 2 2"
_symmetry_group_IT_number 23
_symmetry_cell_setting 'orthorhombic'
loop_
_space_group_symop_operation_xyz
x,y,z
-x,-y,z
x,-y,-z
-x,y,-z
1/2+x,1/2+y,1/2+z
1/2-x,1/2-y,1/2+z
1/2+x,1/2-y,1/2-z
1/2-x,1/2+y,1/2-z
loop_
_atom_site_type_symbol
_atom_site_label
_atom_site_fract_x
_atom_site_fract_y
_atom_site_fract_z
Si Si1 0.000000 0.500000 0.230757
Si Si2 0.134170 0.116448 0.577687
Si Si3 0.179012 0.566197 0.703883
Si Si4 0.599377 0.108658 0.406385
Si Si5 0.662212 0.356787 0.456043
Si Si6 0.226813 0.771391 0.562366
Si Si7 0.702933 0.468083 0.240145
Si Si8 0.587936 0.898706 0.098972
O O1 0.962353 0.597982 0.153885
O O2 0.959479 0.410630 0.306495
O O3 0.198485 0.162229 0.543106
O O4 0.089467 0.240675 0.572574
O O5 0.108694 0.000000 0.500000
O O6 0.147369 0.052329 0.696261
O O7 0.150994 0.593372 0.820045
O O8 0.173579 0.683851 0.614319
O O9 0.248492 0.562470 0.708875
O O10 0.150480 0.436042 0.648794
O O11 0.608313 0.253487 0.462381
O O12 0.605407 0.000000 0.500000
O O13 0.641173 0.500000 0.500000
O O14 0.715107 0.305845 0.530267
O O15 0.680269 0.365976 0.330464
O O16 0.239215 0.887611 0.649074
O O17 0.571645 0.000000 0.000000
#
# Coordination Sequence:
#
# PCOD8164093 Si02
#       8
#     4   8   8   8   8   8   8   8
#     4  10  26  44  74  92 116 164 234 300 352 386
#     4  10  23  38  62  93 138 181 211 264 331 402
#     4  11  21  34  62  94 135 177 219 262 316 400
#     4  11  24  46  68  94 126 174 229 289 336 400
#     4  12  24  36  64  97 136 180 219 268 333 403
#     4  11  21  37  56  95 139 186 218 254 314 405
#     4  11  23  37  56  95 144 182 220 249 322 418
#     4  11  22  41  69  98 123 166 225 290 342 403
#
# _framework density 21.064005999999999
#
# number of rings (size 3 to 8) (size 9 to 14) (size 15 to 20)
#    0.000    1.067    4.000    2.800    1.867    3.200 
#    0.000    0.000    0.000   12.000    0.000    0.000 
#    0.000    0.000    0.000    0.000    0.000    0.000 
#
# Total GULP energy -371848.709156 kJ/mol
# GULP energy per Si atom -12394.956972 kJ/mol
# Density = 2.101606 g / cm^3
# Si number density = 21.064006 Si / 1000 Ang^3
#
#
#
# Elastic Constant Matrix: (Units=GPa)
#
#
# Indices 1 2 3 4 5 6 
#
# 1 83.8115 51.9728 39.4736 0.0000 0.0000 0.0000
# 2 51.9728 153.7776 52.7657 0.0000 0.0000 0.0000
# 3 39.4736 52.7657 111.9068 0.0000 0.0000 0.0000
# 4 0.0000 0.0000 0.0000 28.9803 0.0000 0.0000
# 5 0.0000 0.0000 0.0000 0.0000 26.5028 0.0000
# 6 0.0000 0.0000 0.0000 0.0000 0.0000 18.0894
#
#
#
# Elastic Compliance Matrix: (Units=1/GPa)
#
#
# Indices 1 2 3 4 5 6 
#
# 1 0.016326 -0.004225 -0.003766 0.000000 0.000000 0.000000
# 2 -0.004225 0.008852 -0.002683 0.000000 0.000000 0.000000
# 3 -0.003766 -0.002683 0.011530 0.000000 0.000000 0.000000
# 4 0.000000 0.000000 0.000000 0.034506 0.000000 0.000000
# 5 0.000000 0.000000 0.000000 0.000000 0.037732 0.000000
# 6 0.000000 0.000000 0.000000 0.000000 0.000000 0.055281
#
#
# Mechanical properties :
#
#
# Convention : Reuss Voigt Hill
#
# Bulk Modulus (GPa) = 65.11616 70.88001 67.99809
# Shear Modulus (GPa) = 26.21989 28.40008 27.30999
#
# Velocity S-wave (km/s) = 3.53196 3.67587 3.60463
# Velocity P-wave (km/s) = 6.90026 7.19298 7.04814
#
# Compressibility (1/GPa) = 0.01535717
#
# Stress axis : x y z
#
# Youngs Moduli (GPa) = 61.25361 112.97341 86.73227
#
# Poissons Ratio (x) = 0.47734 0.32666
# Poissons Ratio (y) = 0.25881 0.23273
# Poissons Ratio (z) = 0.23070 0.30314
#
# Static dielectric constant tensor:
#      x y z
#    x 3.390470 0.000000 0.000000 
#    y 0.000000 3.913030 0.000000 
#    z 0.000000 0.000000 4.043890 
# 
# 
# High freq. dielectric constant tensor:
#      x y z
#    x 1.777940 0.000000 0.000000 
#    y 0.000000 1.832700 0.000000 
#    z 0.000000 0.000000 1.847070 
# 
# From -- ./inp_files/18615.got.cif
#   From: 2010.03.12/outbox.cif.g09.slc.cpg/sg23_10_cif.got.tgz:18615.got - 2010.04.14 02:50:06.
