data_PCOD8164081
_publ_section_title
;
Structure prediction by ZEFSAII (Michael W. Deem and Ramdas Pophale) SiO2 
 PCOD8164081
Probable space group: I 2 2 2
;
_chemical_formula_sum "Si O2"
_cell_formula_units_Z 64
_cell_length_a 22.443718
_cell_length_b 9.990201
_cell_length_c 14.169947
_cell_angle_alpha 90.000000
_cell_angle_beta 90.000000
_cell_angle_gamma 90.000000
_cell_volume 3177.146606
_symmetry_space_group_name_H-M "I 2 2 2"
_symmetry_group_IT_number 23
_symmetry_cell_setting 'orthorhombic'
loop_
_space_group_symop_operation_xyz
x,y,z
-x,-y,z
x,-y,-z
-x,y,-z
1/2+x,1/2+y,1/2+z
1/2-x,1/2-y,1/2+z
1/2+x,1/2-y,1/2-z
1/2-x,1/2+y,1/2-z
loop_
_atom_site_type_symbol
_atom_site_label
_atom_site_fract_x
_atom_site_fract_y
_atom_site_fract_z
Si Si1 0.211224 0.268372 0.851290
Si Si2 0.258902 0.742689 0.348655
Si Si3 0.954276 0.886285 0.223738
Si Si4 0.655958 0.485501 0.394086
Si Si5 0.659689 0.026808 0.399541
Si Si6 0.529463 0.866252 0.599764
Si Si7 0.056339 0.857970 0.551759
Si Si8 0.314634 0.659139 0.005311
O O1 0.245101 0.300384 0.755871
O O2 0.158080 0.379267 0.853335
O O3 0.261682 0.284903 0.930004
O O4 0.180295 0.124975 0.854739
O O5 0.290841 0.620959 0.402878
O O6 0.300313 0.873266 0.339512
O O7 0.197849 0.780269 0.402008
O O8 0.890764 0.927604 0.181092
O O9 0.977284 0.749206 0.176898
O O10 0.953083 0.870545 0.336282
O O11 0.000000 0.000000 0.193622
O O12 0.628547 0.500000 0.500000
O O13 0.597574 0.098208 0.419370
O O14 0.691655 0.000000 0.500000
O O15 0.500000 0.823568 0.500000
O O16 0.500000 0.000000 0.642202
O O17 0.120165 0.785235 0.536810
O O18 0.000000 0.782235 0.500000
O O19 0.060099 0.000000 0.500000
O O20 0.315332 0.500000 0.000000
#
# Coordination Sequence:
#
# PCOD8164081 Si02
#       8
#     8   8   8   8   8   8   8   8
#     4  12  25  39  68  98 133 177 226 272 341 409
#     4  12  23  42  63  99 131 174 223 277 334 400
#     4  12  27  42  70 102 134 181 230 286 346 403
#     4  12  26  41  62 102 150 169 213 292 350 397
#     4  12  21  45  66  89 132 183 223 269 327 402
#     4  11  26  44  68  97 138 184 234 273 334 420
#     4  10  22  46  70  97 130 175 233 288 331 405
#     4  11  22  40  68  92 126 178 226 267 329 408
#
# _framework density 20.14386
#
# number of rings (size 3 to 8) (size 9 to 14) (size 15 to 20)
#    0.000    0.500    7.500    1.500    7.000    0.000 
#    0.000    0.000    0.000    0.375    0.000    0.000 
#    0.000    0.000    0.000    0.000    0.000    0.000 
#
# Total GULP energy -396671.676843 kJ/mol
# GULP energy per Si atom -12395.989901 kJ/mol
# Density = 2.009801 g / cm^3
# Si number density = 20.143860 Si / 1000 Ang^3
#
#
#
# Elastic Constant Matrix: (Units=GPa)
#
#
# Indices 1 2 3 4 5 6 
#
# 1 105.2204 36.4064 41.6506 0.0000 0.0000 0.0000
# 2 36.4064 127.9157 43.3297 0.0000 0.0000 0.0000
# 3 41.6506 43.3297 121.1892 0.0000 0.0000 0.0000
# 4 0.0000 0.0000 0.0000 25.2111 0.0000 0.0000
# 5 0.0000 0.0000 0.0000 0.0000 -24.6158 0.0000
# 6 0.0000 0.0000 0.0000 0.0000 0.0000 12.1989
#
#
#
# Elastic Compliance Matrix: (Units=1/GPa)
#
#
# Indices 1 2 3 4 5 6 
#
# 1 0.011522 -0.002205 -0.003172 0.000000 0.000000 0.000000
# 2 -0.002205 0.009317 -0.002573 0.000000 0.000000 0.000000
# 3 -0.003172 -0.002573 0.010262 0.000000 0.000000 0.000000
# 4 0.000000 0.000000 0.000000 0.039665 0.000000 0.000000
# 5 0.000000 0.000000 0.000000 0.000000 -0.040624 0.000000
# 6 0.000000 0.000000 0.000000 0.000000 0.000000 0.081975
#
#
# Mechanical properties :
#
#
# Convention : Reuss Voigt Hill
#
# Bulk Modulus (GPa) = 65.78564 66.34429 66.06496
# Shear Modulus (GPa) = 37.57044 18.08807 27.82926
#
# Velocity S-wave (km/s) = 4.32337 2.99982 3.72092
# Velocity P-wave (km/s) = 7.59282 6.70860 7.16436
#
# Compressibility (1/GPa) = 0.01520089
#
# Stress axis : x y z
#
# Youngs Moduli (GPa) = 86.78850 107.33177 97.45023
#
# Poissons Ratio (x) = 0.23667 0.30907
# Poissons Ratio (y) = 0.19137 0.25077
# Poissons Ratio (z) = 0.27526 0.27620
#
# Static dielectric constant tensor:
#      x y z
#    x 4.227700 0.000000 0.000000 
#    y 0.000000 3.868400 0.000000 
#    z 0.000000 0.000000 3.538480 
# 
# 
# High freq. dielectric constant tensor:
#      x y z
#    x 1.794430 0.000000 0.000000 
#    y 0.000000 1.779580 0.000000 
#    z 0.000000 0.000000 1.789670 
# 
# From -- ./inp_files/22603.got.cif
#   From: 2010.03.12/outbox.cif.g09.slc.cpg/sg23_12_cif.got.tgz:22603.got - 2010.04.14 02:50:06.
