data_PCOD8164418
_publ_section_title
;
Structure prediction by ZEFSAII (Michael W. Deem and Ramdas Pophale) SiO2 
 PCOD8164418
Probable space group: I 2 2 2
;
_chemical_formula_sum "Si O2"
_cell_formula_units_Z 34
_cell_length_a 7.444463
_cell_length_b 15.135659
_cell_length_c 13.066509
_cell_angle_alpha 90.000000
_cell_angle_beta 90.000000
_cell_angle_gamma 90.000000
_cell_volume 1472.293119
_symmetry_space_group_name_H-M "I 2 2 2"
_symmetry_group_IT_number 23
_symmetry_cell_setting 'orthorhombic'
loop_
_space_group_symop_operation_xyz
x,y,z
-x,-y,z
x,-y,-z
-x,y,-z
1/2+x,1/2+y,1/2+z
1/2-x,1/2-y,1/2+z
1/2+x,1/2-y,1/2-z
1/2-x,1/2+y,1/2-z
loop_
_atom_site_type_symbol
_atom_site_label
_atom_site_fract_x
_atom_site_fract_y
_atom_site_fract_z
Si Si1 0.296947 0.175271 0.209449
Si Si2 0.306829 0.137168 0.773344
Si Si3 0.000000 0.500000 0.000000
Si Si4 0.788764 0.901604 0.996248
Si Si5 0.810191 0.967964 0.349135
O O1 0.484726 0.140981 0.252032
O O2 0.287067 0.280027 0.219489
O O3 0.281286 0.155640 0.089996
O O4 0.154976 0.120376 0.280308
O O5 0.237950 0.045169 0.730024
O O6 0.273775 0.146578 0.893872
O O7 0.145625 0.447403 0.929094
O O8 0.000000 0.906598 0.000000
O O9 0.705552 0.000000 0.000000
O O10 0.000000 0.000000 0.400945
#
# Coordination Sequence:
#
# PCOD8164418 Si02
#       5
#     8   8   2   8   8
#     4  12  25  45  72 107 146 189 243 297 360 432
#     4  12  25  45  72 107 146 189 243 297 360 432
#     4  12  26  48  72 104 144 194 246 288 380 432
#     4  11  23  42  73 106 140 189 237 294 360 424
#     4  12  25  48  74 105 145 190 239 303 362 433
#
# _framework density 23.093228
#
# number of rings (size 3 to 8) (size 9 to 14) (size 15 to 20)
#    0.000    0.235    4.706    5.294    0.000    2.824 
#    4.235    4.706    0.000    0.000    0.000    0.000 
#    0.000    0.000    0.000    0.000    0.000    0.000 
#
# Total GULP energy -210723.983600 kJ/mol
# GULP energy per Si atom -12395.528447 kJ/mol
# Density = 2.304067 g / cm^3
# Si number density = 23.093228 Si / 1000 Ang^3
#
#
#
# Elastic Constant Matrix: (Units=GPa)
#
#
# Indices 1 2 3 4 5 6 
#
# 1 104.3839 -5.2153 13.9063 0.0000 0.0000 0.0000
# 2 -5.2153 112.3217 45.4279 0.0000 0.0000 0.0000
# 3 13.9063 45.4279 145.4802 0.0000 0.0000 0.0000
# 4 0.0000 0.0000 0.0000 39.0605 0.0000 0.0000
# 5 0.0000 0.0000 0.0000 0.0000 34.2337 0.0000
# 6 0.0000 0.0000 0.0000 0.0000 0.0000 27.6864
#
#
#
# Elastic Compliance Matrix: (Units=1/GPa)
#
#
# Indices 1 2 3 4 5 6 
#
# 1 0.009792 0.000954 -0.001234 0.000000 0.000000 0.000000
# 2 0.000954 0.010283 -0.003302 0.000000 0.000000 0.000000
# 3 -0.001234 -0.003302 0.008023 0.000000 0.000000 0.000000
# 4 0.000000 0.000000 0.000000 0.025601 0.000000 0.000000
# 5 0.000000 0.000000 0.000000 0.000000 0.029211 0.000000
# 6 0.000000 0.000000 0.000000 0.000000 0.000000 0.036119
#
#
# Mechanical properties :
#
#
# Convention : Reuss Voigt Hill
#
# Bulk Modulus (GPa) = 47.77093 52.26927 50.02010
# Shear Modulus (GPa) = 37.54571 40.73391 39.13981
#
# Velocity S-wave (km/s) = 4.03654 4.20443 4.12134
# Velocity P-wave (km/s) = 6.51582 6.80094 6.65990
#
# Compressibility (1/GPa) = 0.02093323
#
# Stress axis : x y z
#
# Youngs Moduli (GPa) = 102.12380 97.24996 124.64421
#
# Poissons Ratio (x) = -0.09274 0.15379
# Poissons Ratio (y) = -0.09739 0.41158
# Poissons Ratio (z) = 0.12600 0.32113
#
# Static dielectric constant tensor:
#      x y z
#    x 4.494950 0.000000 0.000000 
#    y 0.000000 3.492140 0.000000 
#    z 0.000000 0.000000 4.176070 
# 
# 
# High freq. dielectric constant tensor:
#      x y z
#    x 1.931300 0.000000 0.000000 
#    y 0.000000 1.898910 0.000000 
#    z 0.000000 0.000000 1.918240 
# 
# From -- ./inp_files/14308.got.cif
#   From: 2010.03.12/outbox.cif.g09.slc.cpg/sg23_8_cif.got.tgz:14308.got - 2010.04.14 02:50:06.
