data_PCOD8164067
_publ_section_title
;
Structure prediction by ZEFSAII (Michael W. Deem and Ramdas Pophale) SiO2 
 PCOD8164067
Probable space group: I 2 2 2
;
_chemical_formula_sum "Si O2"
_cell_formula_units_Z 58
_cell_length_a 32.503516
_cell_length_b 7.057953
_cell_length_c 11.155516
_cell_angle_alpha 90.000000
_cell_angle_beta 90.000000
_cell_angle_gamma 90.000000
_cell_volume 2559.167830
_symmetry_space_group_name_H-M "I 2 2 2"
_symmetry_group_IT_number 23
_symmetry_cell_setting 'orthorhombic'
loop_
_space_group_symop_operation_xyz
x,y,z
-x,-y,z
x,-y,-z
-x,y,-z
1/2+x,1/2+y,1/2+z
1/2-x,1/2-y,1/2+z
1/2+x,1/2-y,1/2-z
1/2-x,1/2+y,1/2-z
loop_
_atom_site_type_symbol
_atom_site_label
_atom_site_fract_x
_atom_site_fract_y
_atom_site_fract_z
Si Si1 0.271483 0.882668 0.378914
Si Si2 0.023220 0.310318 0.614633
Si Si3 0.692137 0.798912 0.214266
Si Si4 0.500000 0.000000 0.500000
Si Si5 0.387019 0.766907 0.931905
Si Si6 0.519662 0.679747 0.671822
Si Si7 0.896319 0.140180 0.684149
Si Si8 0.832382 0.043959 0.871382
O O1 0.223881 0.827791 0.362619
O O2 0.293363 0.679712 0.387564
O O3 0.277018 0.000000 0.500000
O O4 0.287841 0.009640 0.267840
O O5 0.070569 0.371145 0.599578
O O6 0.000000 0.500000 0.643947
O O7 0.000000 0.212202 0.500000
O O8 0.018577 0.191062 0.735113
O O9 0.653621 0.857085 0.129303
O O10 0.678026 0.662993 0.321231
O O11 0.472980 0.140024 0.583959
O O12 0.393278 0.557215 0.883605
O O13 0.384594 0.786874 0.077367
O O14 0.500000 0.500000 0.598892
O O15 0.559974 0.663902 0.753468
O O16 0.863498 0.160697 0.789418
O O17 0.852924 0.000000 0.000000
#
# Coordination Sequence:
#
# PCOD8164067 Si02
#       8
#     8   8   8   2   8   8   8   8
#     4  12  25  45  73 105 142 196 237 291 376 441
#     4  11  22  40  73 104 146 185 227 294 364 433
#     4  11  25  44  73 106 148 184 241 307 362 440
#     4  12  30  48  62  98 136 188 258 290 352 438
#     4  10  22  43  71 112 142 182 238 304 369 436
#     4  12  24  46  71  98 136 188 236 294 360 433
#     4  10  23  42  74 104 139 183 241 301 364 432
#     4  11  24  46  67 100 143 188 240 289 354 434
#
# _framework density 22.663618
#
# number of rings (size 3 to 8) (size 9 to 14) (size 15 to 20)
#    0.000    0.966    6.207    0.207    3.862    2.483 
#    1.241    1.379    0.000    0.000    0.000    0.000 
#    0.000    0.000    0.000    0.000    0.000    0.000 
#
# Total GULP energy -359259.873406 kJ/mol
# GULP energy per Si atom -12388.271497 kJ/mol
# Density = 2.261203 g / cm^3
# Si number density = 22.663618 Si / 1000 Ang^3
#
#
#
# Elastic Constant Matrix: (Units=GPa)
#
#
# Indices 1 2 3 4 5 6 
#
# 1 155.1487 27.1265 65.8776 0.0000 0.0000 0.0000
# 2 27.1265 58.8396 24.6818 0.0000 0.0000 0.0000
# 3 65.8776 24.6818 137.2456 0.0000 0.0000 0.0000
# 4 0.0000 0.0000 0.0000 19.4414 0.0000 0.0000
# 5 0.0000 0.0000 0.0000 0.0000 42.4319 0.0000
# 6 0.0000 0.0000 0.0000 0.0000 0.0000 25.4870
#
#
#
# Elastic Compliance Matrix: (Units=1/GPa)
#
#
# Indices 1 2 3 4 5 6 
#
# 1 0.008387 -0.002356 -0.003602 0.000000 0.000000 0.000000
# 2 -0.002356 0.019044 -0.002294 0.000000 0.000000 0.000000
# 3 -0.003602 -0.002294 0.009428 0.000000 0.000000 0.000000
# 4 0.000000 0.000000 0.000000 0.051437 0.000000 0.000000
# 5 0.000000 0.000000 0.000000 0.000000 0.023567 0.000000
# 6 0.000000 0.000000 0.000000 0.000000 0.000000 0.039236
#
#
# Mechanical properties :
#
#
# Convention : Reuss Voigt Hill
#
# Bulk Modulus (GPa) = 49.12838 65.17840 57.15339
# Shear Modulus (GPa) = 28.67208 33.04194 30.85701
#
# Velocity S-wave (km/s) = 3.56070 3.82243 3.69388
# Velocity P-wave (km/s) = 6.21523 6.95002 6.59287
#
# Compressibility (1/GPa) = 0.02035483
#
# Stress axis : x y z
#
# Youngs Moduli (GPa) = 119.23615 52.51100 106.07013
#
# Poissons Ratio (x) = 0.12369 0.38206
# Poissons Ratio (y) = 0.28086 0.24333
# Poissons Ratio (z) = 0.42949 0.12047
#
# Static dielectric constant tensor:
#      x y z
#    x 4.249420 0.000000 0.000000 
#    y 0.000000 3.991850 0.000000 
#    z 0.000000 0.000000 4.467330 
# 
# 
# High freq. dielectric constant tensor:
#      x y z
#    x 1.885490 0.000000 0.000000 
#    y 0.000000 1.902750 0.000000 
#    z 0.000000 0.000000 1.907020 
# 
# From -- ./inp_files/18779.got.cif
#   From: 2010.03.12/outbox.cif.g09.slc.cpg/sg23_10_cif.got.tgz:18779.got - 2010.04.14 02:50:06.
