data_PCOD8164612
_publ_section_title
;
Structure prediction by ZEFSAII (Michael W. Deem and Ramdas Pophale) SiO2 
 PCOD8164612
Probable space group: I 21 21 21
;
_chemical_formula_sum "Si O2"
_cell_formula_units_Z 64
_cell_length_a 5.093885
_cell_length_b 30.694967
_cell_length_c 25.792709
_cell_angle_alpha 90.000000
_cell_angle_beta 90.000000
_cell_angle_gamma 90.000000
_cell_volume 4032.861109
_symmetry_space_group_name_H-M "I 21 21 21"
_symmetry_group_IT_number 24
_symmetry_cell_setting 'orthorhombic'
loop_
_space_group_symop_operation_xyz
x,y,z
-x,1/2-y,z
x,-y,1/2-z
1/2-x,y,-z
1/2+x,1/2+y,1/2+z
1/2-x,-y,1/2+z
1/2+x,1/2-y,-z
-x,1/2+y,1/2-z
loop_
_atom_site_type_symbol
_atom_site_label
_atom_site_fract_x
_atom_site_fract_y
_atom_site_fract_z
Si Si1 0.001554 0.495186 0.356652
Si Si2 0.966371 0.094865 0.309424
Si Si3 0.010640 0.028791 0.803486
Si Si4 0.449809 0.297245 0.294276
Si Si5 0.494754 0.548966 0.965579
Si Si6 0.965236 0.613413 0.752319
Si Si7 0.448271 0.819770 0.857991
Si Si8 0.494535 0.350755 0.534201
O O1 0.941247 0.452417 0.323988
O O2 0.284102 0.513476 0.341814
O O3 0.989376 0.484137 0.417246
O O4 0.776764 0.527581 0.336868
O O5 0.654702 0.096965 0.298907
O O6 0.033011 0.128128 0.354693
O O7 0.153817 0.108231 0.261238
O O8 0.961010 0.080755 0.794292
O O9 0.018152 0.000000 0.750000
O O10 0.500000 0.250000 0.268139
O O11 0.469523 0.334394 0.248806
O O12 0.167758 0.296559 0.322563
O O13 0.663291 0.304331 0.339533
O O14 0.460411 0.598971 0.946752
O O15 0.250000 0.534196 0.000000
O O16 0.750000 0.542770 0.000000
O O17 0.486358 0.814714 0.919597
O O18 0.250000 0.336187 0.500000
O O19 0.750000 0.346572 0.500000
#
# Coordination Sequence:
#
# PCOD8164612 Si02
#       8
#     8   8   8   8   8   8   8   8
#     4  12  20  31  47  66  99 127 160 186 238 270
#     4  10  17  29  44  66  89 121 143 186 227 268
#     4  12  21  29  46  71 101 127 151 183 235 292
#     4  10  21  35  53  67  84 116 153 189 228 276
#     4  10  21  34  47  66  92 126 169 205 229 268
#     4  10  20  31  45  67  95 117 148 187 221 275
#     4  10  19  32  50  67  87 105 150 193 239 274
#     4  10  19  30  47  67  86 109 143 191 246 285
#
# _framework density 15.869626999999999
#
# number of rings (size 3 to 8) (size 9 to 14) (size 15 to 20)
#    0.000    1.500    3.750    3.000    0.000    0.000 
#    0.000    0.000    0.000    7.500    0.000    0.000 
#    0.000    0.000    0.000    0.000    0.000   12.500 
#
# Total GULP energy -396432.338762 kJ/mol
# GULP energy per Si atom -12388.510586 kJ/mol
# Density = 1.583351 g / cm^3
# Si number density = 15.869627 Si / 1000 Ang^3
#
#
#
# Elastic Constant Matrix: (Units=GPa)
#
#
# Indices 1 2 3 4 5 6 
#
# 1 83.3072 1.6373 10.7324 0.0000 0.0000 0.0000
# 2 1.6373 76.7717 26.5195 0.0000 0.0000 0.0000
# 3 10.7324 26.5195 32.5304 0.0000 0.0000 0.0000
# 4 0.0000 0.0000 0.0000 10.7214 0.0000 0.0000
# 5 0.0000 0.0000 0.0000 0.0000 17.9826 0.0000
# 6 0.0000 0.0000 0.0000 0.0000 0.0000 14.5425
#
#
#
# Elastic Compliance Matrix: (Units=1/GPa)
#
#
# Indices 1 2 3 4 5 6 
#
# 1 0.012682 0.001635 -0.005517 0.000000 0.000000 0.000000
# 2 0.001635 0.018342 -0.015493 0.000000 0.000000 0.000000
# 3 -0.005517 -0.015493 0.045191 0.000000 0.000000 0.000000
# 4 0.000000 0.000000 0.000000 0.093272 0.000000 0.000000
# 5 0.000000 0.000000 0.000000 0.000000 0.055609 0.000000
# 6 0.000000 0.000000 0.000000 0.000000 0.000000 0.068764
#
#
# Mechanical properties :
#
#
# Convention : Reuss Voigt Hill
#
# Bulk Modulus (GPa) = 26.69070 30.04307 28.36688
# Shear Modulus (GPa) = 14.48862 18.89730 16.69296
#
# Velocity S-wave (km/s) = 3.02483 3.45452 3.24679
# Velocity P-wave (km/s) = 5.39024 5.90626 5.65414
#
# Compressibility (1/GPa) = 0.03746624
#
# Stress axis : x y z
#
# Youngs Moduli (GPa) = 78.84927 54.51835 22.12845
#
# Poissons Ratio (x) = -0.08916 0.12209
# Poissons Ratio (y) = -0.12895 0.34283
# Poissons Ratio (z) = 0.43504 0.84464
#
# Static dielectric constant tensor:
#      x y z
#    x 3.155530 0.000000 0.000000 
#    y 0.000000 3.133570 0.000000 
#    z 0.000000 0.000000 2.741540 
# 
# 
# High freq. dielectric constant tensor:
#      x y z
#    x 1.637370 0.000000 0.000000 
#    y 0.000000 1.589970 0.000000 
#    z 0.000000 0.000000 1.559560 
# 
# From -- ./inp_files/34883.got.cif
#   From: 2010.03.12/outbox.cif.g09.slc.cpg/sg24_18_cif.got.tgz:34883.got - 2010.04.14 03:06:53.
