data_PCOD8164900
_publ_section_title
;
Structure prediction by ZEFSAII (Michael W. Deem and Ramdas Pophale) SiO2 
 PCOD8164900
Probable space group: I 21 21 21
;
_chemical_formula_sum "Si O2"
_cell_formula_units_Z 32
_cell_length_a 5.021675
_cell_length_b 8.013876
_cell_length_c 35.067438
_cell_angle_alpha 90.000000
_cell_angle_beta 90.000000
_cell_angle_gamma 90.000000
_cell_volume 1411.221740
_symmetry_space_group_name_H-M "I 21 21 21"
_symmetry_group_IT_number 24
_symmetry_cell_setting 'orthorhombic'
loop_
_space_group_symop_operation_xyz
x,y,z
-x,1/2-y,z
x,-y,1/2-z
1/2-x,y,-z
1/2+x,1/2+y,1/2+z
1/2-x,-y,1/2+z
1/2+x,1/2-y,-z
-x,1/2+y,1/2-z
loop_
_atom_site_type_symbol
_atom_site_label
_atom_site_fract_x
_atom_site_fract_y
_atom_site_fract_z
Si Si1 0.533464 0.945758 0.665267
Si Si2 0.030083 0.947298 0.707575
Si Si3 0.892012 0.434028 0.538108
Si Si4 0.410603 0.439574 0.921206
O O1 0.500000 0.750000 0.670638
O O2 0.250018 0.021148 0.678065
O O3 0.637654 0.984960 0.622788
O O4 0.750116 0.024483 0.694071
O O5 0.000000 0.750000 0.704709
O O6 0.105848 0.000000 0.750000
O O7 0.750000 0.508652 0.500000
O O8 0.651946 0.435727 0.568245
O O9 0.000000 0.250000 0.529864
O O10 0.143866 0.539912 0.553384
O O11 0.500000 0.250000 0.927020
#
# Coordination Sequence:
#
# PCOD8164900 Si02
#       4
#     8   8   8   8
#     4   9  19  36  58  83 115 153 191 243 305 350
#     4  10  19  34  55  81 115 154 193 236 293 354
#     4  12  25  44  64  89 128 168 197 242 318 381
#     4  11  23  42  69  95 119 157 214 263 298 355
#
# _framework density 22.675388000000002
#
# number of rings (size 3 to 8) (size 9 to 14) (size 15 to 20)
#    0.000    1.500    0.000    6.000    0.000    6.000 
#    0.000    8.750    0.000    0.000    0.000    0.000 
#    0.000    0.000    0.000    0.000    0.000    0.000 
#
# Total GULP energy -198273.979078 kJ/mol
# GULP energy per Si atom -12392.123692 kJ/mol
# Density = 2.262378 g / cm^3
# Si number density = 22.675388 Si / 1000 Ang^3
#
#
#
# Elastic Constant Matrix: (Units=GPa)
#
#
# Indices 1 2 3 4 5 6 
#
# 1 196.7792 26.3174 88.0033 0.0000 0.0000 0.0000
# 2 26.3174 23.8237 30.7786 0.0000 0.0000 0.0000
# 3 88.0033 30.7786 153.7104 0.0000 0.0000 0.0000
# 4 0.0000 0.0000 0.0000 28.8750 0.0000 0.0000
# 5 0.0000 0.0000 0.0000 0.0000 54.8843 0.0000
# 6 0.0000 0.0000 0.0000 0.0000 0.0000 20.9364
#
#
#
# Elastic Compliance Matrix: (Units=1/GPa)
#
#
# Indices 1 2 3 4 5 6 
#
# 1 0.007037 -0.003465 -0.003335 0.000000 0.000000 0.000000
# 2 -0.003465 0.058329 -0.009696 0.000000 0.000000 0.000000
# 3 -0.003335 -0.009696 0.010357 0.000000 0.000000 0.000000
# 4 0.000000 0.000000 0.000000 0.034632 0.000000 0.000000
# 5 0.000000 0.000000 0.000000 0.000000 0.018220 0.000000
# 6 0.000000 0.000000 0.000000 0.000000 0.000000 0.047764
#
#
# Mechanical properties :
#
#
# Convention : Reuss Voigt Hill
#
# Bulk Modulus (GPa) = 23.40231 73.83465 48.61848
# Shear Modulus (GPa) = 22.36411 36.22010 29.29211
#
# Velocity S-wave (km/s) = 3.14390 4.00100 3.59806
# Velocity P-wave (km/s) = 4.84993 7.34685 6.22487
#
# Compressibility (1/GPa) = 0.04273083
#
# Stress axis : x y z
#
# Youngs Moduli (GPa) = 142.11334 17.14419 96.55733
#
# Poissons Ratio (x) = 0.05940 0.32201
# Poissons Ratio (y) = 0.49239 0.93621
# Poissons Ratio (z) = 0.47393 0.16623
#
# Static dielectric constant tensor:
#      x y z
#    x 4.674610 0.000000 0.000000 
#    y 0.000000 3.683660 0.000000 
#    z 0.000000 0.000000 4.171700 
# 
# 
# High freq. dielectric constant tensor:
#      x y z
#    x 1.921850 0.000000 0.000000 
#    y 0.000000 1.854480 0.000000 
#    z 0.000000 0.000000 1.903140 
# 
# From -- ./inp_files/37713.got.cif
#   From: 2010.03.12/outbox.cif.g09.slc.cpg/sg24_19_cif.got.tgz:37713.got - 2010.04.14 03:06:53.
