data_PCOD8164717
_publ_section_title
;
Structure prediction by ZEFSAII (Michael W. Deem and Ramdas Pophale) SiO2 
 PCOD8164717
Probable space group: I 21 21 21
;
_chemical_formula_sum "Si O2"
_cell_formula_units_Z 60
_cell_length_a 16.495283
_cell_length_b 16.899962
_cell_length_c 11.961850
_cell_angle_alpha 90.000000
_cell_angle_beta 90.000000
_cell_angle_gamma 90.000000
_cell_volume 3334.600808
_symmetry_space_group_name_H-M "I 21 21 21"
_symmetry_group_IT_number 24
_symmetry_cell_setting 'orthorhombic'
loop_
_space_group_symop_operation_xyz
x,y,z
-x,1/2-y,z
x,-y,1/2-z
1/2-x,y,-z
1/2+x,1/2+y,1/2+z
1/2-x,-y,1/2+z
1/2+x,1/2-y,-z
-x,1/2+y,1/2-z
loop_
_atom_site_type_symbol
_atom_site_label
_atom_site_fract_x
_atom_site_fract_y
_atom_site_fract_z
Si Si1 0.640705 0.205284 0.219788
Si Si2 0.442858 0.681118 0.506588
Si Si3 0.497471 0.496307 0.957778
Si Si4 0.106000 0.500000 0.250000
Si Si5 0.208734 0.373597 0.113000
Si Si6 0.055493 0.428511 0.677479
Si Si7 0.334100 0.003334 0.061425
Si Si8 0.375784 0.886190 0.243927
O O1 0.572983 0.194598 0.124359
O O2 0.729138 0.179386 0.181242
O O3 0.614055 0.147408 0.320254
O O4 0.642853 0.293898 0.265180
O O5 0.500000 0.750000 0.553491
O O6 0.483194 0.596847 0.529087
O O7 0.358708 0.688443 0.572462
O O8 0.457574 0.530711 0.844217
O O9 0.449415 0.544698 0.050853
O O10 0.594189 0.510780 0.970050
O O11 0.166693 0.436843 0.194641
O O12 0.250000 0.412346 0.000000
O O13 0.094313 0.500000 0.750000
O O14 0.969343 0.407023 0.730324
O O15 0.351037 0.082266 0.133730
O O16 0.326232 0.928620 0.144706
O O17 0.250000 0.015269 0.000000
#
# Coordination Sequence:
#
# PCOD8164717 Si02
#       8
#     8   8   8   4   8   8   8   8
#     4  11  20  31  57  85 111 142 185 243 293 329
#     4  10  18  32  54  80 111 144 180 237 292 338
#     4  10  20  36  55  83 111 146 192 231 281 360
#     4  10  22  38  56  78 114 156 196 228 284 360
#     4   9  22  36  51  82 115 145 190 238 286 342
#     4  11  18  34  58  84 111 143 186 234 292 346
#     4  10  20  36  58  80 113 150 189 241 292 341
#     4  10  20  36  53  85 114 139 192 243 289 350
#
# _framework density 17.993158000000001
#
# number of rings (size 3 to 8) (size 9 to 14) (size 15 to 20)
#    0.000    1.867    4.000    2.000    0.933    3.733 
#    0.000    2.667    0.000    9.600    0.000    0.000 
#    0.000    0.000    0.000    0.000    0.000    0.000 
#
# Total GULP energy -371876.505260 kJ/mol
# GULP energy per Si atom -12395.883509 kJ/mol
# Density = 1.795220 g / cm^3
# Si number density = 17.993158 Si / 1000 Ang^3
#
#
#
# Elastic Constant Matrix: (Units=GPa)
#
#
# Indices 1 2 3 4 5 6 
#
# 1 85.1376 39.2784 56.1588 0.0000 0.0000 0.0000
# 2 39.2784 123.0318 51.9331 0.0000 0.0000 0.0000
# 3 56.1588 51.9331 104.0373 0.0000 0.0000 0.0000
# 4 0.0000 0.0000 0.0000 16.8677 0.0000 0.0000
# 5 0.0000 0.0000 0.0000 0.0000 27.3691 0.0000
# 6 0.0000 0.0000 0.0000 0.0000 0.0000 21.4213
#
#
#
# Elastic Compliance Matrix: (Units=1/GPa)
#
#
# Indices 1 2 3 4 5 6 
#
# 1 0.018684 -0.002164 -0.009006 0.000000 0.000000 0.000000
# 2 -0.002164 0.010548 -0.004098 0.000000 0.000000 0.000000
# 3 -0.009006 -0.004098 0.016519 0.000000 0.000000 0.000000
# 4 0.000000 0.000000 0.000000 0.059285 0.000000 0.000000
# 5 0.000000 0.000000 0.000000 0.000000 0.036538 0.000000
# 6 0.000000 0.000000 0.000000 0.000000 0.000000 0.046683
#
#
# Mechanical properties :
#
#
# Convention : Reuss Voigt Hill
#
# Bulk Modulus (GPa) = 65.71401 67.43859 66.57630
# Shear Modulus (GPa) = 22.33515 24.12070 23.22793
#
# Velocity S-wave (km/s) = 3.52705 3.66532 3.59685
# Velocity P-wave (km/s) = 7.29299 7.44811 7.37096
#
# Compressibility (1/GPa) = 0.01521745
#
# Stress axis : x y z
#
# Youngs Moduli (GPa) = 53.52113 94.80137 60.53801
#
# Poissons Ratio (x) = 0.20512 0.54518
# Poissons Ratio (y) = 0.11580 0.24806
# Poissons Ratio (z) = 0.48199 0.38846
#
# Static dielectric constant tensor:
#      x y z
#    x 3.421480 0.000000 0.000000 
#    y 0.000000 3.348300 0.000000 
#    z 0.000000 0.000000 3.438990 
# 
# 
# High freq. dielectric constant tensor:
#      x y z
#    x 1.702780 0.000000 0.000000 
#    y 0.000000 1.686200 0.000000 
#    z 0.000000 0.000000 1.683330 
# 
# From -- ./inp_files/21677.got.cif
#   From: 2010.03.12/outbox.cif.g09.slc.cpg/sg24_11_cif.got.tgz:21677.got - 2010.04.14 03:06:53.
