data_PCOD8164611
_publ_section_title
;
Structure prediction by ZEFSAII (Michael W. Deem and Ramdas Pophale) SiO2 
 PCOD8164611
Probable space group: I 21 21 21
;
_chemical_formula_sum "Si O2"
_cell_formula_units_Z 48
_cell_length_a 10.097672
_cell_length_b 8.288686
_cell_length_c 28.122648
_cell_angle_alpha 90.000000
_cell_angle_beta 90.000000
_cell_angle_gamma 90.000000
_cell_volume 2353.765311
_symmetry_space_group_name_H-M "I 21 21 21"
_symmetry_group_IT_number 24
_symmetry_cell_setting 'orthorhombic'
loop_
_space_group_symop_operation_xyz
x,y,z
-x,1/2-y,z
x,-y,1/2-z
1/2-x,y,-z
1/2+x,1/2+y,1/2+z
1/2-x,-y,1/2+z
1/2+x,1/2-y,-z
-x,1/2+y,1/2-z
loop_
_atom_site_type_symbol
_atom_site_label
_atom_site_fract_x
_atom_site_fract_y
_atom_site_fract_z
Si Si1 0.391863 0.386819 0.098821
Si Si2 0.620182 0.644417 0.716545
Si Si3 0.895987 0.110146 0.513761
Si Si4 0.701373 0.934793 0.299253
Si Si5 0.451815 0.428211 0.657455
Si Si6 0.394602 0.615586 0.570082
O O1 0.500000 0.250000 0.088989
O O2 0.415271 0.550682 0.068170
O O3 0.395231 0.438170 0.154866
O O4 0.251260 0.312976 0.081230
O O5 0.500000 0.750000 0.739832
O O6 0.666151 0.500000 0.750000
O O7 0.748969 0.750248 0.705249
O O8 0.564172 0.561551 0.668682
O O9 0.750000 0.177764 0.500000
O O10 0.000000 0.250000 0.502243
O O11 0.917917 0.947493 0.483063
O O12 0.632995 0.000000 0.250000
O O13 0.827238 0.050769 0.307293
O O14 0.500000 0.250000 0.664386
O O15 0.409530 0.458227 0.603406
O O16 0.500000 0.750000 0.582716
#
# Coordination Sequence:
#
# PCOD8164611 Si02
#       6
#     8   8   8   8   8   8
#     4  10  22  41  59  80 115 156 190 230 286 343
#     4  10  17  28  48  78 113 149 189 235 293 341
#     4  10  22  40  62  89 119 149 186 233 285 340
#     4  10  20  35  53  75 109 151 196 241 281 334
#     4  10  17  28  50  83 120 150 182 235 295 340
#     4  10  20  36  61  91 117 147 190 236 280 338
#
# _framework density 20.392856999999999
#
# number of rings (size 3 to 8) (size 9 to 14) (size 15 to 20)
#    0.000    2.000    0.000    7.000    0.000    1.333 
#    0.000    8.333    0.000    0.000    0.000    0.000 
#    0.000    0.000    0.000    0.000    0.000    0.000 
#
# Total GULP energy -297475.120048 kJ/mol
# GULP energy per Si atom -12394.796669 kJ/mol
# Density = 2.034644 g / cm^3
# Si number density = 20.392857 Si / 1000 Ang^3
#
#
#
# Elastic Constant Matrix: (Units=GPa)
#
#
# Indices 1 2 3 4 5 6 
#
# 1 90.8078 55.4870 35.5220 0.0000 0.0000 0.0000
# 2 55.4870 108.8990 35.8125 0.0000 0.0000 0.0000
# 3 35.5220 35.8125 129.2365 0.0000 0.0000 0.0000
# 4 0.0000 0.0000 0.0000 -7.8722 0.0000 0.0000
# 5 0.0000 0.0000 0.0000 0.0000 20.6016 0.0000
# 6 0.0000 0.0000 0.0000 0.0000 0.0000 29.7275
#
#
#
# Elastic Compliance Matrix: (Units=1/GPa)
#
#
# Indices 1 2 3 4 5 6 
#
# 1 0.016668 -0.007687 -0.002451 0.000000 0.000000 0.000000
# 2 -0.007687 0.013648 -0.001669 0.000000 0.000000 0.000000
# 3 -0.002451 -0.001669 0.008874 0.000000 0.000000 0.000000
# 4 0.000000 0.000000 0.000000 -0.127030 0.000000 0.000000
# 5 0.000000 0.000000 0.000000 0.000000 0.048540 0.000000
# 6 0.000000 0.000000 0.000000 0.000000 0.000000 0.033639
#
#
# Mechanical properties :
#
#
# Convention : Reuss Voigt Hill
#
# Bulk Modulus (GPa) = 64.20197 64.73184 64.46690
# Shear Modulus (GPa) = 216.01627 21.96617 118.99122
#
# Velocity S-wave (km/s) = 10.30327 3.28556 7.64697
# Velocity P-wave (km/s) = 13.15652 6.79739 10.47136
#
# Compressibility (1/GPa) = 0.01557585
#
# Stress axis : x y z
#
# Youngs Moduli (GPa) = 59.99514 73.26887 112.68740
#
# Poissons Ratio (x) = 0.56319 0.27623
# Poissons Ratio (y) = 0.46116 0.18811
# Poissons Ratio (z) = 0.14707 0.12231
#
# Static dielectric constant tensor:
#      x y z
#    x 3.423240 0.000000 0.000000 
#    y 0.000000 3.517390 0.000000 
#    z 0.000000 0.000000 3.932550 
# 
# 
# High freq. dielectric constant tensor:
#      x y z
#    x 1.762080 0.000000 0.000000 
#    y 0.000000 1.785130 0.000000 
#    z 0.000000 0.000000 1.815850 
# 
# From -- ./inp_files/38293.got.cif
#   From: 2010.03.12/outbox.cif.g09.slc.cpg/sg24_20_cif.got.tgz:38293.got - 2010.04.14 03:06:53.
