data_PCOD8164937
_publ_section_title
;
Structure prediction by ZEFSAII (Michael W. Deem and Ramdas Pophale) SiO2 
 PCOD8164937
Probable space group: I 21 21 21
;
_chemical_formula_sum "Si O2"
_cell_formula_units_Z 64
_cell_length_a 5.272618
_cell_length_b 25.227023
_cell_length_c 24.659757
_cell_angle_alpha 90.000000
_cell_angle_beta 90.000000
_cell_angle_gamma 90.000000
_cell_volume 3280.054832
_symmetry_space_group_name_H-M "I 21 21 21"
_symmetry_group_IT_number 24
_symmetry_cell_setting 'orthorhombic'
loop_
_space_group_symop_operation_xyz
x,y,z
-x,1/2-y,z
x,-y,1/2-z
1/2-x,y,-z
1/2+x,1/2+y,1/2+z
1/2-x,-y,1/2+z
1/2+x,1/2-y,-z
-x,1/2+y,1/2-z
loop_
_atom_site_type_symbol
_atom_site_label
_atom_site_fract_x
_atom_site_fract_y
_atom_site_fract_z
Si Si1 0.726746 0.553927 0.560584
Si Si2 0.287827 0.602837 0.936731
Si Si3 0.286589 0.055508 0.391961
Si Si4 0.249963 0.715952 0.436869
Si Si5 0.226415 0.601817 0.601568
Si Si6 0.750124 0.778266 0.935379
Si Si7 0.249540 0.938840 0.767666
Si Si8 0.750522 0.940736 0.721700
O O1 0.750000 0.530681 0.500000
O O2 0.740397 0.506665 0.603467
O O3 0.457781 0.582627 0.564431
O O4 0.957114 0.593457 0.572507
O O5 0.578423 0.586391 0.927127
O O6 0.246792 0.661803 0.914559
O O7 0.077892 0.566398 0.908063
O O8 0.250000 0.598831 0.000000
O O9 0.237468 0.071091 0.330812
O O10 0.500000 0.750000 0.424147
O O11 0.250000 0.697318 0.500000
O O12 0.247328 0.665580 0.395575
O O13 0.000000 0.750000 0.424120
O O14 0.238925 0.566670 0.656850
O O15 0.500000 0.750000 0.911942
O O16 0.000000 0.750000 0.911782
O O17 0.750000 0.775709 0.000000
O O18 0.496019 0.911187 0.741367
O O19 0.997571 0.910600 0.744577
O O20 0.240337 0.000000 0.750000
O O21 0.745630 0.000000 0.750000
#
# Coordination Sequence:
#
# PCOD8164937 Si02
#       8
#     8   8   8   8   8   8   8   8
#     4  12  23  35  52  80 121 160 190 220 267 346
#     4  11  22  36  54  82 118 153 188 226 278 348
#     4  12  23  37  54  79 117 156 189 224 282 348
#     4  10  21  38  59  85 119 154 193 245 301 357
#     4  12  23  38  60  87 114 153 199 242 293 348
#     4   9  17  31  52  77 104 138 183 231 268 304
#     4  10  20  36  54  75 103 139 186 237 277 317
#     4  10  19  35  56  81 109 139 184 245 294 334
#
# _framework density 19.511869000000001
#
# number of rings (size 3 to 8) (size 9 to 14) (size 15 to 20)
#    0.000    1.250    0.000    9.000    0.000    3.000 
#    0.000    0.000    0.000    0.000    0.000   17.500 
#    0.000    0.000    0.000    0.000    0.000    0.000 
#
# Total GULP energy -396627.408862 kJ/mol
# GULP energy per Si atom -12394.606527 kJ/mol
# Density = 1.946746 g / cm^3
# Si number density = 19.511869 Si / 1000 Ang^3
#
#
#
# Elastic Constant Matrix: (Units=GPa)
#
#
# Indices 1 2 3 4 5 6 
#
# 1 155.7229 24.2316 23.2080 0.0000 0.0000 0.0000
# 2 24.2316 83.8560 9.7276 0.0000 0.0000 0.0000
# 3 23.2080 9.7276 80.8753 0.0000 0.0000 0.0000
# 4 0.0000 0.0000 0.0000 13.8756 0.0000 0.0000
# 5 0.0000 0.0000 0.0000 0.0000 19.8547 0.0000
# 6 0.0000 0.0000 0.0000 0.0000 0.0000 27.1205
#
#
#
# Elastic Compliance Matrix: (Units=1/GPa)
#
#
# Indices 1 2 3 4 5 6 
#
# 1 0.006968 -0.001807 -0.001782 0.000000 0.000000 0.000000
# 2 -0.001807 0.012562 -0.000992 0.000000 0.000000 0.000000
# 3 -0.001782 -0.000992 0.012996 0.000000 0.000000 0.000000
# 4 0.000000 0.000000 0.000000 0.072069 0.000000 0.000000
# 5 0.000000 0.000000 0.000000 0.000000 0.050366 0.000000
# 6 0.000000 0.000000 0.000000 0.000000 0.000000 0.036872
#
#
# Mechanical properties :
#
#
# Convention : Reuss Voigt Hill
#
# Bulk Modulus (GPa) = 42.80267 48.30983 45.55625
# Shear Modulus (GPa) = 23.94811 29.72264 26.83537
#
# Velocity S-wave (km/s) = 3.50717 3.90720 3.71258
# Velocity P-wave (km/s) = 6.19554 6.72070 6.46346
#
# Compressibility (1/GPa) = 0.02336303
#
# Stress axis : x y z
#
# Youngs Moduli (GPa) = 143.50380 79.60219 76.94938
#
# Poissons Ratio (x) = 0.14383 0.13715
# Poissons Ratio (y) = 0.25930 0.07637
# Poissons Ratio (z) = 0.25577 0.07900
#
# Static dielectric constant tensor:
#      x y z
#    x 5.066710 0.000000 0.000000 
#    y 0.000000 4.007970 0.000000 
#    z 0.000000 0.000000 3.341310 
# 
# 
# High freq. dielectric constant tensor:
#      x y z
#    x 1.799710 0.000000 0.000000 
#    y 0.000000 1.725350 0.000000 
#    z 0.000000 0.000000 1.736000 
# 
# From -- ./inp_files/34866.got.cif
#   From: 2010.03.12/outbox.cif.g09.slc.cpg/sg24_18_cif.got.tgz:34866.got - 2010.04.14 03:06:53.
