data_PCOD8164628
_publ_section_title
;
Structure prediction by ZEFSAII (Michael W. Deem and Ramdas Pophale) SiO2 
 PCOD8164628
Probable space group: I 21 21 21
;
_chemical_formula_sum "Si O2"
_cell_formula_units_Z 60
_cell_length_a 11.389877
_cell_length_b 22.924086
_cell_length_c 12.351532
_cell_angle_alpha 90.000000
_cell_angle_beta 90.000000
_cell_angle_gamma 90.000000
_cell_volume 3225.016130
_symmetry_space_group_name_H-M "I 21 21 21"
_symmetry_group_IT_number 24
_symmetry_cell_setting 'orthorhombic'
loop_
_space_group_symop_operation_xyz
x,y,z
-x,1/2-y,z
x,-y,1/2-z
1/2-x,y,-z
1/2+x,1/2+y,1/2+z
1/2-x,-y,1/2+z
1/2+x,1/2-y,-z
-x,1/2+y,1/2-z
loop_
_atom_site_type_symbol
_atom_site_label
_atom_site_fract_x
_atom_site_fract_y
_atom_site_fract_z
Si Si1 0.740919 0.127504 0.768235
Si Si2 0.484367 0.431942 0.228856
Si Si3 0.124538 0.068707 0.455492
Si Si4 0.000942 0.065872 0.240390
Si Si5 0.566541 0.338463 0.386105
Si Si6 0.318850 0.278605 0.388537
Si Si7 0.750000 0.906241 0.500000
Si Si8 0.505023 0.954443 0.506502
O O1 0.848987 0.083596 0.740776
O O2 0.613745 0.103900 0.731833
O O3 0.751444 0.189818 0.709486
O O4 0.750864 0.137181 0.897349
O O5 0.506035 0.500000 0.250000
O O6 0.569579 0.389815 0.296889
O O7 0.524638 0.419897 0.104252
O O8 0.250000 0.046250 0.500000
O O9 0.101519 0.133051 0.500167
O O10 0.108803 0.075484 0.324959
O O11 0.030735 0.022214 0.500992
O O12 0.048175 0.075761 0.116197
O O13 0.955694 0.000000 0.250000
O O14 0.441677 0.310099 0.404344
O O15 0.661980 0.288997 0.355737
O O16 0.250000 0.284648 0.500000
O O17 0.645147 0.952061 0.514328
#
# Coordination Sequence:
#
# PCOD8164628 Si02
#       8
#     8   8   8   8   8   8   4   8
#     4   9  17  30  55  84 109 142 174 233 294 335
#     4  10  17  31  53  81 113 144 184 226 279 345
#     4  11  21  35  51  73 109 153 189 221 271 331
#     4   9  18  33  51  80 114 142 182 228 283 341
#     4  10  21  35  52  78 106 145 189 233 272 331
#     4  10  20  35  54  77 107 140 186 235 282 325
#     4   8  16  32  58  84 116 136 172 236 294 352
#     4   9  18  34  51  82 111 146 179 228 287 336
#
# _framework density 18.604558000000001
#
# number of rings (size 3 to 8) (size 9 to 14) (size 15 to 20)
#    0.000    2.400    1.333    1.600    0.000    1.067 
#    8.400    0.000    0.000    3.200    0.000   11.200 
#    0.000    0.000    0.000    0.000    0.000    0.000 
#
# Total GULP energy -371659.830037 kJ/mol
# GULP energy per Si atom -12388.661001 kJ/mol
# Density = 1.856221 g / cm^3
# Si number density = 18.604558 Si / 1000 Ang^3
#
#
#
# Elastic Constant Matrix: (Units=GPa)
#
#
# Indices 1 2 3 4 5 6 
#
# 1 61.1103 40.8301 57.7529 -0.0001 0.0001 0.0001
# 2 40.8301 125.4228 65.3987 -0.0002 0.0003 0.0003
# 3 57.7529 65.3987 143.2600 0.0000 0.0003 0.0004
# 4 -0.0001 -0.0002 0.0000 27.4484 0.0002 0.0002
# 5 0.0001 0.0003 0.0003 0.0002 25.5120 -0.0001
# 6 0.0001 0.0003 0.0004 0.0002 -0.0001 15.5118
#
#
#
# Elastic Compliance Matrix: (Units=1/GPa)
#
#
# Indices 1 2 3 4 5 6 
#
# 1 0.028060 -0.004247 -0.009373 0.000000 0.000000 0.000000
# 2 -0.004247 0.011107 -0.003358 0.000000 0.000000 0.000000
# 3 -0.009373 -0.003358 0.012292 0.000000 0.000000 0.000000
# 4 0.000000 0.000000 0.000000 0.036432 0.000000 0.000000
# 5 0.000000 0.000000 0.000000 0.000000 0.039197 0.000000
# 6 0.000000 0.000000 0.000000 0.000000 0.000000 0.064467
#
#
# Mechanical properties :
#
#
# Convention : Reuss Voigt Hill
#
# Bulk Modulus (GPa) = 57.13728 73.08405 65.11066
# Shear Modulus (GPa) = 21.61279 24.74852 23.18065
#
# Velocity S-wave (km/s) = 3.41206 3.65120 3.53365
# Velocity P-wave (km/s) = 6.80448 7.55931 7.19181
#
# Compressibility (1/GPa) = 0.01750171
#
# Stress axis : x y z
#
# Youngs Moduli (GPa) = 35.63855 90.03631 81.35524
#
# Poissons Ratio (x) = 0.38241 0.76253
# Poissons Ratio (y) = 0.15137 0.27319
# Poissons Ratio (z) = 0.33403 0.30234
#
# Static dielectric constant tensor:
#      x y z
#    x 3.333660 0.000000 0.000000 
#    y 0.000000 3.354130 0.000000 
#    z 0.000000 0.000000 3.862860 
# 
# 
# High freq. dielectric constant tensor:
#      x y z
#    x 1.706490 0.000000 0.000000 
#    y 0.000000 1.696620 0.000000 
#    z 0.000000 0.000000 1.735720 
# 
# From -- ./inp_files/20127.got.cif
#   From: 2010.03.12/outbox.cif.g09.slc.cpg/sg24_11_cif.got.tgz:20127.got - 2010.04.14 03:06:53.
