data_PCOD8164203
_publ_section_title
;
Structure prediction by ZEFSAII (Michael W. Deem and Ramdas Pophale) SiO2 
 PCOD8164203
Probable space group: I 2 2 2
;
_chemical_formula_sum "Si O2"
_cell_formula_units_Z 40
_cell_length_a 8.628333
_cell_length_b 23.989185
_cell_length_c 8.225576
_cell_angle_alpha 90.000000
_cell_angle_beta 90.000000
_cell_angle_gamma 90.000000
_cell_volume 1702.584639
_symmetry_space_group_name_H-M "I 2 2 2"
_symmetry_group_IT_number 23
_symmetry_cell_setting 'orthorhombic'
loop_
_space_group_symop_operation_xyz
x,y,z
-x,-y,z
x,-y,-z
-x,y,-z
1/2+x,1/2+y,1/2+z
1/2-x,1/2-y,1/2+z
1/2+x,1/2-y,1/2-z
1/2-x,1/2+y,1/2-z
loop_
_atom_site_type_symbol
_atom_site_label
_atom_site_fract_x
_atom_site_fract_y
_atom_site_fract_z
Si Si1 0.037966 0.124890 0.189037
Si Si2 0.728908 0.172828 0.300340
Si Si3 0.944484 0.569040 0.182245
Si Si4 0.156084 0.779104 0.604208
Si Si5 0.740452 0.977190 0.177741
O O1 0.142484 0.177377 0.246425
O O2 0.121168 0.065428 0.231016
O O3 0.878724 0.132547 0.287146
O O4 0.000000 0.129359 0.000000
O O5 0.581722 0.133518 0.280620
O O6 0.716329 0.197485 0.481050
O O7 0.723459 0.220925 0.166936
O O8 0.787516 0.531618 0.208080
O O9 0.076545 0.554863 0.314388
O O10 0.000000 0.557637 0.000000
O O11 0.000000 0.769380 0.500000
O O12 0.780613 0.000000 0.000000
#
# Coordination Sequence:
#
# PCOD8164203 Si02
#       5
#     8   8   8   8   8
#     4  11  24  42  66  96 133 174 220 275 334 395
#     4  11  24  43  69  98 134 177 224 275 330 395
#     4  11  24  42  68  97 129 174 221 269 328 397
#     4  10  24  43  66 101 137 176 222 274 335 396
#     4  11  24  42  65  96 131 170 220 271 332 397
#
# _framework density 23.493691999999999
#
# number of rings (size 3 to 8) (size 9 to 14) (size 15 to 20)
#    0.000    1.200    0.000    6.000    0.000   13.200 
#    0.000    2.000    0.000   13.200    0.000    0.000 
#    0.000    0.000    0.000    0.000    0.000    0.000 
#
# Total GULP energy -247812.888899 kJ/mol
# GULP energy per Si atom -12390.644445 kJ/mol
# Density = 2.344022 g / cm^3
# Si number density = 23.493692 Si / 1000 Ang^3
#
#
#
# Elastic Constant Matrix: (Units=GPa)
#
#
# Indices 1 2 3 4 5 6 
#
# 1 54.1001 61.3738 24.9511 0.0029 -0.0023 -0.0011
# 2 61.3738 183.2334 62.4939 0.0001 0.0024 0.0001
# 3 24.9511 62.4939 106.9588 0.0130 0.0052 -0.0025
# 4 0.0029 0.0001 0.0130 36.9304 0.0003 -0.0017
# 5 -0.0023 0.0024 0.0052 0.0003 28.8585 0.0036
# 6 -0.0011 0.0001 -0.0025 -0.0017 0.0036 42.8695
#
#
#
# Elastic Compliance Matrix: (Units=1/GPa)
#
#
# Indices 1 2 3 4 5 6 
#
# 1 0.029981 -0.009562 -0.001407 -0.000002 0.000003 0.000001
# 2 -0.009562 0.009866 -0.003534 0.000002 -0.000001 0.000000
# 3 -0.001407 -0.003534 0.011742 -0.000004 -0.000002 0.000001
# 4 -0.000002 0.000002 -0.000004 0.027078 0.000000 0.000001
# 5 0.000003 -0.000001 -0.000002 0.000000 0.034652 -0.000003
# 6 0.000001 0.000000 0.000001 0.000001 -0.000003 0.023327
#
#
# Mechanical properties :
#
#
# Convention : Reuss Voigt Hill
#
# Bulk Modulus (GPa) = 44.28041 71.32555 57.80298
# Shear Modulus (GPa) = 28.87194 34.76324 31.81759
#
# Velocity S-wave (km/s) = 3.50940 3.85084 3.68408
# Velocity P-wave (km/s) = 5.94221 7.08501 6.53862
#
# Compressibility (1/GPa) = 0.02258335
#
# Stress axis : x y z
#
# Youngs Moduli (GPa) = 33.35438 101.36252 85.16297
#
# Poissons Ratio (x) = 0.96926 0.11981
# Poissons Ratio (y) = 0.31894 0.30093
# Poissons Ratio (z) = 0.04692 0.35817
#
# Static dielectric constant tensor:
#      x y z
#    x 4.254740 0.000000 0.000000 
#    y 0.000000 4.569600 0.000000 
#    z 0.000000 0.000000 4.177740 
# 
# 
# High freq. dielectric constant tensor:
#      x y z
#    x 1.916530 0.000000 0.000000 
#    y 0.000000 1.951300 0.000000 
#    z 0.000000 0.000000 1.925860 
# 
# From -- ./inp_files/6916.got.cif
#   From: 2010.03.12/outbox.cif.g09.slc.cpg/sg23_4_cif.got.tgz:6916.got - 2010.04.14 02:50:06.
