data_PCOD8164141
_publ_section_title
;
Structure prediction by ZEFSAII (Michael W. Deem and Ramdas Pophale) SiO2 
 PCOD8164141
Probable space group: I 2 2 2
;
_chemical_formula_sum "Si O2"
_cell_formula_units_Z 32
_cell_length_a 10.109537
_cell_length_b 8.579380
_cell_length_c 16.192014
_cell_angle_alpha 90.000000
_cell_angle_beta 90.000000
_cell_angle_gamma 90.000000
_cell_volume 1404.391010
_symmetry_space_group_name_H-M "I 2 2 2"
_symmetry_group_IT_number 23
_symmetry_cell_setting 'orthorhombic'
loop_
_space_group_symop_operation_xyz
x,y,z
-x,-y,z
x,-y,-z
-x,y,-z
1/2+x,1/2+y,1/2+z
1/2-x,1/2-y,1/2+z
1/2+x,1/2-y,1/2-z
1/2-x,1/2+y,1/2-z
loop_
_atom_site_type_symbol
_atom_site_label
_atom_site_fract_x
_atom_site_fract_y
_atom_site_fract_z
Si Si1 0.757154 0.182059 0.681982
Si Si2 0.513150 0.324422 0.316326
Si Si3 0.330771 0.099375 0.578418
Si Si4 0.345791 0.828616 0.014148
O O1 0.626819 0.264809 0.720516
O O2 0.872014 0.178020 0.748887
O O3 0.809661 0.283076 0.606414
O O4 0.721737 0.007489 0.653176
O O5 0.500000 0.500000 0.350920
O O6 0.546735 0.205415 0.390989
O O7 0.210743 0.209774 0.552743
O O8 0.380375 0.000000 0.500000
O O9 0.500000 0.827397 0.000000
O O10 0.285851 0.000000 0.000000
#
# Coordination Sequence:
#
# PCOD8164141 Si02
#       4
#     8   8   8   8
#     4  11  26  44  71 105 139 186 229 287 350 411
#     4  12  26  45  70 106 143 184 230 291 346 413
#     4  10  24  46  72 100 139 184 236 287 344 414
#     4  10  23  43  71 102 139 182 234 286 343 411
#
# _framework density 22.785678999999998
#
# number of rings (size 3 to 8) (size 9 to 14) (size 15 to 20)
#    0.000    1.250    0.000    3.750    7.000   10.500 
#    4.500    6.250    0.000    0.000    0.000    0.000 
#    0.000    0.000    0.000    0.000    0.000    0.000 
#
# Total GULP energy -198454.363451 kJ/mol
# GULP energy per Si atom -12403.397716 kJ/mol
# Density = 2.273382 g / cm^3
# Si number density = 22.785679 Si / 1000 Ang^3
#
#
#
# Elastic Constant Matrix: (Units=GPa)
#
#
# Indices 1 2 3 4 5 6 
#
# 1 148.6288 68.7864 61.4371 0.0000 0.0000 0.0000
# 2 68.7864 188.8446 61.0733 0.0000 0.0000 0.0000
# 3 61.4371 61.0733 90.0758 0.0000 0.0000 0.0000
# 4 0.0000 0.0000 0.0000 29.8281 0.0000 0.0000
# 5 0.0000 0.0000 0.0000 0.0000 32.9498 0.0000
# 6 0.0000 0.0000 0.0000 0.0000 0.0000 39.1414
#
#
#
# Elastic Compliance Matrix: (Units=1/GPa)
#
#
# Indices 1 2 3 4 5 6 
#
# 1 0.009830 -0.001809 -0.005478 0.000000 0.000000 0.000000
# 2 -0.001809 0.007115 -0.003591 0.000000 0.000000 0.000000
# 3 -0.005478 -0.003591 0.017273 0.000000 0.000000 0.000000
# 4 0.000000 0.000000 0.000000 0.033525 0.000000 0.000000
# 5 0.000000 0.000000 0.000000 0.000000 0.030349 0.000000
# 6 0.000000 0.000000 0.000000 0.000000 0.000000 0.025548
#
#
# Mechanical properties :
#
#
# Convention : Reuss Voigt Hill
#
# Bulk Modulus (GPa) = 80.23925 90.01586 85.12756
# Shear Modulus (GPa) = 33.43359 36.13404 34.78382
#
# Velocity S-wave (km/s) = 3.83470 3.98656 3.91137
# Velocity P-wave (km/s) = 7.40930 7.79624 7.60524
#
# Compressibility (1/GPa) = 0.01246273
#
# Stress axis : x y z
#
# Youngs Moduli (GPa) = 101.73242 140.53875 57.89491
#
# Poissons Ratio (x) = 0.25421 0.31715
# Poissons Ratio (y) = 0.18402 0.20788
# Poissons Ratio (z) = 0.55729 0.50463
#
# Static dielectric constant tensor:
#      x y z
#    x 4.207570 0.000000 0.000000 
#    y 0.000000 4.710240 0.000000 
#    z 0.000000 0.000000 3.926200 
# 
# 
# High freq. dielectric constant tensor:
#      x y z
#    x 1.916090 0.000000 0.000000 
#    y 0.000000 1.925300 0.000000 
#    z 0.000000 0.000000 1.887780 
# 
# From -- ./inp_files/20543.got.cif
#   From: 2010.03.12/outbox.cif.g09.slc.cpg/sg23_11_cif.got.tgz:20543.got - 2010.04.14 02:50:06.
