data_PCOD8164382
_publ_section_title
;
Structure prediction by ZEFSAII (Michael W. Deem and Ramdas Pophale) SiO2 
 PCOD8164382
Probable space group: I 2 2 2
;
_chemical_formula_sum "Si O2"
_cell_formula_units_Z 52
_cell_length_a 13.266734
_cell_length_b 11.963964
_cell_length_c 15.675472
_cell_angle_alpha 90.000000
_cell_angle_beta 90.000000
_cell_angle_gamma 90.000000
_cell_volume 2488.053678
_symmetry_space_group_name_H-M "I 2 2 2"
_symmetry_group_IT_number 23
_symmetry_cell_setting 'orthorhombic'
loop_
_space_group_symop_operation_xyz
x,y,z
-x,-y,z
x,-y,-z
-x,y,-z
1/2+x,1/2+y,1/2+z
1/2-x,1/2-y,1/2+z
1/2+x,1/2-y,1/2-z
1/2-x,1/2+y,1/2-z
loop_
_atom_site_type_symbol
_atom_site_label
_atom_site_fract_x
_atom_site_fract_y
_atom_site_fract_z
Si Si1 0.205377 0.040574 0.675937
Si Si2 0.126349 0.000000 0.000000
Si Si3 0.856788 0.198082 0.700128
Si Si4 0.822623 0.861369 0.849258
Si Si5 0.525464 0.372426 0.903807
Si Si6 0.953081 0.805741 0.118385
Si Si7 0.402372 0.935340 0.415480
O O1 0.170798 0.049596 0.773594
O O2 0.145130 0.131336 0.616791
O O3 0.322777 0.062782 0.660879
O O4 0.184080 0.912735 0.653605
O O5 0.058589 0.915884 0.940958
O O6 0.197170 0.073996 0.938392
O O7 0.773550 0.287660 0.674687
O O8 0.876412 0.190809 0.801320
O O9 0.965398 0.217347 0.654522
O O10 0.929969 0.797650 0.852644
O O11 0.500000 0.500000 0.878219
O O12 0.500000 0.342640 0.000000
O O13 0.928250 0.694112 0.063875
O O14 0.500000 0.000000 0.380700
O O15 0.362283 0.000000 0.500000
#
# Coordination Sequence:
#
# PCOD8164382 Si02
#       7
#     8   4   8   8   8   8   8
#     4  11  22  40  65  97 135 179 226 281 344 416
#     4  12  29  42  72 102 143 186 245 298 344 417
#     4  11  23  40  67  96 135 172 226 286 349 409
#     4  12  24  43  67 100 133 181 234 286 346 419
#     4   9  20  37  61  93 126 164 219 281 330 393
#     4  12  24  45  66 102 138 186 228 293 350 413
#     4  11  27  44  65 102 145 182 227 281 359 419
#
# _framework density 20.899871000000001
#
# number of rings (size 3 to 8) (size 9 to 14) (size 15 to 20)
#    0.000    0.923    4.615    2.308   10.769    0.000 
#    0.000    0.000    0.000    0.000    0.000    1.077 
#    0.000    0.000    0.000    0.000    0.000    0.000 
#
# Total GULP energy -322184.995034 kJ/mol
# GULP energy per Si atom -12391.730578 kJ/mol
# Density = 2.085230 g / cm^3
# Si number density = 20.899871 Si / 1000 Ang^3
#
#
#
# Elastic Constant Matrix: (Units=GPa)
#
#
# Indices 1 2 3 4 5 6 
#
# 1 114.1706 40.5918 53.9343 0.0000 0.0000 0.0000
# 2 40.5918 106.6552 39.7915 0.0000 0.0000 0.0000
# 3 53.9343 39.7915 137.7978 0.0000 0.0000 0.0000
# 4 0.0000 0.0000 0.0000 33.1302 0.0000 0.0000
# 5 0.0000 0.0000 0.0000 0.0000 31.6236 0.0000
# 6 0.0000 0.0000 0.0000 0.0000 0.0000 20.8687
#
#
#
# Elastic Compliance Matrix: (Units=1/GPa)
#
#
# Indices 1 2 3 4 5 6 
#
# 1 0.011563 -0.003040 -0.003648 0.000000 0.000000 0.000000
# 2 -0.003040 0.011307 -0.002075 0.000000 0.000000 0.000000
# 3 -0.003648 -0.002075 0.009284 0.000000 0.000000 0.000000
# 4 0.000000 0.000000 0.000000 0.030184 0.000000 0.000000
# 5 0.000000 0.000000 0.000000 0.000000 0.031622 0.000000
# 6 0.000000 0.000000 0.000000 0.000000 0.000000 0.047919
#
#
# Mechanical properties :
#
#
# Convention : Reuss Voigt Hill
#
# Bulk Modulus (GPa) = 68.36173 69.69539 69.02856
# Shear Modulus (GPa) = 30.43571 32.07826 31.25698
#
# Velocity S-wave (km/s) = 3.82024 3.92197 3.87144
# Velocity P-wave (km/s) = 7.22767 7.34362 7.28588
#
# Compressibility (1/GPa) = 0.01462807
#
# Stress axis : x y z
#
# Youngs Moduli (GPa) = 86.48394 88.43933 107.71070
#
# Poissons Ratio (x) = 0.26883 0.39292
# Poissons Ratio (y) = 0.26288 0.22354
# Poissons Ratio (z) = 0.31549 0.18355
#
# Static dielectric constant tensor:
#      x y z
#    x 3.843870 0.000000 0.000000 
#    y 0.000000 3.715120 0.000000 
#    z 0.000000 0.000000 3.831160 
# 
# 
# High freq. dielectric constant tensor:
#      x y z
#    x 1.817980 0.000000 0.000000 
#    y 0.000000 1.801260 0.000000 
#    z 0.000000 0.000000 1.825680 
# 
# From -- ./inp_files/21610.got.cif
#   From: 2010.03.12/outbox.cif.g09.slc.cpg/sg23_11_cif.got.tgz:21610.got - 2010.04.14 02:50:06.
