data_PCOD8164220
_publ_section_title
;
Structure prediction by ZEFSAII (Michael W. Deem and Ramdas Pophale) SiO2 
 PCOD8164220
Probable space group: I 2 2 2
;
_chemical_formula_sum "Si O2"
_cell_formula_units_Z 46
_cell_length_a 16.257890
_cell_length_b 11.701353
_cell_length_c 11.014420
_cell_angle_alpha 90.000000
_cell_angle_beta 90.000000
_cell_angle_gamma 90.000000
_cell_volume 2095.375660
_symmetry_space_group_name_H-M "I 2 2 2"
_symmetry_group_IT_number 23
_symmetry_cell_setting 'orthorhombic'
loop_
_space_group_symop_operation_xyz
x,y,z
-x,-y,z
x,-y,-z
-x,y,-z
1/2+x,1/2+y,1/2+z
1/2-x,1/2-y,1/2+z
1/2+x,1/2-y,1/2-z
1/2-x,1/2+y,1/2-z
loop_
_atom_site_type_symbol
_atom_site_label
_atom_site_fract_x
_atom_site_fract_y
_atom_site_fract_z
Si Si1 0.652201 0.912745 0.105845
Si Si2 0.750049 0.814792 0.544051
Si Si3 0.437820 0.808787 0.387154
Si Si4 0.500000 0.000000 0.225056
Si Si5 0.940647 0.906437 0.263143
Si Si6 0.731781 0.457095 0.186246
Si Si7 0.000000 0.000000 0.500000
O O1 0.686853 0.787947 0.072287
O O2 0.690759 0.962012 0.227795
O O3 0.554695 0.917262 0.137683
O O4 0.674456 0.000000 0.000000
O O5 0.655076 0.783905 0.569863
O O6 0.756559 0.849808 0.403898
O O7 0.779994 0.921562 0.622685
O O8 0.500000 0.809577 0.500000
O O9 0.467350 0.714370 0.290320
O O10 0.441593 0.927084 0.314371
O O11 0.846928 0.933331 0.228902
O O12 0.946467 0.916343 0.411962
O O13 0.000000 0.000000 0.201128
#
# Coordination Sequence:
#
# PCOD8164220 Si02
#       7
#     8   8   8   4   8   8   2
#     4  12  28  47  74 107 151 189 247 305 360 449
#     4  11  26  47  78 103 142 199 243 299 372 433
#     4  12  26  46  74 107 147 192 245 301 363 442
#     4  12  28  50  70 108 154 194 242 296 376 440
#     4  10  24  45  70 106 137 186 243 297 363 426
#     4  11  24  48  73 106 144 191 245 302 360 436
#     4   8  20  44  66 102 136 186 224 302 358 440
#
# _framework density 21.953104
#
# number of rings (size 3 to 8) (size 9 to 14) (size 15 to 20)
#    0.522    0.348    3.478    2.609    9.739    1.739 
#    0.000    0.000    0.000    0.000    0.000    0.000 
#    0.000    0.000    0.000    0.000    0.000    0.000 
#
# Total GULP energy -285111.436625 kJ/mol
# GULP energy per Si atom -12396.149418 kJ/mol
# Density = 2.190314 g / cm^3
# Si number density = 21.953104 Si / 1000 Ang^3
#
#
#
# Elastic Constant Matrix: (Units=GPa)
#
#
# Indices 1 2 3 4 5 6 
#
# 1 127.3364 56.0872 42.9005 0.0000 0.0000 0.0000
# 2 56.0872 132.3835 63.3482 0.0000 0.0000 0.0000
# 3 42.9005 63.3482 109.2171 0.0000 0.0000 0.0000
# 4 0.0000 0.0000 0.0000 37.6505 0.0000 0.0000
# 5 0.0000 0.0000 0.0000 0.0000 21.3736 0.0000
# 6 0.0000 0.0000 0.0000 0.0000 0.0000 36.7702
#
#
#
# Elastic Compliance Matrix: (Units=1/GPa)
#
#
# Indices 1 2 3 4 5 6 
#
# 1 0.009970 -0.003253 -0.002029 0.000000 0.000000 0.000000
# 2 -0.003253 0.011517 -0.005402 0.000000 0.000000 0.000000
# 3 -0.002029 -0.005402 0.013087 0.000000 0.000000 0.000000
# 4 0.000000 0.000000 0.000000 0.026560 0.000000 0.000000
# 5 0.000000 0.000000 0.000000 0.000000 0.046787 0.000000
# 6 0.000000 0.000000 0.000000 0.000000 0.000000 0.027196
#
#
# Mechanical properties :
#
#
# Convention : Reuss Voigt Hill
#
# Bulk Modulus (GPa) = 75.73322 77.06765 76.40044
# Shear Modulus (GPa) = 31.07771 32.93227 32.00499
#
# Velocity S-wave (km/s) = 3.76658 3.87734 3.82236
# Velocity P-wave (km/s) = 7.31360 7.43147 7.37277
#
# Compressibility (1/GPa) = 0.01320424
#
# Stress axis : x y z
#
# Youngs Moduli (GPa) = 100.30428 86.82733 76.41294
#
# Poissons Ratio (x) = 0.28243 0.15507
# Poissons Ratio (y) = 0.32626 0.41282
# Poissons Ratio (z) = 0.20356 0.46908
#
# Static dielectric constant tensor:
#      x y z
#    x 4.031640 0.000000 0.000000 
#    y 0.000000 3.850930 0.000000 
#    z 0.000000 0.000000 3.931040 
# 
# 
# High freq. dielectric constant tensor:
#      x y z
#    x 1.879030 0.000000 0.000000 
#    y 0.000000 1.859600 0.000000 
#    z 0.000000 0.000000 1.860570 
# 
# From -- ./inp_files/17437.got.cif
#   From: 2010.03.12/outbox.cif.g09.slc.cpg/sg23_9_cif.got.tgz:17437.got - 2010.04.14 02:50:06.
