data_PCOD8164827
_publ_section_title
;
Structure prediction by ZEFSAII (Michael W. Deem and Ramdas Pophale) SiO2 
 PCOD8164827
Probable space group: I 21 21 21
;
_chemical_formula_sum "Si O2"
_cell_formula_units_Z 48
_cell_length_a 17.498313
_cell_length_b 17.498321
_cell_length_c 9.058636
_cell_angle_alpha 90.000000
_cell_angle_beta 90.000000
_cell_angle_gamma 90.000000
_cell_volume 2773.673702
_symmetry_space_group_name_H-M "I 21 21 21"
_symmetry_group_IT_number 24
_symmetry_cell_setting 'orthorhombic'
loop_
_space_group_symop_operation_xyz
x,y,z
-x,1/2-y,z
x,-y,1/2-z
1/2-x,y,-z
1/2+x,1/2+y,1/2+z
1/2-x,-y,1/2+z
1/2+x,1/2-y,-z
-x,1/2+y,1/2-z
loop_
_atom_site_type_symbol
_atom_site_label
_atom_site_fract_x
_atom_site_fract_y
_atom_site_fract_z
Si Si1 0.553383 0.071427 0.158993
Si Si2 0.321427 0.696617 0.408993
Si Si3 0.402260 0.077198 0.330228
Si Si4 0.327199 0.847739 0.580228
Si Si5 0.231336 0.801553 0.832433
Si Si6 0.948446 0.481336 0.082433
O O1 0.614738 0.135261 0.125000
O O2 0.481377 0.104650 0.252793
O O3 0.589423 0.000000 0.250000
O O4 0.526307 0.041751 0.999184
O O5 0.250000 0.660578 0.500000
O O6 0.354652 0.768622 0.502793
O O7 0.291752 0.723693 0.249184
O O8 0.339116 0.140988 0.315610
O O9 0.373879 0.000000 0.250000
O O10 0.414331 0.056879 0.503128
O O11 0.250000 0.876118 0.500000
O O12 0.306880 0.835668 0.753128
O O13 0.390988 0.910884 0.565609
O O14 0.250000 0.782394 0.000000
O O15 0.967605 0.500000 0.250000
#
# Coordination Sequence:
#
# PCOD8164827 Si02
#       6
#     8   8   8   8   8   8
#     4   9  19  37  55  72  95 128 169 210 255 308
#     4   9  19  37  55  72  95 128 169 210 255 308
#     4   9  18  30  47  73 102 137 169 194 240 304
#     4   9  18  30  47  73 102 137 169 194 240 304
#     4  10  19  30  47  74 105 132 165 206 243 288
#     4  10  19  30  47  74 105 132 165 206 243 288
#
# _framework density 17.305568000000001
#
# number of rings (size 3 to 8) (size 9 to 14) (size 15 to 20)
#    0.000    3.333    0.000    5.000    0.000    6.667 
#    0.000    8.333    0.000    8.000    0.000    0.000 
#    0.000    0.000    0.000    0.000    0.000    0.000 
#
# Total GULP energy -297390.357400 kJ/mol
# GULP energy per Si atom -12391.264892 kJ/mol
# Density = 1.726618 g / cm^3
# Si number density = 17.305568 Si / 1000 Ang^3
#
#
#
# Elastic Constant Matrix: (Units=GPa)
#
#
# Indices 1 2 3 4 5 6 
#
# 1 83.7818 73.2707 49.2453 0.0000 0.0000 0.0000
# 2 73.2707 83.7847 49.2460 0.0000 0.0000 0.0000
# 3 49.2453 49.2460 158.7170 0.0000 0.0000 0.0000
# 4 0.0000 0.0000 0.0000 9.9096 0.0000 0.0000
# 5 0.0000 0.0000 0.0000 0.0000 9.9093 0.0000
# 6 0.0000 0.0000 0.0000 0.0000 0.0000 42.3206
#
#
#
# Elastic Compliance Matrix: (Units=1/GPa)
#
#
# Indices 1 2 3 4 5 6 
#
# 1 0.051516 -0.043610 -0.002453 0.000000 0.000000 0.000000
# 2 -0.043610 0.051514 -0.002453 0.000000 0.000000 0.000000
# 3 -0.002453 -0.002453 0.007823 0.000000 0.000000 0.000000
# 4 0.000000 0.000000 0.000000 0.100912 0.000000 0.000000
# 5 0.000000 0.000000 0.000000 0.000000 0.100916 0.000000
# 6 0.000000 0.000000 0.000000 0.000000 0.000000 0.023629
#
#
# Mechanical properties :
#
#
# Convention : Reuss Voigt Hill
#
# Bulk Modulus (GPa) = 72.34767 74.42306 73.38537
# Shear Modulus (GPa) = 11.41687 22.72932 17.07309
#
# Velocity S-wave (km/s) = 2.57129 3.62803 3.14437
# Velocity P-wave (km/s) = 7.12125 7.78773 7.46194
#
# Compressibility (1/GPa) = 0.01382215
#
# Stress axis : x y z
#
# Youngs Moduli (GPa) = 19.41140 19.41211 127.83423
#
# Poissons Ratio (x) = 0.84656 0.31357
# Poissons Ratio (y) = 0.84653 0.31355
# Poissons Ratio (z) = 0.04762 0.04761
#
# Static dielectric constant tensor:
#      x y z
#    x 2.981980 0.000000 0.000000 
#    y 0.000000 2.981980 0.000000 
#    z 0.000000 0.000000 3.527340 
# 
# 
# High freq. dielectric constant tensor:
#      x y z
#    x 1.645210 0.000000 0.000000 
#    y 0.000000 1.645210 0.000000 
#    z 0.000000 0.000000 1.685200 
# 
# From -- ./inp_files/14319.got.cif
#   From: 2010.03.12/outbox.cif.g09.slc.cpg/sg24_8_cif.got.tgz:14319.got - 2010.04.14 03:06:53.
