data_PCOD8164063
_publ_section_title
;
Structure prediction by ZEFSAII (Michael W. Deem and Ramdas Pophale) SiO2 
 PCOD8164063
Probable space group: I 2 2 2
;
_chemical_formula_sum "Si O2"
_cell_formula_units_Z 48
_cell_length_a 6.810152
_cell_length_b 9.121649
_cell_length_c 31.563286
_cell_angle_alpha 90.000000
_cell_angle_beta 90.000000
_cell_angle_gamma 90.000000
_cell_volume 1960.705524
_symmetry_space_group_name_H-M "I 2 2 2"
_symmetry_group_IT_number 23
_symmetry_cell_setting 'orthorhombic'
loop_
_space_group_symop_operation_xyz
x,y,z
-x,-y,z
x,-y,-z
-x,y,-z
1/2+x,1/2+y,1/2+z
1/2-x,1/2-y,1/2+z
1/2+x,1/2-y,1/2-z
1/2-x,1/2+y,1/2-z
loop_
_atom_site_type_symbol
_atom_site_label
_atom_site_fract_x
_atom_site_fract_y
_atom_site_fract_z
Si Si1 0.224423 0.109938 0.704109
Si Si2 0.161999 0.307376 0.779773
Si Si3 0.057394 0.347007 0.428965
Si Si4 0.782982 0.058559 0.542998
Si Si5 0.370027 0.358923 0.360149
Si Si6 0.282970 0.837298 0.389249
O O1 0.130290 0.234926 0.733725
O O2 0.456435 0.126454 0.707085
O O3 0.168515 0.128999 0.654798
O O4 0.176396 0.941482 0.719298
O O5 0.222717 0.189629 0.815173
O O6 0.198148 0.236998 0.456199
O O7 0.183089 0.397663 0.388435
O O8 0.000000 0.500000 0.452999
O O9 0.855474 0.268278 0.416557
O O10 0.676598 0.000000 0.500000
O O11 0.678384 0.988138 0.584395
O O12 0.000000 0.000000 0.543574
O O13 0.500000 0.500000 0.351217
O O14 0.504540 0.234702 0.382032
#
# Coordination Sequence:
#
# PCOD8164063 Si02
#       6
#     8   8   8   8   8   8
#     4  10  23  41  58  90 123 168 219 268 327 383
#     4  10  24  39  59  85 124 169 214 274 324 379
#     4  11  22  39  68 101 127 173 214 266 331 396
#     4   9  20  42  70 102 133 170 219 267 333 403
#     4  11  23  41  64  93 135 170 219 275 332 386
#     4  10  22  43  66  93 130 172 217 270 328 400
#
# _framework density 24.480982999999998
#
# number of rings (size 3 to 8) (size 9 to 14) (size 15 to 20)
#    0.000    1.833    1.667    1.000    7.000    2.000 
#    0.000    8.333    0.000    1.000    0.000    0.000 
#    0.000    0.000    0.000    0.000    0.000    0.000 
#
# Total GULP energy -297442.639277 kJ/mol
# GULP energy per Si atom -12393.443303 kJ/mol
# Density = 2.442526 g / cm^3
# Si number density = 24.480983 Si / 1000 Ang^3
#
#
#
# Elastic Constant Matrix: (Units=GPa)
#
#
# Indices 1 2 3 4 5 6 
#
# 1 32.1553 6.7271 -4.4763 0.0000 0.0000 0.0000
# 2 6.7271 191.4335 61.6189 0.0000 0.0000 0.0000
# 3 -4.4763 61.6189 140.7629 0.0000 0.0000 0.0000
# 4 0.0000 0.0000 0.0000 28.6113 0.0000 0.0000
# 5 0.0000 0.0000 0.0000 0.0000 8.4024 0.0000
# 6 0.0000 0.0000 0.0000 0.0000 0.0000 34.4494
#
#
#
# Elastic Compliance Matrix: (Units=1/GPa)
#
#
# Indices 1 2 3 4 5 6 
#
# 1 0.031692 -0.001674 0.001741 0.000000 0.000000 0.000000
# 2 -0.001674 0.006169 -0.002754 0.000000 0.000000 0.000000
# 3 0.001741 -0.002754 0.008365 0.000000 0.000000 0.000000
# 4 0.000000 0.000000 0.000000 0.034951 0.000000 0.000000
# 5 0.000000 0.000000 0.000000 0.000000 0.119013 0.000000
# 6 0.000000 0.000000 0.000000 0.000000 0.000000 0.029028
#
#
# Mechanical properties :
#
#
# Convention : Reuss Voigt Hill
#
# Bulk Modulus (GPa) = 24.47897 54.67677 39.57787
# Shear Modulus (GPa) = 20.14431 34.32477 27.23454
#
# Velocity S-wave (km/s) = 2.87166 3.74852 3.33900
# Velocity P-wave (km/s) = 4.58433 6.41234 5.57379
#
# Compressibility (1/GPa) = 0.04085139
#
# Stress axis : x y z
#
# Youngs Moduli (GPa) = 31.55409 162.10277 119.54695
#
# Poissons Ratio (x) = 0.27135 -0.20808
# Poissons Ratio (y) = 0.05282 0.32919
# Poissons Ratio (z) = -0.05492 0.44638
#
# Static dielectric constant tensor:
#      x y z
#    x 4.252790 0.000000 0.000000 
#    y 0.000000 4.964290 0.000000 
#    z 0.000000 0.000000 5.141360 
# 
# 
# High freq. dielectric constant tensor:
#      x y z
#    x 1.975150 0.000000 0.000000 
#    y 0.000000 1.985030 0.000000 
#    z 0.000000 0.000000 1.953830 
# 
# From -- ./inp_files/13375.got.cif
#   From: 2010.03.12/outbox.cif.g09.slc.cpg/sg23_7_cif.got.tgz:13375.got - 2010.04.14 02:50:06.
