data_PCOD8164281
_publ_section_title
;
Structure prediction by ZEFSAII (Michael W. Deem and Ramdas Pophale) SiO2 
 PCOD8164281
Probable space group: I 2 2 2
;
_chemical_formula_sum "Si O2"
_cell_formula_units_Z 56
_cell_length_a 5.032615
_cell_length_b 28.072410
_cell_length_c 25.128521
_cell_angle_alpha 90.000000
_cell_angle_beta 90.000000
_cell_angle_gamma 90.000000
_cell_volume 3550.097934
_symmetry_space_group_name_H-M "I 2 2 2"
_symmetry_group_IT_number 23
_symmetry_cell_setting 'orthorhombic'
loop_
_space_group_symop_operation_xyz
x,y,z
-x,-y,z
x,-y,-z
-x,y,-z
1/2+x,1/2+y,1/2+z
1/2-x,1/2-y,1/2+z
1/2+x,1/2-y,1/2-z
1/2-x,1/2+y,1/2-z
loop_
_atom_site_type_symbol
_atom_site_label
_atom_site_fract_x
_atom_site_fract_y
_atom_site_fract_z
Si Si1 0.740748 0.530195 0.582155
Si Si2 0.593774 0.166161 0.117240
Si Si3 0.386605 0.548380 0.296328
Si Si4 0.395385 0.365571 0.557219
Si Si5 0.902496 0.608083 0.279823
Si Si6 0.188153 0.304272 0.213465
Si Si7 0.810453 0.243695 0.679375
O O1 0.500000 0.500000 0.558746
O O2 0.721044 0.536380 0.645288
O O3 0.730136 0.581557 0.554444
O O4 0.000000 0.500000 0.566885
O O5 0.349974 0.167448 0.075649
O O6 0.490963 0.139225 0.170339
O O7 0.662410 0.221227 0.129092
O O8 0.854488 0.138447 0.096757
O O9 0.500000 0.500000 0.269127
O O10 0.624580 0.585762 0.297453
O O11 0.131485 0.569643 0.265020
O O12 0.500000 0.348751 0.500000
O O13 0.853599 0.640281 0.227607
O O14 0.188994 0.275207 0.267904
O O15 0.459320 0.295924 0.181523
O O16 0.959946 0.285722 0.174131
#
# Coordination Sequence:
#
# PCOD8164281 Si02
#       7
#     8   8   8   8   8   8   8
#     4  11  21  35  51  60  76 102 143 190 235 279
#     4  11  20  35  50  64  84 112 135 173 233 275
#     4  11  20  30  46  65  84 112 149 180 218 268
#     4  12  24  37  49  65  82 106 146 188 236 286
#     4  11  18  31  48  65  87 111 139 174 222 265
#     4   9  17  27  44  69  88 106 129 163 205 263
#     4   9  17  29  45  66  89 106 129 159 209 275
#
# _framework density 15.774213
#
# number of rings (size 3 to 8) (size 9 to 14) (size 15 to 20)
#    0.000    1.429    2.857    5.143    0.000    4.857 
#    0.000    0.714    0.000    0.000    0.000    0.000 
#    0.000    0.000    0.000    0.000    0.000    0.000 
#
# Total GULP energy -347168.380850 kJ/mol
# GULP energy per Si atom -12398.870745 kJ/mol
# Density = 1.573831 g / cm^3
# Si number density = 15.774213 Si / 1000 Ang^3
#
#
#
# Elastic Constant Matrix: (Units=GPa)
#
#
# Indices 1 2 3 4 5 6 
#
# 1 94.0049 12.2239 12.2758 0.0000 0.0000 0.0000
# 2 12.2239 49.1887 24.6472 0.0000 0.0000 0.0000
# 3 12.2758 24.6472 29.3564 0.0000 0.0000 0.0000
# 4 0.0000 0.0000 0.0000 12.7344 0.0000 0.0000
# 5 0.0000 0.0000 0.0000 0.0000 21.7315 0.0000
# 6 0.0000 0.0000 0.0000 0.0000 0.0000 30.4387
#
#
#
# Elastic Compliance Matrix: (Units=1/GPa)
#
#
# Indices 1 2 3 4 5 6 
#
# 1 0.011269 -0.000758 -0.004076 0.000000 0.000000 0.000000
# 2 -0.000758 0.035145 -0.029190 0.000000 0.000000 0.000000
# 3 -0.004076 -0.029190 0.060276 0.000000 0.000000 0.000000
# 4 0.000000 0.000000 0.000000 0.078528 0.000000 0.000000
# 5 0.000000 0.000000 0.000000 0.000000 0.046016 0.000000
# 6 0.000000 0.000000 0.000000 0.000000 0.000000 0.032853
#
#
# Mechanical properties :
#
#
# Convention : Reuss Voigt Hill
#
# Bulk Modulus (GPa) = 25.87877 30.09376 27.98626
# Shear Modulus (GPa) = 14.49221 21.20778 17.84999
#
# Velocity S-wave (km/s) = 3.03434 3.67066 3.36757
# Velocity P-wave (km/s) = 5.35889 6.08969 5.73594
#
# Compressibility (1/GPa) = 0.03864171
#
# Stress axis : x y z
#
# Youngs Moduli (GPa) = 88.74257 28.45392 16.59048
#
# Poissons Ratio (x) = 0.02157 0.06761
# Poissons Ratio (y) = 0.06729 0.48427
# Poissons Ratio (z) = 0.36167 0.83056
#
# Static dielectric constant tensor:
#      x y z
#    x 3.263880 0.000000 0.000000 
#    y 0.000000 3.112650 0.000000 
#    z 0.000000 0.000000 2.574510 
# 
# 
# High freq. dielectric constant tensor:
#      x y z
#    x 1.634460 0.000000 0.000000 
#    y 0.000000 1.592130 0.000000 
#    z 0.000000 0.000000 1.533790 
# 
# From -- ./inp_files/25828.got.cif
#   From: 2010.03.12/outbox.cif.g09.slc.cpg/sg23_13_cif.got.tgz:25828.got - 2010.04.14 02:50:06.
