data_PCOD8164781
_publ_section_title
;
Structure prediction by ZEFSAII (Michael W. Deem and Ramdas Pophale) SiO2 
 PCOD8164781
Probable space group: I 21 21 21
;
_chemical_formula_sum "Si O2"
_cell_formula_units_Z 44
_cell_length_a 19.975582
_cell_length_b 9.924744
_cell_length_c 11.671485
_cell_angle_alpha 90.000000
_cell_angle_beta 90.000000
_cell_angle_gamma 90.000000
_cell_volume 2313.901519
_symmetry_space_group_name_H-M "I 21 21 21"
_symmetry_group_IT_number 24
_symmetry_cell_setting 'orthorhombic'
loop_
_space_group_symop_operation_xyz
x,y,z
-x,1/2-y,z
x,-y,1/2-z
1/2-x,y,-z
1/2+x,1/2+y,1/2+z
1/2-x,-y,1/2+z
1/2+x,1/2-y,-z
-x,1/2+y,1/2-z
loop_
_atom_site_type_symbol
_atom_site_label
_atom_site_fract_x
_atom_site_fract_y
_atom_site_fract_z
Si Si1 0.403120 0.000000 0.250000
Si Si2 0.467567 0.119457 0.660643
Si Si3 0.297140 0.771630 0.271883
Si Si4 0.126156 0.500000 0.750000
Si Si5 0.510562 0.094535 0.409444
Si Si6 0.750000 0.404415 0.000000
Si Si7 0.681281 0.601454 0.853916
O O1 0.358487 0.132061 0.257342
O O2 0.451061 0.000950 0.361038
O O3 0.500000 0.250000 0.719709
O O4 0.509118 0.080629 0.546847
O O5 0.391753 0.165572 0.631266
O O6 0.470550 0.000000 0.750000
O O7 0.323888 0.621038 0.278896
O O8 0.269756 0.808220 0.396713
O O9 0.239216 0.787276 0.173407
O O10 0.080796 0.538401 0.860184
O O11 0.500000 0.250000 0.371334
O O12 0.808687 0.509736 0.033220
O O13 0.684777 0.500000 0.750000
#
# Coordination Sequence:
#
# PCOD8164781 Si02
#       7
#     4   8   8   4   8   4   8
#     4  11  18  36  64  90 111 160 204 246 307 366
#     4  10  22  42  59  85 119 162 211 255 307 378
#     4  11  21  38  61  93 127 155 203 267 310 387
#     4  11  24  40  58 102 135 156 208 268 349 372
#     4  10  21  38  62  87 126 164 207 257 313 389
#     4  10  18  36  64  92 112 164 210 246 306 384
#     4   9  19  35  59  87 113 153 209 248 289 371
#
# _framework density 19.015502000000001
#
# number of rings (size 3 to 8) (size 9 to 14) (size 15 to 20)
#    0.000    1.818    4.545    1.091    0.000    0.000 
#   14.727    2.727    0.000    0.000    0.000    0.000 
#    0.000    0.000    0.000    0.000    0.000    0.000 
#
# Total GULP energy -272677.348161 kJ/mol
# GULP energy per Si atom -12394.424916 kJ/mol
# Density = 1.897222 g / cm^3
# Si number density = 19.015502 Si / 1000 Ang^3
#
#
#
# Elastic Constant Matrix: (Units=GPa)
#
#
# Indices 1 2 3 4 5 6 
#
# 1 120.6081 71.6350 36.9252 0.0000 0.0000 0.0000
# 2 71.6350 129.3713 39.6632 0.0000 0.0000 0.0000
# 3 36.9252 39.6632 79.8601 0.0000 0.0000 0.0000
# 4 0.0000 0.0000 0.0000 25.1603 0.0000 0.0000
# 5 0.0000 0.0000 0.0000 0.0000 16.8858 0.0000
# 6 0.0000 0.0000 0.0000 0.0000 0.0000 28.3130
#
#
#
# Elastic Compliance Matrix: (Units=1/GPa)
#
#
# Indices 1 2 3 4 5 6 
#
# 1 0.012881 -0.006259 -0.002847 0.000000 0.000000 0.000000
# 2 -0.006259 0.012160 -0.003145 0.000000 0.000000 0.000000
# 3 -0.002847 -0.003145 0.015400 0.000000 0.000000 0.000000
# 4 0.000000 0.000000 0.000000 0.039745 0.000000 0.000000
# 5 0.000000 0.000000 0.000000 0.000000 0.059221 0.000000
# 6 0.000000 0.000000 0.000000 0.000000 0.000000 0.035319
#
#
# Mechanical properties :
#
#
# Convention : Reuss Voigt Hill
#
# Bulk Modulus (GPa) = 62.74322 69.58735 66.16528
# Shear Modulus (GPa) = 24.44483 26.17957 25.31220
#
# Velocity S-wave (km/s) = 3.58931 3.71448 3.65243
# Velocity P-wave (km/s) = 7.08837 7.42098 7.25658
#
# Compressibility (1/GPa) = 0.01593798
#
# Stress axis : x y z
#
# Youngs Moduli (GPa) = 77.63552 82.23766 64.93391
#
# Poissons Ratio (x) = 0.51476 0.18486
# Poissons Ratio (y) = 0.48595 0.20422
# Poissons Ratio (z) = 0.22102 0.25865
#
# Static dielectric constant tensor:
#      x y z
#    x 3.946380 0.000000 0.000000 
#    y 0.000000 3.537700 0.000000 
#    z 0.000000 0.000000 3.634840 
# 
# 
# High freq. dielectric constant tensor:
#      x y z
#    x 1.748180 0.000000 0.000000 
#    y 0.000000 1.722090 0.000000 
#    z 0.000000 0.000000 1.738420 
# 
# From -- ./inp_files/21500.got.cif
#   From: 2010.03.12/outbox.cif.g09.slc.cpg/sg24_11_cif.got.tgz:21500.got - 2010.04.14 03:06:53.
