data_PCOD8164757
_publ_section_title
;
Structure prediction by ZEFSAII (Michael W. Deem and Ramdas Pophale) SiO2 
 PCOD8164757
Probable space group: I 21 21 21
;
_chemical_formula_sum "Si O2"
_cell_formula_units_Z 44
_cell_length_a 13.002158
_cell_length_b 12.055274
_cell_length_c 13.635439
_cell_angle_alpha 90.000000
_cell_angle_beta 90.000000
_cell_angle_gamma 90.000000
_cell_volume 2137.281122
_symmetry_space_group_name_H-M "I 21 21 21"
_symmetry_group_IT_number 24
_symmetry_cell_setting 'orthorhombic'
loop_
_space_group_symop_operation_xyz
x,y,z
-x,1/2-y,z
x,-y,1/2-z
1/2-x,y,-z
1/2+x,1/2+y,1/2+z
1/2-x,-y,1/2+z
1/2+x,1/2-y,-z
-x,1/2+y,1/2-z
loop_
_atom_site_type_symbol
_atom_site_label
_atom_site_fract_x
_atom_site_fract_y
_atom_site_fract_z
Si Si1 0.250000 0.520011 0.500000
Si Si2 0.500000 0.250000 0.463376
Si Si3 0.801226 0.830963 0.857751
Si Si4 0.273282 0.000000 0.750000
Si Si5 0.887014 0.223657 0.029289
Si Si6 0.832814 0.628812 0.073569
Si Si7 0.206503 0.216808 0.837032
O O1 0.266787 0.449589 0.400515
O O2 0.351055 0.595592 0.519375
O O3 0.415471 0.307025 0.395670
O O4 0.445047 0.154055 0.528464
O O5 0.715971 0.745929 0.896200
O O6 0.804021 0.820401 0.739217
O O7 0.347540 0.044233 0.663657
O O8 0.196869 0.099679 0.780934
O O9 0.879825 0.277655 0.920839
O O10 0.000000 0.250000 0.068356
O O11 0.816773 0.281806 0.110372
O O12 0.750000 0.571395 0.000000
#
# Coordination Sequence:
#
# PCOD8164757 Si02
#       7
#     4   4   8   4   8   8   8
#     4  10  20  42  68  90 130 166 208 272 334 360
#     4  10  18  34  64  94 130 154 206 284 308 366
#     4  10  19  39  62  97 123 161 216 268 316 365
#     4  10  20  38  62  84 120 180 192 252 334 356
#     4  10  24  44  61  88 130 169 206 259 321 400
#     4   9  19  35  58  91 130 155 212 268 306 375
#     4   9  22  42  61  89 132 157 215 269 302 388
#
# _framework density 20.586904000000001
#
# number of rings (size 3 to 8) (size 9 to 14) (size 15 to 20)
#    0.000    2.545    2.727    0.000    3.818    4.364 
#   13.091    0.000    0.000    0.000    0.000    0.000 
#    0.000    0.000    0.000    0.000    0.000    0.000 
#
# Total GULP energy -272629.537523 kJ/mol
# GULP energy per Si atom -12392.251706 kJ/mol
# Density = 2.054005 g / cm^3
# Si number density = 20.586904 Si / 1000 Ang^3
#
#
#
# Elastic Constant Matrix: (Units=GPa)
#
#
# Indices 1 2 3 4 5 6 
#
# 1 110.5017 26.7798 33.6438 0.0000 0.0000 0.0000
# 2 26.7798 111.6218 43.1729 0.0000 0.0000 0.0000
# 3 33.6438 43.1729 127.4666 0.0000 0.0000 0.0000
# 4 0.0000 0.0000 0.0000 28.5392 0.0000 0.0000
# 5 0.0000 0.0000 0.0000 0.0000 13.0663 0.0000
# 6 0.0000 0.0000 0.0000 0.0000 0.0000 18.6857
#
#
#
# Elastic Compliance Matrix: (Units=1/GPa)
#
#
# Indices 1 2 3 4 5 6 
#
# 1 0.010083 -0.001599 -0.002120 0.000000 0.000000 0.000000
# 2 -0.001599 0.010563 -0.003156 0.000000 0.000000 0.000000
# 3 -0.002120 -0.003156 0.009473 0.000000 0.000000 0.000000
# 4 0.000000 0.000000 0.000000 0.035039 0.000000 0.000000
# 5 0.000000 0.000000 0.000000 0.000000 0.076532 0.000000
# 6 0.000000 0.000000 0.000000 0.000000 0.000000 0.053517
#
#
# Mechanical properties :
#
#
# Convention : Reuss Voigt Hill
#
# Bulk Modulus (GPa) = 61.08617 61.86479 61.47548
# Shear Modulus (GPa) = 23.31945 28.45782 25.88863
#
# Velocity S-wave (km/s) = 3.36926 3.72200 3.55001
# Velocity P-wave (km/s) = 6.69870 6.97042 6.83591
#
# Compressibility (1/GPa) = 0.01637032
#
# Stress axis : x y z
#
# Youngs Moduli (GPa) = 99.18163 94.67001 105.55831
#
# Poissons Ratio (x) = 0.15139 0.22374
# Poissons Ratio (y) = 0.15861 0.33310
# Poissons Ratio (z) = 0.21022 0.29874
#
# Static dielectric constant tensor:
#      x y z
#    x 3.439250 0.000000 0.000000 
#    y 0.000000 3.647930 0.000000 
#    z 0.000000 0.000000 4.187430 
# 
# 
# High freq. dielectric constant tensor:
#      x y z
#    x 1.779140 0.000000 0.000000 
#    y 0.000000 1.797010 0.000000 
#    z 0.000000 0.000000 1.820440 
# 
# From -- ./inp_files/26427.got.cif
#   From: 2010.03.12/outbox.cif.g09.slc.cpg/sg24_14_cif.got.tgz:26427.got - 2010.04.14 03:06:53.
