data_PCOD8164221
_publ_section_title
;
Structure prediction by ZEFSAII (Michael W. Deem and Ramdas Pophale) SiO2 
 PCOD8164221
Probable space group: I 2 2 2
;
_chemical_formula_sum "Si O2"
_cell_formula_units_Z 48
_cell_length_a 9.763853
_cell_length_b 12.775855
_cell_length_c 17.774845
_cell_angle_alpha 90.000000
_cell_angle_beta 90.000000
_cell_angle_gamma 90.000000
_cell_volume 2217.262075
_symmetry_space_group_name_H-M "I 2 2 2"
_symmetry_group_IT_number 23
_symmetry_cell_setting 'orthorhombic'
loop_
_space_group_symop_operation_xyz
x,y,z
-x,-y,z
x,-y,-z
-x,y,-z
1/2+x,1/2+y,1/2+z
1/2-x,1/2-y,1/2+z
1/2+x,1/2-y,1/2-z
1/2-x,1/2+y,1/2-z
loop_
_atom_site_type_symbol
_atom_site_label
_atom_site_fract_x
_atom_site_fract_y
_atom_site_fract_z
Si Si1 0.425994 0.339186 0.765770
Si Si2 0.500000 0.500000 0.886910
Si Si3 0.500000 0.000000 0.818541
Si Si4 0.878655 0.326298 0.223545
Si Si5 0.000000 0.000000 0.858053
Si Si6 0.225133 0.574446 0.567965
Si Si7 0.725704 0.500000 0.000000
Si Si8 0.870655 0.289831 0.051089
O O1 0.433457 0.408934 0.839080
O O2 0.275878 0.290564 0.762737
O O3 0.530838 0.246290 0.776407
O O4 0.463601 0.399693 0.690546
O O5 0.627404 0.456967 0.934306
O O6 0.597893 0.060526 0.759819
O O7 0.395243 0.069148 0.869253
O O8 0.920406 0.313239 0.136251
O O9 0.130833 0.026304 0.907353
O O10 0.173880 0.500000 0.500000
O O11 0.255271 0.697026 0.547238
O O12 0.815549 0.599836 0.978930
O O13 0.000000 0.255168 0.000000
#
# Coordination Sequence:
#
# PCOD8164221 Si02
#       8
#     8   4   4   8   4   8   4   8
#     4  11  24  43  74 103 146 184 247 298 375 430
#     4  10  24  45  71 102 140 202 230 304 358 460
#     4  12  29  46  73 108 150 192 250 308 371 444
#     4  12  26  46  72 109 143 194 240 312 366 441
#     4  11  21  45  69 105 139 186 240 298 364 442
#     4  12  26  50  73 107 148 196 252 307 372 440
#     4  11  25  46  70 108 153 191 248 294 382 453
#     4  12  27  47  75 110 147 196 243 310 375 446
#
# _framework density 21.648320999999999
#
# number of rings (size 3 to 8) (size 9 to 14) (size 15 to 20)
#    0.000    0.500    5.000    2.750    2.333    2.667 
#    3.000    0.000    0.000    0.000    0.000    0.000 
#    0.000    0.000    0.000    0.000    0.000    0.000 
#
# Total GULP energy -297542.052686 kJ/mol
# GULP energy per Si atom -12397.585529 kJ/mol
# Density = 2.159905 g / cm^3
# Si number density = 21.648321 Si / 1000 Ang^3
#
#
#
# Elastic Constant Matrix: (Units=GPa)
#
#
# Indices 1 2 3 4 5 6 
#
# 1 139.2058 40.0235 31.9728 0.0000 0.0000 0.0000
# 2 40.0235 118.7945 31.8631 0.0000 0.0000 0.0000
# 3 31.9728 31.8631 100.5260 0.0000 0.0000 0.0000
# 4 0.0000 0.0000 0.0000 46.7582 0.0000 0.0000
# 5 0.0000 0.0000 0.0000 0.0000 43.5737 0.0000
# 6 0.0000 0.0000 0.0000 0.0000 0.0000 41.4197
#
#
#
# Elastic Compliance Matrix: (Units=1/GPa)
#
#
# Indices 1 2 3 4 5 6 
#
# 1 0.008277 -0.002276 -0.001911 0.000000 0.000000 0.000000
# 2 -0.002276 0.009826 -0.002391 0.000000 0.000000 0.000000
# 3 -0.001911 -0.002391 0.011313 0.000000 0.000000 0.000000
# 4 0.000000 0.000000 0.000000 0.021387 0.000000 0.000000
# 5 0.000000 0.000000 0.000000 0.000000 0.022950 0.000000
# 6 0.000000 0.000000 0.000000 0.000000 0.000000 0.024143
#
#
# Mechanical properties :
#
#
# Convention : Reuss Voigt Hill
#
# Bulk Modulus (GPa) = 61.49788 62.91611 62.20699
# Shear Modulus (GPa) = 42.92913 43.32812 43.12863
#
# Velocity S-wave (km/s) = 4.45795 4.47861 4.46829
# Velocity P-wave (km/s) = 7.41398 7.47462 7.44436
#
# Compressibility (1/GPa) = 0.01626072
#
# Stress axis : x y z
#
# Youngs Moduli (GPa) = 120.81766 101.77164 88.39205
#
# Poissons Ratio (x) = 0.23163 0.16893
# Poissons Ratio (y) = 0.27498 0.21131
# Poissons Ratio (z) = 0.23090 0.24329
#
# Static dielectric constant tensor:
#      x y z
#    x 3.896380 0.000000 0.000000 
#    y 0.000000 3.912290 0.000000 
#    z 0.000000 0.000000 4.276450 
# 
# 
# High freq. dielectric constant tensor:
#      x y z
#    x 1.861270 0.000000 0.000000 
#    y 0.000000 1.852800 0.000000 
#    z 0.000000 0.000000 1.860770 
# 
# From -- ./inp_files/23777.got.cif
#   From: 2010.03.12/outbox.cif.g09.slc.cpg/sg23_12_cif.got.tgz:23777.got - 2010.04.14 02:50:06.
