data_PCOD8164790
_publ_section_title
;
Structure prediction by ZEFSAII (Michael W. Deem and Ramdas Pophale) SiO2 
 PCOD8164790
Probable space group: I 21 21 21
;
_chemical_formula_sum "Si O2"
_cell_formula_units_Z 48
_cell_length_a 18.023293
_cell_length_b 14.878695
_cell_length_c 8.605193
_cell_angle_alpha 90.000000
_cell_angle_beta 90.000000
_cell_angle_gamma 90.000000
_cell_volume 2307.595054
_symmetry_space_group_name_H-M "I 21 21 21"
_symmetry_group_IT_number 24
_symmetry_cell_setting 'orthorhombic'
loop_
_space_group_symop_operation_xyz
x,y,z
-x,1/2-y,z
x,-y,1/2-z
1/2-x,y,-z
1/2+x,1/2+y,1/2+z
1/2-x,-y,1/2+z
1/2+x,1/2-y,-z
-x,1/2+y,1/2-z
loop_
_atom_site_type_symbol
_atom_site_label
_atom_site_fract_x
_atom_site_fract_y
_atom_site_fract_z
Si Si1 0.589716 0.621162 0.512662
Si Si2 0.188756 0.829634 0.107052
Si Si3 0.977220 0.655497 0.978431
Si Si4 0.049121 0.000000 0.750000
Si Si5 0.676542 0.500000 0.750000
Si Si6 0.175459 0.285963 0.089688
Si Si7 0.048251 0.602968 0.292451
O O1 0.599270 0.565514 0.354064
O O2 0.624640 0.566484 0.653358
O O3 0.628041 0.717494 0.481753
O O4 0.504637 0.632766 0.564974
O O5 0.190542 0.767200 0.254588
O O6 0.222640 0.929923 0.146309
O O7 0.250000 0.782985 0.000000
O O8 0.109230 0.843337 0.025302
O O9 0.995973 0.569102 0.865874
O O10 0.000000 0.750000 0.894469
O O11 0.027793 0.654825 0.133855
O O12 0.129700 0.373788 0.141069
O O13 0.250000 0.315677 0.000000
O O14 0.043650 0.500000 0.250000
#
# Coordination Sequence:
#
# PCOD8164790 Si02
#       7
#     8   8   8   4   4   8   8
#     4  11  20  39  66 100 133 168 227 290 336 418
#     4  11  23  39  61  93 137 180 214 271 350 439
#     4  12  23  44  69  98 137 190 227 286 362 417
#     4  12  24  37  64 110 137 156 234 294 342 409
#     4  10  18  37  62  90 129 176 218 252 356 415
#     4  11  26  42  67 100 135 183 234 285 363 429
#     4  12  20  46  77  93 127 189 246 289 339 428
#
# _framework density 20.800877
#
# number of rings (size 3 to 8) (size 9 to 14) (size 15 to 20)
#    0.000    0.667    9.167    0.500    2.333    4.667 
#    0.000    0.833    1.833    0.000    0.000    0.000 
#    0.000    0.000    0.000    0.000    0.000    0.000 
#
# Total GULP energy -297334.100693 kJ/mol
# GULP energy per Si atom -12388.920862 kJ/mol
# Density = 2.075353 g / cm^3
# Si number density = 20.800877 Si / 1000 Ang^3
#
#
#
# Elastic Constant Matrix: (Units=GPa)
#
#
# Indices 1 2 3 4 5 6 
#
# 1 101.6820 20.1791 38.6179 0.0000 0.0000 0.0000
# 2 20.1791 57.7003 20.1569 0.0000 0.0000 0.0000
# 3 38.6179 20.1569 87.4791 0.0000 0.0000 0.0000
# 4 0.0000 0.0000 0.0000 25.5112 0.0000 0.0000
# 5 0.0000 0.0000 0.0000 0.0000 33.5532 0.0000
# 6 0.0000 0.0000 0.0000 0.0000 0.0000 17.0186
#
#
#
# Elastic Compliance Matrix: (Units=1/GPa)
#
#
# Indices 1 2 3 4 5 6 
#
# 1 0.012160 -0.002586 -0.004772 0.000000 0.000000 0.000000
# 2 -0.002586 0.019398 -0.003328 0.000000 0.000000 0.000000
# 3 -0.004772 -0.003328 0.014305 0.000000 0.000000 0.000000
# 4 0.000000 0.000000 0.000000 0.039198 0.000000 0.000000
# 5 0.000000 0.000000 0.000000 0.000000 0.029803 0.000000
# 6 0.000000 0.000000 0.000000 0.000000 0.000000 0.058759
#
#
# Mechanical properties :
#
#
# Convention : Reuss Voigt Hill
#
# Bulk Modulus (GPa) = 40.83187 44.97434 42.90310
# Shear Modulus (GPa) = 24.61115 26.41044 25.51080
#
# Velocity S-wave (km/s) = 3.44347 3.56712 3.50584
# Velocity P-wave (km/s) = 5.95671 6.21563 6.08755
#
# Compressibility (1/GPa) = 0.02449068
#
# Stress axis : x y z
#
# Youngs Moduli (GPa) = 82.23552 51.55219 69.90571
#
# Poissons Ratio (x) = 0.13329 0.33362
# Poissons Ratio (y) = 0.21262 0.23266
# Poissons Ratio (z) = 0.39246 0.17158
#
# Static dielectric constant tensor:
#      x y z
#    x 3.652940 0.000000 0.000000 
#    y 0.000000 4.064640 0.000000 
#    z 0.000000 0.000000 4.042600 
# 
# 
# High freq. dielectric constant tensor:
#      x y z
#    x 1.782130 0.000000 0.000000 
#    y 0.000000 1.817240 0.000000 
#    z 0.000000 0.000000 1.818710 
# 
# From -- ./inp_files/14231.got.cif
#   From: 2010.03.12/outbox.cif.g09.slc.cpg/sg24_8_cif.got.tgz:14231.got - 2010.04.14 03:06:53.
