data_PCOD8164739
_publ_section_title
;
Structure prediction by ZEFSAII (Michael W. Deem and Ramdas Pophale) SiO2 
 PCOD8164739
Probable space group: I 21 21 21
;
_chemical_formula_sum "Si O2"
_cell_formula_units_Z 48
_cell_length_a 20.865989
_cell_length_b 13.894300
_cell_length_c 9.640442
_cell_angle_alpha 90.000000
_cell_angle_beta 90.000000
_cell_angle_gamma 90.000000
_cell_volume 2794.940662
_symmetry_space_group_name_H-M "I 21 21 21"
_symmetry_group_IT_number 24
_symmetry_cell_setting 'orthorhombic'
loop_
_space_group_symop_operation_xyz
x,y,z
-x,1/2-y,z
x,-y,1/2-z
1/2-x,y,-z
1/2+x,1/2+y,1/2+z
1/2-x,-y,1/2+z
1/2+x,1/2-y,-z
-x,1/2+y,1/2-z
loop_
_atom_site_type_symbol
_atom_site_label
_atom_site_fract_x
_atom_site_fract_y
_atom_site_fract_z
Si Si1 0.943979 0.327694 0.501453
Si Si2 0.036048 0.951234 0.512291
Si Si3 0.257250 0.908734 0.658271
Si Si4 0.936548 0.808028 0.512818
Si Si5 0.120633 0.172891 0.788380
Si Si6 0.609478 0.325528 0.797471
O O1 0.970936 0.435038 0.515976
O O2 0.900127 0.304437 0.632638
O O3 0.900178 0.323249 0.365927
O O4 0.000000 0.250000 0.490926
O O5 0.078111 0.912082 0.641789
O O6 0.069280 0.911840 0.370960
O O7 0.960582 0.918179 0.518681
O O8 0.250000 0.942867 0.500000
O O9 0.193931 0.858837 0.716145
O O10 0.315620 0.834438 0.669132
O O11 0.275428 0.000000 0.750000
O O12 0.884102 0.773789 0.626008
O O13 0.913187 0.777420 0.359414
O O14 0.000000 0.750000 0.555585
#
# Coordination Sequence:
#
# PCOD8164739 Si02
#       6
#     8   8   8   8   8   8
#     4  12  22  33  50  80 108 135 167 224 274 308
#     4  10  18  34  53  72 100 140 175 212 258 315
#     4  12  22  34  52  78 109 145 178 208 261 325
#     4   8  16  34  51  69  96 137 177 214 244 311
#     4  10  21  33  51  75 107 136 176 208 255 317
#     4  10  21  33  51  75 107 136 176 208 255 317
#
# _framework density 17.173888999999999
#
# number of rings (size 3 to 8) (size 9 to 14) (size 15 to 20)
#    0.000    2.000    3.333    6.000    2.333    0.000 
#    0.000    0.000    0.000    0.000    0.000    7.000 
#    0.000    0.000    0.000    0.000    0.000    0.000 
#
# Total GULP energy -297455.655778 kJ/mol
# GULP energy per Si atom -12393.985657 kJ/mol
# Density = 1.713480 g / cm^3
# Si number density = 17.173889 Si / 1000 Ang^3
#
#
#
# Elastic Constant Matrix: (Units=GPa)
#
#
# Indices 1 2 3 4 5 6 
#
# 1 75.2690 44.0229 15.5000 0.0000 0.0000 0.0000
# 2 44.0229 74.0934 21.0322 0.0000 0.0000 0.0000
# 3 15.5000 21.0322 123.1699 0.0000 0.0000 0.0000
# 4 0.0000 0.0000 0.0000 14.3927 0.0000 0.0000
# 5 0.0000 0.0000 0.0000 0.0000 27.4930 0.0000
# 6 0.0000 0.0000 0.0000 0.0000 0.0000 18.0625
#
#
#
# Elastic Compliance Matrix: (Units=1/GPa)
#
#
# Indices 1 2 3 4 5 6 
#
# 1 0.020393 -0.011968 -0.000523 0.000000 0.000000 0.000000
# 2 -0.011968 0.021208 -0.002115 0.000000 0.000000 0.000000
# 3 -0.000523 -0.002115 0.008546 0.000000 0.000000 0.000000
# 4 0.000000 0.000000 0.000000 0.069479 0.000000 0.000000
# 5 0.000000 0.000000 0.000000 0.000000 0.036373 0.000000
# 6 0.000000 0.000000 0.000000 0.000000 0.000000 0.055363
#
#
# Mechanical properties :
#
#
# Convention : Reuss Voigt Hill
#
# Bulk Modulus (GPa) = 47.76814 48.18251 47.97532
# Shear Modulus (GPa) = 20.19763 24.78812 22.49288
#
# Velocity S-wave (km/s) = 3.43310 3.80328 3.62292
# Velocity P-wave (km/s) = 6.60225 6.88500 6.74510
#
# Compressibility (1/GPa) = 0.02093445
#
# Stress axis : x y z
#
# Youngs Moduli (GPa) = 49.03561 47.15193 117.01595
#
# Poissons Ratio (x) = 0.56434 0.06116
# Poissons Ratio (y) = 0.58688 0.24752
# Poissons Ratio (z) = 0.02563 0.09974
#
# Static dielectric constant tensor:
#      x y z
#    x 3.291560 0.000000 0.000000 
#    y 0.000000 3.406120 0.000000 
#    z 0.000000 0.000000 3.398990 
# 
# 
# High freq. dielectric constant tensor:
#      x y z
#    x 1.649690 0.000000 0.000000 
#    y 0.000000 1.630760 0.000000 
#    z 0.000000 0.000000 1.680010 
# 
# From -- ./inp_files/15095.got.cif
#   From: 2010.03.12/outbox.cif.g09.slc.cpg/sg24_8_cif.got.tgz:15095.got - 2010.04.14 03:06:53.
