data_PCOD8164541
_publ_section_title
;
Structure prediction by ZEFSAII (Michael W. Deem and Ramdas Pophale) SiO2 
 PCOD8164541
Probable space group: I 2 2 2
;
_chemical_formula_sum "Si O2"
_cell_formula_units_Z 58
_cell_length_a 13.331220
_cell_length_b 8.036614
_cell_length_c 22.597704
_cell_angle_alpha 90.000000
_cell_angle_beta 90.000000
_cell_angle_gamma 90.000000
_cell_volume 2421.069857
_symmetry_space_group_name_H-M "I 2 2 2"
_symmetry_group_IT_number 23
_symmetry_cell_setting 'orthorhombic'
loop_
_space_group_symop_operation_xyz
x,y,z
-x,-y,z
x,-y,-z
-x,y,-z
1/2+x,1/2+y,1/2+z
1/2-x,1/2-y,1/2+z
1/2+x,1/2-y,1/2-z
1/2-x,1/2+y,1/2-z
loop_
_atom_site_type_symbol
_atom_site_label
_atom_site_fract_x
_atom_site_fract_y
_atom_site_fract_z
Si Si1 0.000000 0.500000 0.500000
Si Si2 0.223155 0.822019 0.091185
Si Si3 0.317845 0.820844 0.474953
Si Si4 0.660588 0.156367 0.910117
Si Si5 0.951433 0.324162 0.774227
Si Si6 0.125772 0.203148 0.714289
Si Si7 0.785170 0.839237 0.293160
Si Si8 0.492115 0.307485 0.602117
O O1 0.071780 0.610476 0.456831
O O2 0.284248 0.712147 0.138033
O O3 0.107440 0.759283 0.093476
O O4 0.254468 0.013188 0.100364
O O5 0.246679 0.783060 0.023359
O O6 0.230031 0.817904 0.425545
O O7 0.421931 0.731780 0.454754
O O8 0.346302 0.000000 0.500000
O O9 0.610961 0.203157 0.848025
O O10 0.843114 0.299189 0.745665
O O11 0.000000 0.500000 0.758002
O O12 0.016093 0.178996 0.742240
O O13 0.943591 0.296907 0.844522
O O14 0.176410 0.326519 0.763001
O O15 0.176577 0.025264 0.710271
O O16 0.500000 0.500000 0.617498
#
# Coordination Sequence:
#
# PCOD8164541 Si02
#       8
#     2   8   8   8   8   8   8   8
#     4  12  28  52  82 110 144 200 262 310 368 446
#     4  12  25  46  74 106 151 199 247 312 376 451
#     4  12  27  47  75 111 153 201 251 311 381 452
#     4  12  26  50  78 111 148 201 258 316 378 453
#     4  12  27  46  73 112 151 197 252 313 387 457
#     4  12  26  47  74 108 146 199 248 312 385 449
#     4  12  26  47  74 110 153 196 250 314 381 462
#     4  12  26  46  75 111 152 198 254 311 383 457
#
# _framework density 23.956351999999999
#
# number of rings (size 3 to 8) (size 9 to 14) (size 15 to 20)
#    0.000    0.000    4.138    5.793    4.828    1.103 
#    0.000    0.345    0.000    0.000    0.000    0.000 
#    0.000    0.000    0.000    0.000    0.000    0.000 
#
# Total GULP energy -359370.101966 kJ/mol
# GULP energy per Si atom -12392.072482 kJ/mol
# Density = 2.390183 g / cm^3
# Si number density = 23.956352 Si / 1000 Ang^3
#
#
#
# Elastic Constant Matrix: (Units=GPa)
#
#
# Indices 1 2 3 4 5 6 
#
# 1 85.6520 17.5497 22.0435 0.0000 0.0000 0.0000
# 2 17.5497 88.1996 25.0194 0.0000 0.0000 0.0000
# 3 22.0435 25.0194 116.5842 0.0000 0.0000 0.0000
# 4 0.0000 0.0000 0.0000 100.7165 0.0000 0.0000
# 5 0.0000 0.0000 0.0000 0.0000 47.6403 0.0000
# 6 0.0000 0.0000 0.0000 0.0000 0.0000 28.0853
#
#
#
# Elastic Compliance Matrix: (Units=1/GPa)
#
#
# Indices 1 2 3 4 5 6 
#
# 1 0.012579 -0.001947 -0.001961 0.000000 0.000000 0.000000
# 2 -0.001947 0.012374 -0.002287 0.000000 0.000000 0.000000
# 3 -0.001961 -0.002287 0.009439 0.000000 0.000000 0.000000
# 4 0.000000 0.000000 0.000000 0.009929 0.000000 0.000000
# 5 0.000000 0.000000 0.000000 0.000000 0.020991 0.000000
# 6 0.000000 0.000000 0.000000 0.000000 0.000000 0.035606
#
#
# Mechanical properties :
#
#
# Convention : Reuss Voigt Hill
#
# Bulk Modulus (GPa) = 45.44964 46.62900 46.03932
# Shear Modulus (GPa) = 41.44539 50.34331 45.89435
#
# Velocity S-wave (km/s) = 4.16388 4.58914 4.38168
# Velocity P-wave (km/s) = 6.49078 6.89831 6.69765
#
# Compressibility (1/GPa) = 0.02200237
#
# Stress axis : x y z
#
# Youngs Moduli (GPa) = 79.50018 80.81363 105.94245
#
# Poissons Ratio (x) = 0.15732 0.20771
# Poissons Ratio (y) = 0.15476 0.24234
# Poissons Ratio (z) = 0.15586 0.18486
#
# Static dielectric constant tensor:
#      x y z
#    x 2.499710 0.000000 0.000000 
#    y 0.000000 4.064210 0.000000 
#    z 0.000000 0.000000 4.598000 
# 
# 
# High freq. dielectric constant tensor:
#      x y z
#    x 1.960200 0.000000 0.000000 
#    y 0.000000 1.944950 0.000000 
#    z 0.000000 0.000000 1.967640 
# 
# From -- ./inp_files/27015.got.cif
#   From: 2010.03.12/outbox.cif.g09.slc.cpg/sg23_14_cif.got.tgz:27015.got - 2010.04.14 02:50:06.
