data_PCOD8164725
_publ_section_title
;
Structure prediction by ZEFSAII (Michael W. Deem and Ramdas Pophale) SiO2 
 PCOD8164725
Probable space group: I 21 21 21
;
_chemical_formula_sum "Si O2"
_cell_formula_units_Z 40
_cell_length_a 25.018676
_cell_length_b 8.949614
_cell_length_c 8.574501
_cell_angle_alpha 90.000000
_cell_angle_beta 90.000000
_cell_angle_gamma 90.000000
_cell_volume 1919.895023
_symmetry_space_group_name_H-M "I 21 21 21"
_symmetry_group_IT_number 24
_symmetry_cell_setting 'orthorhombic'
loop_
_space_group_symop_operation_xyz
x,y,z
-x,1/2-y,z
x,-y,1/2-z
1/2-x,y,-z
1/2+x,1/2+y,1/2+z
1/2-x,-y,1/2+z
1/2+x,1/2-y,-z
-x,1/2+y,1/2-z
loop_
_atom_site_type_symbol
_atom_site_label
_atom_site_fract_x
_atom_site_fract_y
_atom_site_fract_z
Si Si1 0.537877 0.106955 0.609645
Si Si2 0.647363 0.263814 0.657279
Si Si3 0.521492 0.407149 0.109418
Si Si4 0.630506 0.593691 0.529754
Si Si5 0.694516 0.500000 0.250000
Si Si6 0.750000 0.702833 0.000000
O O1 0.500000 0.250000 0.616200
O O2 0.600028 0.150978 0.614542
O O3 0.522027 0.000000 0.750000
O O4 0.526835 0.009411 0.455341
O O5 0.636754 0.424354 0.583599
O O6 0.653333 0.286609 0.844644
O O7 0.701362 0.199233 0.573926
O O8 0.500000 0.250000 0.172030
O O9 0.548201 0.500000 0.250000
O O10 0.567229 0.374530 0.982122
O O11 0.659277 0.609373 0.361680
O O12 0.732234 0.399585 0.356208
#
# Coordination Sequence:
#
# PCOD8164725 Si02
#       6
#     8   8   8   8   4   4
#     4  12  23  40  64  92 126 171 215 265 319 391
#     4  10  21  36  61  86 125 163 216 261 320 383
#     4  12  25  39  60  94 132 169 210 264 325 390
#     4  10  19  36  57  90 124 167 210 264 316 379
#     4  10  18  32  58  84 128 158 210 266 316 374
#     4  10  20  34  56  92 120 166 208 268 320 380
#
# _framework density 20.834472999999999
#
# number of rings (size 3 to 8) (size 9 to 14) (size 15 to 20)
#    0.000    1.200    3.000    6.000    0.000    0.000 
#    0.000    0.000    0.000    6.000    0.000    0.000 
#    0.000    0.000    0.000    0.000    0.000    0.000 
#
# Total GULP energy -247939.640917 kJ/mol
# GULP energy per Si atom -12396.982046 kJ/mol
# Density = 2.078705 g / cm^3
# Si number density = 20.834473 Si / 1000 Ang^3
#
#
#
# Elastic Constant Matrix: (Units=GPa)
#
#
# Indices 1 2 3 4 5 6 
#
# 1 128.0298 37.6151 54.5109 0.0000 0.0000 0.0000
# 2 37.6151 83.4612 29.7296 0.0000 0.0000 0.0000
# 3 54.5109 29.7296 123.5470 0.0000 0.0000 0.0000
# 4 0.0000 0.0000 0.0000 22.9212 0.0000 0.0000
# 5 0.0000 0.0000 0.0000 0.0000 34.7983 0.0000
# 6 0.0000 0.0000 0.0000 0.0000 0.0000 8.8910
#
#
#
# Elastic Compliance Matrix: (Units=1/GPa)
#
#
# Indices 1 2 3 4 5 6 
#
# 1 0.010404 -0.003340 -0.003787 0.000000 0.000000 0.000000
# 2 -0.003340 0.014177 -0.001938 0.000000 0.000000 0.000000
# 3 -0.003787 -0.001938 0.010231 0.000000 0.000000 0.000000
# 4 0.000000 0.000000 0.000000 0.043628 0.000000 0.000000
# 5 0.000000 0.000000 0.000000 0.000000 0.028737 0.000000
# 6 0.000000 0.000000 0.000000 0.000000 0.000000 0.112473
#
#
# Mechanical properties :
#
#
# Convention : Reuss Voigt Hill
#
# Bulk Modulus (GPa) = 59.94053 64.30546 62.12299
# Shear Modulus (GPa) = 20.54726 27.53425 24.04075
#
# Velocity S-wave (km/s) = 3.14381 3.63929 3.40059
# Velocity P-wave (km/s) = 6.48154 6.97073 6.73059
#
# Compressibility (1/GPa) = 0.01668320
#
# Stress axis : x y z
#
# Youngs Moduli (GPa) = 96.11376 70.53538 97.74052
#
# Poissons Ratio (x) = 0.23561 0.37012
# Poissons Ratio (y) = 0.32104 0.18940
# Poissons Ratio (z) = 0.36396 0.13668
#
# Static dielectric constant tensor:
#      x y z
#    x 4.145520 0.000000 0.000000 
#    y 0.000000 3.405020 0.000000 
#    z 0.000000 0.000000 4.452890 
# 
# 
# High freq. dielectric constant tensor:
#      x y z
#    x 1.822480 0.000000 0.000000 
#    y 0.000000 1.771160 0.000000 
#    z 0.000000 0.000000 1.832230 
# 
# From -- ./inp_files/15663.got.cif
#   From: 2010.03.12/outbox.cif.g09.slc.cpg/sg24_8_cif.got.tgz:15663.got - 2010.04.14 03:06:53.
