data_PCOD8164397
_publ_section_title
;
Structure prediction by ZEFSAII (Michael W. Deem and Ramdas Pophale) SiO2 
 PCOD8164397
Probable space group: I 2 2 2
;
_chemical_formula_sum "Si O2"
_cell_formula_units_Z 58
_cell_length_a 18.401658
_cell_length_b 9.700292
_cell_length_c 16.053562
_cell_angle_alpha 90.000000
_cell_angle_beta 90.000000
_cell_angle_gamma 90.000000
_cell_volume 2865.584189
_symmetry_space_group_name_H-M "I 2 2 2"
_symmetry_group_IT_number 23
_symmetry_cell_setting 'orthorhombic'
loop_
_space_group_symop_operation_xyz
x,y,z
-x,-y,z
x,-y,-z
-x,y,-z
1/2+x,1/2+y,1/2+z
1/2-x,1/2-y,1/2+z
1/2+x,1/2-y,1/2-z
1/2-x,1/2+y,1/2-z
loop_
_atom_site_type_symbol
_atom_site_label
_atom_site_fract_x
_atom_site_fract_y
_atom_site_fract_z
Si Si1 0.000000 0.500000 0.500000
Si Si2 0.841451 0.398218 0.930725
Si Si3 0.422508 0.464463 0.903812
Si Si4 0.619589 0.155891 0.100377
Si Si5 0.714181 0.465017 0.824642
Si Si6 0.720383 0.650628 0.468615
Si Si7 0.586764 0.988847 0.731685
Si Si8 0.300458 0.780974 0.705733
O O1 0.949900 0.402835 0.554217
O O2 0.766833 0.471103 0.904245
O O3 0.895881 0.396387 0.850727
O O4 0.876667 0.500000 0.000000
O O5 0.816861 0.248131 0.962044
O O6 0.500000 0.500000 0.865033
O O7 0.399002 0.312108 0.882112
O O8 0.367336 0.560204 0.854312
O O9 0.420096 0.500000 0.000000
O O10 0.691584 0.149581 0.042150
O O11 0.627063 0.078783 0.188724
O O12 0.728222 0.334743 0.767707
O O13 0.732659 0.613051 0.783996
O O14 0.695807 0.500000 0.500000
O O15 0.687683 0.701633 0.381368
O O16 0.623265 0.141026 0.724267
O O17 0.500000 0.000000 0.743932
#
# Coordination Sequence:
#
# PCOD8164397 Si02
#       8
#     2   8   8   8   8   8   8   8
#     4  12  24  40  66 100 146 180 226 278 360 428
#     4  11  22  44  69  98 128 183 234 295 349 418
#     4  11  24  40  61  94 135 179 216 266 339 426
#     4  12  24  43  66 103 139 185 231 284 352 432
#     4  11  23  40  67  91 137 170 228 280 344 415
#     4  12  24  41  68 101 135 171 234 288 352 416
#     4  11  26  45  71  99 140 181 242 294 358 430
#     4  11  25  43  64 104 130 180 228 298 353 414
#
# _framework density 20.240202
#
# number of rings (size 3 to 8) (size 9 to 14) (size 15 to 20)
#    0.000    0.690    5.517    3.724    5.793    1.379 
#    0.000    0.000    0.000    0.828    0.000    0.000 
#    0.000    0.000    0.000    0.000    0.000    0.000 
#
# Total GULP energy -359302.283404 kJ/mol
# GULP energy per Si atom -12389.733910 kJ/mol
# Density = 2.019413 g / cm^3
# Si number density = 20.240202 Si / 1000 Ang^3
#
#
#
# Elastic Constant Matrix: (Units=GPa)
#
#
# Indices 1 2 3 4 5 6 
#
# 1 96.2445 17.9094 15.8200 0.0000 0.0000 0.0000
# 2 17.9094 117.9381 39.6129 0.0000 0.0000 0.0000
# 3 15.8200 39.6129 86.1531 0.0000 0.0000 0.0000
# 4 0.0000 0.0000 0.0000 51.3609 0.0000 0.0000
# 5 0.0000 0.0000 0.0000 0.0000 26.2765 0.0000
# 6 0.0000 0.0000 0.0000 0.0000 0.0000 28.2522
#
#
#
# Elastic Compliance Matrix: (Units=1/GPa)
#
#
# Indices 1 2 3 4 5 6 
#
# 1 0.010845 -0.001157 -0.001460 0.000000 0.000000 0.000000
# 2 -0.001157 0.010151 -0.004455 0.000000 0.000000 0.000000
# 3 -0.001460 -0.004455 0.013924 0.000000 0.000000 0.000000
# 4 0.000000 0.000000 0.000000 0.019470 0.000000 0.000000
# 5 0.000000 0.000000 0.000000 0.000000 0.038057 0.000000
# 6 0.000000 0.000000 0.000000 0.000000 0.000000 0.035395
#
#
# Mechanical properties :
#
#
# Convention : Reuss Voigt Hill
#
# Bulk Modulus (GPa) = 48.12925 49.66893 48.89909
# Shear Modulus (GPa) = 33.57714 36.31082 34.94398
#
# Velocity S-wave (km/s) = 4.07742 4.24015 4.15958
# Velocity P-wave (km/s) = 6.78217 6.96885 6.87614
#
# Compressibility (1/GPa) = 0.02077739
#
# Stress axis : x y z
#
# Youngs Moduli (GPa) = 92.20531 98.51237 71.82014
#
# Poissons Ratio (x) = 0.11394 0.10483
# Poissons Ratio (y) = 0.10665 0.31996
# Poissons Ratio (z) = 0.13459 0.43887
#
# Static dielectric constant tensor:
#      x y z
#    x 3.471290 0.000000 0.000000 
#    y 0.000000 4.351780 0.000000 
#    z 0.000000 0.000000 3.817890 
# 
# 
# High freq. dielectric constant tensor:
#      x y z
#    x 1.781540 0.000000 0.000000 
#    y 0.000000 1.800650 0.000000 
#    z 0.000000 0.000000 1.796490 
# 
# From -- ./inp_files/25083.got.cif
#   From: 2010.03.12/outbox.cif.g09.slc.cpg/sg23_13_cif.got.tgz:25083.got - 2010.04.14 02:50:06.
