data_PCOD8164244
_publ_section_title
;
Structure prediction by ZEFSAII (Michael W. Deem and Ramdas Pophale) SiO2 
 PCOD8164244
Probable space group: I 2 2 2
;
_chemical_formula_sum "Si O2"
_cell_formula_units_Z 40
_cell_length_a 14.197161
_cell_length_b 7.218768
_cell_length_c 16.789650
_cell_angle_alpha 90.000000
_cell_angle_beta 90.000000
_cell_angle_gamma 90.000000
_cell_volume 1720.704263
_symmetry_space_group_name_H-M "I 2 2 2"
_symmetry_group_IT_number 23
_symmetry_cell_setting 'orthorhombic'
loop_
_space_group_symop_operation_xyz
x,y,z
-x,-y,z
x,-y,-z
-x,y,-z
1/2+x,1/2+y,1/2+z
1/2-x,1/2-y,1/2+z
1/2+x,1/2-y,1/2-z
1/2-x,1/2+y,1/2-z
loop_
_atom_site_type_symbol
_atom_site_label
_atom_site_fract_x
_atom_site_fract_y
_atom_site_fract_z
Si Si1 0.972403 0.210018 0.757718
Si Si2 0.717393 0.440708 0.205356
Si Si3 0.815232 0.346805 0.054993
Si Si4 0.151433 0.661086 0.337864
Si Si5 0.213201 0.500000 0.500000
Si Si6 0.000000 0.500000 0.112015
O O1 0.874315 0.189490 0.711736
O O2 0.952773 0.338077 0.834256
O O3 0.047128 0.317055 0.700482
O O4 0.000000 0.000000 0.783635
O O5 0.785450 0.333425 0.146314
O O6 0.776840 0.467179 0.286609
O O7 0.694691 0.634392 0.163471
O O8 0.925627 0.395503 0.055826
O O9 0.790270 0.152721 0.018424
O O10 0.762707 0.500000 0.000000
O O11 0.146788 0.570055 0.426526
#
# Coordination Sequence:
#
# PCOD8164244 Si02
#       6
#     8   8   8   8   4   4
#     4  10  25  42  75 113 138 189 247 296 355 430
#     4  11  22  46  76 103 151 189 243 296 357 441
#     4  12  26  47  70 105 149 192 238 299 364 430
#     4  11  23  46  73 110 147 189 241 301 362 431
#     4  12  28  44  76 108 146 194 240 302 368 424
#     4  12  25  46  74 107 146 188 246 295 364 438
#
# _framework density 23.246296000000001
#
# number of rings (size 3 to 8) (size 9 to 14) (size 15 to 20)
#    0.000    0.800    4.000    2.700    5.600    0.000 
#    0.000    3.000    0.000    0.000    0.000    0.000 
#    0.000    0.000    0.000    0.000    0.000    0.000 
#
# Total GULP energy -247829.516484 kJ/mol
# GULP energy per Si atom -12391.475824 kJ/mol
# Density = 2.319339 g / cm^3
# Si number density = 23.246296 Si / 1000 Ang^3
#
#
#
# Elastic Constant Matrix: (Units=GPa)
#
#
# Indices 1 2 3 4 5 6 
#
# 1 58.1983 24.0299 10.4124 0.0000 0.0000 0.0000
# 2 24.0299 117.1613 37.1598 0.0000 0.0000 0.0000
# 3 10.4124 37.1598 105.6838 0.0000 0.0000 0.0000
# 4 0.0000 0.0000 0.0000 38.1939 0.0000 0.0000
# 5 0.0000 0.0000 0.0000 0.0000 27.9593 0.0000
# 6 0.0000 0.0000 0.0000 0.0000 0.0000 32.9833
#
#
#
# Elastic Compliance Matrix: (Units=1/GPa)
#
#
# Indices 1 2 3 4 5 6 
#
# 1 0.018802 -0.003679 -0.000559 0.000000 0.000000 0.000000
# 2 -0.003679 0.010326 -0.003268 0.000000 0.000000 0.000000
# 3 -0.000559 -0.003268 0.010666 0.000000 0.000000 0.000000
# 4 0.000000 0.000000 0.000000 0.026182 0.000000 0.000000
# 5 0.000000 0.000000 0.000000 0.000000 0.035766 0.000000
# 6 0.000000 0.000000 0.000000 0.000000 0.000000 0.030318
#
#
# Mechanical properties :
#
#
# Convention : Reuss Voigt Hill
#
# Bulk Modulus (GPa) = 40.35182 47.13863 43.74523
# Shear Modulus (GPa) = 32.18857 33.79006 32.98931
#
# Velocity S-wave (km/s) = 3.72516 3.81670 3.77121
# Velocity P-wave (km/s) = 5.99153 6.30436 6.14993
#
# Compressibility (1/GPa) = 0.02478203
#
# Stress axis : x y z
#
# Youngs Moduli (GPa) = 53.18682 96.83865 93.75172
#
# Poissons Ratio (x) = 0.35627 0.05239
# Poissons Ratio (y) = 0.19567 0.30642
# Poissons Ratio (z) = 0.02972 0.31651
#
# Static dielectric constant tensor:
#      x y z
#    x 4.163750 0.000000 0.000000 
#    y 0.000000 4.452130 0.000000 
#    z 0.000000 0.000000 4.437980 
# 
# 
# High freq. dielectric constant tensor:
#      x y z
#    x 1.911610 0.000000 0.000000 
#    y 0.000000 1.942850 0.000000 
#    z 0.000000 0.000000 1.917930 
# 
# From -- ./inp_files/21371.got.cif
#   From: 2010.03.12/outbox.cif.g09.slc.cpg/sg23_11_cif.got.tgz:21371.got - 2010.04.14 02:50:06.
