data_PCOD8164361
_publ_section_title
;
Structure prediction by ZEFSAII (Michael W. Deem and Ramdas Pophale) SiO2 
 PCOD8164361
Probable space group: I 2 2 2
;
_chemical_formula_sum "Si O2"
_cell_formula_units_Z 64
_cell_length_a 29.910034
_cell_length_b 12.686221
_cell_length_c 8.513712
_cell_angle_alpha 90.000000
_cell_angle_beta 90.000000
_cell_angle_gamma 90.000000
_cell_volume 3230.488016
_symmetry_space_group_name_H-M "I 2 2 2"
_symmetry_group_IT_number 23
_symmetry_cell_setting 'orthorhombic'
loop_
_space_group_symop_operation_xyz
x,y,z
-x,-y,z
x,-y,-z
-x,y,-z
1/2+x,1/2+y,1/2+z
1/2-x,1/2-y,1/2+z
1/2+x,1/2-y,1/2-z
1/2-x,1/2+y,1/2-z
loop_
_atom_site_type_symbol
_atom_site_label
_atom_site_fract_x
_atom_site_fract_y
_atom_site_fract_z
Si Si1 0.715767 0.782414 0.675124
Si Si2 0.712938 0.842324 0.317302
Si Si3 0.643659 0.503582 0.313885
Si Si4 0.746532 0.521946 0.319774
Si Si5 0.950862 0.619863 0.313480
Si Si6 0.873192 0.227828 0.316286
Si Si7 0.376441 0.281769 0.810873
Si Si8 0.550662 0.884927 0.186215
O O1 0.720573 0.816566 0.496942
O O2 0.742629 0.675010 0.706753
O O3 0.664484 0.771231 0.720121
O O4 0.744052 0.855617 0.792434
O O5 0.714119 0.968222 0.289003
O O6 0.670691 0.781973 0.251404
O O7 0.637961 0.500000 0.500000
O O8 0.695600 0.499462 0.265617
O O9 0.620953 0.609782 0.248255
O O10 0.617987 0.403776 0.238076
O O11 0.755057 0.500000 0.500000
O O12 0.918932 0.713409 0.252307
O O13 0.950208 0.618262 0.499870
O O14 0.935345 0.502875 0.255606
O O15 0.000998 0.642650 0.250578
O O16 0.869704 0.226304 0.503406
O O17 0.914656 0.297342 0.252333
#
# Coordination Sequence:
#
# PCOD8164361 Si02
#       8
#     8   8   8   8   8   8   8   8
#     4  12  24  38  56  82 116 155 195 239 287 344
#     4  12  24  38  56  82 116 155 195 239 287 344
#     4  11  23  39  58  78 114 160 200 244 290 341
#     4  11  23  39  57  78 110 155 201 244 287 337
#     4   8  16  34  60  90 120 148 183 233 291 348
#     4  11  22  36  60  89 117 152 196 242 290 348
#     4  11  22  36  60  89 117 152 196 242 290 348
#     4   8  16  34  60  90 120 148 183 233 291 348
#
# _framework density 19.811249
#
# number of rings (size 3 to 8) (size 9 to 14) (size 15 to 20)
#    0.000    1.500    2.500    4.500    1.750    1.000 
#    0.000    0.625    0.000    6.750    0.000    7.000 
#    0.000    0.000    0.000    0.000    0.000    0.000 
#
# Total GULP energy -396659.645701 kJ/mol
# GULP energy per Si atom -12395.613928 kJ/mol
# Density = 1.976616 g / cm^3
# Si number density = 19.811249 Si / 1000 Ang^3
#
#
#
# Elastic Constant Matrix: (Units=GPa)
#
#
# Indices 1 2 3 4 5 6 
#
# 1 114.5725 72.8013 20.9641 0.0000 0.0000 0.0000
# 2 72.8013 132.3430 25.9422 0.0000 0.0000 0.0000
# 3 20.9641 25.9422 66.9451 0.0000 0.0000 0.0000
# 4 0.0000 0.0000 0.0000 27.7195 0.0000 0.0000
# 5 0.0000 0.0000 0.0000 0.0000 17.7977 0.0000
# 6 0.0000 0.0000 0.0000 0.0000 0.0000 40.3210
#
#
#
# Elastic Compliance Matrix: (Units=1/GPa)
#
#
# Indices 1 2 3 4 5 6 
#
# 1 0.013550 -0.007166 -0.001466 0.000000 0.000000 0.000000
# 2 -0.007166 0.011967 -0.002393 0.000000 0.000000 0.000000
# 3 -0.001466 -0.002393 0.016324 0.000000 0.000000 0.000000
# 4 0.000000 0.000000 0.000000 0.036076 0.000000 0.000000
# 5 0.000000 0.000000 0.000000 0.000000 0.056187 0.000000
# 6 0.000000 0.000000 0.000000 0.000000 0.000000 0.024801
#
#
# Mechanical properties :
#
#
# Convention : Reuss Voigt Hill
#
# Bulk Modulus (GPa) = 50.53101 61.47508 56.00304
# Shear Modulus (GPa) = 26.65900 30.11118 28.38509
#
# Velocity S-wave (km/s) = 3.67229 3.90282 3.78931
# Velocity P-wave (km/s) = 6.59868 7.16988 6.89020
#
# Compressibility (1/GPa) = 0.01978983
#
# Stress axis : x y z
#
# Youngs Moduli (GPa) = 73.80059 83.55973 61.25872
#
# Poissons Ratio (x) = 0.59882 0.08981
# Poissons Ratio (y) = 0.52889 0.14662
# Poissons Ratio (z) = 0.10820 0.19999
#
# Static dielectric constant tensor:
#      x y z
#    x 3.688910 0.000000 0.000000 
#    y 0.000000 4.131530 0.000000 
#    z 0.000000 0.000000 3.493390 
# 
# 
# High freq. dielectric constant tensor:
#      x y z
#    x 1.755110 0.000000 0.000000 
#    y 0.000000 1.796140 0.000000 
#    z 0.000000 0.000000 1.759050 
# 
# From -- ./inp_files/13506.got.cif
#   From: 2010.03.12/outbox.cif.g09.slc.cpg/sg23_7_cif.got.tgz:13506.got - 2010.04.14 02:50:06.
