data_PCOD8164068
_publ_section_title
;
Structure prediction by ZEFSAII (Michael W. Deem and Ramdas Pophale) SiO2 
 PCOD8164068
Probable space group: I 2 2 2
;
_chemical_formula_sum "Si O2"
_cell_formula_units_Z 64
_cell_length_a 10.881648
_cell_length_b 9.258286
_cell_length_c 29.438433
_cell_angle_alpha 90.000000
_cell_angle_beta 90.000000
_cell_angle_gamma 90.000000
_cell_volume 2965.786983
_symmetry_space_group_name_H-M "I 2 2 2"
_symmetry_group_IT_number 23
_symmetry_cell_setting 'orthorhombic'
loop_
_space_group_symop_operation_xyz
x,y,z
-x,-y,z
x,-y,-z
-x,y,-z
1/2+x,1/2+y,1/2+z
1/2-x,1/2-y,1/2+z
1/2+x,1/2-y,1/2-z
1/2-x,1/2+y,1/2-z
loop_
_atom_site_type_symbol
_atom_site_label
_atom_site_fract_x
_atom_site_fract_y
_atom_site_fract_z
Si Si1 0.354723 0.503612 0.052757
Si Si2 0.854244 0.462078 0.812980
Si Si3 0.990865 0.335576 0.661378
Si Si4 0.687856 0.493743 0.270727
Si Si5 0.643958 0.501537 0.368732
Si Si6 0.491630 0.749182 0.739001
Si Si7 0.775756 0.768184 0.616780
Si Si8 0.752365 0.705587 0.875508
O O1 0.500000 0.500000 0.061467
O O2 0.278602 0.370662 0.073398
O O3 0.300510 0.644053 0.077542
O O4 0.322836 0.500000 0.000000
O O5 0.801666 0.501848 0.763434
O O6 0.986903 0.378162 0.799984
O O7 0.779220 0.336020 0.837215
O O8 0.842947 0.597084 0.847961
O O9 0.033804 0.324431 0.713329
O O10 0.858828 0.258784 0.656517
O O11 0.000000 0.500000 0.645603
O O12 0.082228 0.256115 0.627414
O O13 0.727474 0.474444 0.323083
O O14 0.605879 0.358947 0.255573
O O15 0.624646 0.651856 0.273230
O O16 0.500000 0.500000 0.356217
O O17 0.692569 0.369143 0.399416
O O18 0.669933 0.655125 0.391478
#
# Coordination Sequence:
#
# PCOD8164068 Si02
#       8
#     8   8   8   8   8   8   8   8
#     4  10  22  43  73 105 133 155 192 264 347 423
#     4  11  22  36  57  84 120 176 221 266 318 363
#     4  12  22  36  57  93 131 169 217 274 325 378
#     4  11  21  35  54  77 121 165 225 268 308 355
#     4  12  24  42  62  86 129 184 217 266 313 372
#     4  11  22  36  51  82 124 174 223 271 301 366
#     4  11  22  39  66  92 129 170 213 261 339 389
#     4  11  24  39  65  95 128 163 216 263 326 400
#
# _framework density 21.579431
#
# number of rings (size 3 to 8) (size 9 to 14) (size 15 to 20)
#    0.000    0.875    7.500    0.750    0.000    1.000 
#    0.000    5.625    0.000    4.500    0.000    0.000 
#    0.000    0.000    0.000    0.000    0.000    0.000 
#
# Total GULP energy -396594.695804 kJ/mol
# GULP energy per Si atom -12393.584244 kJ/mol
# Density = 2.153031 g / cm^3
# Si number density = 21.579431 Si / 1000 Ang^3
#
#
#
# Elastic Constant Matrix: (Units=GPa)
#
#
# Indices 1 2 3 4 5 6 
#
# 1 60.3020 11.2685 28.8883 0.0000 0.0000 0.0000
# 2 11.2685 126.0873 44.1992 0.0000 0.0000 0.0000
# 3 28.8883 44.1992 102.0905 0.0000 0.0000 0.0000
# 4 0.0000 0.0000 0.0000 18.6756 0.0000 0.0000
# 5 0.0000 0.0000 0.0000 0.0000 24.4842 0.0000
# 6 0.0000 0.0000 0.0000 0.0000 0.0000 30.3438
#
#
#
# Elastic Compliance Matrix: (Units=1/GPa)
#
#
# Indices 1 2 3 4 5 6 
#
# 1 0.019189 0.000222 -0.005526 0.000000 0.000000 0.000000
# 2 0.000222 0.009353 -0.004112 0.000000 0.000000 0.000000
# 3 -0.005526 -0.004112 0.013139 0.000000 0.000000 0.000000
# 4 0.000000 0.000000 0.000000 0.053546 0.000000 0.000000
# 5 0.000000 0.000000 0.000000 0.000000 0.040843 0.000000
# 6 0.000000 0.000000 0.000000 0.000000 0.000000 0.032956
#
#
# Mechanical properties :
#
#
# Convention : Reuss Voigt Hill
#
# Bulk Modulus (GPa) = 43.76552 50.79909 47.28231
# Shear Modulus (GPa) = 25.57895 28.30895 26.94395
#
# Velocity S-wave (km/s) = 3.44661 3.62587 3.53738
# Velocity P-wave (km/s) = 6.01365 6.41256 6.21631
#
# Compressibility (1/GPa) = 0.02284904
#
# Stress axis : x y z
#
# Youngs Moduli (GPa) = 52.11325 106.92217 76.10819
#
# Poissons Ratio (x) = -0.02376 0.42058
# Poissons Ratio (y) = -0.01158 0.31296
# Poissons Ratio (z) = 0.28798 0.43966
#
# Static dielectric constant tensor:
#      x y z
#    x 4.123140 0.000000 0.000000 
#    y 0.000000 4.475590 0.000000 
#    z 0.000000 0.000000 3.393730 
# 
# 
# High freq. dielectric constant tensor:
#      x y z
#    x 1.858270 0.000000 0.000000 
#    y 0.000000 1.885740 0.000000 
#    z 0.000000 0.000000 1.787990 
# 
# From -- ./inp_files/30491.got.cif
#   From: 2010.03.12/outbox.cif.g09.slc.cpg/sg23_16_cif.got.tgz:30491.got - 2010.04.14 02:50:06.
