data_PCOD8164406
_publ_section_title
;
Structure prediction by ZEFSAII (Michael W. Deem and Ramdas Pophale) SiO2 
 PCOD8164406
Probable space group: I 2 2 2
;
_chemical_formula_sum "Si O2"
_cell_formula_units_Z 38
_cell_length_a 8.105570
_cell_length_b 25.074304
_cell_length_c 8.617465
_cell_angle_alpha 90.000000
_cell_angle_beta 90.000000
_cell_angle_gamma 90.000000
_cell_volume 1751.426739
_symmetry_space_group_name_H-M "I 2 2 2"
_symmetry_group_IT_number 23
_symmetry_cell_setting 'orthorhombic'
loop_
_space_group_symop_operation_xyz
x,y,z
-x,-y,z
x,-y,-z
-x,y,-z
1/2+x,1/2+y,1/2+z
1/2-x,1/2-y,1/2+z
1/2+x,1/2-y,1/2-z
1/2-x,1/2+y,1/2-z
loop_
_atom_site_type_symbol
_atom_site_label
_atom_site_fract_x
_atom_site_fract_y
_atom_site_fract_z
Si Si1 0.330421 0.699335 0.930441
Si Si2 0.000000 0.641309 0.500000
Si Si3 0.745812 0.582036 0.967468
Si Si4 0.823797 0.796883 0.941680
Si Si5 0.000000 0.000000 0.500000
Si Si6 0.538784 0.941047 0.743006
O O1 0.320786 0.640330 0.998569
O O2 0.316777 0.698900 0.744135
O O3 0.500000 0.723723 0.000000
O O4 0.183607 0.735307 0.001716
O O5 0.165872 0.675970 0.469520
O O6 0.925133 0.601961 0.372177
O O7 0.608301 0.541604 0.897500
O O8 0.806796 0.554065 0.127142
O O9 0.888252 0.586613 0.844197
O O10 0.000000 0.820803 0.000000
O O11 0.500000 0.000000 0.808761
#
# Coordination Sequence:
#
# PCOD8164406 Si02
#       6
#     8   4   8   8   2   8
#     4  12  26  46  72 104 142 188 234 293 362 420
#     4  12  27  47  70 102 149 185 228 296 368 418
#     4  11  23  39  72 100 135 178 235 285 339 420
#     4  12  29  47  71 105 145 185 242 294 357 437
#     4  12  20  40  68 106 134 170 236 290 334 414
#     4  11  23  45  68 100 134 186 230 284 350 421
#
# _framework density 21.696598000000002
#
# number of rings (size 3 to 8) (size 9 to 14) (size 15 to 20)
#    0.000    0.421    6.316    2.211    8.842    0.000 
#    0.000    0.000    0.000    2.526    0.000    0.000 
#    0.000    0.000    0.000    0.000    0.000    0.000 
#
# Total GULP energy -235410.377764 kJ/mol
# GULP energy per Si atom -12390.019882 kJ/mol
# Density = 2.164722 g / cm^3
# Si number density = 21.696598 Si / 1000 Ang^3
#
#
#
# Elastic Constant Matrix: (Units=GPa)
#
#
# Indices 1 2 3 4 5 6 
#
# 1 119.5979 39.3275 16.1438 -0.0005 -0.0004 0.0000
# 2 39.3275 125.8119 22.7493 -0.0004 -0.0004 -0.0001
# 3 16.1438 22.7493 69.5485 -0.0019 -0.0013 -0.0002
# 4 -0.0005 -0.0004 -0.0019 28.4296 -0.0010 0.0005
# 5 -0.0004 -0.0004 -0.0013 -0.0010 17.0452 -0.0004
# 6 0.0000 -0.0001 -0.0002 0.0005 -0.0004 32.5675
#
#
#
# Elastic Compliance Matrix: (Units=1/GPa)
#
#
# Indices 1 2 3 4 5 6 
#
# 1 0.009429 -0.002712 -0.001302 0.000000 0.000000 0.000000
# 2 -0.002712 0.009228 -0.002389 0.000000 0.000000 0.000000
# 3 -0.001302 -0.002389 0.015462 0.000001 0.000001 0.000000
# 4 0.000000 0.000000 0.000001 0.035175 0.000002 -0.000001
# 5 0.000000 0.000000 0.000001 0.000002 0.058668 0.000001
# 6 0.000000 0.000000 0.000000 -0.000001 0.000001 0.030705
#
#
# Mechanical properties :
#
#
# Convention : Reuss Voigt Hill
#
# Bulk Modulus (GPa) = 46.91787 52.37772 49.64779
# Shear Modulus (GPa) = 27.99922 31.39096 29.69509
#
# Velocity S-wave (km/s) = 3.59623 3.80783 3.70354
# Velocity P-wave (km/s) = 6.23822 6.59743 6.42034
#
# Compressibility (1/GPa) = 0.02131384
#
# Stress axis : x y z
#
# Youngs Moduli (GPa) = 106.05768 108.36479 64.67468
#
# Poissons Ratio (x) = 0.29389 0.08418
# Poissons Ratio (y) = 0.28763 0.15451
# Poissons Ratio (z) = 0.13804 0.25888
#
# Static dielectric constant tensor:
#      x y z
#    x 4.205980 0.000000 -0.000010 
#    y 0.000000 3.996160 0.000000 
#    z -0.000010 0.000000 3.720080 
# 
# 
# High freq. dielectric constant tensor:
#      x y z
#    x 1.864360 0.000000 0.000000 
#    y 0.000000 1.875570 0.000000 
#    z 0.000000 0.000000 1.821350 
# 
# From -- ./inp_files/6939.got.cif
#   From: 2010.03.12/outbox.cif.g09.slc.cpg/sg23_4_cif.got.tgz:6939.got - 2010.04.14 02:50:06.
