data_PCOD8164267
_publ_section_title
;
Structure prediction by ZEFSAII (Michael W. Deem and Ramdas Pophale) SiO2 
 PCOD8164267
Probable space group: I 2 2 2
;
_chemical_formula_sum "Si O2"
_cell_formula_units_Z 38
_cell_length_a 5.384375
_cell_length_b 12.997874
_cell_length_c 26.284663
_cell_angle_alpha 90.000000
_cell_angle_beta 90.000000
_cell_angle_gamma 90.000000
_cell_volume 1839.543385
_symmetry_space_group_name_H-M "I 2 2 2"
_symmetry_group_IT_number 23
_symmetry_cell_setting 'orthorhombic'
loop_
_space_group_symop_operation_xyz
x,y,z
-x,-y,z
x,-y,-z
-x,y,-z
1/2+x,1/2+y,1/2+z
1/2-x,1/2-y,1/2+z
1/2+x,1/2-y,1/2-z
1/2-x,1/2+y,1/2-z
loop_
_atom_site_type_symbol
_atom_site_label
_atom_site_fract_x
_atom_site_fract_y
_atom_site_fract_z
Si Si1 0.816259 0.087297 0.416740
Si Si2 0.474619 0.380931 0.658916
Si Si3 0.483442 0.768114 0.138398
Si Si4 0.500000 0.000000 0.672382
Si Si5 0.000000 0.500000 0.000000
Si Si6 0.604232 0.388625 0.223601
O O1 0.975045 0.192308 0.409787
O O2 0.689863 0.061840 0.362986
O O3 0.631722 0.085660 0.464372
O O4 0.000000 0.000000 0.433474
O O5 0.500000 0.500000 0.645960
O O6 0.712984 0.322126 0.634999
O O7 0.460418 0.360991 0.719013
O O8 0.212024 0.347355 0.635286
O O9 0.504942 0.704318 0.190753
O O10 0.606827 0.091446 0.708888
O O11 0.500000 0.500000 0.207714
#
# Coordination Sequence:
#
# PCOD8164267 Si02
#       6
#     8   8   8   4   2   8
#     4  11  22  40  65  98 137 170 208 271 357 443
#     4  11  27  39  57  85 132 178 243 284 308 355
#     4  12  22  41  62  89 124 180 225 272 337 395
#     4  11  18  35  60  86 136 174 216 266 341 397
#     4  10  26  40  68 102 154 156 202 276 374 442
#     4  11  22  34  57  88 127 176 225 277 323 385
#
# _framework density 20.657298000000001
#
# number of rings (size 3 to 8) (size 9 to 14) (size 15 to 20)
#    0.000    0.842    4.211    3.474    8.842    0.000 
#    0.000    0.000    0.000    0.000    0.000    0.737 
#    0.000    0.000    0.000    0.000    0.000    0.000 
#
# Total GULP energy -235387.660149 kJ/mol
# GULP energy per Si atom -12388.824218 kJ/mol
# Density = 2.061028 g / cm^3
# Si number density = 20.657298 Si / 1000 Ang^3
#
#
#
# Elastic Constant Matrix: (Units=GPa)
#
#
# Indices 1 2 3 4 5 6 
#
# 1 125.3092 37.8492 41.4627 0.0000 0.0000 0.0000
# 2 37.8492 99.8929 36.2778 0.0000 0.0000 0.0000
# 3 41.4627 36.2778 77.6957 0.0000 0.0000 0.0000
# 4 0.0000 0.0000 0.0000 59.3237 0.0000 0.0000
# 5 0.0000 0.0000 0.0000 0.0000 25.4631 0.0000
# 6 0.0000 0.0000 0.0000 0.0000 0.0000 49.4293
#
#
#
# Elastic Compliance Matrix: (Units=1/GPa)
#
#
# Indices 1 2 3 4 5 6 
#
# 1 0.010095 -0.002250 -0.004337 0.000000 0.000000 0.000000
# 2 -0.002250 0.012556 -0.004662 0.000000 0.000000 0.000000
# 3 -0.004337 -0.004662 0.017362 0.000000 0.000000 0.000000
# 4 0.000000 0.000000 0.000000 0.016857 0.000000 0.000000
# 5 0.000000 0.000000 0.000000 0.000000 0.039273 0.000000
# 6 0.000000 0.000000 0.000000 0.000000 0.000000 0.020231
#
#
# Mechanical properties :
#
#
# Convention : Reuss Voigt Hill
#
# Bulk Modulus (GPa) = 57.09200 59.34193 58.21696
# Shear Modulus (GPa) = 34.55213 39.33042 36.94127
#
# Velocity S-wave (km/s) = 4.09422 4.36816 4.23341
# Velocity P-wave (km/s) = 7.07445 7.36412 7.22074
#
# Compressibility (1/GPa) = 0.01751559
#
# Stress axis : x y z
#
# Youngs Moduli (GPa) = 99.06142 79.64090 57.59776
#
# Poissons Ratio (x) = 0.17919 0.24978
# Poissons Ratio (y) = 0.22289 0.26853
# Poissons Ratio (z) = 0.42958 0.37130
#
# Static dielectric constant tensor:
#      x y z
#    x 3.318150 0.000000 0.000000 
#    y 0.000000 3.834840 0.000000 
#    z 0.000000 0.000000 3.374090 
# 
# 
# High freq. dielectric constant tensor:
#      x y z
#    x 1.831160 0.000000 0.000000 
#    y 0.000000 1.802610 0.000000 
#    z 0.000000 0.000000 1.764680 
# 
# From -- ./inp_files/1757.got.cif
#   From: 2010.03.12/outbox.cif.g09.slc.cpg/sg23_1_cif.got.tgz:1757.got - 2010.04.14 02:50:06.
