data_PCOD8164014
_publ_section_title
;
Structure prediction by ZEFSAII (Michael W. Deem and Ramdas Pophale) SiO2 
 PCOD8164014
Probable space group: I 2 2 2
;
_chemical_formula_sum "Si O2"
_cell_formula_units_Z 34
_cell_length_a 10.165798
_cell_length_b 9.363509
_cell_length_c 17.834520
_cell_angle_alpha 90.000000
_cell_angle_beta 90.000000
_cell_angle_gamma 90.000000
_cell_volume 1697.624105
_symmetry_space_group_name_H-M "I 2 2 2"
_symmetry_group_IT_number 23
_symmetry_cell_setting 'orthorhombic'
loop_
_space_group_symop_operation_xyz
x,y,z
-x,-y,z
x,-y,-z
-x,y,-z
1/2+x,1/2+y,1/2+z
1/2-x,1/2-y,1/2+z
1/2+x,1/2-y,1/2-z
1/2-x,1/2+y,1/2-z
loop_
_atom_site_type_symbol
_atom_site_label
_atom_site_fract_x
_atom_site_fract_y
_atom_site_fract_z
Si Si1 0.007399 0.330548 0.083598
Si Si2 0.747136 0.800509 0.330488
Si Si3 0.012117 0.769237 0.420210
Si Si4 0.754204 0.134128 0.323352
Si Si5 0.500000 0.000000 0.000000
O O1 0.887481 0.258544 0.127978
O O2 0.000000 0.500000 0.080590
O O3 0.144664 0.293277 0.123682
O O4 0.000000 0.266555 0.000000
O O5 0.868267 0.758585 0.383513
O O6 0.754696 0.710185 0.255604
O O7 0.737757 0.966691 0.309688
O O8 0.000000 0.854891 0.500000
O O9 0.104884 0.848280 0.362182
O O10 0.072685 0.610975 0.442432
#
# Coordination Sequence:
#
# PCOD8164014 Si02
#       5
#     8   8   8   8   2
#     4   9  19  37  57  83 116 152 188 238 298 346
#     4  11  23  37  61  89 122 157 197 246 298 362
#     4  10  22  40  64  85 117 158 208 250 303 356
#     4  11  23  37  61  89 122 157 197 246 298 362
#     4   8  24  40  66  86 120 160 196 266 308 356
#
# _framework density 20.027989000000002
#
# number of rings (size 3 to 8) (size 9 to 14) (size 15 to 20)
#    0.706    1.176    0.000    3.529    3.294    3.765 
#    0.000    0.000    0.000    2.824    0.000    0.000 
#    0.000    0.000    0.000    0.000    0.000    0.000 
#
# Total GULP energy -210605.562469 kJ/mol
# GULP energy per Si atom -12388.562498 kJ/mol
# Density = 1.998240 g / cm^3
# Si number density = 20.027989 Si / 1000 Ang^3
#
#
#
# Elastic Constant Matrix: (Units=GPa)
#
#
# Indices 1 2 3 4 5 6 
#
# 1 103.1754 8.6816 37.7320 0.0000 0.0000 0.0000
# 2 8.6816 69.8281 32.0513 0.0000 0.0000 0.0000
# 3 37.7320 32.0513 156.3434 0.0000 0.0000 0.0000
# 4 0.0000 0.0000 0.0000 31.1382 0.0000 0.0000
# 5 0.0000 0.0000 0.0000 0.0000 41.8524 0.0000
# 6 0.0000 0.0000 0.0000 0.0000 0.0000 16.7583
#
#
#
# Elastic Compliance Matrix: (Units=1/GPa)
#
#
# Indices 1 2 3 4 5 6 
#
# 1 0.010632 -0.000159 -0.002533 0.000000 0.000000 0.000000
# 2 -0.000159 0.015811 -0.003203 0.000000 0.000000 0.000000
# 3 -0.002533 -0.003203 0.007664 0.000000 0.000000 0.000000
# 4 0.000000 0.000000 0.000000 0.032115 0.000000 0.000000
# 5 0.000000 0.000000 0.000000 0.000000 0.023894 0.000000
# 6 0.000000 0.000000 0.000000 0.000000 0.000000 0.059672
#
#
# Mechanical properties :
#
#
# Convention : Reuss Voigt Hill
#
# Bulk Modulus (GPa) = 44.81000 54.03074 49.42037
# Shear Modulus (GPa) = 29.58287 34.67524 32.12905
#
# Velocity S-wave (km/s) = 3.84744 4.16545 4.00960
# Velocity P-wave (km/s) = 6.49302 7.08314 6.79449
#
# Compressibility (1/GPa) = 0.02231645
#
# Stress axis : x y z
#
# Youngs Moduli (GPa) = 94.05494 63.24787 130.47688
#
# Poissons Ratio (x) = 0.01006 0.33054
# Poissons Ratio (y) = 0.01496 0.41791
# Poissons Ratio (z) = 0.23827 0.20258
#
# Static dielectric constant tensor:
#      x y z
#    x 3.789910 0.000000 0.000000 
#    y 0.000000 3.421940 0.000000 
#    z 0.000000 0.000000 3.781890 
# 
# 
# High freq. dielectric constant tensor:
#      x y z
#    x 1.779810 0.000000 0.000000 
#    y 0.000000 1.758930 0.000000 
#    z 0.000000 0.000000 1.800480 
# 
# From -- ./inp_files/20642.got.cif
#   From: 2010.03.12/outbox.cif.g09.slc.cpg/sg23_11_cif.got.tgz:20642.got - 2010.04.14 02:50:06.
