data_PCOD8164292
_publ_section_title
;
Structure prediction by ZEFSAII (Michael W. Deem and Ramdas Pophale) SiO2 
 PCOD8164292
Probable space group: I 2 2 2
;
_chemical_formula_sum "Si O2"
_cell_formula_units_Z 38
_cell_length_a 6.317718
_cell_length_b 11.815490
_cell_length_c 21.243365
_cell_angle_alpha 90.000000
_cell_angle_beta 90.000000
_cell_angle_gamma 90.000000
_cell_volume 1585.752062
_symmetry_space_group_name_H-M "I 2 2 2"
_symmetry_group_IT_number 23
_symmetry_cell_setting 'orthorhombic'
loop_
_space_group_symop_operation_xyz
x,y,z
-x,-y,z
x,-y,-z
-x,y,-z
1/2+x,1/2+y,1/2+z
1/2-x,1/2-y,1/2+z
1/2+x,1/2-y,1/2-z
1/2-x,1/2+y,1/2-z
loop_
_atom_site_type_symbol
_atom_site_label
_atom_site_fract_x
_atom_site_fract_y
_atom_site_fract_z
Si Si1 0.879367 0.222277 0.332449
Si Si2 0.268330 0.836377 0.094014
Si Si3 0.500000 0.000000 0.000000
Si Si4 0.738623 0.616825 0.768156
Si Si5 0.511359 0.876375 0.389654
Si Si6 0.000000 0.000000 0.829235
O O1 0.763079 0.265361 0.269510
O O2 0.721495 0.178408 0.386727
O O3 0.026812 0.321076 0.362024
O O4 0.025352 0.118839 0.310149
O O5 0.174723 0.710847 0.075264
O O6 0.067426 0.892958 0.128944
O O7 0.341436 0.917370 0.037615
O O8 0.707978 0.523264 0.713639
O O9 0.928873 0.598041 0.816489
O O10 0.500000 0.000000 0.424138
#
# Coordination Sequence:
#
# PCOD8164292 Si02
#       6
#     8   8   2   8   8   4
#     4  11  20  40  59 100 141 189 232 272 334 421
#     4  11  27  45  70 102 134 175 246 300 364 406
#     4  12  28  54  76 102 126 180 240 340 368 406
#     4  11  20  32  60  95 150 191 227 262 332 416
#     4  11  24  40  66 102 146 197 226 276 339 439
#     4  12  22  41  64 108 142 187 226 294 342 426
#
# _framework density 23.963394000000001
#
# number of rings (size 3 to 8) (size 9 to 14) (size 15 to 20)
#    0.000    0.842    4.211    3.789    2.947    2.947 
#    0.000    0.000    0.000    3.789    0.000    0.000 
#    0.000    0.000    0.000    0.000    0.000    0.000 
#
# Total GULP energy -235411.739639 kJ/mol
# GULP energy per Si atom -12390.091560 kJ/mol
# Density = 2.390885 g / cm^3
# Si number density = 23.963394 Si / 1000 Ang^3
#
#
#
# Elastic Constant Matrix: (Units=GPa)
#
#
# Indices 1 2 3 4 5 6 
#
# 1 99.2879 44.3430 23.0596 0.0000 0.0000 0.0000
# 2 44.3430 157.4531 42.0526 0.0000 0.0000 0.0000
# 3 23.0596 42.0526 64.9165 0.0000 0.0000 0.0000
# 4 0.0000 0.0000 0.0000 29.1803 0.0000 0.0000
# 5 0.0000 0.0000 0.0000 0.0000 15.9762 0.0000
# 6 0.0000 0.0000 0.0000 0.0000 0.0000 38.8048
#
#
#
# Elastic Compliance Matrix: (Units=1/GPa)
#
#
# Indices 1 2 3 4 5 6 
#
# 1 0.011840 -0.002674 -0.002474 0.000000 0.000000 0.000000
# 2 -0.002674 0.008284 -0.004416 0.000000 0.000000 0.000000
# 3 -0.002474 -0.004416 0.019144 0.000000 0.000000 0.000000
# 4 0.000000 0.000000 0.000000 0.034270 0.000000 0.000000
# 5 0.000000 0.000000 0.000000 0.000000 0.062593 0.000000
# 6 0.000000 0.000000 0.000000 0.000000 0.000000 0.025770
#
#
# Mechanical properties :
#
#
# Convention : Reuss Voigt Hill
#
# Bulk Modulus (GPa) = 49.65215 60.06307 54.85761
# Shear Modulus (GPa) = 26.63224 30.93908 28.78566
#
# Velocity S-wave (km/s) = 3.33734 3.59708 3.46964
# Velocity P-wave (km/s) = 5.96787 6.50930 6.24445
#
# Compressibility (1/GPa) = 0.02014011
#
# Stress axis : x y z
#
# Youngs Moduli (GPa) = 84.45625 120.72000 52.23566
#
# Poissons Ratio (x) = 0.32279 0.12922
# Poissons Ratio (y) = 0.22583 0.23069
# Poissons Ratio (z) = 0.20893 0.53313
#
# Static dielectric constant tensor:
#      x y z
#    x 4.402460 0.000000 0.000000 
#    y 0.000000 4.391980 0.000000 
#    z 0.000000 0.000000 3.816420 
# 
# 
# High freq. dielectric constant tensor:
#      x y z
#    x 1.960570 0.000000 0.000000 
#    y 0.000000 1.961350 0.000000 
#    z 0.000000 0.000000 1.894280 
# 
# From -- ./inp_files/28872.got.cif
#   From: 2010.03.12/outbox.cif.g09.slc.cpg/sg23_15_cif.got.tgz:28872.got - 2010.04.14 02:50:06.
