data_PCOD8164334
_publ_section_title
;
Structure prediction by ZEFSAII (Michael W. Deem and Ramdas Pophale) SiO2 
 PCOD8164334
Probable space group: I 2 2 2
;
_chemical_formula_sum "Si O2"
_cell_formula_units_Z 64
_cell_length_a 9.102631
_cell_length_b 17.421406
_cell_length_c 19.783275
_cell_angle_alpha 90.000000
_cell_angle_beta 90.000000
_cell_angle_gamma 90.000000
_cell_volume 3137.244219
_symmetry_space_group_name_H-M "I 2 2 2"
_symmetry_group_IT_number 23
_symmetry_cell_setting 'orthorhombic'
loop_
_space_group_symop_operation_xyz
x,y,z
-x,-y,z
x,-y,-z
-x,y,-z
1/2+x,1/2+y,1/2+z
1/2-x,1/2-y,1/2+z
1/2+x,1/2-y,1/2-z
1/2-x,1/2+y,1/2-z
loop_
_atom_site_type_symbol
_atom_site_label
_atom_site_fract_x
_atom_site_fract_y
_atom_site_fract_z
Si Si1 0.474836 0.085997 0.613267
Si Si2 0.879910 0.054714 0.238173
Si Si3 0.380099 0.946991 0.753124
Si Si4 0.705792 0.316915 0.923715
Si Si5 0.969288 0.914190 0.374648
Si Si6 0.219364 0.315872 0.925008
Si Si7 0.267718 0.201213 0.812174
Si Si8 0.879579 0.291444 0.309253
O O1 0.531240 0.089501 0.690187
O O2 0.308206 0.116447 0.609307
O O3 0.557818 0.148737 0.567775
O O4 0.500000 0.000000 0.583896
O O5 0.967855 0.097864 0.298562
O O6 0.794786 0.113673 0.189213
O O7 0.759558 0.997016 0.271757
O O8 0.000000 0.000000 0.199543
O O9 0.327082 0.879649 0.802853
O O10 0.500000 0.000000 0.791976
O O11 0.547213 0.355759 0.925395
O O12 0.693220 0.240537 0.877855
O O13 0.735310 0.292670 0.999949
O O14 0.802620 0.884934 0.383618
O O15 0.000000 0.000000 0.399885
O O16 0.219101 0.237222 0.883198
O O17 0.187071 0.244577 0.752287
O O18 0.443131 0.209405 0.806731
#
# Coordination Sequence:
#
# PCOD8164334 Si02
#       8
#     8   8   8   8   8   8   8   8
#     4  11  23  40  60  89 132 173 212 252 307 381
#     4  11  23  39  65  99 129 158 210 267 322 376
#     4  11  21  39  64  93 126 164 210 267 319 373
#     4  12  25  41  60  91 129 171 215 258 309 376
#     4  11  22  38  58  88 130 170 208 246 304 380
#     4  12  25  40  62  90 129 174 211 255 315 373
#     4  12  24  42  64  95 126 167 212 267 317 374
#     4  12  25  40  65  92 126 167 215 267 317 372
#
# _framework density 20.400068000000001
#
# number of rings (size 3 to 8) (size 9 to 14) (size 15 to 20)
#    0.000    0.500    5.000    5.250    1.750    3.000 
#    0.000    0.000    0.000    0.750    0.000    0.875 
#    0.000    0.000    0.000    0.000    0.000    0.000 
#
# Total GULP energy -396600.021697 kJ/mol
# GULP energy per Si atom -12393.750678 kJ/mol
# Density = 2.035364 g / cm^3
# Si number density = 20.400068 Si / 1000 Ang^3
#
#
#
# Elastic Constant Matrix: (Units=GPa)
#
#
# Indices 1 2 3 4 5 6 
#
# 1 69.0769 30.0753 12.0151 0.0000 0.0000 0.0000
# 2 30.0753 109.1557 63.2140 0.0000 0.0000 0.0000
# 3 12.0151 63.2140 105.3948 0.0000 0.0000 0.0000
# 4 0.0000 0.0000 0.0000 16.5724 0.0000 0.0000
# 5 0.0000 0.0000 0.0000 0.0000 17.9578 0.0000
# 6 0.0000 0.0000 0.0000 0.0000 0.0000 38.7045
#
#
#
# Elastic Compliance Matrix: (Units=1/GPa)
#
#
# Indices 1 2 3 4 5 6 
#
# 1 0.016566 -0.005318 0.001301 0.000000 0.000000 0.000000
# 2 -0.005318 0.015744 -0.008837 0.000000 0.000000 0.000000
# 3 0.001301 -0.008837 0.014640 0.000000 0.000000 0.000000
# 4 0.000000 0.000000 0.000000 0.060341 0.000000 0.000000
# 5 0.000000 0.000000 0.000000 0.000000 0.055686 0.000000
# 6 0.000000 0.000000 0.000000 0.000000 0.000000 0.025837
#
#
# Mechanical properties :
#
#
# Convention : Reuss Voigt Hill
#
# Bulk Modulus (GPa) = 47.07527 54.91514 50.99521
# Shear Modulus (GPa) = 22.56304 26.53513 24.54909
#
# Velocity S-wave (km/s) = 3.32931 3.61049 3.47274
# Velocity P-wave (km/s) = 6.15672 6.66021 6.41341
#
# Compressibility (1/GPa) = 0.02124258
#
# Stress axis : x y z
#
# Youngs Moduli (GPa) = 60.36607 63.51681 68.30637
#
# Poissons Ratio (x) = 0.33776 -0.08886
# Poissons Ratio (y) = 0.32101 0.60360
# Poissons Ratio (z) = -0.07853 0.56128
#
# Static dielectric constant tensor:
#      x y z
#    x 4.100870 0.000000 0.000000 
#    y 0.000000 3.994840 0.000000 
#    z 0.000000 0.000000 3.302130 
# 
# 
# High freq. dielectric constant tensor:
#      x y z
#    x 1.826340 0.000000 0.000000 
#    y 0.000000 1.795490 0.000000 
#    z 0.000000 0.000000 1.751130 
# 
# From -- ./inp_files/26352.got.cif
#   From: 2010.03.12/outbox.cif.g09.slc.cpg/sg23_14_cif.got.tgz:26352.got - 2010.04.14 02:50:06.
