data_PCOD8164296
_publ_section_title
;
Structure prediction by ZEFSAII (Michael W. Deem and Ramdas Pophale) SiO2 
 PCOD8164296
Probable space group: I 2 2 2
;
_chemical_formula_sum "Si O2"
_cell_formula_units_Z 40
_cell_length_a 20.192369
_cell_length_b 11.839120
_cell_length_c 8.129591
_cell_angle_alpha 90.000000
_cell_angle_beta 90.000000
_cell_angle_gamma 90.000000
_cell_volume 1943.459046
_symmetry_space_group_name_H-M "I 2 2 2"
_symmetry_group_IT_number 23
_symmetry_cell_setting 'orthorhombic'
loop_
_space_group_symop_operation_xyz
x,y,z
-x,-y,z
x,-y,-z
-x,y,-z
1/2+x,1/2+y,1/2+z
1/2-x,1/2-y,1/2+z
1/2+x,1/2-y,1/2-z
1/2-x,1/2+y,1/2-z
loop_
_atom_site_type_symbol
_atom_site_label
_atom_site_fract_x
_atom_site_fract_y
_atom_site_fract_z
Si Si1 0.157001 0.250058 0.326884
Si Si2 0.426839 0.542500 0.178648
Si Si3 0.706470 0.214293 0.810030
Si Si4 0.823047 0.484779 0.814948
Si Si5 0.192250 0.939663 0.163045
O O1 0.088527 0.177517 0.314384
O O2 0.213251 0.195048 0.205586
O O3 0.186481 0.242332 0.510309
O O4 0.140563 0.378882 0.273513
O O5 0.500000 0.500000 0.223131
O O6 0.380835 0.485630 0.313198
O O7 0.406517 0.500000 0.000000
O O8 0.687564 0.303177 0.663899
O O9 0.663411 0.101506 0.780266
O O10 0.743673 0.463670 0.811771
O O11 0.848340 0.500000 0.000000
O O12 0.222895 0.000000 0.000000
#
# Coordination Sequence:
#
# PCOD8164296 Si02
#       5
#     8   8   8   8   8
#     4  11  22  35  60  92 129 170 212 265 335 392
#     4  11  23  42  63  88 126 171 223 266 315 387
#     4  11  20  35  56  91 129 166 204 274 330 402
#     4  11  22  34  57  93 129 165 203 266 339 402
#     4  11  22  35  60  90 128 166 214 266 327 387
#
# _framework density 20.581859000000001
#
# number of rings (size 3 to 8) (size 9 to 14) (size 15 to 20)
#    0.000    1.000    4.000    6.000    2.800    0.400 
#    0.000    0.000    0.000    1.200    0.000    1.400 
#    0.000    0.000    0.000    0.000    0.000    0.000 
#
# Total GULP energy -247801.104431 kJ/mol
# GULP energy per Si atom -12390.055222 kJ/mol
# Density = 2.053501 g / cm^3
# Si number density = 20.581859 Si / 1000 Ang^3
#
#
#
# Elastic Constant Matrix: (Units=GPa)
#
#
# Indices 1 2 3 4 5 6 
#
# 1 83.1275 49.3911 30.2821 0.0000 0.0000 0.0000
# 2 49.3911 171.9486 29.8112 0.0000 0.0000 0.0000
# 3 30.2821 29.8112 68.5019 0.0000 0.0000 0.0000
# 4 0.0000 0.0000 0.0000 39.1349 0.0000 0.0000
# 5 0.0000 0.0000 0.0000 0.0000 12.3712 0.0000
# 6 0.0000 0.0000 0.0000 0.0000 0.0000 32.8875
#
#
#
# Elastic Compliance Matrix: (Units=1/GPa)
#
#
# Indices 1 2 3 4 5 6 
#
# 1 0.016262 -0.003704 -0.005577 0.000000 0.000000 0.000000
# 2 -0.003704 0.007134 -0.001467 0.000000 0.000000 0.000000
# 3 -0.005577 -0.001467 0.017702 0.000000 0.000000 0.000000
# 4 0.000000 0.000000 0.000000 0.025553 0.000000 0.000000
# 5 0.000000 0.000000 0.000000 0.000000 0.080833 0.000000
# 6 0.000000 0.000000 0.000000 0.000000 0.000000 0.030407
#
#
# Mechanical properties :
#
#
# Convention : Reuss Voigt Hill
#
# Bulk Modulus (GPa) = 51.01612 60.28297 55.64954
# Shear Modulus (GPa) = 24.28117 31.15165 27.71641
#
# Velocity S-wave (km/s) = 3.43846 3.89466 3.67364
# Velocity P-wave (km/s) = 6.37218 7.04112 6.71499
#
# Compressibility (1/GPa) = 0.01960165
#
# Stress axis : x y z
#
# Youngs Moduli (GPa) = 61.49209 140.17183 56.49112
#
# Poissons Ratio (x) = 0.51925 0.31504
# Poissons Ratio (y) = 0.22779 0.08288
# Poissons Ratio (z) = 0.34293 0.20565
#
# Static dielectric constant tensor:
#      x y z
#    x 3.119360 0.000000 0.000000 
#    y 0.000000 4.293600 0.000000 
#    z 0.000000 0.000000 3.731970 
# 
# 
# High freq. dielectric constant tensor:
#      x y z
#    x 1.726830 0.000000 0.000000 
#    y 0.000000 1.835170 0.000000 
#    z 0.000000 0.000000 1.812350 
# 
# From -- ./inp_files/11808.got.cif
#   From: 2010.03.12/outbox.cif.g09.slc.cpg/sg23_6_cif.got.tgz:11808.got - 2010.04.14 02:50:06.
