data_PCOD8164880
_publ_section_title
;
Structure prediction by ZEFSAII (Michael W. Deem and Ramdas Pophale) SiO2 
 PCOD8164880
Probable space group: I 21 21 21
;
_chemical_formula_sum "Si O2"
_cell_formula_units_Z 64
_cell_length_a 8.815519
_cell_length_b 18.478716
_cell_length_c 20.613379
_cell_angle_alpha 90.000000
_cell_angle_beta 90.000000
_cell_angle_gamma 90.000000
_cell_volume 3357.908555
_symmetry_space_group_name_H-M "I 21 21 21"
_symmetry_group_IT_number 24
_symmetry_cell_setting 'orthorhombic'
loop_
_space_group_symop_operation_xyz
x,y,z
-x,1/2-y,z
x,-y,1/2-z
1/2-x,y,-z
1/2+x,1/2+y,1/2+z
1/2-x,-y,1/2+z
1/2+x,1/2-y,-z
-x,1/2+y,1/2-z
loop_
_atom_site_type_symbol
_atom_site_label
_atom_site_fract_x
_atom_site_fract_y
_atom_site_fract_z
Si Si1 0.068988 0.923275 0.380809
Si Si2 0.572465 0.327423 0.000360
Si Si3 0.429507 0.172754 0.501600
Si Si4 0.576500 0.431714 0.115580
Si Si5 0.425509 0.422291 0.611424
Si Si6 0.080784 0.414139 0.246255
Si Si7 0.432529 0.412490 0.386232
Si Si8 0.914536 0.085287 0.757013
O O1 0.019463 0.864029 0.433418
O O2 0.244175 0.944782 0.386420
O O3 0.036970 0.889427 0.309304
O O4 0.965831 0.993267 0.392352
O O5 0.500000 0.250000 0.008873
O O6 0.521262 0.377375 0.060096
O O7 0.750000 0.316381 0.000000
O O8 0.500000 0.250000 0.517545
O O9 0.250000 0.179039 0.500000
O O10 0.478241 0.117955 0.557482
O O11 0.488348 0.144973 0.432608
O O12 0.497115 0.507698 0.101516
O O13 0.529630 0.396162 0.184782
O O14 0.469097 0.387825 0.681842
O O15 0.246513 0.414048 0.599566
O O16 0.087161 0.500000 0.250000
O O17 0.247248 0.383202 0.227559
O O18 0.470605 0.385322 0.312933
O O19 0.900161 0.000000 0.750000
#
# Coordination Sequence:
#
# PCOD8164880 Si02
#       8
#     8   8   8   8   8   8   8   8
#     4  10  19  33  55  83 111 139 178 226 271 317
#     4  10  23  38  51  73 105 141 181 222 265 316
#     4  12  25  40  57  79 109 143 181 224 269 320
#     4  10  19  33  55  83 111 139 178 226 271 317
#     4  10  20  36  58  83 110 142 179 217 263 321
#     4   8  16  31  52  80 110 138 173 217 264 317
#     4  10  20  36  58  83 110 142 179 217 263 321
#     4   8  16  31  52  80 110 138 173 217 264 317
#
# _framework density 19.059481000000002
#
# number of rings (size 3 to 8) (size 9 to 14) (size 15 to 20)
#    0.000    2.250    0.000    4.875    0.000    8.500 
#    0.000    1.250    0.000    3.000    0.000    0.000 
#    0.000    0.000    0.000    0.000    0.000    0.000 
#
# Total GULP energy -396724.126135 kJ/mol
# GULP energy per Si atom -12397.628942 kJ/mol
# Density = 1.901610 g / cm^3
# Si number density = 19.059481 Si / 1000 Ang^3
#
#
#
# Elastic Constant Matrix: (Units=GPa)
#
#
# Indices 1 2 3 4 5 6 
#
# 1 86.9747 20.4235 37.4652 0.0000 0.0000 0.0000
# 2 20.4235 50.8500 25.2303 0.0000 0.0000 0.0000
# 3 37.4652 25.2303 124.7502 0.0000 0.0000 0.0000
# 4 0.0000 0.0000 0.0000 2.2535 0.0000 0.0000
# 5 0.0000 0.0000 0.0000 0.0000 34.9741 0.0000
# 6 0.0000 0.0000 0.0000 0.0000 0.0000 26.7164
#
#
#
# Elastic Compliance Matrix: (Units=1/GPa)
#
#
# Indices 1 2 3 4 5 6 
#
# 1 0.013867 -0.003894 -0.003377 0.000000 0.000000 0.000000
# 2 -0.003894 0.022953 -0.003473 0.000000 0.000000 0.000000
# 3 -0.003377 -0.003473 0.009733 0.000000 0.000000 0.000000
# 4 0.000000 0.000000 0.000000 0.443754 0.000000 0.000000
# 5 0.000000 0.000000 0.000000 0.000000 0.028593 0.000000
# 6 0.000000 0.000000 0.000000 0.000000 0.000000 0.037430
#
#
# Mechanical properties :
#
#
# Convention : Reuss Voigt Hill
#
# Bulk Modulus (GPa) = 39.89652 47.64588 43.77120
# Shear Modulus (GPa) = 8.52995 24.75252 16.64123
#
# Velocity S-wave (km/s) = 2.11782 3.60766 2.95807
# Velocity P-wave (km/s) = 5.19214 6.51202 5.88917
#
# Compressibility (1/GPa) = 0.02506484
#
# Stress axis : x y z
#
# Youngs Moduli (GPa) = 72.11570 43.56787 102.74830
#
# Poissons Ratio (x) = 0.16965 0.34697
# Poissons Ratio (y) = 0.28081 0.35681
# Poissons Ratio (z) = 0.24353 0.15130
#
# Static dielectric constant tensor:
#      x y z
#    x 3.534890 0.000000 0.000000 
#    y 0.000000 3.228660 0.000000 
#    z 0.000000 0.000000 4.217100 
# 
# 
# High freq. dielectric constant tensor:
#      x y z
#    x 1.746160 0.000000 0.000000 
#    y 0.000000 1.700710 0.000000 
#    z 0.000000 0.000000 1.764030 
# 
# From -- ./inp_files/32943.got.cif
#   From: 2010.03.12/outbox.cif.g09.slc.cpg/sg24_17_cif.got.tgz:32943.got - 2010.04.14 03:06:53.
