data_PCOD8164078
_publ_section_title
;
Structure prediction by ZEFSAII (Michael W. Deem and Ramdas Pophale) SiO2 
 PCOD8164078
Probable space group: I 2 2 2
;
_chemical_formula_sum "Si O2"
_cell_formula_units_Z 40
_cell_length_a 6.777377
_cell_length_b 16.539578
_cell_length_c 16.159441
_cell_angle_alpha 90.000000
_cell_angle_beta 90.000000
_cell_angle_gamma 90.000000
_cell_volume 1811.391820
_symmetry_space_group_name_H-M "I 2 2 2"
_symmetry_group_IT_number 23
_symmetry_cell_setting 'orthorhombic'
loop_
_space_group_symop_operation_xyz
x,y,z
-x,-y,z
x,-y,-z
-x,y,-z
1/2+x,1/2+y,1/2+z
1/2-x,1/2-y,1/2+z
1/2+x,1/2-y,1/2-z
1/2-x,1/2+y,1/2-z
loop_
_atom_site_type_symbol
_atom_site_label
_atom_site_fract_x
_atom_site_fract_y
_atom_site_fract_z
Si Si1 0.000000 0.000000 0.500000
Si Si2 0.872860 0.072922 0.340816
Si Si3 0.844532 0.569401 0.599969
Si Si4 0.000407 0.635342 0.241200
Si Si5 0.847657 0.781888 0.344658
Si Si6 0.000000 0.712638 0.500000
Si Si7 0.000000 0.000000 0.000000
O O1 0.863805 0.056293 0.440353
O O2 0.652144 0.075528 0.304645
O O3 0.976277 0.157770 0.320541
O O4 0.000000 0.000000 0.298802
O O5 0.859277 0.581263 0.698918
O O6 0.629292 0.549796 0.565362
O O7 0.000000 0.500000 0.571759
O O8 0.880121 0.657225 0.562606
O O9 0.135232 0.679202 0.173386
O O10 0.872959 0.699641 0.293269
O O11 0.853576 0.766353 0.443657
#
# Coordination Sequence:
#
# PCOD8164078 Si02
#       7
#     2   8   8   8   8   4   2
#     4   8  22  44  76  98 152 188 242 280 368 430
#     4  10  23  46  72 105 144 188 240 303 353 438
#     4  11  24  43  67 106 141 187 243 302 367 448
#     4  11  25  43  72 107 146 184 244 303 369 433
#     4  11  23  44  70 104 141 192 235 301 366 430
#     4  10  22  46  65  95 152 176 242 304 348 448
#     4  12  22  44  70  98 144 190 244 300 376 428
#
# _framework density 22.082466
#
# number of rings (size 3 to 8) (size 9 to 14) (size 15 to 20)
#    0.600    0.800    4.000    0.600    2.800    3.200 
#    0.000    4.000    0.000    0.000    0.000    0.000 
#    0.000    0.000    0.000    0.000    0.000    0.000 
#
# Total GULP energy -247855.252697 kJ/mol
# GULP energy per Si atom -12392.762635 kJ/mol
# Density = 2.203221 g / cm^3
# Si number density = 22.082466 Si / 1000 Ang^3
#
#
#
# Elastic Constant Matrix: (Units=GPa)
#
#
# Indices 1 2 3 4 5 6 
#
# 1 140.8340 46.0399 84.5511 0.0000 0.0000 0.0000
# 2 46.0399 78.6913 53.5606 0.0000 0.0000 0.0000
# 3 84.5511 53.5606 153.0046 0.0000 0.0000 0.0000
# 4 0.0000 0.0000 0.0000 37.7706 0.0000 0.0000
# 5 0.0000 0.0000 0.0000 0.0000 39.5732 0.0000
# 6 0.0000 0.0000 0.0000 0.0000 0.0000 40.6017
#
#
#
# Elastic Compliance Matrix: (Units=1/GPa)
#
#
# Indices 1 2 3 4 5 6 
#
# 1 0.011161 -0.003061 -0.005096 0.000000 0.000000 0.000000
# 2 -0.003061 0.017523 -0.004442 0.000000 0.000000 0.000000
# 3 -0.005096 -0.004442 0.010907 0.000000 0.000000 0.000000
# 4 0.000000 0.000000 0.000000 0.026476 0.000000 0.000000
# 5 0.000000 0.000000 0.000000 0.000000 0.025270 0.000000
# 6 0.000000 0.000000 0.000000 0.000000 0.000000 0.024630
#
#
# Mechanical properties :
#
#
# Convention : Reuss Voigt Hill
#
# Bulk Modulus (GPa) = 69.48661 82.31477 75.90069
# Shear Modulus (GPa) = 34.25586 36.14764 35.20175
#
# Velocity S-wave (km/s) = 3.94289 4.05030 3.99695
# Velocity P-wave (km/s) = 7.22936 7.69612 7.46639
#
# Compressibility (1/GPa) = 0.01439126
#
# Stress axis : x y z
#
# Youngs Moduli (GPa) = 89.60065 57.06939 91.68663
#
# Poissons Ratio (x) = 0.17471 0.46721
# Poissons Ratio (y) = 0.27430 0.40729
# Poissons Ratio (z) = 0.45658 0.25351
#
# Static dielectric constant tensor:
#      x y z
#    x 3.436610 0.000000 0.000000 
#    y 0.000000 4.127650 0.000000 
#    z 0.000000 0.000000 4.048200 
# 
# 
# High freq. dielectric constant tensor:
#      x y z
#    x 1.841530 0.000000 0.000000 
#    y 0.000000 1.880980 0.000000 
#    z 0.000000 0.000000 1.873740 
# 
# From -- ./inp_files/23060.got.cif
#   From: 2010.03.12/outbox.cif.g09.slc.cpg/sg23_12_cif.got.tgz:23060.got - 2010.04.14 02:50:06.
