data_PCOD8164537
_publ_section_title
;
Structure prediction by ZEFSAII (Michael W. Deem and Ramdas Pophale) SiO2 
 PCOD8164537
Probable space group: I 2 2 2
;
_chemical_formula_sum "Si O2"
_cell_formula_units_Z 40
_cell_length_a 6.552171
_cell_length_b 25.583640
_cell_length_c 10.689215
_cell_angle_alpha 90.000000
_cell_angle_beta 90.000000
_cell_angle_gamma 90.000000
_cell_volume 1791.815838
_symmetry_space_group_name_H-M "I 2 2 2"
_symmetry_group_IT_number 23
_symmetry_cell_setting 'orthorhombic'
loop_
_space_group_symop_operation_xyz
x,y,z
-x,-y,z
x,-y,-z
-x,y,-z
1/2+x,1/2+y,1/2+z
1/2-x,1/2-y,1/2+z
1/2+x,1/2-y,1/2-z
1/2-x,1/2+y,1/2-z
loop_
_atom_site_type_symbol
_atom_site_label
_atom_site_fract_x
_atom_site_fract_y
_atom_site_fract_z
Si Si1 0.000000 0.500000 0.000000
Si Si2 0.000000 0.856318 0.500000
Si Si3 0.356621 0.453378 0.862913
Si Si4 0.353487 0.209482 0.620671
Si Si5 0.179441 0.078030 0.099924
Si Si6 0.000000 0.500000 0.500000
Si Si7 0.610982 0.811144 0.132037
O O1 0.873166 0.465839 0.098131
O O2 0.126007 0.894873 0.586513
O O3 0.149021 0.822221 0.412788
O O4 0.500000 0.500000 0.916766
O O5 0.421852 0.446757 0.720935
O O6 0.500000 0.208520 0.500000
O O7 0.459429 0.187269 0.747397
O O8 0.286213 0.268260 0.653957
O O9 0.275759 0.134225 0.121245
O O10 0.361018 0.037986 0.079498
O O11 0.000000 0.080016 0.000000
O O12 0.500000 0.799028 0.000000
#
# Coordination Sequence:
#
# PCOD8164537 Si02
#       7
#     2   4   8   8   8   2   8
#     4  12  24  48  72 108 148 198 250 322 380 444
#     4  12  27  45  76 110 145 199 250 320 384 456
#     4  12  26  46  72 108 146 193 253 312 379 457
#     4  12  28  50  76 113 154 199 260 322 392 461
#     4  12  28  46  77 107 155 203 252 317 383 460
#     4  12  24  50  68 116 142 202 254 300 380 458
#     4  12  27  50  79 113 151 206 254 319 388 467
#
# _framework density 22.323723000000001
#
# number of rings (size 3 to 8) (size 9 to 14) (size 15 to 20)
#    0.000    0.000    4.000    5.100    9.800    1.600 
#    0.000    0.000    0.000    0.000    0.000    0.000 
#    0.000    0.000    0.000    0.000    0.000    0.000 
#
# Total GULP energy -247793.013930 kJ/mol
# GULP energy per Si atom -12389.650696 kJ/mol
# Density = 2.227291 g / cm^3
# Si number density = 22.323723 Si / 1000 Ang^3
#
#
#
# Elastic Constant Matrix: (Units=GPa)
#
#
# Indices 1 2 3 4 5 6 
#
# 1 135.3124 68.4742 73.1369 0.0001 -0.0001 0.0000
# 2 68.4742 168.7324 45.8230 0.0003 -0.0001 0.0000
# 3 73.1369 45.8230 189.0458 0.0008 -0.0004 -0.0007
# 4 0.0001 0.0003 0.0008 -14.0204 -0.0003 -0.0001
# 5 -0.0001 -0.0001 -0.0004 -0.0003 12.5374 -0.0001
# 6 0.0000 0.0000 -0.0007 -0.0001 -0.0001 69.5279
#
#
#
# Elastic Compliance Matrix: (Units=1/GPa)
#
#
# Indices 1 2 3 4 5 6 
#
# 1 0.011028 -0.003550 -0.003406 0.000000 0.000000 0.000000
# 2 -0.003550 0.007487 -0.000441 0.000000 0.000000 0.000000
# 3 -0.003406 -0.000441 0.006714 0.000000 0.000000 0.000000
# 4 0.000000 0.000000 0.000000 -0.071324 -0.000001 0.000000
# 5 0.000000 0.000000 0.000000 -0.000001 0.079761 0.000000
# 6 0.000000 0.000000 0.000000 0.000000 0.000000 0.014383
#
#
# Mechanical properties :
#
#
# Convention : Reuss Voigt Hill
#
# Bulk Modulus (GPa) = 95.83666 96.43988 96.13827
# Shear Modulus (GPa) = 75.38991 33.98607 54.68799
#
# Velocity S-wave (km/s) = 5.81760 3.90605 4.95489
# Velocity P-wave (km/s) = 9.38880 7.97731 8.71169
#
# Compressibility (1/GPa) = 0.01043442
#
# Stress axis : x y z
#
# Youngs Moduli (GPa) = 90.68017 133.56198 148.93579
#
# Poissons Ratio (x) = 0.47419 0.50724
# Poissons Ratio (y) = 0.32194 0.06572
# Poissons Ratio (z) = 0.30884 0.05894
#
# Static dielectric constant tensor:
#      x y z
#    x 4.037980 0.000000 0.000000 
#    y 0.000000 4.267580 0.000000 
#    z 0.000000 0.000000 3.995220 
# 
# 
# High freq. dielectric constant tensor:
#      x y z
#    x 1.883770 0.000000 0.000000 
#    y 0.000000 1.903500 0.000000 
#    z 0.000000 0.000000 1.903840 
# 
# From -- ./inp_files/13927.got.cif
#   From: 2010.03.12/outbox.cif.g09.slc.cpg/sg23_7_cif.got.tgz:13927.got - 2010.04.14 02:50:06.
