data_PCOD8164613
_publ_section_title
;
Structure prediction by ZEFSAII (Michael W. Deem and Ramdas Pophale) SiO2 
 PCOD8164613
Probable space group: I 21 21 21
;
_chemical_formula_sum "Si O2"
_cell_formula_units_Z 56
_cell_length_a 25.360110
_cell_length_b 5.040131
_cell_length_c 28.418931
_cell_angle_alpha 90.000000
_cell_angle_beta 90.000000
_cell_angle_gamma 90.000000
_cell_volume 3632.458783
_symmetry_space_group_name_H-M "I 21 21 21"
_symmetry_group_IT_number 24
_symmetry_cell_setting 'orthorhombic'
loop_
_space_group_symop_operation_xyz
x,y,z
-x,1/2-y,z
x,-y,1/2-z
1/2-x,y,-z
1/2+x,1/2+y,1/2+z
1/2-x,-y,1/2+z
1/2+x,1/2-y,-z
-x,1/2+y,1/2-z
loop_
_atom_site_type_symbol
_atom_site_label
_atom_site_fract_x
_atom_site_fract_y
_atom_site_fract_z
Si Si1 0.797600 0.256497 0.780899
Si Si2 0.257020 0.422388 0.122795
Si Si3 0.466875 0.476650 0.128106
Si Si4 0.166490 0.910397 0.982094
Si Si5 0.724777 0.429298 0.572961
Si Si6 0.634583 0.080077 0.068032
Si Si7 0.085395 0.244180 0.781017
O O1 0.773577 0.500000 0.750000
O O2 0.759196 0.171344 0.823204
O O3 0.856113 0.344343 0.799385
O O4 0.804070 0.000000 0.750000
O O5 0.227954 0.703125 0.113537
O O6 0.316215 0.426076 0.103186
O O7 0.220087 0.212714 0.096978
O O8 0.500000 0.250000 0.100617
O O9 0.414884 0.521780 0.098024
O O10 0.452468 0.324571 0.176583
O O11 0.500000 0.750000 0.135651
O O12 0.223028 0.915707 0.957926
O O13 0.139328 0.630628 0.973537
O O14 0.129870 0.139635 0.959081
O O15 0.174070 0.919848 0.038562
O O16 0.092472 0.500000 0.750000
O O17 0.061119 0.000000 0.750000
#
# Coordination Sequence:
#
# PCOD8164613 Si02
#       7
#     8   8   8   8   8   8   8
#     4  10  19  30  45  62  82 110 144 175 214 265
#     4  10  17  29  45  63  87 106 137 168 215 256
#     4  12  24  36  49  65  82 105 144 186 235 282
#     4   9  17  29  45  64  87 105 129 156 208 272
#     4   9  17  26  44  68  85 106 127 163 202 261
#     4  10  19  32  46  61  83 110 132 169 223 267
#     4  10  21  36  50  61  75 100 139 184 233 279
#
# _framework density 15.416556
#
# number of rings (size 3 to 8) (size 9 to 14) (size 15 to 20)
#    0.000    2.000    1.429    3.429    0.000    4.571 
#    0.000    0.000    0.000    0.000    0.000    0.000 
#    0.000    0.000    0.000    0.000    0.000    0.000 
#
# Total GULP energy -346922.192391 kJ/mol
# GULP energy per Si atom -12390.078300 kJ/mol
# Density = 1.538147 g / cm^3
# Si number density = 15.416556 Si / 1000 Ang^3
#
#
#
# Elastic Constant Matrix: (Units=GPa)
#
#
# Indices 1 2 3 4 5 6 
#
# 1 27.7026 18.3920 34.2308 0.0000 0.0000 0.0000
# 2 18.3920 99.3722 25.7649 0.0000 0.0000 0.0000
# 3 34.2308 25.7649 70.6472 0.0000 0.0000 0.0000
# 4 0.0000 0.0000 0.0000 21.9070 0.0000 0.0000
# 5 0.0000 0.0000 0.0000 0.0000 13.2287 0.0000
# 6 0.0000 0.0000 0.0000 0.0000 0.0000 17.1243
#
#
#
# Elastic Compliance Matrix: (Units=1/GPa)
#
#
# Indices 1 2 3 4 5 6 
#
# 1 0.093207 -0.006120 -0.042930 0.000000 0.000000 0.000000
# 2 -0.006120 0.011516 -0.001234 0.000000 0.000000 0.000000
# 3 -0.042930 -0.001234 0.035406 0.000000 0.000000 0.000000
# 4 0.000000 0.000000 0.000000 0.045647 0.000000 0.000000
# 5 0.000000 0.000000 0.000000 0.000000 0.075593 0.000000
# 6 0.000000 0.000000 0.000000 0.000000 0.000000 0.058397
#
#
# Mechanical properties :
#
#
# Convention : Reuss Voigt Hill
#
# Bulk Modulus (GPa) = 25.27797 39.38862 32.33330
# Shear Modulus (GPa) = 11.53344 18.40761 14.97053
#
# Velocity S-wave (km/s) = 2.73815 3.45920 3.11958
# Velocity P-wave (km/s) = 5.14090 6.44669 5.83046
#
# Compressibility (1/GPa) = 0.03956013
#
# Stress axis : x y z
#
# Youngs Moduli (GPa) = 10.72878 86.83578 28.24393
#
# Poissons Ratio (x) = 0.53146 1.21251
# Poissons Ratio (y) = 0.06566 0.03486
# Poissons Ratio (z) = 0.46058 0.10719
#
# Static dielectric constant tensor:
#      x y z
#    x 2.651290 0.000000 0.000000 
#    y 0.000000 3.189110 0.000000 
#    z 0.000000 0.000000 2.819070 
# 
# 
# High freq. dielectric constant tensor:
#      x y z
#    x 1.528470 0.000000 0.000000 
#    y 0.000000 1.618400 0.000000 
#    z 0.000000 0.000000 1.574590 
# 
# From -- ./inp_files/34770.got.cif
#   From: 2010.03.12/outbox.cif.g09.slc.cpg/sg24_18_cif.got.tgz:34770.got - 2010.04.14 03:06:53.
