data_PCOD8164290
_publ_section_title
;
Structure prediction by ZEFSAII (Michael W. Deem and Ramdas Pophale) SiO2 
 PCOD8164290
Probable space group: I 2 2 2
;
_chemical_formula_sum "Si O2"
_cell_formula_units_Z 38
_cell_length_a 10.886039
_cell_length_b 5.368215
_cell_length_c 26.517816
_cell_angle_alpha 90.000000
_cell_angle_beta 90.000000
_cell_angle_gamma 90.000000
_cell_volume 1549.663985
_symmetry_space_group_name_H-M "I 2 2 2"
_symmetry_group_IT_number 23
_symmetry_cell_setting 'orthorhombic'
loop_
_space_group_symop_operation_xyz
x,y,z
-x,-y,z
x,-y,-z
-x,y,-z
1/2+x,1/2+y,1/2+z
1/2-x,1/2-y,1/2+z
1/2+x,1/2-y,1/2-z
1/2-x,1/2+y,1/2-z
loop_
_atom_site_type_symbol
_atom_site_label
_atom_site_fract_x
_atom_site_fract_y
_atom_site_fract_z
Si Si1 0.000000 0.000000 0.000000
Si Si2 0.919711 0.791770 0.317688
Si Si3 0.649793 0.173366 0.645875
Si Si4 0.341253 0.313014 0.585684
Si Si5 0.500000 0.000000 0.267625
Si Si6 0.054168 0.742625 0.420860
O O1 0.086099 0.179777 0.033273
O O2 0.792689 0.871974 0.342449
O O3 0.896450 0.600652 0.271730
O O4 0.013235 0.713775 0.362600
O O5 0.000000 0.000000 0.289024
O O6 0.632942 0.423450 0.613590
O O7 0.571794 0.198162 0.697276
O O8 0.605762 0.918806 0.617777
O O9 0.199714 0.265661 0.573986
O O10 0.000000 0.500000 0.450094
O O11 0.000000 0.000000 0.444228
#
# Coordination Sequence:
#
# PCOD8164290 Si02
#       6
#     2   8   8   8   4   8
#     4  12  32  50  86 110 156 186 256 320 400 494
#     4  11  23  41  66 102 142 200 250 305 348 438
#     4  12  27  45  74 100 157 197 250 307 376 451
#     4  12  25  51  72 108 140 200 244 313 393 459
#     4  12  28  38  64 109 154 205 254 304 358 430
#     4  11  19  42  72 101 136 190 237 297 365 433
#
# _framework density 24.521445
#
# number of rings (size 3 to 8) (size 9 to 14) (size 15 to 20)
#    0.000    0.421    7.368    1.263    5.895    1.684 
#    0.000    0.526    0.000    2.526    0.000    0.000 
#    0.000    0.000    0.000    0.000    0.000    0.000 
#
# Total GULP energy -235402.791803 kJ/mol
# GULP energy per Si atom -12389.620621 kJ/mol
# Density = 2.446563 g / cm^3
# Si number density = 24.521445 Si / 1000 Ang^3
#
#
#
# Elastic Constant Matrix: (Units=GPa)
#
#
# Indices 1 2 3 4 5 6 
#
# 1 115.8427 31.7059 72.4968 0.0000 0.0000 0.0000
# 2 31.7059 187.0107 46.2900 0.0000 0.0000 0.0000
# 3 72.4968 46.2900 120.8522 0.0000 0.0000 0.0000
# 4 0.0000 0.0000 0.0000 118.6957 0.0000 0.0000
# 5 0.0000 0.0000 0.0000 0.0000 32.5362 0.0000
# 6 0.0000 0.0000 0.0000 0.0000 0.0000 38.5149
#
#
#
# Elastic Compliance Matrix: (Units=1/GPa)
#
#
# Indices 1 2 3 4 5 6 
#
# 1 0.013839 -0.000322 -0.008178 0.000000 0.000000 0.000000
# 2 -0.000322 0.005915 -0.002072 0.000000 0.000000 0.000000
# 3 -0.008178 -0.002072 0.013974 0.000000 0.000000 0.000000
# 4 0.000000 0.000000 0.000000 0.008425 0.000000 0.000000
# 5 0.000000 0.000000 0.000000 0.000000 0.030735 0.000000
# 6 0.000000 0.000000 0.000000 0.000000 0.000000 0.025964
#
#
# Mechanical properties :
#
#
# Convention : Reuss Voigt Hill
#
# Bulk Modulus (GPa) = 79.47451 80.52122 79.99786
# Shear Modulus (GPa) = 40.26057 56.16355 48.21206
#
# Velocity S-wave (km/s) = 4.05637 4.79099 4.43890
# Velocity P-wave (km/s) = 7.37695 7.96951 7.67895
#
# Compressibility (1/GPa) = 0.01258265
#
# Stress axis : x y z
#
# Youngs Moduli (GPa) = 72.26172 169.06603 71.55977
#
# Poissons Ratio (x) = 0.05442 0.58523
# Poissons Ratio (y) = 0.02326 0.14831
# Poissons Ratio (z) = 0.59097 0.35038
#
# Static dielectric constant tensor:
#      x y z
#    x 4.291770 0.000000 0.000000 
#    y 0.000000 8.042320 0.000000 
#    z 0.000000 0.000000 4.140860 
# 
# 
# High freq. dielectric constant tensor:
#      x y z
#    x 1.991250 0.000000 0.000000 
#    y 0.000000 1.986780 0.000000 
#    z 0.000000 0.000000 1.961240 
# 
# From -- ./inp_files/29369.got.cif
#   From: 2010.03.12/outbox.cif.g09.slc.cpg/sg23_15_cif.got.tgz:29369.got - 2010.04.14 02:50:06.
