data_PCOD8164387
_publ_section_title
;
Structure prediction by ZEFSAII (Michael W. Deem and Ramdas Pophale) SiO2 
 PCOD8164387
Probable space group: I 2 2 2
;
_chemical_formula_sum "Si O2"
_cell_formula_units_Z 34
_cell_length_a 7.403091
_cell_length_b 18.714241
_cell_length_c 10.223913
_cell_angle_alpha 90.000000
_cell_angle_beta 90.000000
_cell_angle_gamma 90.000000
_cell_volume 1416.453921
_symmetry_space_group_name_H-M "I 2 2 2"
_symmetry_group_IT_number 23
_symmetry_cell_setting 'orthorhombic'
loop_
_space_group_symop_operation_xyz
x,y,z
-x,-y,z
x,-y,-z
-x,y,-z
1/2+x,1/2+y,1/2+z
1/2-x,1/2-y,1/2+z
1/2+x,1/2-y,1/2-z
1/2-x,1/2+y,1/2-z
loop_
_atom_site_type_symbol
_atom_site_label
_atom_site_fract_x
_atom_site_fract_y
_atom_site_fract_z
Si Si1 0.317461 0.659523 0.771718
Si Si2 0.693498 0.094064 0.538056
Si Si3 0.267974 0.676798 0.276628
Si Si4 0.714247 0.418419 0.514339
Si Si5 0.000000 0.000000 0.500000
O O1 0.526790 0.658176 0.745314
O O2 0.244232 0.738954 0.789772
O O3 0.222896 0.615872 0.653014
O O4 0.286908 0.622278 0.908414
O O5 0.500000 0.059092 0.500000
O O6 0.652691 0.153283 0.648671
O O7 0.852209 0.041158 0.593333
O O8 0.197565 0.632898 0.403126
O O9 0.787574 0.500000 0.500000
O O10 0.500000 0.417960 0.500000
#
# Coordination Sequence:
#
# PCOD8164387 Si02
#       5
#     8   8   8   8   2
#     4  11  22  41  69 101 139 182 230 286 345 413
#     4  12  26  44  71 104 137 183 235 283 345 421
#     4  11  22  41  69 101 139 182 230 286 345 413
#     4   9  21  38  65  95 131 175 226 284 346 399
#     4  12  26  48  68 100 144 180 232 286 352 402
#
# _framework density 24.003606000000001
#
# number of rings (size 3 to 8) (size 9 to 14) (size 15 to 20)
#    0.000    1.176    2.353    3.176    3.294    1.882 
#    0.000    3.529    0.000    5.647    0.000    0.000 
#    0.000    0.000    0.000    0.000    0.000    0.000 
#
# Total GULP energy -210643.432671 kJ/mol
# GULP energy per Si atom -12390.790157 kJ/mol
# Density = 2.394897 g / cm^3
# Si number density = 24.003606 Si / 1000 Ang^3
#
#
#
# Elastic Constant Matrix: (Units=GPa)
#
#
# Indices 1 2 3 4 5 6 
#
# 1 87.5390 7.7235 -6.2114 -0.0001 0.0000 0.0000
# 2 7.7235 179.6053 71.6302 -0.0001 0.0000 0.0000
# 3 -6.2114 71.6302 172.9662 -0.0006 0.0003 0.0000
# 4 -0.0001 -0.0001 -0.0006 38.2744 0.0001 0.0000
# 5 0.0000 0.0000 0.0003 0.0001 13.2567 0.0000
# 6 0.0000 0.0000 0.0000 0.0000 0.0000 25.1275
#
#
#
# Elastic Compliance Matrix: (Units=1/GPa)
#
#
# Indices 1 2 3 4 5 6 
#
# 1 0.011546 -0.000793 0.000743 0.000000 0.000000 0.000000
# 2 -0.000793 0.006724 -0.002813 0.000000 0.000000 0.000000
# 3 0.000743 -0.002813 0.006973 0.000000 0.000000 0.000000
# 4 0.000000 0.000000 0.000000 0.026127 0.000000 0.000000
# 5 0.000000 0.000000 0.000000 0.000000 0.075433 0.000000
# 6 0.000000 0.000000 0.000000 0.000000 0.000000 0.039797
#
#
# Mechanical properties :
#
#
# Convention : Reuss Voigt Hill
#
# Bulk Modulus (GPa) = 51.23653 65.15501 58.19577
# Shear Modulus (GPa) = 27.95921 39.79627 33.87774
#
# Velocity S-wave (km/s) = 3.41661 4.07618 3.76088
# Velocity P-wave (km/s) = 6.07914 7.02542 6.56934
#
# Compressibility (1/GPa) = 0.01951733
#
# Stress axis : x y z
#
# Youngs Moduli (GPa) = 86.60896 148.72715 143.40856
#
# Poissons Ratio (x) = 0.11792 -0.10655
# Poissons Ratio (y) = 0.06867 0.40340
# Poissons Ratio (z) = -0.06435 0.41836
#
# Static dielectric constant tensor:
#      x y z
#    x 4.259040 0.000000 0.000000 
#    y 0.000000 3.331050 0.000000 
#    z 0.000000 0.000000 4.566300 
# 
# 
# High freq. dielectric constant tensor:
#      x y z
#    x 1.950710 0.000000 0.000000 
#    y 0.000000 1.962850 0.000000 
#    z 0.000000 0.000000 1.950620 
# 
# From -- ./inp_files/6708.got.cif
#   From: 2010.03.12/outbox.cif.g09.slc.cpg/sg23_4_cif.got.tgz:6708.got - 2010.04.14 02:50:06.
