data_PCOD8164282
_publ_section_title
;
Structure prediction by ZEFSAII (Michael W. Deem and Ramdas Pophale) SiO2 
 PCOD8164282
Probable space group: I 2 2 2
;
_chemical_formula_sum "Si O2"
_cell_formula_units_Z 56
_cell_length_a 18.958317
_cell_length_b 15.154511
_cell_length_c 9.254194
_cell_angle_alpha 90.000000
_cell_angle_beta 90.000000
_cell_angle_gamma 90.000000
_cell_volume 2658.767171
_symmetry_space_group_name_H-M "I 2 2 2"
_symmetry_group_IT_number 23
_symmetry_cell_setting 'orthorhombic'
loop_
_space_group_symop_operation_xyz
x,y,z
-x,-y,z
x,-y,-z
-x,y,-z
1/2+x,1/2+y,1/2+z
1/2-x,1/2-y,1/2+z
1/2+x,1/2-y,1/2-z
1/2-x,1/2+y,1/2-z
loop_
_atom_site_type_symbol
_atom_site_label
_atom_site_fract_x
_atom_site_fract_y
_atom_site_fract_z
Si Si1 0.389413 0.538331 0.143179
Si Si2 0.834920 0.888056 0.844450
Si Si3 0.660841 0.799708 0.685242
Si Si4 0.264321 0.907964 0.552226
Si Si5 0.703554 0.792344 0.212645
Si Si6 0.319573 0.906120 0.059067
Si Si7 0.069500 0.152477 0.097003
O O1 0.372746 0.453955 0.238599
O O2 0.319265 0.586352 0.083256
O O3 0.436382 0.603566 0.245949
O O4 0.430264 0.500000 0.000000
O O5 0.841130 0.791242 0.770323
O O6 0.756226 0.922179 0.869078
O O7 0.869069 0.892007 0.003166
O O8 0.718741 0.838354 0.573420
O O9 0.712522 0.722859 0.745425
O O10 0.633931 0.869066 0.806914
O O11 0.590355 0.755444 0.620407
O O12 0.310685 0.878780 0.689563
O O13 0.296210 0.000000 0.500000
O O14 0.682333 0.824825 0.053595
O O15 0.348895 0.000000 0.000000
O O16 0.000000 0.146478 0.000000
#
# Coordination Sequence:
#
# PCOD8164282 Si02
#       7
#     8   8   8   8   8   8   8
#     4  11  23  38  64  93 124 156 211 263 314 375
#     4  11  22  37  59  91 128 167 202 259 315 385
#     4  11  21  36  58  89 129 160 204 254 315 377
#     4  11  19  33  57  94 125 157 194 256 323 377
#     4  11  18  32  56  89 127 158 202 252 325 369
#     4  11  20  32  58  95 129 157 196 261 338 381
#     4  12  25  43  62  85 124 181 219 248 301 372
#
# _framework density 21.062393
#
# number of rings (size 3 to 8) (size 9 to 14) (size 15 to 20)
#    0.000    0.857    4.286    7.286    2.000    1.143 
#    0.000    1.429    0.000    0.429    0.000    1.000 
#    0.000    0.000    0.000    0.000    0.000    0.000 
#
# Total GULP energy -346884.575192 kJ/mol
# GULP energy per Si atom -12388.734828 kJ/mol
# Density = 2.101445 g / cm^3
# Si number density = 21.062393 Si / 1000 Ang^3
#
#
#
# Elastic Constant Matrix: (Units=GPa)
#
#
# Indices 1 2 3 4 5 6 
#
# 1 40.6946 33.1166 25.9979 0.0000 0.0000 0.0000
# 2 33.1166 105.9723 46.3683 0.0000 0.0000 0.0000
# 3 25.9979 46.3683 135.3433 0.0000 0.0000 0.0000
# 4 0.0000 0.0000 0.0000 55.0599 0.0000 0.0000
# 5 0.0000 0.0000 0.0000 0.0000 24.7120 0.0000
# 6 0.0000 0.0000 0.0000 0.0000 0.0000 -8.2156
#
#
#
# Elastic Compliance Matrix: (Units=1/GPa)
#
#
# Indices 1 2 3 4 5 6 
#
# 1 0.034253 -0.009205 -0.003426 0.000000 0.000000 0.000000
# 2 -0.009205 0.013574 -0.002882 0.000000 0.000000 0.000000
# 3 -0.003426 -0.002882 0.009034 0.000000 0.000000 0.000000
# 4 0.000000 0.000000 0.000000 0.018162 0.000000 0.000000
# 5 0.000000 0.000000 0.000000 0.000000 0.040466 0.000000
# 6 0.000000 0.000000 0.000000 0.000000 0.000000 -0.121720
#
#
# Mechanical properties :
#
#
# Convention : Reuss Voigt Hill
#
# Bulk Modulus (GPa) = 38.70776 54.77508 46.74142
# Shear Modulus (GPa) = 149.66571 26.07975 87.87273
#
# Velocity S-wave (km/s) = 8.43875 3.52264 6.46613
# Velocity P-wave (km/s) = 10.64742 6.52747 8.83107
#
# Compressibility (1/GPa) = 0.02583462
#
# Stress axis : x y z
#
# Youngs Moduli (GPa) = 29.19459 73.66917 110.69083
#
# Poissons Ratio (x) = 0.67813 0.37922
# Poissons Ratio (y) = 0.26874 0.31904
# Poissons Ratio (z) = 0.10002 0.21234
#
# Static dielectric constant tensor:
#      x y z
#    x 3.127780 0.000000 0.000000 
#    y 0.000000 4.112880 0.000000 
#    z 0.000000 0.000000 4.498300 
# 
# 
# High freq. dielectric constant tensor:
#      x y z
#    x 1.736090 0.000000 0.000000 
#    y 0.000000 1.840000 0.000000 
#    z 0.000000 0.000000 1.860120 
# 
# From -- ./inp_files/12073.got.cif
#   From: 2010.03.12/outbox.cif.g09.slc.cpg/sg23_7_cif.got.tgz:12073.got - 2010.04.14 02:50:06.
