data_PCOD8164720
_publ_section_title
;
Structure prediction by ZEFSAII (Michael W. Deem and Ramdas Pophale) SiO2 
 PCOD8164720
Probable space group: I 21 21 21
;
_chemical_formula_sum "Si O2"
_cell_formula_units_Z 48
_cell_length_a 7.863843
_cell_length_b 19.848344
_cell_length_c 15.700704
_cell_angle_alpha 90.000000
_cell_angle_beta 90.000000
_cell_angle_gamma 90.000000
_cell_volume 2450.632781
_symmetry_space_group_name_H-M "I 21 21 21"
_symmetry_group_IT_number 24
_symmetry_cell_setting 'orthorhombic'
loop_
_space_group_symop_operation_xyz
x,y,z
-x,1/2-y,z
x,-y,1/2-z
1/2-x,y,-z
1/2+x,1/2+y,1/2+z
1/2-x,-y,1/2+z
1/2+x,1/2-y,-z
-x,1/2+y,1/2-z
loop_
_atom_site_type_symbol
_atom_site_label
_atom_site_fract_x
_atom_site_fract_y
_atom_site_fract_z
Si Si1 0.802860 0.336072 0.411427
Si Si2 0.331742 0.973535 0.091408
Si Si3 0.000000 0.750000 0.220045
Si Si4 0.156034 0.404623 0.416227
Si Si5 0.848365 0.119747 0.237113
Si Si6 0.198231 0.543495 0.588122
Si Si7 0.111728 0.000000 0.250000
O O1 0.750000 0.298518 0.500000
O O2 0.841778 0.392245 0.611438
O O3 0.849131 0.281185 0.339600
O O4 0.962661 0.384284 0.429240
O O5 0.518643 0.006227 0.090961
O O6 0.227361 0.008792 0.166632
O O7 0.250000 0.989628 0.000000
O O8 0.923984 0.806358 0.283498
O O9 0.250000 0.378696 0.500000
O O10 0.239569 0.372358 0.330527
O O11 0.158604 0.485531 0.404796
O O12 0.715617 0.096462 0.165459
O O13 0.000190 0.067458 0.253367
O O14 0.250000 0.581654 0.500000
#
# Coordination Sequence:
#
# PCOD8164720 Si02
#       7
#     8   8   4   8   8   8   4
#     4  10  19  37  56  83 121 168 202 232 299 363
#     4  11  22  36  59  95 123 154 202 260 305 353
#     4  10  22  36  58  86 126 170 196 238 310 364
#     4  10  18  32  55  87 122 155 196 250 291 351
#     4  11  21  39  58  89 119 167 198 250 300 365
#     4  11  21  36  63  91 118 156 206 262 306 345
#     4  12  20  38  62  86 122 158 204 258 300 346
#
# _framework density 19.586776
#
# number of rings (size 3 to 8) (size 9 to 14) (size 15 to 20)
#    0.000    1.333    5.000    5.000    2.333    2.667 
#    0.000    0.000    0.000    8.000    0.000    0.000 
#    0.000    0.000    0.000    0.000    0.000    0.000 
#
# Total GULP energy -297314.065599 kJ/mol
# GULP energy per Si atom -12388.086067 kJ/mol
# Density = 1.954220 g / cm^3
# Si number density = 19.586776 Si / 1000 Ang^3
#
#
#
# Elastic Constant Matrix: (Units=GPa)
#
#
# Indices 1 2 3 4 5 6 
#
# 1 75.0828 44.9280 45.0228 0.0000 0.0000 0.0000
# 2 44.9280 106.7618 39.6860 0.0000 0.0000 0.0000
# 3 45.0228 39.6860 125.8784 0.0001 0.0000 0.0000
# 4 0.0000 0.0000 0.0001 25.3778 0.0000 0.0000
# 5 0.0000 0.0000 0.0000 0.0000 34.6412 0.0000
# 6 0.0000 0.0000 0.0000 0.0000 0.0000 20.4132
#
#
#
# Elastic Compliance Matrix: (Units=1/GPa)
#
#
# Indices 1 2 3 4 5 6 
#
# 1 0.020426 -0.006661 -0.005206 0.000000 0.000000 0.000000
# 2 -0.006661 0.012782 -0.001648 0.000000 0.000000 0.000000
# 3 -0.005206 -0.001648 0.010326 0.000000 0.000000 0.000000
# 4 0.000000 0.000000 0.000000 0.039404 0.000000 0.000000
# 5 0.000000 0.000000 0.000000 0.000000 0.028867 0.000000
# 6 0.000000 0.000000 0.000000 0.000000 0.000000 0.048988
#
#
# Mechanical properties :
#
#
# Convention : Reuss Voigt Hill
#
# Bulk Modulus (GPa) = 60.58558 62.99962 61.79260
# Shear Modulus (GPa) = 25.86351 27.95886 26.91119
#
# Velocity S-wave (km/s) = 3.63775 3.78224 3.71070
# Velocity P-wave (km/s) = 6.97448 7.16296 7.06935
#
# Compressibility (1/GPa) = 0.01650558
#
# Stress axis : x y z
#
# Youngs Moduli (GPa) = 48.95781 78.23498 96.84721
#
# Poissons Ratio (x) = 0.52109 0.50416
# Poissons Ratio (y) = 0.32609 0.15956
# Poissons Ratio (z) = 0.25486 0.12890
#
# Static dielectric constant tensor:
#      x y z
#    x 3.577770 0.000000 0.000000 
#    y 0.000000 3.429170 0.000000 
#    z 0.000000 0.000000 4.023810 
# 
# 
# High freq. dielectric constant tensor:
#      x y z
#    x 1.751740 0.000000 0.000000 
#    y 0.000000 1.732470 0.000000 
#    z 0.000000 0.000000 1.772450 
# 
# From -- ./inp_files/24964.got.cif
#   From: 2010.03.12/outbox.cif.g09.slc.cpg/sg24_13_cif.got.tgz:24964.got - 2010.04.14 03:06:53.
