data_PCOD8164752
_publ_section_title
;
Structure prediction by ZEFSAII (Michael W. Deem and Ramdas Pophale) SiO2 
 PCOD8164752
Probable space group: I 21 21 21
;
_chemical_formula_sum "Si O2"
_cell_formula_units_Z 40
_cell_length_a 10.207867
_cell_length_b 15.517601
_cell_length_c 13.512652
_cell_angle_alpha 90.000000
_cell_angle_beta 90.000000
_cell_angle_gamma 90.000000
_cell_volume 2140.425794
_symmetry_space_group_name_H-M "I 21 21 21"
_symmetry_group_IT_number 24
_symmetry_cell_setting 'orthorhombic'
loop_
_space_group_symop_operation_xyz
x,y,z
-x,1/2-y,z
x,-y,1/2-z
1/2-x,y,-z
1/2+x,1/2+y,1/2+z
1/2-x,-y,1/2+z
1/2+x,1/2-y,-z
-x,1/2+y,1/2-z
loop_
_atom_site_type_symbol
_atom_site_label
_atom_site_fract_x
_atom_site_fract_y
_atom_site_fract_z
Si Si1 0.500000 0.250000 0.068119
Si Si2 0.399326 0.442030 0.843002
Si Si3 0.852187 0.216189 0.579725
Si Si4 0.750000 0.949416 0.000000
Si Si5 0.235282 0.725529 0.697297
Si Si6 0.647549 0.624020 0.574730
O O1 0.605064 0.200357 0.136812
O O2 0.559372 0.320940 0.998163
O O3 0.370051 0.500000 0.750000
O O4 0.345845 0.346227 0.821333
O O5 0.554747 0.441197 0.865854
O O6 0.331928 0.486165 0.934611
O O7 0.750000 0.258689 0.500000
O O8 0.848379 0.112124 0.563649
O O9 0.798795 0.238132 0.688088
O O10 0.000000 0.250000 0.563152
O O11 0.282577 0.817375 0.656822
O O12 0.750000 0.576326 0.500000
#
# Coordination Sequence:
#
# PCOD8164752 Si02
#       6
#     4   8   8   4   8   8
#     4  10  18  34  62  86 114 142 202 264 294 350
#     4  12  21  38  60  88 129 156 203 248 318 367
#     4  10  22  42  62  92 120 164 216 252 295 367
#     4  10  24  38  62  92 118 168 198 258 304 362
#     4  11  20  36  64  90 116 158 206 258 298 369
#     4  10  22  37  59  93 117 160 205 251 311 362
#
# _framework density 18.687871000000001
#
# number of rings (size 3 to 8) (size 9 to 14) (size 15 to 20)
#    0.600    0.800    5.000    1.200    1.400    3.200 
#    0.000    3.000    0.000    0.000    0.000    0.000 
#    0.000    0.000    0.000    0.000    0.000    0.000 
#
# Total GULP energy -247866.118241 kJ/mol
# GULP energy per Si atom -12393.305912 kJ/mol
# Density = 1.864534 g / cm^3
# Si number density = 18.687871 Si / 1000 Ang^3
#
#
#
# Elastic Constant Matrix: (Units=GPa)
#
#
# Indices 1 2 3 4 5 6 
#
# 1 113.6259 17.7506 44.4602 0.0000 0.0002 0.0000
# 2 17.7506 37.4365 14.2134 0.0000 0.0005 0.0000
# 3 44.4602 14.2134 125.7031 -0.0001 0.0009 0.0001
# 4 0.0000 0.0000 -0.0001 4.4141 0.0007 0.0000
# 5 0.0002 0.0005 0.0009 0.0007 204.0197 0.0000
# 6 0.0000 0.0000 0.0001 0.0000 0.0000 27.2407
#
#
#
# Elastic Compliance Matrix: (Units=1/GPa)
#
#
# Indices 1 2 3 4 5 6 
#
# 1 0.010709 -0.003803 -0.003358 0.000000 0.000000 0.000000
# 2 -0.003803 0.029260 -0.001964 0.000000 0.000000 0.000000
# 3 -0.003358 -0.001964 0.009365 0.000000 0.000000 0.000000
# 4 0.000000 0.000000 0.000000 0.226546 -0.000001 0.000000
# 5 0.000000 0.000000 0.000000 -0.000001 0.004901 0.000000
# 6 0.000000 0.000000 0.000000 0.000000 0.000000 0.036710
#
#
# Mechanical properties :
#
#
# Convention : Reuss Voigt Hill
#
# Bulk Modulus (GPa) = 32.16861 47.73488 39.95174
# Shear Modulus (GPa) = 14.44667 60.49100 37.46883
#
# Velocity S-wave (km/s) = 2.78339 5.69556 4.48256
# Velocity P-wave (km/s) = 5.25173 8.29766 6.94377
#
# Compressibility (1/GPa) = 0.03108621
#
# Stress axis : x y z
#
# Youngs Moduli (GPa) = 93.38240 34.17582 106.78258
#
# Poissons Ratio (x) = 0.12996 0.35853
# Poissons Ratio (y) = 0.35511 0.20967
# Poissons Ratio (z) = 0.31354 0.06710
#
# Static dielectric constant tensor:
#      x y z
#    x 4.183020 0.000000 0.000000 
#    y 0.000000 3.115010 0.000000 
#    z 0.000000 0.000000 3.615970 
# 
# 
# High freq. dielectric constant tensor:
#      x y z
#    x 1.735220 0.000000 0.000000 
#    y 0.000000 1.691190 0.000000 
#    z 0.000000 0.000000 1.745320 
# 
# From -- ./inp_files/19464.got.cif
#   From: 2010.03.12/outbox.cif.g09.slc.cpg/sg24_10_cif.got.tgz:19464.got - 2010.04.14 03:06:53.
