data_PCOD8164903
_publ_section_title
;
Structure prediction by ZEFSAII (Michael W. Deem and Ramdas Pophale) SiO2 
 PCOD8164903
Probable space group: I 21 21 21
;
_chemical_formula_sum "Si O2"
_cell_formula_units_Z 32
_cell_length_a 5.381157
_cell_length_b 13.348979
_cell_length_c 17.637404
_cell_angle_alpha 90.000000
_cell_angle_beta 90.000000
_cell_angle_gamma 90.000000
_cell_volume 1266.946791
_symmetry_space_group_name_H-M "I 21 21 21"
_symmetry_group_IT_number 24
_symmetry_cell_setting 'orthorhombic'
loop_
_space_group_symop_operation_xyz
x,y,z
-x,1/2-y,z
x,-y,1/2-z
1/2-x,y,-z
1/2+x,1/2+y,1/2+z
1/2-x,-y,1/2+z
1/2+x,1/2-y,-z
-x,1/2+y,1/2-z
loop_
_atom_site_type_symbol
_atom_site_label
_atom_site_fract_x
_atom_site_fract_y
_atom_site_fract_z
Si Si1 0.335652 0.337306 0.418864
Si Si2 0.093368 0.384161 0.273980
Si Si3 0.410046 0.110022 0.212539
Si Si4 0.496249 0.948560 0.453686
O O1 0.500000 0.250000 0.380738
O O2 0.250000 0.296308 0.500000
O O3 0.098462 0.367001 0.365388
O O4 0.502645 0.435503 0.430628
O O5 0.106237 0.500000 0.250000
O O6 0.350344 0.332793 0.245984
O O7 0.848313 0.334209 0.236730
O O8 0.388796 0.000000 0.250000
O O9 0.459871 0.113827 0.123015
O O10 0.750000 0.919928 0.500000
O O11 0.250000 0.923458 0.500000
#
# Coordination Sequence:
#
# PCOD8164903 Si02
#       4
#     8   8   8   8
#     4  11  24  38  56  89 134 179 212 252 322 402
#     4  10  20  37  58  79 110 168 220 270 299 358
#     4  10  19  34  56  79 108 154 214 269 307 345
#     4  11  22  35  56  83 120 162 208 260 321 382
#
# _framework density 25.257570000000001
#
# number of rings (size 3 to 8) (size 9 to 14) (size 15 to 20)
#    0.000    1.500    5.000    2.250   10.500    2.000 
#    0.000    0.000    0.000    0.000    0.000    0.000 
#    0.000    8.000    1.000    1.000    0.000    1.000 
#
# Total GULP energy -198247.419648 kJ/mol
# GULP energy per Si atom -12390.463728 kJ/mol
# Density = 2.520008 g / cm^3
# Si number density = 25.257570 Si / 1000 Ang^3
#
#
#
# Elastic Constant Matrix: (Units=GPa)
#
#
# Indices 1 2 3 4 5 6 
#
# 1 256.7445 30.8879 98.1717 0.0000 0.0000 0.0000
# 2 30.8879 24.6906 28.7768 0.0000 0.0000 0.0000
# 3 98.1717 28.7768 206.6706 0.0000 0.0000 0.0000
# 4 0.0000 0.0000 0.0000 -13.1682 0.0000 0.0000
# 5 0.0000 0.0000 0.0000 0.0000 453.1471 0.0001
# 6 0.0000 0.0000 0.0000 0.0000 0.0001 323.5150
#
#
#
# Elastic Compliance Matrix: (Units=1/GPa)
#
#
# Indices 1 2 3 4 5 6 
#
# 1 0.005108 -0.004252 -0.001834 0.000000 0.000000 0.000000
# 2 -0.004252 0.051887 -0.005205 0.000000 0.000000 0.000000
# 3 -0.001834 -0.005205 0.006435 0.000000 0.000000 0.000000
# 4 0.000000 0.000000 0.000000 -0.075941 0.000000 0.000000
# 5 0.000000 0.000000 0.000000 0.000000 0.002207 0.000000
# 6 0.000000 0.000000 0.000000 0.000000 0.000000 0.003091
#
#
# Mechanical properties :
#
#
# Convention : Reuss Voigt Hill
#
# Bulk Modulus (GPa) = 24.48170 89.30873 56.89521
# Shear Modulus (GPa) = 172.50587 174.71674 173.61130
#
# Velocity S-wave (km/s) = 8.27327 8.32611 8.29973
# Velocity P-wave (km/s) = 10.04870 11.30788 10.69684
#
# Compressibility (1/GPa) = 0.04084684
#
# Stress axis : x y z
#
# Youngs Moduli (GPa) = 195.77773 19.27270 155.40876
#
# Poissons Ratio (x) = 0.08195 0.28506
# Poissons Ratio (y) = 0.83246 0.80889
# Poissons Ratio (z) = 0.35910 0.10031
#
# Static dielectric constant tensor:
#      x y z
#    x 6.268500 0.000000 0.000000 
#    y 0.000000 3.557210 0.000000 
#    z 0.000000 0.000000 4.790840 
# 
# 
# High freq. dielectric constant tensor:
#      x y z
#    x 2.028450 0.000000 0.000000 
#    y 0.000000 1.978890 0.000000 
#    z 0.000000 0.000000 2.016820 
# 
# From -- ./inp_files/3061.got.cif
#   From: 2010.03.12/outbox.cif.g09.slc.cpg/sg24_2_cif.got.tgz:3061.got - 2010.04.14 03:06:53.
