data_PCOD8164424
_publ_section_title
;
Structure prediction by ZEFSAII (Michael W. Deem and Ramdas Pophale) SiO2 
 PCOD8164424
Probable space group: I 2 2 2
;
_chemical_formula_sum "Si O2"
_cell_formula_units_Z 34
_cell_length_a 20.795273
_cell_length_b 10.497297
_cell_length_c 6.846616
_cell_angle_alpha 90.000000
_cell_angle_beta 90.000000
_cell_angle_gamma 90.000000
_cell_volume 1494.576267
_symmetry_space_group_name_H-M "I 2 2 2"
_symmetry_group_IT_number 23
_symmetry_cell_setting 'orthorhombic'
loop_
_space_group_symop_operation_xyz
x,y,z
-x,-y,z
x,-y,-z
-x,y,-z
1/2+x,1/2+y,1/2+z
1/2-x,1/2-y,1/2+z
1/2+x,1/2-y,1/2-z
1/2-x,1/2+y,1/2-z
loop_
_atom_site_type_symbol
_atom_site_label
_atom_site_fract_x
_atom_site_fract_y
_atom_site_fract_z
Si Si1 0.000000 0.000000 0.000000
Si Si2 0.430990 0.966771 0.273986
Si Si3 0.659238 0.815733 0.244560
Si Si4 0.398076 0.304080 0.612347
Si Si5 0.795779 0.133587 0.592540
O O1 0.045435 0.908819 0.868879
O O2 0.377922 0.057137 0.170490
O O3 0.500000 0.000000 0.180643
O O4 0.429621 0.000000 0.500000
O O5 0.417298 0.816896 0.253770
O O6 0.613145 0.730767 0.384454
O O7 0.719986 0.856342 0.374644
O O8 0.680794 0.742937 0.052646
O O9 0.332329 0.359527 0.700980
O O10 0.813243 0.000000 0.500000
#
# Coordination Sequence:
#
# PCOD8164424 Si02
#       5
#     2   8   8   8   8
#     4  12  24  44  72 100 144 190 222 278 362 404
#     4   9  19  40  69  93 130 178 229 277 332 403
#     4  11  23  44  69 101 134 178 229 284 343 411
#     4  11  23  44  66 100 138 180 227 280 340 418
#     4  12  25  42  66 102 137 176 228 286 349 404
#
# _framework density 22.748923999999999
#
# number of rings (size 3 to 8) (size 9 to 14) (size 15 to 20)
#    0.000    1.176    2.353    6.353    0.000    0.941 
#    0.000   12.353    0.000    0.000    0.000    0.000 
#    0.000    0.000    0.000    0.000    0.000    0.000 
#
# Total GULP energy -210839.550716 kJ/mol
# GULP energy per Si atom -12402.326513 kJ/mol
# Density = 2.269715 g / cm^3
# Si number density = 22.748924 Si / 1000 Ang^3
#
#
#
# Elastic Constant Matrix: (Units=GPa)
#
#
# Indices 1 2 3 4 5 6 
#
# 1 156.1511 76.2601 19.3633 0.0000 0.0000 0.0000
# 2 76.2601 169.0542 26.0360 0.0000 0.0000 0.0000
# 3 19.3633 26.0360 50.4959 0.0000 0.0000 0.0000
# 4 0.0000 0.0000 0.0000 29.2091 0.0000 0.0000
# 5 0.0000 0.0000 0.0000 0.0000 3.1711 0.0000
# 6 0.0000 0.0000 0.0000 0.0000 0.0000 51.6745
#
#
#
# Elastic Compliance Matrix: (Units=1/GPa)
#
#
# Indices 1 2 3 4 5 6 
#
# 1 0.008299 -0.003534 -0.001360 0.000000 0.000000 0.000000
# 2 -0.003534 0.007931 -0.002734 0.000000 0.000000 0.000000
# 3 -0.001360 -0.002734 0.021735 0.000000 0.000000 0.000000
# 4 0.000000 0.000000 0.000000 0.034236 0.000000 0.000000
# 5 0.000000 0.000000 0.000000 0.000000 0.315344 0.000000
# 6 0.000000 0.000000 0.000000 0.000000 0.000000 0.019352
#
#
# Mechanical properties :
#
#
# Convention : Reuss Voigt Hill
#
# Bulk Modulus (GPa) = 44.03737 68.78002 56.40869
# Shear Modulus (GPa) = 11.63545 33.74705 22.69125
#
# Velocity S-wave (km/s) = 2.26403 3.85575 3.16169
# Velocity P-wave (km/s) = 5.12196 7.07972 6.17887
#
# Compressibility (1/GPa) = 0.02270799
#
# Stress axis : x y z
#
# Youngs Moduli (GPa) = 120.50167 126.09536 46.00932
#
# Poissons Ratio (x) = 0.44563 0.06258
# Poissons Ratio (y) = 0.42586 0.12578
# Poissons Ratio (z) = 0.16389 0.34473
#
# Static dielectric constant tensor:
#      x y z
#    x 4.403790 0.000000 0.000000 
#    y 0.000000 4.373730 0.000000 
#    z 0.000000 0.000000 3.699530 
# 
# 
# High freq. dielectric constant tensor:
#      x y z
#    x 1.908890 0.000000 0.000000 
#    y 0.000000 1.908810 0.000000 
#    z 0.000000 0.000000 1.882220 
# 
# From -- ./inp_files/12384.got.cif
#   From: 2010.03.12/outbox.cif.g09.slc.cpg/sg23_7_cif.got.tgz:12384.got - 2010.04.14 02:50:06.
