data_PCOD8164089
_publ_section_title
;
Structure prediction by ZEFSAII (Michael W. Deem and Ramdas Pophale) SiO2 
 PCOD8164089
Probable space group: I 2 2 2
;
_chemical_formula_sum "Si O2"
_cell_formula_units_Z 36
_cell_length_a 5.088680
_cell_length_b 24.607766
_cell_length_c 14.572127
_cell_angle_alpha 90.000000
_cell_angle_beta 90.000000
_cell_angle_gamma 90.000000
_cell_volume 1824.736995
_symmetry_space_group_name_H-M "I 2 2 2"
_symmetry_group_IT_number 23
_symmetry_cell_setting 'orthorhombic'
loop_
_space_group_symop_operation_xyz
x,y,z
-x,-y,z
x,-y,-z
-x,y,-z
1/2+x,1/2+y,1/2+z
1/2-x,1/2-y,1/2+z
1/2+x,1/2-y,1/2-z
1/2-x,1/2+y,1/2-z
loop_
_atom_site_type_symbol
_atom_site_label
_atom_site_fract_x
_atom_site_fract_y
_atom_site_fract_z
Si Si1 0.757799 0.963925 0.837097
Si Si2 0.748957 0.200664 0.439692
Si Si3 0.306676 0.680581 0.361914
Si Si4 0.697445 0.149620 0.246168
Si Si5 0.000000 0.096687 0.000000
O O1 0.724720 0.914923 0.765583
O O2 0.813870 0.940810 0.938419
O O3 0.500000 0.000000 0.841539
O O4 0.000000 0.000000 0.801699
O O5 0.500000 0.186364 0.500000
O O6 0.752639 0.263320 0.411224
O O7 0.743354 0.161979 0.351915
O O8 0.000000 0.186463 0.500000
O O9 0.590976 0.682864 0.314030
O O10 0.304749 0.633277 0.438342
O O11 0.089594 0.668965 0.285044
#
# Coordination Sequence:
#
# PCOD8164089 Si02
#       5
#     8   8   8   8   4
#     4  11  24  40  60  88 122 163 206 249 296 358
#     4  12  24  40  64  91 123 159 209 254 304 366
#     4  11  22  39  60  92 129 164 198 238 310 382
#     4  11  24  41  62  87 124 167 203 255 306 359
#     4  10  23  36  62  94 128 162 199 240 304 376
#
# _framework density 19.728870000000001
#
# number of rings (size 3 to 8) (size 9 to 14) (size 15 to 20)
#    0.000    0.889    1.111    7.000    3.111    7.111 
#    0.000    0.000    0.000    4.000    0.000    0.000 
#    0.000    0.000    0.000    0.000    0.000    0.000 
#
# Total GULP energy -223323.652524 kJ/mol
# GULP energy per Si atom -12406.869585 kJ/mol
# Density = 1.968397 g / cm^3
# Si number density = 19.728870 Si / 1000 Ang^3
#
#
#
# Elastic Constant Matrix: (Units=GPa)
#
#
# Indices 1 2 3 4 5 6 
#
# 1 136.2844 48.3423 51.0899 0.0000 0.0000 0.0000
# 2 48.3423 87.2902 51.6019 0.0001 0.0000 0.0000
# 3 51.0899 51.6019 115.4540 0.0000 0.0000 0.0000
# 4 0.0000 0.0001 0.0000 15.0422 0.0000 0.0000
# 5 0.0000 0.0000 0.0000 0.0000 38.7811 0.0000
# 6 0.0000 0.0000 0.0000 0.0000 0.0000 27.1877
#
#
#
# Elastic Compliance Matrix: (Units=1/GPa)
#
#
# Indices 1 2 3 4 5 6 
#
# 1 0.009658 -0.003836 -0.002559 0.000000 0.000000 0.000000
# 2 -0.003836 0.017093 -0.005942 0.000000 0.000000 0.000000
# 3 -0.002559 -0.005942 0.012450 0.000000 0.000000 0.000000
# 4 0.000000 0.000000 0.000000 0.066480 0.000000 0.000000
# 5 0.000000 0.000000 0.000000 0.000000 0.025786 0.000000
# 6 0.000000 0.000000 0.000000 0.000000 0.000000 0.036781
#
#
# Mechanical properties :
#
#
# Convention : Reuss Voigt Hill
#
# Bulk Modulus (GPa) = 68.84196 71.23300 70.03748
# Shear Modulus (GPa) = 25.28268 28.73517 27.00892
#
# Velocity S-wave (km/s) = 3.58370 3.82056 3.70402
# Velocity P-wave (km/s) = 7.21759 7.45966 7.33962
#
# Compressibility (1/GPa) = 0.01452603
#
# Stress axis : x y z
#
# Youngs Moduli (GPa) = 103.54598 58.50317 80.32160
#
# Poissons Ratio (x) = 0.22439 0.20557
# Poissons Ratio (y) = 0.39715 0.47731
# Poissons Ratio (z) = 0.26501 0.34765
#
# Static dielectric constant tensor:
#      x y z
#    x 3.788450 0.000000 0.000000 
#    y 0.000000 3.723490 0.000000 
#    z 0.000000 0.000000 3.576690 
# 
# 
# High freq. dielectric constant tensor:
#      x y z
#    x 1.789960 0.000000 0.000000 
#    y 0.000000 1.770060 0.000000 
#    z 0.000000 0.000000 1.757660 
# 
# From -- ./inp_files/2381.got.cif
#   From: 2010.03.12/outbox.cif.g09.slc.cpg/sg23_2_cif.got.tgz:2381.got - 2010.04.14 02:50:06.
