data_PCOD8164356
_publ_section_title
;
Structure prediction by ZEFSAII (Michael W. Deem and Ramdas Pophale) SiO2 
 PCOD8164356
Probable space group: I 2 2 2
;
_chemical_formula_sum "Si O2"
_cell_formula_units_Z 34
_cell_length_a 6.774578
_cell_length_b 28.653564
_cell_length_c 8.864711
_cell_angle_alpha 90.000000
_cell_angle_beta 90.000000
_cell_angle_gamma 90.000000
_cell_volume 1720.780506
_symmetry_space_group_name_H-M "I 2 2 2"
_symmetry_group_IT_number 23
_symmetry_cell_setting 'orthorhombic'
loop_
_space_group_symop_operation_xyz
x,y,z
-x,-y,z
x,-y,-z
-x,y,-z
1/2+x,1/2+y,1/2+z
1/2-x,1/2-y,1/2+z
1/2+x,1/2-y,1/2-z
1/2-x,1/2+y,1/2-z
loop_
_atom_site_type_symbol
_atom_site_label
_atom_site_fract_x
_atom_site_fract_y
_atom_site_fract_z
Si Si1 0.504029 0.138993 0.178443
Si Si2 0.699511 0.305221 0.189741
Si Si3 0.743139 0.711425 0.145530
Si Si4 0.000000 0.000000 0.000000
Si Si5 0.624142 0.040989 0.151184
O O1 0.282406 0.145275 0.244953
O O2 0.611947 0.183745 0.246014
O O3 0.605580 0.090600 0.237070
O O4 0.500000 0.142805 0.000000
O O5 0.468648 0.311695 0.171477
O O6 0.754913 0.265474 0.310553
O O7 0.802055 0.292689 0.030018
O O8 0.854096 0.970186 0.889578
O O9 0.500000 0.000000 0.239850
O O10 0.500000 0.048436 0.000000
#
# Coordination Sequence:
#
# PCOD8164356 Si02
#       5
#     8   8   8   2   8
#     4  11  22  35  57  87 117 150 189 235 298 344
#     4  11  23  38  55  79 111 150 200 238 284 338
#     4  11  23  37  57  78 109 154 195 243 282 336
#     4   8  14  32  56  78 120 146 190 228 284 340
#     4   8  17  32  53  83 115 148 188 236 285 339
#
# _framework density 19.758475000000001
#
# number of rings (size 3 to 8) (size 9 to 14) (size 15 to 20)
#    0.000    2.118    2.353    2.118    0.000    8.471 
#    0.000    0.000    0.000    2.824    0.000    3.294 
#    0.000    1.882    0.000    0.000    0.000    0.000 
#
# Total GULP energy -210623.118026 kJ/mol
# GULP energy per Si atom -12389.595178 kJ/mol
# Density = 1.971350 g / cm^3
# Si number density = 19.758475 Si / 1000 Ang^3
#
#
#
# Elastic Constant Matrix: (Units=GPa)
#
#
# Indices 1 2 3 4 5 6 
#
# 1 49.5814 14.5112 6.2033 0.0012 0.0003 0.0005
# 2 14.5112 111.5996 27.5796 0.0018 0.0004 0.0007
# 3 6.2033 27.5796 91.8676 0.0030 0.0005 0.0008
# 4 0.0012 0.0018 0.0030 15.0108 0.0004 0.0006
# 5 0.0003 0.0004 0.0005 0.0004 19.6993 0.0004
# 6 0.0005 0.0007 0.0008 0.0006 0.0004 23.7699
#
#
#
# Elastic Compliance Matrix: (Units=1/GPa)
#
#
# Indices 1 2 3 4 5 6 
#
# 1 0.021002 -0.002571 -0.000646 -0.000001 0.000000 0.000000
# 2 -0.002571 0.009993 -0.002827 0.000000 0.000000 0.000000
# 3 -0.000646 -0.002827 0.011777 -0.000002 0.000000 0.000000
# 4 -0.000001 0.000000 -0.000002 0.066619 -0.000001 -0.000002
# 5 0.000000 0.000000 0.000000 -0.000001 0.050763 -0.000001
# 6 0.000000 0.000000 0.000000 -0.000002 -0.000001 0.042070
#
#
# Mechanical properties :
#
#
# Convention : Reuss Voigt Hill
#
# Bulk Modulus (GPa) = 32.58905 38.84853 35.71879
# Shear Modulus (GPa) = 22.26760 25.34630 23.80695
#
# Velocity S-wave (km/s) = 3.36071 3.58551 3.47493
# Velocity P-wave (km/s) = 5.62038 6.07006 5.84954
#
# Compressibility (1/GPa) = 0.03068515
#
# Stress axis : x y z
#
# Youngs Moduli (GPa) = 47.61398 100.06551 84.90828
#
# Poissons Ratio (x) = 0.25729 0.05487
# Poissons Ratio (y) = 0.12243 0.23999
# Poissons Ratio (z) = 0.03077 0.28284
#
# Static dielectric constant tensor:
#      x y z
#    x 3.892280 0.000000 0.000000 
#    y 0.000000 4.876680 0.000000 
#    z 0.000000 0.000000 3.400560 
# 
# 
# High freq. dielectric constant tensor:
#      x y z
#    x 1.788860 0.000000 0.000000 
#    y 0.000000 1.763010 0.000000 
#    z 0.000000 0.000000 1.738280 
# 
# From -- ./inp_files/19162.got.cif
#   From: 2010.03.12/outbox.cif.g09.slc.cpg/sg23_10_cif.got.tgz:19162.got - 2010.04.14 02:50:06.
