data_PCOD8164756
_publ_section_title
;
Structure prediction by ZEFSAII (Michael W. Deem and Ramdas Pophale) SiO2 
 PCOD8164756
Probable space group: I 21 21 21
;
_chemical_formula_sum "Si O2"
_cell_formula_units_Z 64
_cell_length_a 14.329291
_cell_length_b 19.968934
_cell_length_c 11.803026
_cell_angle_alpha 90.000000
_cell_angle_beta 90.000000
_cell_angle_gamma 90.000000
_cell_volume 3377.325723
_symmetry_space_group_name_H-M "I 21 21 21"
_symmetry_group_IT_number 24
_symmetry_cell_setting 'orthorhombic'
loop_
_space_group_symop_operation_xyz
x,y,z
-x,1/2-y,z
x,-y,1/2-z
1/2-x,y,-z
1/2+x,1/2+y,1/2+z
1/2-x,-y,1/2+z
1/2+x,1/2-y,-z
-x,1/2+y,1/2-z
loop_
_atom_site_type_symbol
_atom_site_label
_atom_site_fract_x
_atom_site_fract_y
_atom_site_fract_z
Si Si1 0.431673 0.424535 0.263486
Si Si2 0.894515 0.730762 1.000000
Si Si3 0.250000 0.382357 0.865280
Si Si4 0.431673 0.575465 0.763486
Si Si5 0.072895 0.810755 0.238707
Si Si6 0.427105 0.189245 0.261294
Si Si7 0.647342 0.880409 1.000000
Si Si8 0.750000 0.269432 0.133075
O O1 0.467473 0.500000 0.250000
O O2 0.342285 0.417261 0.182546
O O3 0.517964 0.377891 0.228023
O O4 0.408256 0.405616 0.391816
O O5 0.877313 0.687702 0.114123
O O6 0.837633 0.800099 0.000001
O O7 0.000000 0.750000 0.999997
O O8 0.877311 0.687702 0.885877
O O9 0.342284 0.417262 0.817453
O O10 0.250000 0.306370 0.820385
O O11 0.250000 0.388640 0.000000
O O12 0.467473 0.500000 0.750000
O O13 0.517964 0.622109 0.728022
O O14 0.408256 0.594384 0.891816
O O15 0.156224 0.805787 0.327662
O O16 0.000000 0.750000 0.249046
O O17 0.500000 0.250000 0.250955
O O18 0.343776 0.194213 0.172338
O O19 0.750000 0.913209 0.000000
O O20 0.750000 0.269412 0.000000
#
# Coordination Sequence:
#
# PCOD8164756 Si02
#       8
#     8   8   8   8   8   8   8   8
#     4  12  25  39  59  91 128 165 199 247 311 373
#     4  10  18  34  64  92 118 139 201 260 307 356
#     4  11  23  38  58  93 123 157 202 245 304 374
#     4  12  25  39  59  91 128 165 199 247 311 373
#     4  11  21  40  63  91 122 156 206 261 307 359
#     4  11  21  40  63  91 122 156 206 261 307 359
#     4  12  22  36  62  95 128 156 194 255 319 368
#     4  11  24  40  63  89 121 161 212 251 294 363
#
# _framework density 18.949904
#
# number of rings (size 3 to 8) (size 9 to 14) (size 15 to 20)
#    0.000    0.750    8.750    0.375    3.500    1.500 
#    0.000    0.625    0.000    0.000    0.000    0.000 
#    0.000    0.000    0.000    0.000    0.000    0.000 
#
# Total GULP energy -396806.127731 kJ/mol
# GULP energy per Si atom -12400.191492 kJ/mol
# Density = 1.890677 g / cm^3
# Si number density = 18.949904 Si / 1000 Ang^3
#
#
#
# Elastic Constant Matrix: (Units=GPa)
#
#
# Indices 1 2 3 4 5 6 
#
# 1 98.9517 52.2568 26.5229 0.0000 0.0000 0.0000
# 2 52.2568 138.3019 24.3116 0.0000 0.0000 0.0000
# 3 26.5229 24.3116 70.0975 0.0000 0.0000 0.0000
# 4 0.0000 0.0000 0.0000 11.6684 0.0000 0.0000
# 5 0.0000 0.0000 0.0000 0.0000 30.9236 0.0000
# 6 0.0000 0.0000 0.0000 0.0000 0.0000 7.3781
#
#
#
# Elastic Compliance Matrix: (Units=1/GPa)
#
#
# Indices 1 2 3 4 5 6 
#
# 1 0.013398 -0.004442 -0.003529 0.000000 0.000000 0.000000
# 2 -0.004442 0.009173 -0.001501 0.000000 0.000000 0.000000
# 3 -0.003529 -0.001501 0.016121 0.000000 0.000000 0.000000
# 4 0.000000 0.000000 0.000000 0.085702 0.000000 0.000000
# 5 0.000000 0.000000 0.000000 0.000000 0.032338 0.000000
# 6 0.000000 0.000000 0.000000 0.000000 0.000000 0.135537
#
#
# Mechanical properties :
#
#
# Convention : Reuss Voigt Hill
#
# Bulk Modulus (GPa) = 50.63482 57.05930 53.84706
# Shear Modulus (GPa) = 15.73348 23.61133 19.67241
#
# Velocity S-wave (km/s) = 2.88456 3.53368 3.22549
# Velocity P-wave (km/s) = 6.15407 6.84289 6.50760
#
# Compressibility (1/GPa) = 0.01974926
#
# Stress axis : x y z
#
# Youngs Moduli (GPa) = 74.64046 109.01897 62.02914
#
# Poissons Ratio (x) = 0.48425 0.21888
# Poissons Ratio (y) = 0.33155 0.09308
# Poissons Ratio (z) = 0.26338 0.16360
#
# Static dielectric constant tensor:
#      x y z
#    x 3.409550 0.000000 0.000000 
#    y 0.000000 3.419350 0.000000 
#    z 0.000000 0.000000 5.889290 
# 
# 
# High freq. dielectric constant tensor:
#      x y z
#    x 1.733240 0.000000 0.000000 
#    y 0.000000 1.713710 0.000000 
#    z 0.000000 0.000000 1.747110 
# 
# From -- ./inp_files/21079.got.cif
#   From: 2010.03.12/outbox.cif.g09.slc.cpg/sg24_11_cif.got.tgz:21079.got - 2010.04.14 03:06:53.
