data_PCOD8164383
_publ_section_title
;
Structure prediction by ZEFSAII (Michael W. Deem and Ramdas Pophale) SiO2 
 PCOD8164383
Probable space group: I 2 2 2
;
_chemical_formula_sum "Si O2"
_cell_formula_units_Z 32
_cell_length_a 21.468217
_cell_length_b 9.080953
_cell_length_c 6.750421
_cell_angle_alpha 90.000000
_cell_angle_beta 90.000000
_cell_angle_gamma 90.000000
_cell_volume 1316.007194
_symmetry_space_group_name_H-M "I 2 2 2"
_symmetry_group_IT_number 23
_symmetry_cell_setting 'orthorhombic'
loop_
_space_group_symop_operation_xyz
x,y,z
-x,-y,z
x,-y,-z
-x,y,-z
1/2+x,1/2+y,1/2+z
1/2-x,1/2-y,1/2+z
1/2+x,1/2-y,1/2-z
1/2-x,1/2+y,1/2-z
loop_
_atom_site_type_symbol
_atom_site_label
_atom_site_fract_x
_atom_site_fract_y
_atom_site_fract_z
Si Si1 0.203136 0.862863 0.626945
Si Si2 0.392595 0.658855 0.457074
Si Si3 0.936446 0.439738 0.782093
Si Si4 0.163468 0.655161 0.292289
O O1 0.172536 0.866110 0.843322
O O2 0.184429 0.716902 0.505358
O O3 0.276910 0.877902 0.656613
O O4 0.179026 0.000000 0.500000
O O5 0.424758 0.500000 0.500000
O O6 0.434781 0.761186 0.308637
O O7 0.380245 0.732000 0.670360
O O8 0.876683 0.506386 0.666888
O O9 0.000000 0.500000 0.679569
O O10 0.931685 0.500000 0.000000
#
# Coordination Sequence:
#
# PCOD8164383 Si02
#       4
#     8   8   8   8
#     4  12  23  38  63 100 139 175 224 279 347 409
#     4  11  22  40  66  97 132 172 224 279 342 403
#     4   9  21  44  69  96 130 179 233 277 342 417
#     4  11  23  40  64  96 136 179 219 280 340 411
#
# _framework density 24.315978999999999
#
# number of rings (size 3 to 8) (size 9 to 14) (size 15 to 20)
#    0.000    1.250    5.000    2.250    0.000    1.000 
#    0.000   12.500    0.000    1.500    0.000    0.000 
#    0.000    0.000    0.000    0.000    0.000    0.000 
#
# Total GULP energy -198295.838435 kJ/mol
# GULP energy per Si atom -12393.489902 kJ/mol
# Density = 2.426063 g / cm^3
# Si number density = 24.315979 Si / 1000 Ang^3
#
#
#
# Elastic Constant Matrix: (Units=GPa)
#
#
# Indices 1 2 3 4 5 6 
#
# 1 128.3366 64.0771 12.5055 0.0000 0.0000 0.0000
# 2 64.0771 185.4462 24.2823 0.0000 0.0000 0.0000
# 3 12.5055 24.2823 80.3948 0.0000 0.0000 0.0000
# 4 0.0000 0.0000 0.0000 31.5341 0.0000 0.0000
# 5 0.0000 0.0000 0.0000 0.0000 -19.3074 0.0000
# 6 0.0000 0.0000 0.0000 0.0000 0.0000 27.1064
#
#
#
# Elastic Compliance Matrix: (Units=1/GPa)
#
#
# Indices 1 2 3 4 5 6 
#
# 1 0.009436 -0.003195 -0.000503 0.000000 0.000000 0.000000
# 2 -0.003195 0.006696 -0.001526 0.000000 0.000000 0.000000
# 3 -0.000503 -0.001526 0.012978 0.000000 0.000000 0.000000
# 4 0.000000 0.000000 0.000000 0.031712 0.000000 0.000000
# 5 0.000000 0.000000 0.000000 0.000000 -0.051794 0.000000
# 6 0.000000 0.000000 0.000000 0.000000 0.000000 0.036892
#
#
# Mechanical properties :
#
#
# Convention : Reuss Voigt Hill
#
# Bulk Modulus (GPa) = 53.58019 66.21194 59.89606
# Shear Modulus (GPa) = 79.88941 27.42080 53.65510
#
# Velocity S-wave (km/s) = 5.73812 3.36175 4.70252
# Velocity P-wave (km/s) = 8.12306 6.50825 7.36008
#
# Compressibility (1/GPa) = 0.01866361
#
# Stress axis : x y z
#
# Youngs Moduli (GPa) = 105.97679 149.34355 77.05578
#
# Poissons Ratio (x) = 0.47709 0.03875
# Poissons Ratio (y) = 0.33855 0.11755
# Poissons Ratio (z) = 0.05330 0.22783
#
# Static dielectric constant tensor:
#      x y z
#    x 4.723280 0.000000 0.000000 
#    y 0.000000 4.934950 0.000000 
#    z 0.000000 0.000000 4.289890 
# 
# 
# High freq. dielectric constant tensor:
#      x y z
#    x 1.936640 0.000000 0.000000 
#    y 0.000000 1.970250 0.000000 
#    z 0.000000 0.000000 1.972040 
# 
# From -- ./inp_files/11608.got.cif
#   From: 2010.03.12/outbox.cif.g09.slc.cpg/sg23_6_cif.got.tgz:11608.got - 2010.04.14 02:50:06.
