data_PCOD8164349
_publ_section_title
;
Structure prediction by ZEFSAII (Michael W. Deem and Ramdas Pophale) SiO2 
 PCOD8164349
Probable space group: I 2 2 2
;
_chemical_formula_sum "Si O2"
_cell_formula_units_Z 32
_cell_length_a 9.679938
_cell_length_b 7.824416
_cell_length_c 19.341613
_cell_angle_alpha 90.000000
_cell_angle_beta 90.000000
_cell_angle_gamma 90.000000
_cell_volume 1464.931095
_symmetry_space_group_name_H-M "I 2 2 2"
_symmetry_group_IT_number 23
_symmetry_cell_setting 'orthorhombic'
loop_
_space_group_symop_operation_xyz
x,y,z
-x,-y,z
x,-y,-z
-x,y,-z
1/2+x,1/2+y,1/2+z
1/2-x,1/2-y,1/2+z
1/2+x,1/2-y,1/2-z
1/2-x,1/2+y,1/2-z
loop_
_atom_site_type_symbol
_atom_site_label
_atom_site_fract_x
_atom_site_fract_y
_atom_site_fract_z
Si Si1 0.129105 0.118393 0.283971
Si Si2 0.575847 0.820886 0.911890
Si Si3 0.689859 0.325116 0.962359
Si Si4 0.366797 0.883376 0.332262
O O1 0.150476 0.266379 0.341660
O O2 0.104428 0.211874 0.211130
O O3 0.263457 0.999591 0.287136
O O4 0.000000 0.000000 0.299483
O O5 0.458867 0.677260 0.925337
O O6 0.500000 0.000000 0.903094
O O7 0.684722 0.820947 0.976646
O O8 0.808444 0.308070 0.904600
O O9 0.718472 0.500000 0.000000
O O10 0.500000 0.000000 0.346966
#
# Coordination Sequence:
#
# PCOD8164349 Si02
#       4
#     8   8   8   8
#     4  12  24  48  72 100 141 184 240 287 348 424
#     4  11  22  41  74 107 131 178 243 294 331 411
#     4  11  21  43  69  98 137 178 235 284 346 407
#     4  12  27  43  69 105 144 187 226 292 360 417
#
# _framework density 21.844031000000001
#
# number of rings (size 3 to 8) (size 9 to 14) (size 15 to 20)
#    0.000    0.500    5.000    5.250    3.500    0.500 
#    0.000    0.000    0.000    0.000    0.000    0.000 
#    0.000    0.000    0.000    0.000    0.000    0.000 
#
# Total GULP energy -198258.535798 kJ/mol
# GULP energy per Si atom -12391.158487 kJ/mol
# Density = 2.179431 g / cm^3
# Si number density = 21.844031 Si / 1000 Ang^3
#
#
#
# Elastic Constant Matrix: (Units=GPa)
#
#
# Indices 1 2 3 4 5 6 
#
# 1 89.9188 18.3835 36.5499 0.0000 0.0000 0.0000
# 2 18.3835 95.9030 45.4360 0.0000 0.0000 0.0000
# 3 36.5499 45.4360 140.6882 0.0000 0.0000 0.0000
# 4 0.0000 0.0000 0.0000 35.5884 0.0000 0.0000
# 5 0.0000 0.0000 0.0000 0.0000 27.4933 0.0000
# 6 0.0000 0.0000 0.0000 0.0000 0.0000 19.2609
#
#
#
# Elastic Compliance Matrix: (Units=1/GPa)
#
#
# Indices 1 2 3 4 5 6 
#
# 1 0.012517 -0.001014 -0.002924 0.000000 0.000000 0.000000
# 2 -0.001014 0.012393 -0.003739 0.000000 0.000000 0.000000
# 3 -0.002924 -0.003739 0.009075 0.000000 0.000000 0.000000
# 4 0.000000 0.000000 0.000000 0.028099 0.000000 0.000000
# 5 0.000000 0.000000 0.000000 0.000000 0.036373 0.000000
# 6 0.000000 0.000000 0.000000 0.000000 0.000000 0.051919
#
#
# Mechanical properties :
#
#
# Convention : Reuss Voigt Hill
#
# Bulk Modulus (GPa) = 53.67481 58.58321 56.12901
# Shear Modulus (GPa) = 29.07984 31.54454 30.31219
#
# Velocity S-wave (km/s) = 3.65259 3.80423 3.72918
# Velocity P-wave (km/s) = 6.51258 6.79509 6.65534
#
# Compressibility (1/GPa) = 0.01863071
#
# Stress axis : x y z
#
# Youngs Moduli (GPa) = 79.89041 80.69092 110.19058
#
# Poissons Ratio (x) = 0.08181 0.32224
# Poissons Ratio (y) = 0.08100 0.41200
# Poissons Ratio (z) = 0.23363 0.30170
#
# Static dielectric constant tensor:
#      x y z
#    x 3.916770 0.000000 0.000000 
#    y 0.000000 3.946990 0.000000 
#    z 0.000000 0.000000 4.410370 
# 
# 
# High freq. dielectric constant tensor:
#      x y z
#    x 1.823900 0.000000 0.000000 
#    y 0.000000 1.863600 0.000000 
#    z 0.000000 0.000000 1.879170 
# 
# From -- ./inp_files/25934.got.cif
#   From: 2010.03.12/outbox.cif.g09.slc.cpg/sg23_13_cif.got.tgz:25934.got - 2010.04.14 02:50:06.
