data_PCOD8164390
_publ_section_title
;
Structure prediction by ZEFSAII (Michael W. Deem and Ramdas Pophale) SiO2 
 PCOD8164390
Probable space group: I 2 2 2
;
_chemical_formula_sum "Si O2"
_cell_formula_units_Z 56
_cell_length_a 15.702449
_cell_length_b 8.563926
_cell_length_c 20.175953
_cell_angle_alpha 90.000000
_cell_angle_beta 90.000000
_cell_angle_gamma 90.000000
_cell_volume 2713.153436
_symmetry_space_group_name_H-M "I 2 2 2"
_symmetry_group_IT_number 23
_symmetry_cell_setting 'orthorhombic'
loop_
_space_group_symop_operation_xyz
x,y,z
-x,-y,z
x,-y,-z
-x,y,-z
1/2+x,1/2+y,1/2+z
1/2-x,1/2-y,1/2+z
1/2+x,1/2-y,1/2-z
1/2-x,1/2+y,1/2-z
loop_
_atom_site_type_symbol
_atom_site_label
_atom_site_fract_x
_atom_site_fract_y
_atom_site_fract_z
Si Si1 0.909860 0.574558 0.293111
Si Si2 0.590952 0.569526 0.753697
Si Si3 0.262006 0.942147 0.307568
Si Si4 0.904906 0.186169 0.995109
Si Si5 0.327855 0.929656 0.070584
Si Si6 0.682844 0.361543 0.369540
Si Si7 0.233044 0.623289 0.058613
O O1 0.911497 0.757402 0.281555
O O2 0.829819 0.508359 0.249863
O O3 0.896790 0.541063 0.371518
O O4 0.000000 0.500000 0.270697
O O5 0.500000 0.500000 0.770757
O O6 0.665023 0.470541 0.787950
O O7 0.610072 0.557379 0.675140
O O8 0.282274 0.040681 0.372205
O O9 0.265329 0.757285 0.322683
O O10 0.865879 0.239419 0.924903
O O11 0.852269 0.275303 0.050771
O O12 0.000000 0.248234 0.000000
O O13 0.898845 0.000000 0.000000
O O14 0.312163 0.744467 0.060981
O O15 0.241126 0.012467 0.093868
O O16 0.359239 0.000000 0.000000
O O17 0.250913 0.500000 0.000000
#
# Coordination Sequence:
#
# PCOD8164390 Si02
#       7
#     8   8   8   8   8   8   8
#     4  11  27  45  67 102 136 177 233 279 336 404
#     4  11  26  42  69 102 133 177 223 282 343 402
#     4  11  24  44  70  97 134 177 224 279 338 397
#     4  11  23  38  59  95 134 168 217 268 327 411
#     4  12  22  42  72  94 129 178 228 271 340 395
#     4  11  22  42  64  98 131 179 218 268 336 407
#     4  12  22  41  67  99 130 175 222 274 338 407
#
# _framework density 20.640188999999999
#
# number of rings (size 3 to 8) (size 9 to 14) (size 15 to 20)
#    0.000    0.714    7.143    0.000    4.000    4.000 
#    0.000    0.000    0.000    0.429    0.000    0.000 
#    0.000    0.000    0.000    0.000    0.000    0.000 
#
# Total GULP energy -347144.923588 kJ/mol
# GULP energy per Si atom -12398.032985 kJ/mol
# Density = 2.059321 g / cm^3
# Si number density = 20.640189 Si / 1000 Ang^3
#
#
#
# Elastic Constant Matrix: (Units=GPa)
#
#
# Indices 1 2 3 4 5 6 
#
# 1 137.6863 34.5771 46.5996 0.0000 0.0000 0.0000
# 2 34.5771 79.6543 32.8425 0.0000 0.0000 0.0000
# 3 46.5996 32.8425 136.9884 0.0000 0.0000 0.0000
# 4 0.0000 0.0000 0.0000 25.8597 0.0000 0.0000
# 5 0.0000 0.0000 0.0000 0.0000 13.5859 0.0000
# 6 0.0000 0.0000 0.0000 0.0000 0.0000 26.9242
#
#
#
# Elastic Compliance Matrix: (Units=1/GPa)
#
#
# Indices 1 2 3 4 5 6 
#
# 1 0.008756 -0.002855 -0.002294 0.000000 0.000000 0.000000
# 2 -0.002855 0.014862 -0.002592 0.000000 0.000000 0.000000
# 3 -0.002294 -0.002592 0.008702 0.000000 0.000000 0.000000
# 4 0.000000 0.000000 0.000000 0.038670 0.000000 0.000000
# 5 0.000000 0.000000 0.000000 0.000000 0.073606 0.000000
# 6 0.000000 0.000000 0.000000 0.000000 0.000000 0.037141
#
#
# Mechanical properties :
#
#
# Convention : Reuss Voigt Hill
#
# Bulk Modulus (GPa) = 59.38983 64.70749 62.04866
# Shear Modulus (GPa) = 24.65087 29.29461 26.97274
#
# Velocity S-wave (km/s) = 3.45963 3.77145 3.61890
# Velocity P-wave (km/s) = 6.69291 7.09812 6.89850
#
# Compressibility (1/GPa) = 0.01683790
#
# Stress axis : x y z
#
# Youngs Moduli (GPa) = 114.20281 67.28415 114.91993
#
# Poissons Ratio (x) = 0.19211 0.26364
# Poissons Ratio (y) = 0.32606 0.29787
# Poissons Ratio (z) = 0.26200 0.17440
#
# Static dielectric constant tensor:
#      x y z
#    x 3.778380 0.000000 0.000000 
#    y 0.000000 3.761260 0.000000 
#    z 0.000000 0.000000 4.043980 
# 
# 
# High freq. dielectric constant tensor:
#      x y z
#    x 1.790700 0.000000 0.000000 
#    y 0.000000 1.812320 0.000000 
#    z 0.000000 0.000000 1.823580 
# 
# From -- ./inp_files/26977.got.cif
#   From: 2010.03.12/outbox.cif.g09.slc.cpg/sg23_14_cif.got.tgz:26977.got - 2010.04.14 02:50:06.
