data_PCOD8164183
_publ_section_title
;
Structure prediction by ZEFSAII (Michael W. Deem and Ramdas Pophale) SiO2 
 PCOD8164183
Probable space group: I 2 2 2
;
_chemical_formula_sum "Si O2"
_cell_formula_units_Z 64
_cell_length_a 8.622214
_cell_length_b 14.606438
_cell_length_c 23.934856
_cell_angle_alpha 90.000000
_cell_angle_beta 90.000000
_cell_angle_gamma 90.000000
_cell_volume 3014.351797
_symmetry_space_group_name_H-M "I 2 2 2"
_symmetry_group_IT_number 23
_symmetry_cell_setting 'orthorhombic'
loop_
_space_group_symop_operation_xyz
x,y,z
-x,-y,z
x,-y,-z
-x,y,-z
1/2+x,1/2+y,1/2+z
1/2-x,1/2-y,1/2+z
1/2+x,1/2-y,1/2-z
1/2-x,1/2+y,1/2-z
loop_
_atom_site_type_symbol
_atom_site_label
_atom_site_fract_x
_atom_site_fract_y
_atom_site_fract_z
Si Si1 0.607838 0.094387 0.555422
Si Si2 0.225833 0.269307 0.414504
Si Si3 0.636107 0.771590 0.108028
Si Si4 0.767812 0.834792 0.220751
Si Si5 0.620649 0.300587 0.699866
Si Si6 0.187504 0.582679 0.887235
Si Si7 0.325798 0.524078 0.771410
Si Si8 0.182147 0.398428 0.508813
O O1 0.500000 0.094744 0.500000
O O2 0.734404 0.172824 0.557020
O O3 0.493450 0.112314 0.609075
O O4 0.699799 0.997891 0.565183
O O5 0.332927 0.303417 0.364394
O O6 0.267055 0.342274 0.461278
O O7 0.046454 0.264253 0.399660
O O8 0.655768 0.807782 0.170467
O O9 0.705615 0.670080 0.098184
O O10 0.715225 0.848005 0.067913
O O11 0.702883 0.789126 0.276425
O O12 0.936284 0.795921 0.205487
O O13 0.761709 0.942601 0.232771
O O14 0.685390 0.387842 0.732599
O O15 0.224852 0.541580 0.826509
O O16 0.500000 0.500000 0.791079
O O17 0.250845 0.500000 0.500000
O O18 0.000000 0.399798 0.500000
#
# Coordination Sequence:
#
# PCOD8164183 Si02
#       8
#     8   8   8   8   8   8   8   8
#     4  11  25  44  68  98 138 179 225 279 344 418
#     4  11  24  41  68 101 132 173 226 280 343 402
#     4  11  23  41  69  98 130 177 225 284 340 406
#     4  11  23  43  65  95 137 178 226 277 338 404
#     4  11  23  41  64  97 134 180 223 276 335 408
#     4  11  22  41  67  95 131 180 221 272 342 401
#     4  10  24  41  64  93 136 179 223 281 339 405
#     4   9  21  42  65  90 129 169 215 270 332 395
#
# _framework density 21.231760999999999
#
# number of rings (size 3 to 8) (size 9 to 14) (size 15 to 20)
#    0.000    1.375    1.250    3.750    5.250    1.000 
#    4.500    0.000    2.750    1.500    0.000    0.000 
#    0.000    0.000    0.000    0.000    0.000    0.000 
#
# Total GULP energy -396665.046247 kJ/mol
# GULP energy per Si atom -12395.782695 kJ/mol
# Density = 2.118344 g / cm^3
# Si number density = 21.231761 Si / 1000 Ang^3
#
#
#
# Elastic Constant Matrix: (Units=GPa)
#
#
# Indices 1 2 3 4 5 6 
#
# 1 62.7818 45.0944 23.6883 0.0000 0.0000 0.0000
# 2 45.0944 127.7380 43.3967 0.0000 0.0000 0.0000
# 3 23.6883 43.3967 103.5641 0.0000 0.0000 0.0000
# 4 0.0000 0.0000 0.0000 36.0196 0.0000 0.0000
# 5 0.0000 0.0000 0.0000 0.0000 32.3307 0.0000
# 6 0.0000 0.0000 0.0000 0.0000 0.0000 31.4796
#
#
#
# Elastic Compliance Matrix: (Units=1/GPa)
#
#
# Indices 1 2 3 4 5 6 
#
# 1 0.021704 -0.006967 -0.002045 0.000000 0.000000 0.000000
# 2 -0.006967 0.011365 -0.003168 0.000000 0.000000 0.000000
# 3 -0.002045 -0.003168 0.011451 0.000000 0.000000 0.000000
# 4 0.000000 0.000000 0.000000 0.027763 0.000000 0.000000
# 5 0.000000 0.000000 0.000000 0.000000 0.030930 0.000000
# 6 0.000000 0.000000 0.000000 0.000000 0.000000 0.031767
#
#
# Mechanical properties :
#
#
# Convention : Reuss Voigt Hill
#
# Bulk Modulus (GPa) = 49.60649 57.60473 53.60561
# Shear Modulus (GPa) = 30.10948 32.09295 31.10121
#
# Velocity S-wave (km/s) = 3.76990 3.89209 3.83148
# Velocity P-wave (km/s) = 6.50880 6.88390 6.69898
#
# Compressibility (1/GPa) = 0.02015865
#
# Stress axis : x y z
#
# Youngs Moduli (GPa) = 46.07401 87.99258 87.32657
#
# Poissons Ratio (x) = 0.61308 0.17857
# Poissons Ratio (y) = 0.32101 0.27669
# Poissons Ratio (z) = 0.09422 0.27880
#
# Static dielectric constant tensor:
#      x y z
#    x 3.778330 0.000000 0.000000 
#    y 0.000000 4.205110 0.000000 
#    z 0.000000 0.000000 4.026250 
# 
# 
# High freq. dielectric constant tensor:
#      x y z
#    x 1.821370 0.000000 0.000000 
#    y 0.000000 1.850920 0.000000 
#    z 0.000000 0.000000 1.842070 
# 
# From -- ./inp_files/28096.got.cif
#   From: 2010.03.12/outbox.cif.g09.slc.cpg/sg23_15_cif.got.tgz:28096.got - 2010.04.14 02:50:06.
