data_PCOD8164033
_publ_section_title
;
Structure prediction by ZEFSAII (Michael W. Deem and Ramdas Pophale) SiO2 
 PCOD8164033
Probable space group: I 2 2 2
;
_chemical_formula_sum "Si O2"
_cell_formula_units_Z 34
_cell_length_a 12.197536
_cell_length_b 12.534464
_cell_length_c 10.239015
_cell_angle_alpha 90.000000
_cell_angle_beta 90.000000
_cell_angle_gamma 90.000000
_cell_volume 1565.438661
_symmetry_space_group_name_H-M "I 2 2 2"
_symmetry_group_IT_number 23
_symmetry_cell_setting 'orthorhombic'
loop_
_space_group_symop_operation_xyz
x,y,z
-x,-y,z
x,-y,-z
-x,y,-z
1/2+x,1/2+y,1/2+z
1/2-x,1/2-y,1/2+z
1/2+x,1/2-y,1/2-z
1/2-x,1/2+y,1/2-z
loop_
_atom_site_type_symbol
_atom_site_label
_atom_site_fract_x
_atom_site_fract_y
_atom_site_fract_z
Si Si1 0.080016 0.242543 0.119813
Si Si2 0.000000 0.500000 0.500000
Si Si3 0.691434 0.354086 0.907872
Si Si4 0.412393 0.156020 0.205691
Si Si5 0.688566 0.580747 0.808003
O O1 0.190202 0.299542 0.072703
O O2 0.110142 0.133374 0.198112
O O3 0.022123 0.333202 0.208619
O O4 0.000000 0.210743 0.000000
O O5 0.922181 0.571657 0.589334
O O6 0.604441 0.272506 0.852259
O O7 0.691216 0.451933 0.804085
O O8 0.646512 0.386884 0.049123
O O9 0.312212 0.121859 0.295756
#
# Coordination Sequence:
#
# PCOD8164033 Si02
#       5
#     8   2   8   8   8
#     4  11  22  42  69 100 137 178 228 281 340 415
#     4  12  24  40  66  98 122 176 224 290 336 414
#     4  10  22  42  67  95 137 174 225 282 339 403
#     4  11  23  41  64  96 130 174 226 279 337 411
#     4  10  22  41  66  96 131 181 220 280 340 397
#
# _framework density 21.719154
#
# number of rings (size 3 to 8) (size 9 to 14) (size 15 to 20)
#    0.000    1.412    2.353    2.824    0.000    2.824 
#    0.000    3.529    0.000    0.000    0.000    0.000 
#    0.000    0.000    0.000    0.000    0.000    0.000 
#
# Total GULP energy -210801.390613 kJ/mol
# GULP energy per Si atom -12400.081801 kJ/mol
# Density = 2.166972 g / cm^3
# Si number density = 21.719154 Si / 1000 Ang^3
#
#
#
# Elastic Constant Matrix: (Units=GPa)
#
#
# Indices 1 2 3 4 5 6 
#
# 1 65.3359 21.1710 27.5535 0.0000 0.0000 0.0000
# 2 21.1710 146.6000 53.5697 0.0000 0.0000 0.0000
# 3 27.5535 53.5697 108.0860 0.0000 0.0000 0.0000
# 4 0.0000 0.0000 0.0000 47.1143 0.0000 0.0000
# 5 0.0000 0.0000 0.0000 0.0000 32.3975 0.0000
# 6 0.0000 0.0000 0.0000 0.0000 0.0000 26.1169
#
#
#
# Elastic Compliance Matrix: (Units=1/GPa)
#
#
# Indices 1 2 3 4 5 6 
#
# 1 0.017289 -0.001082 -0.003871 0.000000 0.000000 0.000000
# 2 -0.001082 0.008398 -0.003886 0.000000 0.000000 0.000000
# 3 -0.003871 -0.003886 0.012165 0.000000 0.000000 0.000000
# 4 0.000000 0.000000 0.000000 0.021225 0.000000 0.000000
# 5 0.000000 0.000000 0.000000 0.000000 0.030867 0.000000
# 6 0.000000 0.000000 0.000000 0.000000 0.000000 0.038289
#
#
# Mechanical properties :
#
#
# Convention : Reuss Voigt Hill
#
# Bulk Modulus (GPa) = 49.57254 58.29003 53.93128
# Shear Modulus (GPa) = 32.75795 35.64090 34.19943
#
# Velocity S-wave (km/s) = 3.88783 4.05531 3.97245
# Velocity P-wave (km/s) = 6.55954 6.98740 6.77685
#
# Compressibility (1/GPa) = 0.02017246
#
# Stress axis : x y z
#
# Youngs Moduli (GPa) = 57.84145 119.08119 82.20488
#
# Poissons Ratio (x) = 0.12887 0.31820
# Poissons Ratio (y) = 0.06260 0.31946
# Poissons Ratio (z) = 0.22390 0.46277
#
# Static dielectric constant tensor:
#      x y z
#    x 3.765190 0.000000 0.000000 
#    y 0.000000 3.994250 0.000000 
#    z 0.000000 0.000000 3.888520 
# 
# 
# High freq. dielectric constant tensor:
#      x y z
#    x 1.855380 0.000000 0.000000 
#    y 0.000000 1.858190 0.000000 
#    z 0.000000 0.000000 1.855900 
# 
# From -- ./inp_files/9312.got.cif
#   From: 2010.03.12/outbox.cif.g09.slc.cpg/sg23_5_cif.got.tgz:9312.got - 2010.04.14 02:50:06.
