data_PCOD8164194
_publ_section_title
;
Structure prediction by ZEFSAII (Michael W. Deem and Ramdas Pophale) SiO2 
 PCOD8164194
Probable space group: I 2 2 2
;
_chemical_formula_sum "Si O2"
_cell_formula_units_Z 60
_cell_length_a 5.129539
_cell_length_b 20.813749
_cell_length_c 25.630345
_cell_angle_alpha 90.000000
_cell_angle_beta 90.000000
_cell_angle_gamma 90.000000
_cell_volume 2736.422175
_symmetry_space_group_name_H-M "I 2 2 2"
_symmetry_group_IT_number 23
_symmetry_cell_setting 'orthorhombic'
loop_
_space_group_symop_operation_xyz
x,y,z
-x,-y,z
x,-y,-z
-x,y,-z
1/2+x,1/2+y,1/2+z
1/2-x,1/2-y,1/2+z
1/2+x,1/2-y,1/2-z
1/2-x,1/2+y,1/2-z
loop_
_atom_site_type_symbol
_atom_site_label
_atom_site_fract_x
_atom_site_fract_y
_atom_site_fract_z
Si Si1 0.967103 0.635754 0.397190
Si Si2 0.963068 0.927681 0.060881
Si Si3 0.011739 0.232812 0.218072
Si Si4 0.696999 0.109954 0.211987
Si Si5 0.996464 0.776860 0.437959
Si Si6 0.495627 0.819964 0.382750
Si Si7 0.500000 0.500000 0.253269
Si Si8 0.394282 0.928683 0.692333
O O1 0.668407 0.618958 0.410968
O O2 0.000870 0.625720 0.335060
O O3 0.166449 0.589523 0.426393
O O4 0.041503 0.707333 0.413089
O O5 0.000000 0.000000 0.080183
O O6 0.000000 0.919939 0.000000
O O7 0.794323 0.265119 0.255305
O O8 0.939928 0.158513 0.209414
O O9 0.015202 0.267114 0.162425
O O10 0.550462 0.116565 0.267118
O O11 0.791846 0.035156 0.209118
O O12 0.219707 0.823090 0.413323
O O13 0.000000 0.773428 0.500000
O O14 0.711985 0.801947 0.424564
O O15 0.587590 0.889777 0.361428
O O16 0.607740 0.441909 0.216357
O O17 0.500000 0.000000 0.683269
#
# Coordination Sequence:
#
# PCOD8164194 Si02
#       8
#     8   8   8   8   8   8   4   8
#     4  12  26  42  68  95 134 180 228 283 358 406
#     4  11  25  44  64  87 121 175 241 299 344 400
#     4  12  24  40  68 102 144 179 227 282 332 425
#     4  11  25  39  63 101 138 184 227 271 340 412
#     4  12  27  47  72 103 137 180 241 308 360 418
#     4  12  25  45  74 103 140 188 230 286 368 419
#     4  10  24  42  66  96 154 186 228 276 332 418
#     4  10  24  43  70 104 144 185 227 274 340 435
#
# _framework density 21.926441000000001
#
# number of rings (size 3 to 8) (size 9 to 14) (size 15 to 20)
#    0.000    0.667    2.667    4.400    6.533    3.200 
#    0.000    0.000    0.000    2.400    0.000    0.000 
#    0.000    0.000    0.000    0.000    0.000    0.000 
#
# Total GULP energy -372020.738520 kJ/mol
# GULP energy per Si atom -12400.691284 kJ/mol
# Density = 2.187654 g / cm^3
# Si number density = 21.926441 Si / 1000 Ang^3
#
#
#
# Elastic Constant Matrix: (Units=GPa)
#
#
# Indices 1 2 3 4 5 6 
#
# 1 70.9276 8.2905 29.9439 0.0000 0.0000 0.0000
# 2 8.2905 87.1576 48.9347 0.0000 0.0000 0.0000
# 3 29.9439 48.9347 115.9501 0.0000 0.0000 0.0000
# 4 0.0000 0.0000 0.0000 20.6391 0.0000 0.0000
# 5 0.0000 0.0000 0.0000 0.0000 31.1828 0.0000
# 6 0.0000 0.0000 0.0000 0.0000 0.0000 28.6598
#
#
#
# Elastic Compliance Matrix: (Units=1/GPa)
#
#
# Indices 1 2 3 4 5 6 
#
# 1 0.015896 0.001039 -0.004543 0.000000 0.000000 0.000000
# 2 0.001039 0.015104 -0.006643 0.000000 0.000000 0.000000
# 3 -0.004543 -0.006643 0.012601 0.000000 0.000000 0.000000
# 4 0.000000 0.000000 0.000000 0.048452 0.000000 0.000000
# 5 0.000000 0.000000 0.000000 0.000000 0.032069 0.000000
# 6 0.000000 0.000000 0.000000 0.000000 0.000000 0.034892
#
#
# Mechanical properties :
#
#
# Convention : Reuss Voigt Hill
#
# Bulk Modulus (GPa) = 42.90665 49.81928 46.36297
# Shear Modulus (GPa) = 26.72692 28.55408 27.64050
#
# Velocity S-wave (km/s) = 3.49511 3.61261 3.55435
# Velocity P-wave (km/s) = 5.99155 6.33811 6.16727
#
# Compressibility (1/GPa) = 0.02330641
#
# Stress axis : x y z
#
# Youngs Moduli (GPa) = 62.91051 66.20659 79.35742
#
# Poissons Ratio (x) = -0.06879 0.36056
# Poissons Ratio (y) = -0.06536 0.52715
# Poissons Ratio (z) = 0.28583 0.43980
#
# Static dielectric constant tensor:
#      x y z
#    x 4.215040 0.000000 0.000000 
#    y 0.000000 4.033990 0.000000 
#    z 0.000000 0.000000 3.916030 
# 
# 
# High freq. dielectric constant tensor:
#      x y z
#    x 1.875610 0.000000 0.000000 
#    y 0.000000 1.864090 0.000000 
#    z 0.000000 0.000000 1.852550 
# 
# From -- ./inp_files/27717.got.cif
#   From: 2010.03.12/outbox.cif.g09.slc.cpg/sg23_14_cif.got.tgz:27717.got - 2010.04.14 02:50:06.
