data_PCOD8164119
_publ_section_title
;
Structure prediction by ZEFSAII (Michael W. Deem and Ramdas Pophale) SiO2 
 PCOD8164119
Probable space group: I 2 2 2
;
_chemical_formula_sum "Si O2"
_cell_formula_units_Z 38
_cell_length_a 9.397877
_cell_length_b 10.776959
_cell_length_c 18.585899
_cell_angle_alpha 90.000000
_cell_angle_beta 90.000000
_cell_angle_gamma 90.000000
_cell_volume 1882.389796
_symmetry_space_group_name_H-M "I 2 2 2"
_symmetry_group_IT_number 23
_symmetry_cell_setting 'orthorhombic'
loop_
_space_group_symop_operation_xyz
x,y,z
-x,-y,z
x,-y,-z
-x,y,-z
1/2+x,1/2+y,1/2+z
1/2-x,1/2-y,1/2+z
1/2+x,1/2-y,1/2-z
1/2-x,1/2+y,1/2-z
loop_
_atom_site_type_symbol
_atom_site_label
_atom_site_fract_x
_atom_site_fract_y
_atom_site_fract_z
Si Si1 0.000000 0.500000 0.500000
Si Si2 0.101669 0.748613 0.062548
Si Si3 0.725225 0.180858 0.317382
Si Si4 0.500000 0.000000 0.635014
Si Si5 0.971000 0.859854 0.793327
Si Si6 0.360588 0.237731 0.033188
O O1 0.099374 0.408127 0.548704
O O2 0.055097 0.611075 0.085588
O O3 0.095804 0.844754 0.128050
O O4 0.260392 0.749340 0.035347
O O5 0.000000 0.799286 0.000000
O O6 0.619756 0.287526 0.289768
O O7 0.787297 0.202283 0.397474
O O8 0.858324 0.186961 0.264919
O O9 0.632793 0.052458 0.317218
O O10 0.000000 0.000000 0.774399
O O11 0.500000 0.307556 0.000000
#
# Coordination Sequence:
#
# PCOD8164119 Si02
#       6
#     2   8   8   4   8   8
#     4   8  24  40  64  96 144 164 212 300 330 398
#     4  11  22  44  70  98 132 179 230 282 348 406
#     4  11  26  47  66 103 135 190 231 287 354 411
#     4  10  23  44  71  95 144 175 234 290 347 409
#     4  11  28  43  69  99 138 181 236 281 347 421
#     4  10  23  41  67 100 134 177 226 279 349 403
#
# _framework density 20.187104000000001
#
# number of rings (size 3 to 8) (size 9 to 14) (size 15 to 20)
#    0.632    0.842    4.211    0.316   11.789    0.421 
#    0.000    2.105    0.000    0.000    0.000    0.000 
#    0.000    0.000    0.000    0.000    0.000    0.000 
#
# Total GULP energy -235428.867070 kJ/mol
# GULP energy per Si atom -12390.993004 kJ/mol
# Density = 2.014116 g / cm^3
# Si number density = 20.187104 Si / 1000 Ang^3
#
#
#
# Elastic Constant Matrix: (Units=GPa)
#
#
# Indices 1 2 3 4 5 6 
#
# 1 159.3818 36.6257 58.4985 0.0000 0.0000 0.0000
# 2 36.6257 60.2904 29.8481 0.0000 0.0000 0.0000
# 3 58.4985 29.8481 96.6379 0.0000 0.0000 0.0000
# 4 0.0000 0.0000 0.0000 34.1899 0.0000 0.0000
# 5 0.0000 0.0000 0.0000 0.0000 51.1434 0.0000
# 6 0.0000 0.0000 0.0000 0.0000 0.0000 39.2836
#
#
#
# Elastic Compliance Matrix: (Units=1/GPa)
#
#
# Indices 1 2 3 4 5 6 
#
# 1 0.008530 -0.003100 -0.004206 0.000000 0.000000 0.000000
# 2 -0.003100 0.020707 -0.004519 0.000000 0.000000 0.000000
# 3 -0.004206 -0.004519 0.014290 0.000000 0.000000 0.000000
# 4 0.000000 0.000000 0.000000 0.029248 0.000000 0.000000
# 5 0.000000 0.000000 0.000000 0.000000 0.019553 0.000000
# 6 0.000000 0.000000 0.000000 0.000000 0.000000 0.025456
#
#
# Mechanical properties :
#
#
# Convention : Reuss Voigt Hill
#
# Bulk Modulus (GPa) = 50.31051 62.91718 56.61384
# Shear Modulus (GPa) = 33.76996 37.67924 35.72460
#
# Velocity S-wave (km/s) = 4.09448 4.32499 4.21131
# Velocity P-wave (km/s) = 6.87963 7.49502 7.19391
#
# Compressibility (1/GPa) = 0.01987656
#
# Stress axis : x y z
#
# Youngs Moduli (GPa) = 117.22739 48.29346 69.97883
#
# Poissons Ratio (x) = 0.14969 0.29436
# Poissons Ratio (y) = 0.36336 0.31625
# Poissons Ratio (z) = 0.49311 0.21825
#
# Static dielectric constant tensor:
#      x y z
#    x 3.963780 0.000000 0.000000 
#    y 0.000000 3.573270 0.000000 
#    z 0.000000 0.000000 3.575590 
# 
# 
# High freq. dielectric constant tensor:
#      x y z
#    x 1.811990 0.000000 0.000000 
#    y 0.000000 1.778300 0.000000 
#    z 0.000000 0.000000 1.780470 
# 
# From -- ./inp_files/23577.got.cif
#   From: 2010.03.12/outbox.cif.g09.slc.cpg/sg23_12_cif.got.tgz:23577.got - 2010.04.14 02:50:06.
