data_PCOD8164944
_publ_section_title
;
Structure prediction by ZEFSAII (Michael W. Deem and Ramdas Pophale) SiO2 
 PCOD8164944
Probable space group: I 21 21 21
;
_chemical_formula_sum "Si O2"
_cell_formula_units_Z 64
_cell_length_a 22.379019
_cell_length_b 17.126212
_cell_length_c 8.945317
_cell_angle_alpha 90.000000
_cell_angle_beta 90.000000
_cell_angle_gamma 90.000000
_cell_volume 3428.452179
_symmetry_space_group_name_H-M "I 21 21 21"
_symmetry_group_IT_number 24
_symmetry_cell_setting 'orthorhombic'
loop_
_space_group_symop_operation_xyz
x,y,z
-x,1/2-y,z
x,-y,1/2-z
1/2-x,y,-z
1/2+x,1/2+y,1/2+z
1/2-x,-y,1/2+z
1/2+x,1/2-y,-z
-x,1/2+y,1/2-z
loop_
_atom_site_type_symbol
_atom_site_label
_atom_site_fract_x
_atom_site_fract_y
_atom_site_fract_z
Si Si1 0.216207 0.924941 0.155864
Si Si2 0.618402 0.199782 0.654420
Si Si3 0.041245 0.178464 0.651237
Si Si4 0.368432 0.302645 0.310230
Si Si5 0.466900 0.580138 0.684770
Si Si6 0.045798 0.418241 0.834095
Si Si7 0.243101 0.754930 0.177130
Si Si8 0.082256 0.876787 0.144294
O O1 0.236371 0.844048 0.237739
O O2 0.144012 0.924655 0.140750
O O3 0.235999 0.000000 0.250000
O O4 0.250000 0.933584 0.000000
O O5 0.621328 0.170981 0.482462
O O6 0.575988 0.147056 0.754028
O O7 0.685833 0.202121 0.719668
O O8 0.592591 0.285850 0.668784
O O9 0.102003 0.217107 0.713100
O O10 0.051634 0.116000 0.518868
O O11 0.000000 0.250000 0.592236
O O12 0.011447 0.131544 0.785047
O O13 0.394619 0.369338 0.203858
O O14 0.300176 0.290687 0.259226
O O15 0.442068 0.500000 0.750000
O O16 0.460949 0.572027 0.508890
O O17 0.536419 0.591917 0.730482
O O18 0.049144 0.500000 0.750000
O O19 0.250000 0.763648 0.000000
#
# Coordination Sequence:
#
# PCOD8164944 Si02
#       8
#     8   8   8   8   8   8   8   8
#     4  10  20  36  55  80 112 146 181 219 264 313
#     4   9  18  34  59  82 105 140 178 220 268 323
#     4   9  17  32  55  81 108 139 176 218 268 322
#     4   9  17  35  58  80 106 139 181 221 266 325
#     4  12  23  36  53  77 110 141 178 225 274 326
#     4  11  23  36  52  77 110 144 178 225 278 323
#     4   8  16  34  59  80 102 140 183 218 261 322
#     4  10  19  35  58  81 108 143 181 218 266 324
#
# _framework density 18.667316
#
# number of rings (size 3 to 8) (size 9 to 14) (size 15 to 20)
#    0.000    2.250    0.000    6.750    0.000    3.000 
#    0.000   11.250    0.000    0.000    0.000    0.000 
#    0.000    0.000    0.000    0.000    0.000    0.000 
#
# Total GULP energy -396670.034824 kJ/mol
# GULP energy per Si atom -12395.938588 kJ/mol
# Density = 1.862483 g / cm^3
# Si number density = 18.667316 Si / 1000 Ang^3
#
#
#
# Elastic Constant Matrix: (Units=GPa)
#
#
# Indices 1 2 3 4 5 6 
#
# 1 135.7434 41.0602 51.6266 0.0000 0.0000 0.0000
# 2 41.0602 72.1122 49.0680 0.0000 0.0000 0.0000
# 3 51.6266 49.0680 108.5655 0.0000 0.0000 0.0000
# 4 0.0000 0.0000 0.0000 30.0984 0.0000 0.0000
# 5 0.0000 0.0000 0.0000 0.0000 15.0788 0.0000
# 6 0.0000 0.0000 0.0000 0.0000 0.0000 17.8909
#
#
#
# Elastic Compliance Matrix: (Units=1/GPa)
#
#
# Indices 1 2 3 4 5 6 
#
# 1 0.009533 -0.003384 -0.003004 0.000000 0.000000 0.000000
# 2 -0.003384 0.021227 -0.007985 0.000000 0.000000 0.000000
# 3 -0.003004 -0.007985 0.014248 0.000000 0.000000 0.000000
# 4 0.000000 0.000000 0.000000 0.033224 0.000000 0.000000
# 5 0.000000 0.000000 0.000000 0.000000 0.066318 0.000000
# 6 0.000000 0.000000 0.000000 0.000000 0.000000 0.055894
#
#
# Mechanical properties :
#
#
# Convention : Reuss Voigt Hill
#
# Bulk Modulus (GPa) = 61.48833 66.65896 64.07365
# Shear Modulus (GPa) = 21.31182 24.25804 22.78493
#
# Velocity S-wave (km/s) = 3.38252 3.60876 3.49747
# Velocity P-wave (km/s) = 6.94736 7.29045 7.12097
#
# Compressibility (1/GPa) = 0.01626325
#
# Stress axis : x y z
#
# Youngs Moduli (GPa) = 104.90033 47.10909 70.18402
#
# Poissons Ratio (x) = 0.15942 0.21081
# Poissons Ratio (y) = 0.35499 0.56041
# Poissons Ratio (z) = 0.31509 0.37616
#
# Static dielectric constant tensor:
#      x y z
#    x 3.822320 0.000000 0.000000 
#    y 0.000000 3.434560 0.000000 
#    z 0.000000 0.000000 3.185680 
# 
# 
# High freq. dielectric constant tensor:
#      x y z
#    x 1.735760 0.000000 0.000000 
#    y 0.000000 1.721360 0.000000 
#    z 0.000000 0.000000 1.696570 
# 
# From -- ./inp_files/16044.got.cif
#   From: 2010.03.12/outbox.cif.g09.slc.cpg/sg24_9_cif.got.tgz:16044.got - 2010.04.14 03:06:53.
