data_PCOD8164130
_publ_section_title
;
Structure prediction by ZEFSAII (Michael W. Deem and Ramdas Pophale) SiO2 
 PCOD8164130
Probable space group: I 2 2 2
;
_chemical_formula_sum "Si O2"
_cell_formula_units_Z 58
_cell_length_a 9.134701
_cell_length_b 29.712897
_cell_length_c 10.598956
_cell_angle_alpha 90.000000
_cell_angle_beta 90.000000
_cell_angle_gamma 90.000000
_cell_volume 2876.751997
_symmetry_space_group_name_H-M "I 2 2 2"
_symmetry_group_IT_number 23
_symmetry_cell_setting 'orthorhombic'
loop_
_space_group_symop_operation_xyz
x,y,z
-x,-y,z
x,-y,-z
-x,y,-z
1/2+x,1/2+y,1/2+z
1/2-x,1/2-y,1/2+z
1/2+x,1/2-y,1/2-z
1/2-x,1/2+y,1/2-z
loop_
_atom_site_type_symbol
_atom_site_label
_atom_site_fract_x
_atom_site_fract_y
_atom_site_fract_z
Si Si1 0.334117 0.449300 0.362806
Si Si2 0.655277 0.450806 0.340990
Si Si3 0.366472 0.081899 0.357947
Si Si4 0.660260 0.360316 0.967552
Si Si5 0.500000 0.000000 0.500000
Si Si6 0.865826 0.720994 0.338950
Si Si7 0.648494 0.122756 0.247384
Si Si8 0.676566 0.259910 0.907388
O O1 0.492136 0.431386 0.312062
O O2 0.319170 0.497816 0.296118
O O3 0.328395 0.451804 0.511273
O O4 0.191508 0.419129 0.338740
O O5 0.777261 0.420918 0.272605
O O6 0.275632 0.113398 0.449063
O O7 0.396377 0.032332 0.415599
O O8 0.516425 0.108434 0.337209
O O9 0.701169 0.369265 0.823131
O O10 0.669444 0.306811 0.983369
O O11 0.500000 0.378941 0.000000
O O12 0.892753 0.667548 0.329182
O O13 0.788290 0.740102 0.211310
O O14 0.778404 0.727714 0.473045
O O15 0.020398 0.746328 0.349417
#
# Coordination Sequence:
#
# PCOD8164130 Si02
#       8
#     8   8   8   8   2   8   8   8
#     4   9  19  41  58  94 125 166 217 265 313 382
#     4   9  20  37  66  83 128 174 211 260 323 377
#     4  12  24  40  63  94 125 176 208 273 326 387
#     4  11  22  42  64  89 126 168 220 265 321 379
#     4  12  24  44  58  94 144 160 222 264 330 404
#     4  10  23  42  67  94 130 168 213 266 329 387
#     4  11  23  39  63  95 133 159 217 270 322 392
#     4  10  23  44  65  97 128 175 213 273 323 397
#
# _framework density 20.161625999999998
#
# number of rings (size 3 to 8) (size 9 to 14) (size 15 to 20)
#    0.000    1.655    2.759    2.483    1.931    3.310 
#    0.000    4.138    0.000    0.000    0.000    0.000 
#    0.000    0.000    0.000    0.000    0.000    0.000 
#
# Total GULP energy -359277.970371 kJ/mol
# GULP energy per Si atom -12388.895530 kJ/mol
# Density = 2.011574 g / cm^3
# Si number density = 20.161626 Si / 1000 Ang^3
#
#
#
# Elastic Constant Matrix: (Units=GPa)
#
#
# Indices 1 2 3 4 5 6 
#
# 1 105.5565 57.4156 45.6487 0.0009 -0.0001 -0.0003
# 2 57.4156 120.6167 44.8851 0.0006 -0.0002 0.0000
# 3 45.6487 44.8851 93.3797 0.0055 -0.0001 -0.0013
# 4 0.0009 0.0006 0.0055 25.5202 0.0003 -0.0002
# 5 -0.0001 -0.0002 -0.0001 0.0003 41.0779 0.0003
# 6 -0.0003 0.0000 -0.0013 -0.0002 0.0003 31.9698
#
#
#
# Elastic Compliance Matrix: (Units=1/GPa)
#
#
# Indices 1 2 3 4 5 6 
#
# 1 0.014177 -0.005078 -0.004490 0.000001 0.000000 0.000000
# 2 -0.005078 0.011915 -0.003245 0.000001 0.000000 0.000000
# 3 -0.004490 -0.003245 0.014464 -0.000003 0.000000 0.000001
# 4 0.000001 0.000001 -0.000003 0.039185 0.000000 0.000000
# 5 0.000000 0.000000 0.000000 0.000000 0.024344 0.000000
# 6 0.000000 0.000000 0.000001 0.000000 0.000000 0.031279
#
#
# Mechanical properties :
#
#
# Convention : Reuss Voigt Hill
#
# Bulk Modulus (GPa) = 66.97537 68.38353 67.67945
# Shear Modulus (GPa) = 30.12648 31.15382 30.64015
#
# Velocity S-wave (km/s) = 3.86974 3.93517 3.90260
# Velocity P-wave (km/s) = 7.29780 7.39180 7.34495
#
# Compressibility (1/GPa) = 0.01493086
#
# Stress axis : x y z
#
# Youngs Moduli (GPa) = 70.53567 83.92442 69.13879
#
# Poissons Ratio (x) = 0.42615 0.31042
# Poissons Ratio (y) = 0.35817 0.22437
# Poissons Ratio (z) = 0.31669 0.27235
#
# Static dielectric constant tensor:
#      x y z
#    x 4.195600 0.000010 0.000020 
#    y 0.000010 3.883820 0.000000 
#    z 0.000020 0.000000 3.733780 
# 
# 
# High freq. dielectric constant tensor:
#      x y z
#    x 1.787150 0.000000 0.000000 
#    y 0.000000 1.787110 0.000000 
#    z 0.000000 0.000000 1.791230 
# 
# From -- ./inp_files/14909.got.cif
#   From: 2010.03.12/outbox.cif.g09.slc.cpg/sg23_8_cif.got.tgz:14909.got - 2010.04.14 02:50:06.
