data_PCOD8164908
_publ_section_title
;
Structure prediction by ZEFSAII (Michael W. Deem and Ramdas Pophale) SiO2 
 PCOD8164908
Probable space group: I 21 21 21
;
_chemical_formula_sum "Si O2"
_cell_formula_units_Z 64
_cell_length_a 23.421384
_cell_length_b 15.550207
_cell_length_c 8.866723
_cell_angle_alpha 90.000000
_cell_angle_beta 90.000000
_cell_angle_gamma 90.000000
_cell_volume 3229.325859
_symmetry_space_group_name_H-M "I 21 21 21"
_symmetry_group_IT_number 24
_symmetry_cell_setting 'orthorhombic'
loop_
_space_group_symop_operation_xyz
x,y,z
-x,1/2-y,z
x,-y,1/2-z
1/2-x,y,-z
1/2+x,1/2+y,1/2+z
1/2-x,-y,1/2+z
1/2+x,1/2-y,-z
-x,1/2+y,1/2-z
loop_
_atom_site_type_symbol
_atom_site_label
_atom_site_fract_x
_atom_site_fract_y
_atom_site_fract_z
Si Si1 0.784576 0.086848 0.653683
Si Si2 0.729026 0.743148 0.333076
Si Si3 0.916043 0.085070 0.652316
Si Si4 0.224214 0.917807 0.164151
Si Si5 0.122319 0.033767 0.508369
Si Si6 0.005031 0.493111 0.426114
Si Si7 0.875255 0.370287 0.809871
Si Si8 0.997472 0.843004 0.620821
O O1 0.750000 0.074950 0.500000
O O2 0.760510 0.168766 0.743027
O O3 0.850657 0.107102 0.617975
O O4 0.777484 0.000000 0.750000
O O5 0.750000 0.761749 0.500000
O O6 0.767282 0.668043 0.260442
O O7 0.662175 0.715607 0.335976
O O8 0.947465 0.071464 0.492525
O O9 0.948026 0.158134 0.750568
O O10 0.923108 0.000000 0.750000
O O11 0.251877 0.000000 0.250000
O O12 0.250000 0.907627 0.000000
O O13 0.156752 0.936313 0.139857
O O14 0.143094 0.091379 0.649088
O O15 0.056022 0.045394 0.471004
O O16 0.137092 0.935012 0.550869
O O17 0.014102 0.500000 0.250000
O O18 0.014263 0.588250 0.491530
O O19 0.942570 0.357183 0.796366
O O20 0.000000 0.750000 0.541379
#
# Coordination Sequence:
#
# PCOD8164908 Si02
#       8
#     8   8   8   8   8   8   8   8
#     4  11  25  46  69  91 119 154 207 268 328 379
#     4  12  25  41  61  89 122 166 215 260 310 371
#     4   9  19  39  64  87 110 154 202 242 301 379
#     4  12  22  34  55  86 128 170 210 245 297 367
#     4  10  19  34  56  89 128 168 201 240 297 367
#     4  10  20  36  61  91 125 159 197 249 311 369
#     4  10  19  35  60  88 125 162 208 248 299 365
#     4  10  19  36  62  88 117 158 206 248 295 364
#
# _framework density 19.818377000000002
#
# number of rings (size 3 to 8) (size 9 to 14) (size 15 to 20)
#    0.000    1.500    2.500    3.750    0.000    1.500 
#    0.000    3.125    0.000    0.000    0.000    0.000 
#    0.000    0.000    0.000    0.000    0.000    0.000 
#
# Total GULP energy -396765.226865 kJ/mol
# GULP energy per Si atom -12398.913340 kJ/mol
# Density = 1.977327 g / cm^3
# Si number density = 19.818377 Si / 1000 Ang^3
#
#
#
# Elastic Constant Matrix: (Units=GPa)
#
#
# Indices 1 2 3 4 5 6 
#
# 1 115.5857 35.5607 55.7341 0.0000 0.0000 0.0000
# 2 35.5607 118.2564 47.6619 0.0000 0.0000 0.0000
# 3 55.7341 47.6619 131.7871 0.0000 0.0000 0.0000
# 4 0.0000 0.0000 0.0000 27.5826 0.0000 0.0000
# 5 0.0000 0.0000 0.0000 0.0000 30.1838 0.0000
# 6 0.0000 0.0000 0.0000 0.0000 0.0000 16.5733
#
#
#
# Elastic Compliance Matrix: (Units=1/GPa)
#
#
# Indices 1 2 3 4 5 6 
#
# 1 0.011152 -0.001701 -0.004101 0.000000 0.000000 0.000000
# 2 -0.001701 0.010158 -0.002955 0.000000 0.000000 0.000000
# 3 -0.004101 -0.002955 0.010391 0.000000 0.000000 0.000000
# 4 0.000000 0.000000 0.000000 0.036255 0.000000 0.000000
# 5 0.000000 0.000000 0.000000 0.000000 0.033130 0.000000
# 6 0.000000 0.000000 0.000000 0.000000 0.000000 0.060338
#
#
# Mechanical properties :
#
#
# Convention : Reuss Voigt Hill
#
# Bulk Modulus (GPa) = 70.47933 71.50475 70.99204
# Shear Modulus (GPa) = 27.22304 29.97946 28.60125
#
# Velocity S-wave (km/s) = 3.71027 3.89358 3.80303
# Velocity P-wave (km/s) = 7.34810 7.50810 7.42853
#
# Compressibility (1/GPa) = 0.01418856
#
# Stress axis : x y z
#
# Youngs Moduli (GPa) = 89.66632 98.44030 96.23590
#
# Poissons Ratio (x) = 0.16741 0.39471
# Poissons Ratio (y) = 0.15249 0.28435
# Poissons Ratio (z) = 0.36776 0.29086
#
# Static dielectric constant tensor:
#      x y z
#    x 3.793480 0.000000 0.000000 
#    y 0.000000 3.642610 0.000000 
#    z 0.000000 0.000000 3.524580 
# 
# 
# High freq. dielectric constant tensor:
#      x y z
#    x 1.782230 0.000000 0.000000 
#    y 0.000000 1.762300 0.000000 
#    z 0.000000 0.000000 1.766000 
# 
# From -- ./inp_files/16062.got.cif
#   From: 2010.03.12/outbox.cif.g09.slc.cpg/sg24_9_cif.got.tgz:16062.got - 2010.04.14 03:06:53.
