data_PCOD8164957
_publ_section_title
;
Structure prediction by ZEFSAII (Michael W. Deem and Ramdas Pophale) SiO2 
 PCOD8164957
Probable space group: I 21 21 21
;
_chemical_formula_sum "Si O2"
_cell_formula_units_Z 40
_cell_length_a 11.224453
_cell_length_b 8.899202
_cell_length_c 20.201892
_cell_angle_alpha 90.000000
_cell_angle_beta 90.000000
_cell_angle_gamma 90.000000
_cell_volume 2017.940216
_symmetry_space_group_name_H-M "I 21 21 21"
_symmetry_group_IT_number 24
_symmetry_cell_setting 'orthorhombic'
loop_
_space_group_symop_operation_xyz
x,y,z
-x,1/2-y,z
x,-y,1/2-z
1/2-x,y,-z
1/2+x,1/2+y,1/2+z
1/2-x,-y,1/2+z
1/2+x,1/2-y,-z
-x,1/2+y,1/2-z
loop_
_atom_site_type_symbol
_atom_site_label
_atom_site_fract_x
_atom_site_fract_y
_atom_site_fract_z
Si Si1 0.889104 0.075631 0.319895
Si Si2 0.169214 0.993424 0.936589
Si Si3 0.500000 0.250000 0.397858
Si Si4 0.500000 0.250000 0.104968
Si Si5 0.350701 0.076210 0.678809
Si Si6 0.144545 0.493513 0.828021
O O1 0.845303 0.246167 0.309682
O O2 0.778805 0.999361 0.359243
O O3 0.017694 0.049983 0.354813
O O4 0.909971 0.000000 0.250000
O O5 0.077692 0.133621 0.938127
O O6 0.094640 0.838355 0.943495
O O7 0.248961 0.986443 0.870023
O O8 0.250000 0.010405 0.000000
O O9 0.563697 0.130574 0.351028
O O10 0.409136 0.335695 0.152012
O O11 0.330983 0.000000 0.750000
O O12 0.157561 0.500000 0.750000
#
# Coordination Sequence:
#
# PCOD8164957 Si02
#       6
#     8   8   4   4   8   8
#     4   9  19  35  58  97 128 157 210 249 306 359
#     4  11  25  46  63  90 123 164 205 256 309 372
#     4  10  21  40  62  90 119 160 214 244 308 372
#     4  10  25  42  58  88 127 158 216 238 312 378
#     4  10  21  38  64  93 126 162 206 258 306 359
#     4  10  19  35  61  94 129 162 197 257 302 362
#
# _framework density 19.822192999999999
#
# number of rings (size 3 to 8) (size 9 to 14) (size 15 to 20)
#    0.000    2.000    2.000    0.600    5.600    4.800 
#    3.600    2.000    0.000    0.000    0.000    0.000 
#    0.000    0.000    0.000    0.000    0.000    0.000 
#
# Total GULP energy -247815.360602 kJ/mol
# GULP energy per Si atom -12390.768030 kJ/mol
# Density = 1.977708 g / cm^3
# Si number density = 19.822193 Si / 1000 Ang^3
#
#
#
# Elastic Constant Matrix: (Units=GPa)
#
#
# Indices 1 2 3 4 5 6 
#
# 1 148.7073 57.9910 40.1350 0.0000 0.0000 0.0000
# 2 57.9910 114.1716 31.0073 0.0000 0.0000 0.0000
# 3 40.1350 31.0073 72.3011 0.0000 0.0000 0.0000
# 4 0.0000 0.0000 0.0000 12.3984 0.0000 0.0000
# 5 0.0000 0.0000 0.0000 0.0000 33.0263 0.0000
# 6 0.0000 0.0000 0.0000 0.0000 0.0000 36.8838
#
#
#
# Elastic Compliance Matrix: (Units=1/GPa)
#
#
# Indices 1 2 3 4 5 6 
#
# 1 0.009096 -0.003677 -0.003472 0.000000 0.000000 0.000000
# 2 -0.003677 0.011400 -0.002848 0.000000 0.000000 0.000000
# 3 -0.003472 -0.002848 0.016980 0.000000 0.000000 0.000000
# 4 0.000000 0.000000 0.000000 0.080656 0.000000 0.000000
# 5 0.000000 0.000000 0.000000 0.000000 0.030279 0.000000
# 6 0.000000 0.000000 0.000000 0.000000 0.000000 0.027112
#
#
# Mechanical properties :
#
#
# Convention : Reuss Voigt Hill
#
# Bulk Modulus (GPa) = 57.20388 65.93852 61.57120
# Shear Modulus (GPa) = 24.83328 30.19817 27.51572
#
# Velocity S-wave (km/s) = 3.54333 3.90738 3.72980
# Velocity P-wave (km/s) = 6.75732 7.32762 7.04824
#
# Compressibility (1/GPa) = 0.01748133
#
# Stress axis : x y z
#
# Youngs Moduli (GPa) = 109.94318 87.72087 58.89352
#
# Poissons Ratio (x) = 0.32254 0.20449
# Poissons Ratio (y) = 0.40425 0.16772
# Poissons Ratio (z) = 0.38174 0.24982
#
# Static dielectric constant tensor:
#      x y z
#    x 4.448650 0.000000 0.000000 
#    y 0.000000 3.919130 0.000000 
#    z 0.000000 0.000000 3.149810 
# 
# 
# High freq. dielectric constant tensor:
#      x y z
#    x 1.810370 0.000000 0.000000 
#    y 0.000000 1.785430 0.000000 
#    z 0.000000 0.000000 1.721540 
# 
# From -- ./inp_files/11051.got.cif
#   From: 2010.03.12/outbox.cif.g09.slc.cpg/sg24_6_cif.got.tgz:11051.got - 2010.04.14 03:06:53.
