data_PCOD8164602
_publ_section_title
;
Structure prediction by ZEFSAII (Michael W. Deem and Ramdas Pophale) SiO2 
 PCOD8164602
Probable space group: I 21 21 21
;
_chemical_formula_sum "Si O2"
_cell_formula_units_Z 56
_cell_length_a 20.642746
_cell_length_b 16.237207
_cell_length_c 9.530800
_cell_angle_alpha 90.000000
_cell_angle_beta 90.000000
_cell_angle_gamma 90.000000
_cell_volume 3194.538689
_symmetry_space_group_name_H-M "I 21 21 21"
_symmetry_group_IT_number 24
_symmetry_cell_setting 'orthorhombic'
loop_
_space_group_symop_operation_xyz
x,y,z
-x,1/2-y,z
x,-y,1/2-z
1/2-x,y,-z
1/2+x,1/2+y,1/2+z
1/2-x,-y,1/2+z
1/2+x,1/2-y,-z
-x,1/2+y,1/2-z
loop_
_atom_site_type_symbol
_atom_site_label
_atom_site_fract_x
_atom_site_fract_y
_atom_site_fract_z
Si Si1 0.339895 0.184733 0.020628
Si Si2 0.784948 0.409787 0.735366
Si Si3 0.856310 0.695158 0.998867
Si Si4 0.750000 0.172457 0.000000
Si Si5 0.636465 0.409604 0.747241
Si Si6 0.175677 0.596068 0.748353
Si Si7 0.250000 0.679299 0.000000
Si Si8 0.574987 0.763722 0.251680
O O1 0.286189 0.136217 0.113542
O O2 0.394983 0.203241 0.133647
O O3 0.309204 0.267505 0.953845
O O4 0.372179 0.130444 0.899385
O O5 0.817226 0.500000 0.750000
O O6 0.818874 0.363330 0.609209
O O7 0.710161 0.418754 0.695589
O O8 0.893665 0.647203 0.124119
O O9 0.805856 0.761481 0.065162
O O10 0.911940 0.738955 0.908932
O O11 0.773872 0.114192 0.875940
O O12 0.603353 0.500000 0.750000
O O13 0.158057 0.500000 0.750000
O O14 0.107642 0.645407 0.729227
O O15 0.215376 0.622276 0.885843
O O16 0.500000 0.750000 0.280320
#
# Coordination Sequence:
#
# PCOD8164602 Si02
#       8
#     8   8   8   4   8   8   4   8
#     4  10  18  30  49  72 102 138 173 206 254 310
#     4  10  17  26  42  70 111 142 164 194 240 297
#     4  10  18  30  49  72 102 138 173 206 254 310
#     4  10  17  30  49  74 104 128 162 204 265 322
#     4  11  18  26  43  74 110 134 163 203 251 295
#     4  10  20  33  54  80 103 126 159 214 270 312
#     4  10  17  30  49  74 104 128 162 204 265 322
#     4   9  21  39  55  70  95 138 182 209 243 308
#
# _framework density 17.529917999999999
#
# number of rings (size 3 to 8) (size 9 to 14) (size 15 to 20)
#    0.000    2.000    2.857    3.000    0.000    2.286 
#    0.000    5.000    0.000    0.000    0.000    8.000 
#    0.000    0.000    0.000    0.000    0.000    0.000 
#
# Total GULP energy -346981.636785 kJ/mol
# GULP energy per Si atom -12392.201314 kJ/mol
# Density = 1.749002 g / cm^3
# Si number density = 17.529918 Si / 1000 Ang^3
#
#
#
# Elastic Constant Matrix: (Units=GPa)
#
#
# Indices 1 2 3 4 5 6 
#
# 1 60.5750 16.5429 12.2329 0.0000 0.0000 0.0000
# 2 16.5429 111.1795 42.9796 0.0000 0.0000 0.0000
# 3 12.2329 42.9796 97.7553 0.0000 0.0000 0.0000
# 4 0.0000 0.0000 0.0000 23.9019 0.0000 0.0000
# 5 0.0000 0.0000 0.0000 0.0000 11.5329 0.0000
# 6 0.0000 0.0000 0.0000 0.0000 0.0000 11.0994
#
#
#
# Elastic Compliance Matrix: (Units=1/GPa)
#
#
# Indices 1 2 3 4 5 6 
#
# 1 0.017333 -0.002097 -0.001247 0.000000 0.000000 0.000000
# 2 -0.002097 0.011090 -0.004613 0.000000 0.000000 0.000000
# 3 -0.001247 -0.004613 0.012414 0.000000 0.000000 0.000000
# 4 0.000000 0.000000 0.000000 0.041838 0.000000 0.000000
# 5 0.000000 0.000000 0.000000 0.000000 0.086708 0.000000
# 6 0.000000 0.000000 0.000000 0.000000 0.000000 0.090095
#
#
# Mechanical properties :
#
#
# Convention : Reuss Voigt Hill
#
# Bulk Modulus (GPa) = 40.12516 45.89119 43.00817
# Shear Modulus (GPa) = 17.62423 22.49047 20.05735
#
# Velocity S-wave (km/s) = 3.17421 3.58575 3.38624
# Velocity P-wave (km/s) = 6.03104 6.58628 6.31476
#
# Compressibility (1/GPa) = 0.02492202
#
# Stress axis : x y z
#
# Youngs Moduli (GPa) = 57.69351 90.17183 80.55386
#
# Poissons Ratio (x) = 0.18909 0.10045
# Poissons Ratio (y) = 0.12098 0.37163
# Poissons Ratio (z) = 0.07195 0.41600
#
# Static dielectric constant tensor:
#      x y z
#    x 2.797510 0.000000 0.000000 
#    y 0.000000 3.447870 0.000000 
#    z 0.000000 0.000000 3.307900 
# 
# 
# High freq. dielectric constant tensor:
#      x y z
#    x 1.621220 0.000000 0.000000 
#    y 0.000000 1.681380 0.000000 
#    z 0.000000 0.000000 1.689070 
# 
# From -- ./inp_files/15293.got.cif
#   From: 2010.03.12/outbox.cif.g09.slc.cpg/sg24_8_cif.got.tgz:15293.got - 2010.04.14 03:06:53.
