data_PCOD8164301
_publ_section_title
;
Structure prediction by ZEFSAII (Michael W. Deem and Ramdas Pophale) SiO2 
 PCOD8164301
Probable space group: I 2 2 2
;
_chemical_formula_sum "Si O2"
_cell_formula_units_Z 60
_cell_length_a 11.903228
_cell_length_b 32.149295
_cell_length_c 7.326416
_cell_angle_alpha 90.000000
_cell_angle_beta 90.000000
_cell_angle_gamma 90.000000
_cell_volume 2803.675721
_symmetry_space_group_name_H-M "I 2 2 2"
_symmetry_group_IT_number 23
_symmetry_cell_setting 'orthorhombic'
loop_
_space_group_symop_operation_xyz
x,y,z
-x,-y,z
x,-y,-z
-x,y,-z
1/2+x,1/2+y,1/2+z
1/2-x,1/2-y,1/2+z
1/2+x,1/2-y,1/2-z
1/2-x,1/2+y,1/2-z
loop_
_atom_site_type_symbol
_atom_site_label
_atom_site_fract_x
_atom_site_fract_y
_atom_site_fract_z
Si Si1 0.620106 0.409898 0.908509
Si Si2 0.734144 0.578692 0.722629
Si Si3 0.431829 0.129132 0.324027
Si Si4 0.876929 0.861345 0.940450
Si Si5 0.133275 0.709994 0.006374
Si Si6 0.376667 0.494911 0.214390
Si Si7 0.500000 0.819185 0.000000
Si Si8 0.721437 0.213370 0.105467
O O1 0.619636 0.370158 0.777317
O O2 0.660795 0.446846 0.768132
O O3 0.500000 0.420320 0.000000
O O4 0.702432 0.403884 0.077393
O O5 0.865628 0.591624 0.720114
O O6 0.664564 0.600042 0.562038
O O7 0.710976 0.528824 0.702752
O O8 0.500000 0.111604 0.500000
O O9 0.349346 0.166103 0.391429
O O10 0.514526 0.150607 0.176122
O O11 0.798566 0.822491 0.977692
O O12 0.000000 0.848150 0.000000
O O13 0.182888 0.704316 0.807876
O O14 0.210185 0.743875 0.107144
O O15 0.000000 0.722085 0.000000
O O16 0.500000 0.500000 0.305964
O O17 0.385138 0.500000 0.000000
O O18 0.608042 0.788661 0.018033
#
# Coordination Sequence:
#
# PCOD8164301 Si02
#       8
#     8   8   8   8   8   8   4   8
#     4  11  20  37  61  90 133 174 208 258 326 397
#     4  11  22  37  64  93 129 169 218 271 318 393
#     4  11  23  43  66  94 123 174 227 272 328 394
#     4  12  24  40  61  99 137 170 219 270 331 398
#     4  11  24  45  67  95 129 171 223 272 337 397
#     4   9  15  33  58  88 124 166 201 252 317 386
#     4  12  22  44  68  88 129 164 224 272 327 392
#     4  12  25  43  67  96 131 172 221 279 331 396
#
# _framework density 21.400479000000001
#
# number of rings (size 3 to 8) (size 9 to 14) (size 15 to 20)
#    0.000    0.933    8.000    2.000    0.000    0.533 
#    0.000    1.333    0.000    3.600    0.000    0.933 
#    0.000    0.000    0.000    0.000    0.000    0.000 
#
# Total GULP energy -371708.204944 kJ/mol
# GULP energy per Si atom -12390.273498 kJ/mol
# Density = 2.135177 g / cm^3
# Si number density = 21.400479 Si / 1000 Ang^3
#
#
#
# Elastic Constant Matrix: (Units=GPa)
#
#
# Indices 1 2 3 4 5 6 
#
# 1 108.2204 41.8433 11.1236 0.0112 0.0290 0.0123
# 2 41.8433 80.9269 2.2362 0.0562 0.0391 0.0277
# 3 11.1236 2.2362 68.0236 -0.0341 0.0690 0.0494
# 4 0.0112 0.0562 -0.0341 9.4016 -0.0610 -0.0089
# 5 0.0290 0.0391 0.0690 -0.0610 7.0544 -0.0529
# 6 0.0123 0.0277 0.0494 -0.0089 -0.0529 32.1038
#
#
#
# Elastic Compliance Matrix: (Units=1/GPa)
#
#
# Indices 1 2 3 4 5 6 
#
# 1 0.011748 -0.006027 -0.001723 0.000016 0.000002 0.000003
# 2 -0.006027 0.015460 0.000477 -0.000084 -0.000066 -0.000012
# 3 -0.001723 0.000477 0.014967 0.000053 -0.000142 -0.000023
# 4 0.000016 -0.000084 0.000053 0.106372 0.000920 0.000031
# 5 0.000002 -0.000066 -0.000142 0.000920 0.141768 0.000234
# 6 0.000003 -0.000012 -0.000023 0.000031 0.000234 0.031149
#
#
# Mechanical properties :
#
#
# Convention : Reuss Voigt Hill
#
# Bulk Modulus (GPa) = 36.19238 40.84190 38.51714
# Shear Modulus (GPa) = 14.48361 23.17647 18.83004
#
# Velocity S-wave (km/s) = 2.60434 3.29445 2.96951
# Velocity P-wave (km/s) = 5.09825 5.79631 5.45845
#
# Compressibility (1/GPa) = 0.02763013
#
# Stress axis : x y z
#
# Youngs Moduli (GPa) = 85.12347 64.68404 66.81361
#
# Poissons Ratio (x) = 0.38982 0.11512
# Poissons Ratio (y) = 0.51300 -0.03189
# Poissons Ratio (z) = 0.14666 -0.03087
#
# Static dielectric constant tensor:
#      x y z
#    x 4.070040 0.002620 0.000810 
#    y 0.002620 8.312070 0.005850 
#    z 0.000810 0.005850 4.335000 
# 
# 
# High freq. dielectric constant tensor:
#      x y z
#    x 1.821850 0.000000 0.000000 
#    y 0.000000 1.822910 0.000000 
#    z 0.000000 0.000000 1.853330 
# 
# From -- ./inp_files/8931.got.cif
#   From: 2010.03.12/outbox.cif.g09.slc.cpg/sg23_5_cif.got.tgz:8931.got - 2010.04.14 02:50:06.
