data_PCOD8164677
_publ_section_title
;
Structure prediction by ZEFSAII (Michael W. Deem and Ramdas Pophale) SiO2 
 PCOD8164677
Probable space group: I 21 21 21
;
_chemical_formula_sum "Si O2"
_cell_formula_units_Z 40
_cell_length_a 8.484105
_cell_length_b 16.226875
_cell_length_c 14.565556
_cell_angle_alpha 90.000000
_cell_angle_beta 90.000000
_cell_angle_gamma 90.000000
_cell_volume 2005.247542
_symmetry_space_group_name_H-M "I 21 21 21"
_symmetry_group_IT_number 24
_symmetry_cell_setting 'orthorhombic'
loop_
_space_group_symop_operation_xyz
x,y,z
-x,1/2-y,z
x,-y,1/2-z
1/2-x,y,-z
1/2+x,1/2+y,1/2+z
1/2-x,-y,1/2+z
1/2+x,1/2-y,-z
-x,1/2+y,1/2-z
loop_
_atom_site_type_symbol
_atom_site_label
_atom_site_fract_x
_atom_site_fract_y
_atom_site_fract_z
Si Si1 0.806140 0.093390 0.729433
Si Si2 0.323549 0.846819 0.591733
Si Si3 0.110636 0.824739 0.760722
Si Si4 0.318465 0.275177 0.601398
Si Si5 0.169776 0.345481 0.089757
O O1 0.699643 0.135068 0.649773
O O2 0.780249 0.142952 0.823148
O O3 0.991644 0.103544 0.703358
O O4 0.757152 0.000000 0.750000
O O5 0.250000 0.887776 0.500000
O O6 0.213771 0.863638 0.679215
O O7 0.497303 0.885702 0.607401
O O8 0.347076 0.750910 0.573643
O O9 0.222163 0.794420 0.843156
O O10 0.000000 0.750000 0.725676
O O11 0.500000 0.250000 0.599746
O O12 0.250000 0.280938 0.500000
O O13 0.250000 0.386763 0.000000
#
# Coordination Sequence:
#
# PCOD8164677 Si02
#       5
#     8   8   8   8   8
#     4  11  23  38  58  86 122 156 189 243 308 357
#     4  10  18  29  55  85 110 141 183 231 273 332
#     4  10  19  35  56  82 113 150 196 241 284 347
#     4  11  22  41  67  90 114 157 213 257 293 348
#     4  10  19  32  54  82 113 146 180 224 280 340
#
# _framework density 19.947662000000001
#
# number of rings (size 3 to 8) (size 9 to 14) (size 15 to 20)
#    0.000    1.600    4.000    4.200    2.800    0.800 
#    0.000    4.000    0.000    4.800    0.000    0.000 
#    0.000    0.000    0.000    0.000    0.000    0.000 
#
# Total GULP energy -247896.879945 kJ/mol
# GULP energy per Si atom -12394.843997 kJ/mol
# Density = 1.990226 g / cm^3
# Si number density = 19.947662 Si / 1000 Ang^3
#
#
#
# Elastic Constant Matrix: (Units=GPa)
#
#
# Indices 1 2 3 4 5 6 
#
# 1 157.4861 40.6388 62.3161 0.0000 0.0000 0.0000
# 2 40.6388 59.9448 33.2309 0.0000 0.0000 0.0000
# 3 62.3161 33.2309 158.0631 0.0000 0.0000 0.0000
# 4 0.0000 0.0000 0.0000 4.1311 0.0000 0.0000
# 5 0.0000 0.0000 0.0000 0.0000 28.9109 0.0000
# 6 0.0000 0.0000 0.0000 0.0000 0.0000 13.7843
#
#
#
# Elastic Compliance Matrix: (Units=1/GPa)
#
#
# Indices 1 2 3 4 5 6 
#
# 1 0.008432 -0.004384 -0.002402 0.000000 0.000000 0.000000
# 2 -0.004384 0.021163 -0.002721 0.000000 0.000000 0.000000
# 3 -0.002402 -0.002721 0.007846 0.000000 0.000000 0.000000
# 4 0.000000 0.000000 0.000000 0.242068 0.000000 0.000000
# 5 0.000000 0.000000 0.000000 0.000000 0.034589 0.000000
# 6 0.000000 0.000000 0.000000 0.000000 0.000000 0.072547
#
#
# Mechanical properties :
#
#
# Convention : Reuss Voigt Hill
#
# Bulk Modulus (GPa) = 54.27373 71.98507 63.12940
# Shear Modulus (GPa) = 12.14180 25.31912 18.73046
#
# Velocity S-wave (km/s) = 2.46983 3.56656 3.06760
# Velocity P-wave (km/s) = 5.94983 7.28874 6.65305
#
# Compressibility (1/GPa) = 0.01842512
#
# Stress axis : x y z
#
# Youngs Moduli (GPa) = 118.59888 47.25319 127.45793
#
# Poissons Ratio (x) = 0.20718 0.30621
# Poissons Ratio (y) = 0.51999 0.34677
# Poissons Ratio (z) = 0.28493 0.12856
#
# Static dielectric constant tensor:
#      x y z
#    x 4.118750 0.000000 0.000000 
#    y 0.000000 3.302560 0.000000 
#    z 0.000000 0.000000 3.640310 
# 
# 
# High freq. dielectric constant tensor:
#      x y z
#    x 1.802680 0.000000 0.000000 
#    y 0.000000 1.713640 0.000000 
#    z 0.000000 0.000000 1.782370 
# 
# From -- ./inp_files/14003.got.cif
#   From: 2010.03.12/outbox.cif.g09.slc.cpg/sg24_8_cif.got.tgz:14003.got - 2010.04.14 03:06:53.
