data_PCOD8164879
_publ_section_title
;
Structure prediction by ZEFSAII (Michael W. Deem and Ramdas Pophale) SiO2 
 PCOD8164879
Probable space group: I 21 21 21
;
_chemical_formula_sum "Si O2"
_cell_formula_units_Z 64
_cell_length_a 8.172952
_cell_length_b 17.870813
_cell_length_c 22.516583
_cell_angle_alpha 90.000000
_cell_angle_beta 90.000000
_cell_angle_gamma 90.000000
_cell_volume 3288.711247
_symmetry_space_group_name_H-M "I 21 21 21"
_symmetry_group_IT_number 24
_symmetry_cell_setting 'orthorhombic'
loop_
_space_group_symop_operation_xyz
x,y,z
-x,1/2-y,z
x,-y,1/2-z
1/2-x,y,-z
1/2+x,1/2+y,1/2+z
1/2-x,-y,1/2+z
1/2+x,1/2-y,-z
-x,1/2+y,1/2-z
loop_
_atom_site_type_symbol
_atom_site_label
_atom_site_fract_x
_atom_site_fract_y
_atom_site_fract_z
Si Si1 0.025806 0.422285 0.779311
Si Si2 0.066370 0.069883 0.016621
Si Si3 0.850566 0.160000 0.244215
Si Si4 0.956738 0.333890 0.358199
Si Si5 0.142419 0.420350 0.905953
Si Si6 0.636859 0.057490 0.551740
Si Si7 0.055395 0.330858 0.116647
Si Si8 0.844189 0.297549 0.708596
O O1 0.973543 0.500000 0.750000
O O2 0.210832 0.402346 0.761333
O O3 0.016933 0.430447 0.850929
O O4 0.902497 0.359112 0.755845
O O5 0.048772 0.109417 0.080097
O O6 0.250000 0.077218 0.000000
O O7 0.014879 0.983746 0.020822
O O8 0.952894 0.104170 0.965076
O O9 0.970263 0.161277 0.187286
O O10 0.777041 0.242578 0.255692
O O11 0.963502 0.135457 0.298176
O O12 0.758087 0.335878 0.346424
O O13 0.000000 0.250000 0.375265
O O14 0.041505 0.382442 0.409096
O O15 0.251892 0.496135 0.913013
O O16 0.252879 0.347103 0.894388
O O17 0.750000 0.095305 0.500000
O O18 0.000000 0.250000 0.093681
O O19 0.000000 0.250000 0.683311
#
# Coordination Sequence:
#
# PCOD8164879 Si02
#       8
#     8   8   8   8   8   8   8   8
#     4  10  19  33  55  82 109 142 184 224 272 337
#     4  10  22  37  53  76 109 147 184 229 285 334
#     4   9  19  35  55  80 110 143 177 225 281 325
#     4  10  19  35  60  84 107 141 184 224 275 335
#     4   9  20  37  55  76 108 147 186 229 281 330
#     4   9  19  39  60  78 106 145 186 232 281 329
#     4  10  19  34  55  77 105 142 189 232 268 324
#     4   9  19  34  51  81 120 147 169 217 288 338
#
# _framework density 19.460511
#
# number of rings (size 3 to 8) (size 9 to 14) (size 15 to 20)
#    0.000    2.500    0.000    3.000    0.000    4.000 
#    0.000   10.625    0.000    3.750    0.000    0.000 
#    0.000    0.000    0.000    0.000    0.000    0.250 
#
# Total GULP energy -396494.438089 kJ/mol
# GULP energy per Si atom -12390.451190 kJ/mol
# Density = 1.941622 g / cm^3
# Si number density = 19.460511 Si / 1000 Ang^3
#
#
#
# Elastic Constant Matrix: (Units=GPa)
#
#
# Indices 1 2 3 4 5 6 
#
# 1 90.6941 26.5925 53.0158 0.0000 0.0000 0.0000
# 2 26.5925 64.3660 46.6914 0.0000 0.0000 0.0000
# 3 53.0158 46.6914 122.4622 0.0000 0.0000 0.0000
# 4 0.0000 0.0000 0.0000 24.9794 0.0000 0.0000
# 5 0.0000 0.0000 0.0000 0.0000 25.4916 0.0000
# 6 0.0000 0.0000 0.0000 0.0000 0.0000 21.0896
#
#
#
# Elastic Compliance Matrix: (Units=1/GPa)
#
#
# Indices 1 2 3 4 5 6 
#
# 1 0.014955 -0.002049 -0.005693 0.000000 0.000000 0.000000
# 2 -0.002049 0.021757 -0.007408 0.000000 0.000000 0.000000
# 3 -0.005693 -0.007408 0.013455 0.000000 0.000000 0.000000
# 4 0.000000 0.000000 0.000000 0.040033 0.000000 0.000000
# 5 0.000000 0.000000 0.000000 0.000000 0.039229 0.000000
# 6 0.000000 0.000000 0.000000 0.000000 0.000000 0.047417
#
#
# Mechanical properties :
#
#
# Convention : Reuss Voigt Hill
#
# Bulk Modulus (GPa) = 50.33669 58.90243 54.61956
# Shear Modulus (GPa) = 23.39002 24.39363 23.89182
#
# Velocity S-wave (km/s) = 3.47064 3.54431 3.50767
# Velocity P-wave (km/s) = 6.47940 6.86170 6.67329
#
# Compressibility (1/GPa) = 0.01986623
#
# Stress axis : x y z
#
# Youngs Moduli (GPa) = 66.86881 45.96317 74.32226
#
# Poissons Ratio (x) = 0.09417 0.42312
# Poissons Ratio (y) = 0.13700 0.55060
# Poissons Ratio (z) = 0.38068 0.34051
#
# Static dielectric constant tensor:
#      x y z
#    x 3.666060 0.000000 0.000000 
#    y 0.000000 3.417890 0.000000 
#    z 0.000000 0.000000 3.688290 
# 
# 
# High freq. dielectric constant tensor:
#      x y z
#    x 1.757180 0.000000 0.000000 
#    y 0.000000 1.742830 0.000000 
#    z 0.000000 0.000000 1.753890 
# 
# From -- ./inp_files/32936.got.cif
#   From: 2010.03.12/outbox.cif.g09.slc.cpg/sg24_17_cif.got.tgz:32936.got - 2010.04.14 03:06:53.
