data_PCOD8164653
_publ_section_title
;
Structure prediction by ZEFSAII (Michael W. Deem and Ramdas Pophale) SiO2 
 PCOD8164653
Probable space group: I 21 21 21
;
_chemical_formula_sum "Si O2"
_cell_formula_units_Z 48
_cell_length_a 9.919554
_cell_length_b 6.294483
_cell_length_c 28.470944
_cell_angle_alpha 90.000000
_cell_angle_beta 90.000000
_cell_angle_gamma 90.000000
_cell_volume 1777.682013
_symmetry_space_group_name_H-M "I 21 21 21"
_symmetry_group_IT_number 24
_symmetry_cell_setting 'orthorhombic'
loop_
_space_group_symop_operation_xyz
x,y,z
-x,1/2-y,z
x,-y,1/2-z
1/2-x,y,-z
1/2+x,1/2+y,1/2+z
1/2-x,-y,1/2+z
1/2+x,1/2-y,-z
-x,1/2+y,1/2-z
loop_
_atom_site_type_symbol
_atom_site_label
_atom_site_fract_x
_atom_site_fract_y
_atom_site_fract_z
Si Si1 0.100263 0.943101 0.494550
Si Si2 0.743221 0.106172 0.359837
Si Si3 0.978951 0.502470 0.591627
Si Si4 0.737228 0.611044 0.335392
Si Si5 0.340974 0.737477 0.237615
Si Si6 0.025399 0.996472 0.396118
O O1 0.250000 0.848876 0.500000
O O2 0.070862 0.085905 0.541014
O O3 0.087766 0.078031 0.445846
O O4 0.000000 0.750000 0.491452
O O5 0.614488 0.133739 0.395050
O O6 0.736516 0.861861 0.344523
O O7 0.889983 0.138742 0.384967
O O8 0.730224 0.266517 0.314076
O O9 0.873641 0.484650 0.634232
O O10 0.000000 0.750000 0.583814
O O11 0.704999 0.594188 0.279097
O O12 0.874454 0.494299 0.351389
O O13 0.500000 0.750000 0.232382
O O14 0.295696 0.500000 0.250000
O O15 0.000000 0.750000 0.403817
#
# Coordination Sequence:
#
# PCOD8164653 Si02
#       6
#     8   8   8   8   8   8
#     4  10  18  25  40  72 110 148 182 224 290 364
#     4   9  18  29  45  71 102 145 185 228 275 334
#     4   9  16  26  44  68 107 143 182 222 280 336
#     4   9  15  28  47  70 100 145 183 229 280 334
#     4  10  19  33  56  82 109 147 201 248 284 335
#     4   9  17  27  43  67 107 147 180 223 287 337
#
# _framework density 27.001456000000001
#
# number of rings (size 3 to 8) (size 9 to 14) (size 15 to 20)
#    0.000    2.667    1.667    2.500    7.000    0.000 
#    0.000    0.000    0.000   33.000    0.000    0.000 
#    5.000    0.000    0.000    0.000    0.000    3.833 
#
# Total GULP energy -297463.341935 kJ/mol
# GULP energy per Si atom -12394.305914 kJ/mol
# Density = 2.694000 g / cm^3
# Si number density = 27.001456 Si / 1000 Ang^3
#
#
#
# Elastic Constant Matrix: (Units=GPa)
#
#
# Indices 1 2 3 4 5 6 
#
# 1 230.6628 25.4628 119.6009 0.0000 0.0000 0.0000
# 2 25.4628 124.0643 72.8530 0.0000 0.0000 0.0000
# 3 119.6009 72.8530 281.3485 0.0000 0.0000 0.0000
# 4 0.0000 0.0000 0.0000 22.5684 0.0000 0.0000
# 5 0.0000 0.0000 0.0000 0.0000 70.2165 0.0000
# 6 0.0000 0.0000 0.0000 0.0000 0.0000 13.0382
#
#
#
# Elastic Compliance Matrix: (Units=1/GPa)
#
#
# Indices 1 2 3 4 5 6 
#
# 1 0.005570 0.000292 -0.002443 0.000000 0.000000 0.000000
# 2 0.000292 0.009521 -0.002589 0.000000 0.000000 0.000000
# 3 -0.002443 -0.002589 0.005263 0.000000 0.000000 0.000000
# 4 0.000000 0.000000 0.000000 0.044310 0.000000 0.000000
# 5 0.000000 0.000000 0.000000 0.000000 0.014242 0.000000
# 6 0.000000 0.000000 0.000000 0.000000 0.000000 0.076698
#
#
# Mechanical properties :
#
#
# Convention : Reuss Voigt Hill
#
# Bulk Modulus (GPa) = 91.97656 119.10099 105.53878
# Shear Modulus (GPa) = 29.63671 49.04188 39.33929
#
# Velocity S-wave (km/s) = 3.31659 4.26639 3.82112
# Velocity P-wave (km/s) = 6.98598 8.27492 7.65762
#
# Compressibility (1/GPa) = 0.01087233
#
# Stress axis : x y z
#
# Youngs Moduli (GPa) = 179.53225 105.03088 189.98939
#
# Poissons Ratio (x) = -0.03062 0.46420
# Poissons Ratio (y) = -0.05235 0.49195
# Poissons Ratio (z) = 0.43865 0.27196
#
# Static dielectric constant tensor:
#      x y z
#    x 4.911360 0.000000 0.000000 
#    y 0.000000 5.490350 0.000000 
#    z 0.000000 0.000000 6.066180 
# 
# 
# High freq. dielectric constant tensor:
#      x y z
#    x 2.063160 0.000000 0.000000 
#    y 0.000000 2.165440 0.000000 
#    z 0.000000 0.000000 2.119630 
# 
# From -- ./inp_files/38283.got.cif
#   From: 2010.03.12/outbox.cif.g09.slc.cpg/sg24_20_cif.got.tgz:38283.got - 2010.04.14 03:06:53.
