data_PCOD8164981
_publ_section_title
;
Structure prediction by ZEFSAII (Michael W. Deem and Ramdas Pophale) SiO2 
 PCOD8164981
Probable space group: I 21 21 21
;
_chemical_formula_sum "Si O2"
_cell_formula_units_Z 32
_cell_length_a 9.070844
_cell_length_b 19.972302
_cell_length_c 8.898519
_cell_angle_alpha 90.000000
_cell_angle_beta 90.000000
_cell_angle_gamma 90.000000
_cell_volume 1612.105852
_symmetry_space_group_name_H-M "I 21 21 21"
_symmetry_group_IT_number 24
_symmetry_cell_setting 'orthorhombic'
loop_
_space_group_symop_operation_xyz
x,y,z
-x,1/2-y,z
x,-y,1/2-z
1/2-x,y,-z
1/2+x,1/2+y,1/2+z
1/2-x,-y,1/2+z
1/2+x,1/2-y,-z
-x,1/2+y,1/2-z
loop_
_atom_site_type_symbol
_atom_site_label
_atom_site_fract_x
_atom_site_fract_y
_atom_site_fract_z
Si Si1 0.130269 0.298996 0.369629
Si Si2 0.750000 0.619079 0.500000
Si Si3 0.250000 0.114829 0.500000
Si Si4 0.960937 0.427443 0.256300
Si Si5 0.356288 0.207495 0.250025
O O1 0.250000 0.316272 0.500000
O O2 0.213027 0.255487 0.242959
O O3 0.000000 0.250000 0.430965
O O4 0.073511 0.366508 0.287442
O O5 0.864023 0.578531 0.395233
O O6 0.857642 0.662935 0.602248
O O7 0.149811 0.068141 0.396968
O O8 0.354716 0.161877 0.399327
O O9 0.043080 0.500000 0.250000
O O10 0.500000 0.250000 0.253115
#
# Coordination Sequence:
#
# PCOD8164981 Si02
#       5
#     8   4   4   8   8
#     4  12  21  39  67  93 120 160 214 257 302 366
#     4  10  23  38  62  92 129 162 200 256 321 364
#     4  10  19  36  62  88 115 162 210 240 299 366
#     4  11  23  40  61  91 127 166 205 255 305 377
#     4  11  22  36  63  96 123 159 204 261 312 365
#
# _framework density 19.849812
#
# number of rings (size 3 to 8) (size 9 to 14) (size 15 to 20)
#    0.000    1.000    6.250    3.000    3.500    0.000 
#    0.000    2.500    0.000    3.000    0.000    0.000 
#    0.000    0.000    0.000    0.000    0.000    0.000 
#
# Total GULP energy -198255.670015 kJ/mol
# GULP energy per Si atom -12390.979376 kJ/mol
# Density = 1.980463 g / cm^3
# Si number density = 19.849812 Si / 1000 Ang^3
#
#
#
# Elastic Constant Matrix: (Units=GPa)
#
#
# Indices 1 2 3 4 5 6 
#
# 1 92.7723 44.2761 27.3918 0.0001 -0.0002 -0.0003
# 2 44.2761 148.5315 45.1823 0.0002 -0.0009 -0.0011
# 3 27.3918 45.1823 115.6778 0.0001 0.0001 -0.0064
# 4 0.0001 0.0002 0.0001 -2.1158 -0.0007 -0.0024
# 5 -0.0002 -0.0009 0.0001 -0.0007 210.5033 0.0104
# 6 -0.0003 -0.0011 -0.0064 -0.0024 0.0104 85.1266
#
#
#
# Elastic Compliance Matrix: (Units=1/GPa)
#
#
# Indices 1 2 3 4 5 6 
#
# 1 0.012875 -0.003303 -0.001759 0.000000 0.000000 0.000000
# 2 -0.003303 0.008488 -0.002533 0.000001 0.000000 0.000000
# 3 -0.001759 -0.002533 0.010051 0.000000 0.000000 0.000001
# 4 0.000000 0.000001 0.000000 -0.472633 -0.000001 -0.000013
# 5 0.000000 0.000000 0.000000 -0.000001 0.004751 -0.000001
# 6 0.000000 0.000000 0.000001 -0.000013 -0.000001 0.011747
#
#
# Mechanical properties :
#
#
# Convention : Reuss Voigt Hill
#
# Bulk Modulus (GPa) = 61.63799 65.63134 63.63466
# Shear Modulus (GPa) = -12.37239 74.71158 31.16959
#
# Velocity S-wave (km/s) = -2.49931 6.14167 3.96696
# Velocity P-wave (km/s) = 4.77398 9.13396 7.28767
#
# Compressibility (1/GPa) = 0.01622376
#
# Stress axis : x y z
#
# Youngs Moduli (GPa) = 77.67211 117.81758 99.49743
#
# Poissons Ratio (x) = 0.38914 0.17497
# Poissons Ratio (y) = 0.25654 0.25204
# Poissons Ratio (z) = 0.13659 0.29844
#
# Static dielectric constant tensor:
#      x y z
#    x 3.208920 0.000000 0.000010 
#    y 0.000000 3.298870 0.000040 
#    z 0.000010 0.000040 3.389090 
# 
# 
# High freq. dielectric constant tensor:
#      x y z
#    x 1.759350 0.000000 0.000000 
#    y 0.000000 1.772210 0.000000 
#    z 0.000000 0.000000 1.782020 
# 
# From -- ./inp_files/8960.got.cif
#   From: 2010.03.12/outbox.cif.g09.slc.cpg/sg24_5_cif.got.tgz:8960.got - 2010.04.14 03:06:53.
