data_PCOD8164161
_publ_section_title
;
Structure prediction by ZEFSAII (Michael W. Deem and Ramdas Pophale) SiO2 
 PCOD8164161
Probable space group: I 2 2 2
;
_chemical_formula_sum "Si O2"
_cell_formula_units_Z 48
_cell_length_a 18.503672
_cell_length_b 8.958467
_cell_length_c 13.376152
_cell_angle_alpha 90.000000
_cell_angle_beta 90.000000
_cell_angle_gamma 90.000000
_cell_volume 2217.291616
_symmetry_space_group_name_H-M "I 2 2 2"
_symmetry_group_IT_number 23
_symmetry_cell_setting 'orthorhombic'
loop_
_space_group_symop_operation_xyz
x,y,z
-x,-y,z
x,-y,-z
-x,y,-z
1/2+x,1/2+y,1/2+z
1/2-x,1/2-y,1/2+z
1/2+x,1/2-y,1/2-z
1/2-x,1/2+y,1/2-z
loop_
_atom_site_type_symbol
_atom_site_label
_atom_site_fract_x
_atom_site_fract_y
_atom_site_fract_z
Si Si1 0.183541 0.833784 0.172830
Si Si2 0.812171 0.334287 0.973522
Si Si3 0.031998 0.336781 0.104749
Si Si4 0.432735 0.077077 0.107783
Si Si5 0.274192 0.872085 0.836754
Si Si6 0.035541 0.152320 0.719157
O O1 0.161157 0.755508 0.070350
O O2 0.234296 0.716728 0.232710
O O3 0.113948 0.876360 0.235968
O O4 0.221952 0.989289 0.153516
O O5 0.784061 0.500000 0.000000
O O6 0.880847 0.346678 0.900032
O O7 0.745100 0.245125 0.924563
O O8 0.000000 0.500000 0.124937
O O9 0.013535 0.228538 0.195916
O O10 0.000000 0.273908 0.000000
O O11 0.354755 0.058411 0.157569
O O12 0.454495 0.251626 0.116868
O O13 0.500000 0.000000 0.167755
O O14 0.429925 0.000000 0.000000
O O15 0.000000 0.000000 0.683849
#
# Coordination Sequence:
#
# PCOD8164161 Si02
#       6
#     8   8   8   8   8   8
#     4  11  23  41  61  94 132 168 213 265 328 393
#     4  12  22  39  65  96 135 176 213 264 320 392
#     4  11  20  38  61  97 141 180 216 244 315 413
#     4  10  23  46  68  85 115 170 227 273 326 398
#     4  11  25  42  64  93 127 169 220 271 330 396
#     4  11  23  38  63 100 133 164 213 277 333 385
#
# _framework density 21.648031
#
# number of rings (size 3 to 8) (size 9 to 14) (size 15 to 20)
#    0.000    1.000    3.333    4.000    0.000    5.667 
#    0.000    8.333    0.000    0.000    0.000    0.000 
#    0.000    0.000    0.000    0.000    0.000    0.000 
#
# Total GULP energy -297462.993567 kJ/mol
# GULP energy per Si atom -12394.291399 kJ/mol
# Density = 2.159876 g / cm^3
# Si number density = 21.648031 Si / 1000 Ang^3
#
#
#
# Elastic Constant Matrix: (Units=GPa)
#
#
# Indices 1 2 3 4 5 6 
#
# 1 112.8211 64.4077 18.3398 0.0000 0.0000 0.0000
# 2 64.4077 168.9494 56.5436 0.0000 0.0000 0.0000
# 3 18.3398 56.5436 85.2520 0.0000 0.0000 0.0000
# 4 0.0000 0.0000 0.0000 39.3813 0.0000 0.0000
# 5 0.0000 0.0000 0.0000 0.0000 -9.9237 0.0000
# 6 0.0000 0.0000 0.0000 0.0000 0.0000 29.7106
#
#
#
# Elastic Compliance Matrix: (Units=1/GPa)
#
#
# Indices 1 2 3 4 5 6 
#
# 1 0.011349 -0.004511 0.000550 0.000000 0.000000 0.000000
# 2 -0.004511 0.009400 -0.005265 0.000000 0.000000 0.000000
# 3 0.000550 -0.005265 0.015103 0.000000 0.000000 0.000000
# 4 0.000000 0.000000 0.000000 0.025393 0.000000 0.000000
# 5 0.000000 0.000000 0.000000 0.000000 -0.100769 0.000000
# 6 0.000000 0.000000 0.000000 0.000000 0.000000 0.033658
#
#
# Mechanical properties :
#
#
# Convention : Reuss Voigt Hill
#
# Bulk Modulus (GPa) = 57.46142 71.73383 64.59762
# Shear Modulus (GPa) = 271.94431 27.01572 149.48001
#
# Velocity S-wave (km/s) = 11.22023 3.53647 8.31866
# Velocity P-wave (km/s) = 13.94486 7.06285 11.05312
#
# Compressibility (1/GPa) = 0.01740298
#
# Stress axis : x y z
#
# Youngs Moduli (GPa) = 88.11132 106.37760 66.21090
#
# Poissons Ratio (x) = 0.47985 -0.03644
# Poissons Ratio (y) = 0.39745 0.34857
# Poissons Ratio (z) = -0.04849 0.56003
#
# Static dielectric constant tensor:
#      x y z
#    x 4.135510 0.000000 0.000000 
#    y 0.000000 4.017440 0.000000 
#    z 0.000000 0.000000 3.874260 
# 
# 
# High freq. dielectric constant tensor:
#      x y z
#    x 1.857800 0.000000 0.000000 
#    y 0.000000 1.856690 0.000000 
#    z 0.000000 0.000000 1.840020 
# 
# From -- ./inp_files/22027.got.cif
#   From: 2010.03.12/outbox.cif.g09.slc.cpg/sg23_12_cif.got.tgz:22027.got - 2010.04.14 02:50:06.
