data_PCOD8164820
_publ_section_title
;
Structure prediction by ZEFSAII (Michael W. Deem and Ramdas Pophale) SiO2 
 PCOD8164820
Probable space group: I 21 21 21
;
_chemical_formula_sum "Si O2"
_cell_formula_units_Z 40
_cell_length_a 9.153940
_cell_length_b 24.149711
_cell_length_c 8.339485
_cell_angle_alpha 90.000000
_cell_angle_beta 90.000000
_cell_angle_gamma 90.000000
_cell_volume 1843.568297
_symmetry_space_group_name_H-M "I 21 21 21"
_symmetry_group_IT_number 24
_symmetry_cell_setting 'orthorhombic'
loop_
_space_group_symop_operation_xyz
x,y,z
-x,1/2-y,z
x,-y,1/2-z
1/2-x,y,-z
1/2+x,1/2+y,1/2+z
1/2-x,-y,1/2+z
1/2+x,1/2-y,-z
-x,1/2+y,1/2-z
loop_
_atom_site_type_symbol
_atom_site_label
_atom_site_fract_x
_atom_site_fract_y
_atom_site_fract_z
Si Si1 0.255702 0.814379 0.321001
Si Si2 0.500000 0.750000 0.134020
Si Si3 0.750000 0.570590 0.000000
Si Si4 0.495076 0.848690 0.912256
Si Si5 0.903835 0.000000 0.750000
Si Si6 0.750000 0.077920 0.500000
Si Si7 0.168514 0.060365 0.840727
O O1 0.250000 0.790001 0.500000
O O2 0.356165 0.769643 0.230337
O O3 0.092757 0.823557 0.242745
O O4 0.333414 0.873611 0.329034
O O5 0.552567 0.799813 0.023587
O O6 0.888169 0.610848 0.992248
O O7 0.737256 0.536198 0.168797
O O8 0.640058 0.885540 0.888587
O O9 0.814386 0.038167 0.632959
O O10 0.003249 0.040093 0.860252
O O11 0.250000 0.039225 0.000000
#
# Coordination Sequence:
#
# PCOD8164820 Si02
#       7
#     8   4   4   8   4   4   8
#     4  10  23  43  67 102 141 179 241 305 357 431
#     4  12  20  40  72 100 134 184 244 292 360 426
#     4  10  18  45  68  92 130 172 235 300 334 424
#     4  11  23  43  68 102 135 193 237 290 356 441
#     4  12  26  44  64 108 142 194 236 298 374 420
#     4  12  28  45  70 100 162 180 247 294 358 450
#     4  10  22  41  71 101 132 177 244 296 356 420
#
# _framework density 21.697053
#
# number of rings (size 3 to 8) (size 9 to 14) (size 15 to 20)
#    0.000    1.200    6.000    0.000    4.200    5.600 
#    0.000    0.000    2.200    0.000    0.000    0.000 
#    0.000    0.000    0.000    0.000    0.000    0.000 
#
# Total GULP energy -247765.246847 kJ/mol
# GULP energy per Si atom -12388.262342 kJ/mol
# Density = 2.164767 g / cm^3
# Si number density = 21.697053 Si / 1000 Ang^3
#
#
#
# Elastic Constant Matrix: (Units=GPa)
#
#
# Indices 1 2 3 4 5 6 
#
# 1 147.2529 74.4286 68.7824 -0.0005 -0.0008 0.0001
# 2 74.4286 109.5082 83.2130 -0.0003 -0.0001 0.0000
# 3 68.7824 83.2130 176.3250 -0.0050 -0.0041 -0.0027
# 4 -0.0005 -0.0003 -0.0050 52.0691 -0.0005 -0.0004
# 5 -0.0008 -0.0001 -0.0041 -0.0005 36.1405 -0.0006
# 6 0.0001 0.0000 -0.0027 -0.0004 -0.0006 52.3282
#
#
#
# Elastic Compliance Matrix: (Units=1/GPa)
#
#
# Indices 1 2 3 4 5 6 
#
# 1 0.010488 -0.006267 -0.001134 0.000000 0.000000 0.000000
# 2 -0.006267 0.017982 -0.006042 -0.000001 -0.000001 0.000000
# 3 -0.001134 -0.006042 0.008965 0.000001 0.000001 0.000000
# 4 0.000000 -0.000001 0.000001 0.019205 0.000000 0.000000
# 5 0.000000 -0.000001 0.000001 0.000000 0.027670 0.000000
# 6 0.000000 0.000000 0.000000 0.000000 0.000000 0.019110
#
#
# Mechanical properties :
#
#
# Convention : Reuss Voigt Hill
#
# Bulk Modulus (GPa) = 94.78249 98.43711 96.60980
# Shear Modulus (GPa) = 37.36316 41.88503 39.62410
#
# Velocity S-wave (km/s) = 4.15425 4.39845 4.27809
# Velocity P-wave (km/s) = 8.17250 8.44172 8.30820
#
# Compressibility (1/GPa) = 0.01055047
#
# Stress axis : x y z
#
# Youngs Moduli (GPa) = 95.34496 55.61117 111.54706
#
# Poissons Ratio (x) = 0.34851 0.12647
# Poissons Ratio (y) = 0.59752 0.67392
# Poissons Ratio (z) = 0.10810 0.33598
#
# Static dielectric constant tensor:
#      x y z
#    x 4.753630 0.000020 -0.000030 
#    y 0.000020 4.256640 0.000000 
#    z -0.000030 0.000000 4.191290 
# 
# 
# High freq. dielectric constant tensor:
#      x y z
#    x 1.837110 0.000000 0.000000 
#    y 0.000000 1.883870 0.000000 
#    z 0.000000 0.000000 1.858040 
# 
# From -- ./inp_files/9534.got.cif
#   From: 2010.03.12/outbox.cif.g09.slc.cpg/sg24_5_cif.got.tgz:9534.got - 2010.04.14 03:06:53.
