data_PCOD8164509
_publ_section_title
;
Structure prediction by ZEFSAII (Michael W. Deem and Ramdas Pophale) SiO2 
 PCOD8164509
Probable space group: I 2 2 2
;
_chemical_formula_sum "Si O2"
_cell_formula_units_Z 32
_cell_length_a 14.009809
_cell_length_b 10.818136
_cell_length_c 8.729952
_cell_angle_alpha 90.000000
_cell_angle_beta 90.000000
_cell_angle_gamma 90.000000
_cell_volume 1323.111692
_symmetry_space_group_name_H-M "I 2 2 2"
_symmetry_group_IT_number 23
_symmetry_cell_setting 'orthorhombic'
loop_
_space_group_symop_operation_xyz
x,y,z
-x,-y,z
x,-y,-z
-x,y,-z
1/2+x,1/2+y,1/2+z
1/2-x,1/2-y,1/2+z
1/2+x,1/2-y,1/2-z
1/2-x,1/2+y,1/2-z
loop_
_atom_site_type_symbol
_atom_site_label
_atom_site_fract_x
_atom_site_fract_y
_atom_site_fract_z
Si Si1 0.564571 0.665817 0.248080
Si Si2 0.270900 0.224667 0.397517
Si Si3 0.000000 0.000000 0.000000
Si Si4 0.342728 0.500000 0.000000
Si Si5 0.120839 0.306135 0.192137
Si Si6 0.000000 0.500000 0.000000
O O1 0.639973 0.776406 0.277642
O O2 0.571323 0.580684 0.397797
O O3 0.589050 0.586825 0.099568
O O4 0.457314 0.715178 0.235051
O O5 0.193158 0.327416 0.336210
O O6 0.311317 0.259454 0.565464
O O7 0.225428 0.087073 0.396634
O O8 0.068917 0.422020 0.112043
#
# Coordination Sequence:
#
# PCOD8164509 Si02
#       6
#     8   8   2   4   8   2
#     4  12  26  46  74 113 150 204 253 323 385 460
#     4  12  25  48  73 117 148 204 257 318 381 466
#     4  12  22  42  68 106 148 200 250 296 388 460
#     4  12  29  47  82 112 156 204 260 330 380 456
#     4  12  26  47  80 107 157 201 263 308 392 460
#     4  12  24  52  82 112 150 224 232 338 390 442
#
# _framework density 24.185410999999998
#
# number of rings (size 3 to 8) (size 9 to 14) (size 15 to 20)
#    0.000    0.000    7.500    2.250    0.000    4.500 
#    0.000    0.000    0.000    6.000    0.000    0.000 
#    0.000    0.000    0.000    0.000    0.000    0.000 
#
# Total GULP energy -198220.607274 kJ/mol
# GULP energy per Si atom -12388.787955 kJ/mol
# Density = 2.413036 g / cm^3
# Si number density = 24.185411 Si / 1000 Ang^3
#
#
#
# Elastic Constant Matrix: (Units=GPa)
#
#
# Indices 1 2 3 4 5 6 
#
# 1 192.9456 62.1430 90.8575 0.0000 0.0000 0.0000
# 2 62.1430 90.4676 61.2005 0.0000 0.0000 0.0000
# 3 90.8575 61.2005 130.4652 0.0000 0.0000 0.0000
# 4 0.0000 0.0000 0.0000 46.4117 0.0000 0.0000
# 5 0.0000 0.0000 0.0000 0.0000 55.9499 0.0000
# 6 0.0000 0.0000 0.0000 0.0000 0.0000 30.2383
#
#
#
# Elastic Compliance Matrix: (Units=1/GPa)
#
#
# Indices 1 2 3 4 5 6 
#
# 1 0.008097 -0.002560 -0.004438 0.000000 0.000000 0.000000
# 2 -0.002560 0.017001 -0.006193 0.000000 0.000000 0.000000
# 3 -0.004438 -0.006193 0.013661 0.000000 0.000000 0.000000
# 4 0.000000 0.000000 0.000000 0.021546 0.000000 0.000000
# 5 0.000000 0.000000 0.000000 0.000000 0.017873 0.000000
# 6 0.000000 0.000000 0.000000 0.000000 0.000000 0.033071
#
#
# Mechanical properties :
#
#
# Convention : Reuss Voigt Hill
#
# Bulk Modulus (GPa) = 80.78831 93.58671 87.18751
# Shear Modulus (GPa) = 35.27187 39.83178 37.55183
#
# Velocity S-wave (km/s) = 3.82304 4.06265 3.94466
# Velocity P-wave (km/s) = 7.27762 7.79656 7.54155
#
# Compressibility (1/GPa) = 0.01237803
#
# Stress axis : x y z
#
# Youngs Moduli (GPa) = 123.50028 58.81965 73.20276
#
# Poissons Ratio (x) = 0.15055 0.32489
# Poissons Ratio (y) = 0.31610 0.45332
# Poissons Ratio (z) = 0.54813 0.36425
#
# Static dielectric constant tensor:
#      x y z
#    x 4.415300 0.000000 0.000000 
#    y 0.000000 4.218320 0.000000 
#    z 0.000000 0.000000 4.615070 
# 
# 
# High freq. dielectric constant tensor:
#      x y z
#    x 1.997920 0.000000 0.000000 
#    y 0.000000 1.926100 0.000000 
#    z 0.000000 0.000000 1.956300 
# 
# From -- ./inp_files/8018.got.cif
#   From: 2010.03.12/outbox.cif.g09.slc.cpg/sg23_5_cif.got.tgz:8018.got - 2010.04.14 02:50:06.
