data_PCOD8164483
_publ_section_title
;
Structure prediction by ZEFSAII (Michael W. Deem and Ramdas Pophale) SiO2 
 PCOD8164483
Probable space group: I 2 2 2
;
_chemical_formula_sum "Si O2"
_cell_formula_units_Z 34
_cell_length_a 7.508065
_cell_length_b 18.718233
_cell_length_c 10.028159
_cell_angle_alpha 90.000000
_cell_angle_beta 90.000000
_cell_angle_gamma 90.000000
_cell_volume 1409.334502
_symmetry_space_group_name_H-M "I 2 2 2"
_symmetry_group_IT_number 23
_symmetry_cell_setting 'orthorhombic'
loop_
_space_group_symop_operation_xyz
x,y,z
-x,-y,z
x,-y,-z
-x,y,-z
1/2+x,1/2+y,1/2+z
1/2-x,1/2-y,1/2+z
1/2+x,1/2-y,1/2-z
1/2-x,1/2+y,1/2-z
loop_
_atom_site_type_symbol
_atom_site_label
_atom_site_fract_x
_atom_site_fract_y
_atom_site_fract_z
Si Si1 0.000000 0.500000 0.000000
Si Si2 0.794319 0.325642 0.280988
Si Si3 0.293239 0.580392 0.525710
Si Si4 0.685425 0.592046 0.948917
Si Si5 0.307166 0.162783 0.713764
O O1 0.146492 0.458993 0.908233
O O2 0.793021 0.360105 0.428172
O O3 0.645530 0.362925 0.185433
O O4 0.764245 0.242092 0.271052
O O5 0.017683 0.339580 0.785397
O O6 0.214085 0.500000 0.500000
O O7 0.500000 0.577578 0.500000
O O8 0.264112 0.607171 0.675883
O O9 0.500000 0.555370 0.000000
O O10 0.751050 0.641202 0.067356
#
# Coordination Sequence:
#
# PCOD8164483 Si02
#       5
#     2   8   8   8   8
#     4  12  26  48  68 108 144 184 240 282 360 422
#     4  12  25  46  71 103 141 188 240 292 355 426
#     4  11  26  45  69 104 142 183 232 292 361 421
#     4  12  26  46  73 105 142 186 238 293 349 423
#     4  12  25  46  71 103 141 188 240 292 355 426
#
# _framework density 24.124862
#
# number of rings (size 3 to 8) (size 9 to 14) (size 15 to 20)
#    0.000    0.235    2.353    6.706    3.294    1.882 
#    0.000    0.000    0.000    0.000    0.000    0.000 
#    0.000    0.000    0.000    0.000    0.000    0.000 
#
# Total GULP energy -210624.033869 kJ/mol
# GULP energy per Si atom -12389.649051 kJ/mol
# Density = 2.406995 g / cm^3
# Si number density = 24.124862 Si / 1000 Ang^3
#
#
#
# Elastic Constant Matrix: (Units=GPa)
#
#
# Indices 1 2 3 4 5 6 
#
# 1 119.1791 11.7011 -10.4874 -0.0002 0.0000 0.0004
# 2 11.7011 159.7147 36.5010 -0.0002 0.0000 0.0006
# 3 -10.4874 36.5010 106.3791 -0.0001 0.0002 0.0022
# 4 -0.0002 -0.0002 -0.0001 7.6098 0.0000 0.0016
# 5 0.0000 0.0000 0.0002 0.0000 9.8441 0.0001
# 6 0.0004 0.0006 0.0022 0.0016 0.0001 -142.8930
#
#
#
# Elastic Compliance Matrix: (Units=1/GPa)
#
#
# Indices 1 2 3 4 5 6 
#
# 1 0.008580 -0.000892 0.001152 0.000000 0.000000 0.000000
# 2 -0.000892 0.006887 -0.002451 0.000000 0.000000 0.000000
# 3 0.001152 -0.002451 0.010355 0.000000 0.000000 0.000000
# 4 0.000000 0.000000 0.000000 0.131409 -0.000001 0.000001
# 5 0.000000 0.000000 0.000000 -0.000001 0.101584 0.000000
# 6 0.000000 0.000000 0.000000 0.000001 0.000000 -0.006998
#
#
# Mechanical properties :
#
#
# Convention : Reuss Voigt Hill
#
# Bulk Modulus (GPa) = 46.64306 51.18913 48.91610
# Shear Modulus (GPa) = 18.98659 -1.91726 8.53466
#
# Velocity S-wave (km/s) = 2.80842 -0.89244 1.88292
# Velocity P-wave (km/s) = 5.46738 4.49472 5.00474
#
# Compressibility (1/GPa) = 0.02143942
#
# Stress axis : x y z
#
# Youngs Moduli (GPa) = 116.55495 145.20911 96.57313
#
# Poissons Ratio (x) = 0.12950 -0.11124
# Poissons Ratio (y) = 0.10394 0.23669
# Poissons Ratio (z) = -0.13425 0.35589
#
# Static dielectric constant tensor:
#      x y z
#    x 4.705170 0.000000 0.000000 
#    y 0.000000 5.589220 0.000000 
#    z 0.000000 0.000000 4.246240 
# 
# 
# High freq. dielectric constant tensor:
#      x y z
#    x 1.977450 0.000000 0.000000 
#    y 0.000000 1.971650 0.000000 
#    z 0.000000 0.000000 1.956710 
# 
# From -- ./inp_files/6721.got.cif
#   From: 2010.03.12/outbox.cif.g09.slc.cpg/sg23_4_cif.got.tgz:6721.got - 2010.04.14 02:50:06.
