data_PCOD8164165
_publ_section_title
;
Structure prediction by ZEFSAII (Michael W. Deem and Ramdas Pophale) SiO2 
 PCOD8164165
Probable space group: I 2 2 2
;
_chemical_formula_sum "Si O2"
_cell_formula_units_Z 56
_cell_length_a 20.091793
_cell_length_b 15.113911
_cell_length_c 7.729703
_cell_angle_alpha 90.000000
_cell_angle_beta 90.000000
_cell_angle_gamma 90.000000
_cell_volume 2347.244677
_symmetry_space_group_name_H-M "I 2 2 2"
_symmetry_group_IT_number 23
_symmetry_cell_setting 'orthorhombic'
loop_
_space_group_symop_operation_xyz
x,y,z
-x,-y,z
x,-y,-z
-x,y,-z
1/2+x,1/2+y,1/2+z
1/2-x,1/2-y,1/2+z
1/2+x,1/2-y,1/2-z
1/2-x,1/2+y,1/2-z
loop_
_atom_site_type_symbol
_atom_site_label
_atom_site_fract_x
_atom_site_fract_y
_atom_site_fract_z
Si Si1 0.180887 0.252715 0.969912
Si Si2 0.958287 0.779915 0.830908
Si Si3 0.151791 0.572282 0.862930
Si Si4 0.218648 0.009785 0.797508
Si Si5 0.692852 0.675306 0.830360
Si Si6 0.517137 0.097680 0.199850
Si Si7 0.398964 0.592546 0.909950
O O1 0.178895 0.354912 0.009589
O O2 0.168692 0.194203 0.137991
O O3 0.121481 0.224899 0.845489
O O4 0.254972 0.246263 0.884598
O O5 0.962662 0.858374 0.684762
O O6 0.979886 0.680337 0.785503
O O7 0.000000 0.810465 0.000000
O O8 0.208763 0.550218 0.725997
O O9 0.094508 0.611162 0.739242
O O10 0.126224 0.500000 0.000000
O O11 0.160216 0.072176 0.725840
O O12 0.224240 0.922123 0.681193
O O13 0.204167 0.000000 0.000000
O O14 0.628819 0.666530 0.955067
O O15 0.500000 0.000000 0.276818
O O16 0.500000 0.099396 0.000000
O O17 0.422515 0.500000 0.000000
#
# Coordination Sequence:
#
# PCOD8164165 Si02
#       7
#     8   8   8   8   8   8   8
#     4  12  24  40  68 107 142 189 232 296 358 430
#     4  12  26  45  73 107 146 192 245 303 361 436
#     4  12  23  44  69 101 147 192 237 285 365 431
#     4  11  23  41  72 106 142 185 233 298 365 432
#     4  11  24  42  69 103 145 180 236 295 361 432
#     4  11  28  47  67 102 148 200 249 293 350 433
#     4  10  23  48  74 104 141 185 239 307 374 430
#
# _framework density 23.857761
#
# number of rings (size 3 to 8) (size 9 to 14) (size 15 to 20)
#    0.000    0.714    4.286    3.000    6.000    0.000 
#    0.000    0.000    0.000   24.000    0.000    0.000 
#    0.000    0.000    0.000    0.000    0.000    0.000 
#
# Total GULP energy -346959.155907 kJ/mol
# GULP energy per Si atom -12391.398425 kJ/mol
# Density = 2.380346 g / cm^3
# Si number density = 23.857761 Si / 1000 Ang^3
#
#
#
# Elastic Constant Matrix: (Units=GPa)
#
#
# Indices 1 2 3 4 5 6 
#
# 1 75.9791 49.2714 30.2093 0.0000 0.0000 0.0000
# 2 49.2714 114.5631 38.1616 0.0000 0.0000 0.0000
# 3 30.2093 38.1616 73.4732 0.0000 0.0000 0.0000
# 4 0.0000 0.0000 0.0000 44.3764 0.0000 0.0000
# 5 0.0000 0.0000 0.0000 0.0000 33.0952 0.0000
# 6 0.0000 0.0000 0.0000 0.0000 0.0000 81.7380
#
#
#
# Elastic Compliance Matrix: (Units=1/GPa)
#
#
# Indices 1 2 3 4 5 6 
#
# 1 0.019359 -0.006862 -0.004396 0.000000 0.000000 0.000000
# 2 -0.006862 0.012987 -0.003924 0.000000 0.000000 0.000000
# 3 -0.004396 -0.003924 0.017456 0.000000 0.000000 0.000000
# 4 0.000000 0.000000 0.000000 0.022535 0.000000 0.000000
# 5 0.000000 0.000000 0.000000 0.000000 0.030216 0.000000
# 6 0.000000 0.000000 0.000000 0.000000 0.000000 0.012234
#
#
# Mechanical properties :
#
#
# Convention : Reuss Voigt Hill
#
# Bulk Modulus (GPa) = 51.44339 55.47776 53.46058
# Shear Modulus (GPa) = 32.97518 41.60011 37.28765
#
# Velocity S-wave (km/s) = 3.72177 4.18026 3.95766
# Velocity P-wave (km/s) = 6.33073 6.82667 6.58337
#
# Compressibility (1/GPa) = 0.01943884
#
# Stress axis : x y z
#
# Youngs Moduli (GPa) = 51.65575 76.99984 57.28710
#
# Poissons Ratio (x) = 0.52835 0.25182
# Poissons Ratio (y) = 0.35444 0.22480
# Poissons Ratio (z) = 0.22706 0.30216
#
# Static dielectric constant tensor:
#      x y z
#    x 4.311520 0.000000 0.000000 
#    y 0.000000 4.617330 0.000000 
#    z 0.000000 0.000000 4.204530 
# 
# 
# High freq. dielectric constant tensor:
#      x y z
#    x 1.936890 0.000000 0.000000 
#    y 0.000000 1.959660 0.000000 
#    z 0.000000 0.000000 1.953660 
# 
# From -- ./inp_files/12063.got.cif
#   From: 2010.03.12/outbox.cif.g09.slc.cpg/sg23_7_cif.got.tgz:12063.got - 2010.04.14 02:50:06.
