data_PCOD8164974
_publ_section_title
;
Structure prediction by ZEFSAII (Michael W. Deem and Ramdas Pophale) SiO2 
 PCOD8164974
Probable space group: I 21 21 21
;
_chemical_formula_sum "Si O2"
_cell_formula_units_Z 64
_cell_length_a 14.511483
_cell_length_b 24.381887
_cell_length_c 8.751688
_cell_angle_alpha 90.000000
_cell_angle_beta 90.000000
_cell_angle_gamma 90.000000
_cell_volume 3096.498957
_symmetry_space_group_name_H-M "I 21 21 21"
_symmetry_group_IT_number 24
_symmetry_cell_setting 'orthorhombic'
loop_
_space_group_symop_operation_xyz
x,y,z
-x,1/2-y,z
x,-y,1/2-z
1/2-x,y,-z
1/2+x,1/2+y,1/2+z
1/2-x,-y,1/2+z
1/2+x,1/2-y,-z
-x,1/2+y,1/2-z
loop_
_atom_site_type_symbol
_atom_site_label
_atom_site_fract_x
_atom_site_fract_y
_atom_site_fract_z
Si Si1 0.752176 0.829953 0.319848
Si Si2 0.659496 0.459066 0.107154
Si Si3 0.634360 0.372025 0.653471
Si Si4 0.515236 0.450378 0.860278
Si Si5 0.808994 0.946646 0.353772
Si Si6 0.895724 0.754830 0.819907
Si Si7 0.397012 0.250984 0.674585
Si Si8 0.340557 0.866413 0.182391
O O1 0.750000 0.828300 0.500000
O O2 0.766070 0.893256 0.267282
O O3 0.656137 0.805623 0.258087
O O4 0.838414 0.794754 0.265506
O O5 0.674336 0.500000 0.250000
O O6 0.623310 0.400370 0.172605
O O7 0.750000 0.455362 0.000000
O O8 0.573712 0.475350 0.000713
O O9 0.567913 0.401989 0.771156
O O10 0.643963 0.308834 0.698908
O O11 0.738653 0.392967 0.665073
O O12 0.602342 0.378002 0.475260
O O13 0.498681 0.500000 0.750000
O O14 0.413196 0.430580 0.907908
O O15 0.750000 0.961997 0.500000
O O16 0.805362 0.000000 0.250000
O O17 0.842300 0.698290 0.782566
O O18 0.000000 0.750000 0.757081
O O19 0.895703 0.768527 0.998219
O O20 0.500000 0.250000 0.740040
#
# Coordination Sequence:
#
# PCOD8164974 Si02
#       8
#     8   8   8   8   8   8   8   8
#     4  11  23  39  62  94 127 162 201 260 318 371
#     4  12  25  38  60  91 126 169 213 259 319 382
#     4  10  19  36  59  86 127 163 208 259 305 370
#     4  11  23  42  64  90 125 165 215 264 314 379
#     4  10  25  47  69  93 123 164 211 268 320 370
#     4  10  22  40  63  94 129 166 211 255 301 368
#     4  10  20  37  62  90 123 167 213 253 302 367
#     4  10  21  35  58  88 127 171 205 253 308 365
#
# _framework density 20.668503999999999
#
# number of rings (size 3 to 8) (size 9 to 14) (size 15 to 20)
#    0.000    1.500    2.500    2.250    1.750    5.500 
#    0.000    2.500    0.000    0.000    0.000    0.000 
#    0.000    0.000    0.000    0.000    0.000    0.000 
#
# Total GULP energy -396649.984918 kJ/mol
# GULP energy per Si atom -12395.312029 kJ/mol
# Density = 2.062146 g / cm^3
# Si number density = 20.668504 Si / 1000 Ang^3
#
#
#
# Elastic Constant Matrix: (Units=GPa)
#
#
# Indices 1 2 3 4 5 6 
#
# 1 138.7593 51.3312 45.5302 0.0013 -0.0006 0.0001
# 2 51.3312 120.0674 54.8112 -0.0010 -0.0006 0.0000
# 3 45.5302 54.8112 88.0863 -0.0080 -0.0083 -0.0006
# 4 0.0013 -0.0010 -0.0080 33.3547 -0.0040 -0.0002
# 5 -0.0006 -0.0006 -0.0083 -0.0040 38.7395 -0.0003
# 6 0.0001 0.0000 -0.0006 -0.0002 -0.0003 28.5273
#
#
#
# Elastic Compliance Matrix: (Units=1/GPa)
#
#
# Indices 1 2 3 4 5 6 
#
# 1 0.009168 -0.002453 -0.003212 -0.000001 -0.000001 0.000000
# 2 -0.002453 0.012290 -0.006379 -0.000001 -0.000001 0.000000
# 3 -0.003212 -0.006379 0.016982 0.000004 0.000003 0.000000
# 4 -0.000001 -0.000001 0.000004 0.029981 0.000003 0.000000
# 5 -0.000001 -0.000001 0.000003 0.000003 0.025813 0.000000
# 6 0.000000 0.000000 0.000000 0.000000 0.000000 0.035054
#
#
# Mechanical properties :
#
#
# Convention : Reuss Voigt Hill
#
# Bulk Modulus (GPa) = 69.68289 72.25092 70.96690
# Shear Modulus (GPa) = 31.61324 33.14031 32.37678
#
# Velocity S-wave (km/s) = 3.91517 4.00862 3.96217
# Velocity P-wave (km/s) = 7.36382 7.51387 7.43922
#
# Compressibility (1/GPa) = 0.01435073
#
# Stress axis : x y z
#
# Youngs Moduli (GPa) = 109.07142 81.37026 58.88467
#
# Poissons Ratio (x) = 0.19961 0.18917
# Poissons Ratio (y) = 0.26757 0.37563
# Poissons Ratio (z) = 0.35039 0.51907
#
# Static dielectric constant tensor:
#      x y z
#    x 4.027900 0.000000 -0.000010 
#    y 0.000000 3.836850 -0.000020 
#    z -0.000010 -0.000020 3.613040 
# 
# 
# High freq. dielectric constant tensor:
#      x y z
#    x 1.809270 0.000000 0.000000 
#    y 0.000000 1.816150 0.000000 
#    z 0.000000 0.000000 1.800950 
# 
# From -- ./inp_files/13343.got.cif
#   From: 2010.03.12/outbox.cif.g09.slc.cpg/sg24_7_cif.got.tgz:13343.got - 2010.04.14 03:06:53.
