data_PCOD8164801
_publ_section_title
;
Structure prediction by ZEFSAII (Michael W. Deem and Ramdas Pophale) SiO2 
 PCOD8164801
Probable space group: I 21 21 21
;
_chemical_formula_sum "Si O2"
_cell_formula_units_Z 36
_cell_length_a 5.598082
_cell_length_b 13.264541
_cell_length_c 22.533918
_cell_angle_alpha 90.000000
_cell_angle_beta 90.000000
_cell_angle_gamma 90.000000
_cell_volume 1673.278349
_symmetry_space_group_name_H-M "I 21 21 21"
_symmetry_group_IT_number 24
_symmetry_cell_setting 'orthorhombic'
loop_
_space_group_symop_operation_xyz
x,y,z
-x,1/2-y,z
x,-y,1/2-z
1/2-x,y,-z
1/2+x,1/2+y,1/2+z
1/2-x,-y,1/2+z
1/2+x,1/2-y,-z
-x,1/2+y,1/2-z
loop_
_atom_site_type_symbol
_atom_site_label
_atom_site_fract_x
_atom_site_fract_y
_atom_site_fract_z
Si Si1 0.600498 0.877977 0.595625
Si Si2 0.750000 0.591372 0.500000
Si Si3 0.029010 0.539352 0.909811
Si Si4 0.769948 0.443679 0.809481
Si Si5 0.500000 0.250000 0.465325
Si Si6 0.500000 0.250000 0.156093
O O1 0.448103 0.843841 0.536804
O O2 0.456685 0.903113 0.655074
O O3 0.787197 0.787652 0.611349
O O4 0.720471 0.984311 0.578758
O O5 0.659575 0.517277 0.449812
O O6 0.933938 0.525807 0.842941
O O7 0.055422 0.656128 0.923405
O O8 0.686452 0.500000 0.750000
O O9 0.927260 0.341870 0.800833
O O10 0.250000 0.230289 0.500000
#
# Coordination Sequence:
#
# PCOD8164801 Si02
#       6
#     8   4   8   8   4   4
#     4  10  21  39  69  91 136 170 222 271 336 399
#     4  10  18  38  64  92 126 180 210 270 328 400
#     4  10  22  39  65  92 135 172 221 272 335 398
#     4  10  23  43  69  95 127 175 220 279 332 394
#     4  12  24  39  68 102 142 183 226 282 340 416
#     4  10  22  43  68  92 134 169 220 278 328 400
#
# _framework density 21.514648999999999
#
# number of rings (size 3 to 8) (size 9 to 14) (size 15 to 20)
#    0.000    1.778    1.111    2.667    3.111    4.444 
#    0.000    2.222  176.000    0.000    0.000    0.000 
#    0.000    0.000    0.000    0.000    0.000    0.000 
#
# Total GULP energy -222993.498952 kJ/mol
# GULP energy per Si atom -12388.527720 kJ/mol
# Density = 2.146568 g / cm^3
# Si number density = 21.514649 Si / 1000 Ang^3
#
#
#
# Elastic Constant Matrix: (Units=GPa)
#
#
# Indices 1 2 3 4 5 6 
#
# 1 116.4526 38.4928 48.2044 0.0000 0.0000 0.0000
# 2 38.4928 160.2400 49.9651 0.0000 0.0000 0.0000
# 3 48.2044 49.9651 106.8384 0.0000 0.0000 0.0000
# 4 0.0000 0.0000 0.0000 24.4714 0.0000 0.0000
# 5 0.0000 0.0000 0.0000 0.0000 20.3238 0.0000
# 6 0.0000 0.0000 0.0000 0.0000 0.0000 59.8879
#
#
#
# Elastic Compliance Matrix: (Units=1/GPa)
#
#
# Indices 1 2 3 4 5 6 
#
# 1 0.010771 -0.001255 -0.004273 0.000000 0.000000 0.000000
# 2 -0.001255 0.007452 -0.002919 0.000000 0.000000 0.000000
# 3 -0.004273 -0.002919 0.012653 0.000000 0.000000 0.000000
# 4 0.000000 0.000000 0.000000 0.040864 0.000000 0.000000
# 5 0.000000 0.000000 0.000000 0.000000 0.049203 0.000000
# 6 0.000000 0.000000 0.000000 0.000000 0.000000 0.016698
#
#
# Mechanical properties :
#
#
# Convention : Reuss Voigt Hill
#
# Bulk Modulus (GPa) = 71.51822 72.98396 72.25109
# Shear Modulus (GPa) = 31.40795 37.39451 34.40123
#
# Velocity S-wave (km/s) = 3.82493 4.17357 4.00305
# Velocity P-wave (km/s) = 7.26778 7.56449 7.41762
#
# Compressibility (1/GPa) = 0.01398245
#
# Stress axis : x y z
#
# Youngs Moduli (GPa) = 92.84476 134.18678 79.03373
#
# Poissons Ratio (x) = 0.16841 0.33768
# Poissons Ratio (y) = 0.11652 0.23070
# Poissons Ratio (z) = 0.39669 0.39168
#
# Static dielectric constant tensor:
#      x y z
#    x 4.345620 0.000000 0.000000 
#    y 0.000000 3.905310 0.000000 
#    z 0.000000 0.000000 3.342160 
# 
# 
# High freq. dielectric constant tensor:
#      x y z
#    x 1.863670 0.000000 0.000000 
#    y 0.000000 1.850980 0.000000 
#    z 0.000000 0.000000 1.818250 
# 
# From -- ./inp_files/5404.got.cif
#   From: 2010.03.12/outbox.cif.g09.slc.cpg/sg24_3_cif.got.tgz:5404.got - 2010.04.14 03:06:53.
