data_PCOD8164054
_publ_section_title
;
Structure prediction by ZEFSAII (Michael W. Deem and Ramdas Pophale) SiO2 
 PCOD8164054
Probable space group: I 2 2 2
;
_chemical_formula_sum "Si O2"
_cell_formula_units_Z 32
_cell_length_a 11.538986
_cell_length_b 10.923573
_cell_length_c 10.969426
_cell_angle_alpha 90.000000
_cell_angle_beta 90.000000
_cell_angle_gamma 90.000000
_cell_volume 1382.662755
_symmetry_space_group_name_H-M "I 2 2 2"
_symmetry_group_IT_number 23
_symmetry_cell_setting 'orthorhombic'
loop_
_space_group_symop_operation_xyz
x,y,z
-x,-y,z
x,-y,-z
-x,y,-z
1/2+x,1/2+y,1/2+z
1/2-x,1/2-y,1/2+z
1/2+x,1/2-y,1/2-z
1/2-x,1/2+y,1/2-z
loop_
_atom_site_type_symbol
_atom_site_label
_atom_site_fract_x
_atom_site_fract_y
_atom_site_fract_z
Si Si1 0.825575 0.061094 0.810481
Si Si2 0.080528 0.391679 0.794007
Si Si3 0.062433 0.777447 0.621440
Si Si4 0.314469 0.314119 0.439923
O O1 0.697869 0.048918 0.755848
O O2 0.914907 0.104922 0.706938
O O3 0.137361 0.070792 0.862039
O O4 0.828181 0.162887 0.916861
O O5 0.106898 0.301946 0.906831
O O6 0.000000 0.500000 0.844313
O O7 0.021033 0.321004 0.683053
O O8 0.181277 0.708299 0.591680
O O9 0.000000 0.826699 0.500000
#
# Coordination Sequence:
#
# PCOD8164054 Si02
#       4
#     8   8   8   8
#     4  10  22  42  71 103 140 189 246 296 350 436
#     4  11  22  40  70 103 144 187 237 294 368 425
#     4  11  22  40  70 103 144 187 237 294 368 425
#     4  10  22  42  71 103 140 189 246 296 350 436
#
# _framework density 23.143747999999999
#
# number of rings (size 3 to 8) (size 9 to 14) (size 15 to 20)
#    0.000    1.500    5.000    0.000    0.000    2.500 
#    0.000    7.500    0.000    0.000    0.000    0.000 
#    0.000    0.000    0.000    0.000    0.000    0.000 
#
# Total GULP energy -198488.010276 kJ/mol
# GULP energy per Si atom -12405.500642 kJ/mol
# Density = 2.309107 g / cm^3
# Si number density = 23.143748 Si / 1000 Ang^3
#
#
#
# Elastic Constant Matrix: (Units=GPa)
#
#
# Indices 1 2 3 4 5 6 
#
# 1 42.5437 24.8242 9.8035 0.0000 0.0000 0.0000
# 2 24.8242 103.7527 38.6441 0.0000 0.0000 0.0000
# 3 9.8035 38.6441 89.8887 0.0000 0.0000 0.0000
# 4 0.0000 0.0000 0.0000 31.7328 0.0000 0.0000
# 5 0.0000 0.0000 0.0000 0.0000 39.9158 0.0000
# 6 0.0000 0.0000 0.0000 0.0000 0.0000 35.2424
#
#
#
# Elastic Compliance Matrix: (Units=1/GPa)
#
#
# Indices 1 2 3 4 5 6 
#
# 1 0.027322 -0.006462 -0.000202 0.000000 0.000000 0.000000
# 2 -0.006462 0.013004 -0.004886 0.000000 0.000000 0.000000
# 3 -0.000202 -0.004886 0.013247 0.000000 0.000000 0.000000
# 4 0.000000 0.000000 0.000000 0.031513 0.000000 0.000000
# 5 0.000000 0.000000 0.000000 0.000000 0.025053 0.000000
# 6 0.000000 0.000000 0.000000 0.000000 0.000000 0.028375
#
#
# Mechanical properties :
#
#
# Convention : Reuss Voigt Hill
#
# Bulk Modulus (GPa) = 32.81424 42.52540 37.66982
# Shear Modulus (GPa) = 29.10828 32.23909 30.67369
#
# Velocity S-wave (km/s) = 3.55028 3.73633 3.64449
# Velocity P-wave (km/s) = 5.56913 6.08506 5.83280
#
# Compressibility (1/GPa) = 0.03047458
#
# Stress axis : x y z
#
# Youngs Moduli (GPa) = 36.60001 76.89783 75.48670
#
# Poissons Ratio (x) = 0.49692 0.01523
# Poissons Ratio (y) = 0.23651 0.36882
# Poissons Ratio (z) = 0.00738 0.37571
#
# Static dielectric constant tensor:
#      x y z
#    x 4.255410 0.000000 0.000000 
#    y 0.000000 4.052390 0.000000 
#    z 0.000000 0.000000 4.120200 
# 
# 
# High freq. dielectric constant tensor:
#      x y z
#    x 1.930340 0.000000 0.000000 
#    y 0.000000 1.909410 0.000000 
#    z 0.000000 0.000000 1.914070 
# 
# From -- ./inp_files/14411.got.cif
#   From: 2010.03.12/outbox.cif.g09.slc.cpg/sg23_8_cif.got.tgz:14411.got - 2010.04.14 02:50:06.
