data_PCOD8164842
_publ_section_title
;
Structure prediction by ZEFSAII (Michael W. Deem and Ramdas Pophale) SiO2 
 PCOD8164842
Probable space group: I 21 21 21
;
_chemical_formula_sum "Si O2"
_cell_formula_units_Z 48
_cell_length_a 4.937103
_cell_length_b 16.816613
_cell_length_c 29.376064
_cell_angle_alpha 90.000000
_cell_angle_beta 90.000000
_cell_angle_gamma 90.000000
_cell_volume 2438.958010
_symmetry_space_group_name_H-M "I 21 21 21"
_symmetry_group_IT_number 24
_symmetry_cell_setting 'orthorhombic'
loop_
_space_group_symop_operation_xyz
x,y,z
-x,1/2-y,z
x,-y,1/2-z
1/2-x,y,-z
1/2+x,1/2+y,1/2+z
1/2-x,-y,1/2+z
1/2+x,1/2-y,-z
-x,1/2+y,1/2-z
loop_
_atom_site_type_symbol
_atom_site_label
_atom_site_fract_x
_atom_site_fract_y
_atom_site_fract_z
Si Si1 0.239730 0.695494 0.849373
Si Si2 0.143873 0.465182 0.397985
Si Si3 0.161446 0.612946 0.340430
Si Si4 0.755799 0.196139 0.751716
Si Si5 0.659365 0.669753 0.390947
Si Si6 0.158839 0.977651 0.551468
O O1 0.500000 0.750000 0.849763
O O2 0.269685 0.621601 0.882795
O O3 0.165999 0.663049 0.798399
O O4 0.000000 0.750000 0.868517
O O5 0.102967 0.521960 0.353757
O O6 0.350365 0.498871 0.436408
O O7 0.848567 0.462391 0.420308
O O8 0.169113 0.625565 0.286019
O O9 0.468205 0.626227 0.355409
O O10 0.952207 0.675254 0.365207
O O11 0.500000 0.250000 0.743968
O O12 0.000000 0.250000 0.772289
O O13 0.500000 0.750000 0.405544
O O14 0.704218 0.615182 0.435498
O O15 0.250000 0.988032 0.500000
#
# Coordination Sequence:
#
# PCOD8164842 Si02
#       6
#     8   8   8   8   8   8
#     4  10  21  37  57  80 106 139 176 219 275 329
#     4  10  21  37  58  80 105 140 177 221 275 325
#     4  10  19  31  51  78 109 145 182 214 250 300
#     4  10  19  31  50  77 110 146 180 214 253 302
#     4  10  19  32  51  77 109 145 180 213 251 299
#     4  10  21  38  58  80 106 139 178 221 273 325
#
# _framework density 19.680536
#
# number of rings (size 3 to 8) (size 9 to 14) (size 15 to 20)
#    0.000    2.000    0.000    4.500    0.000    0.667 
#    0.000    5.000    0.000   22.000    0.000    0.000 
#    0.000    0.000    0.000    0.000    0.000    0.000 
#
# Total GULP energy -297395.273789 kJ/mol
# GULP energy per Si atom -12391.469741 kJ/mol
# Density = 1.963574 g / cm^3
# Si number density = 19.680536 Si / 1000 Ang^3
#
#
#
# Elastic Constant Matrix: (Units=GPa)
#
#
# Indices 1 2 3 4 5 6 
#
# 1 92.3488 17.6493 5.4792 0.0000 0.0000 0.0000
# 2 17.6493 102.7033 45.4416 0.0000 0.0000 0.0000
# 3 5.4792 45.4416 74.3242 0.0000 0.0000 0.0000
# 4 0.0000 0.0000 0.0000 19.9294 0.0000 0.0000
# 5 0.0000 0.0000 0.0000 0.0000 24.4004 0.0000
# 6 0.0000 0.0000 0.0000 0.0000 0.0000 31.8709
#
#
#
# Elastic Compliance Matrix: (Units=1/GPa)
#
#
# Indices 1 2 3 4 5 6 
#
# 1 0.011209 -0.002139 0.000482 0.000000 0.000000 0.000000
# 2 -0.002139 0.013756 -0.008253 0.000000 0.000000 0.000000
# 3 0.000482 -0.008253 0.018465 0.000000 0.000000 0.000000
# 4 0.000000 0.000000 0.000000 0.050177 0.000000 0.000000
# 5 0.000000 0.000000 0.000000 0.000000 0.040983 0.000000
# 6 0.000000 0.000000 0.000000 0.000000 0.000000 0.031377
#
#
# Mechanical properties :
#
#
# Convention : Reuss Voigt Hill
#
# Bulk Modulus (GPa) = 42.35703 45.16849 43.76276
# Shear Modulus (GPa) = 25.81900 28.62722 27.22311
#
# Velocity S-wave (km/s) = 3.62595 3.81805 3.72324
# Velocity P-wave (km/s) = 6.25292 6.51440 6.38500
#
# Compressibility (1/GPa) = 0.02360883
#
# Stress axis : x y z
#
# Youngs Moduli (GPa) = 89.21567 72.69660 54.15760
#
# Poissons Ratio (x) = 0.15552 -0.02609
# Poissons Ratio (y) = 0.19086 0.44694
# Poissons Ratio (z) = -0.04297 0.59993
#
# Static dielectric constant tensor:
#      x y z
#    x 3.834690 0.000000 0.000000 
#    y 0.000000 3.327990 0.000000 
#    z 0.000000 0.000000 3.481880 
# 
# 
# High freq. dielectric constant tensor:
#      x y z
#    x 1.792590 0.000000 0.000000 
#    y 0.000000 1.740010 0.000000 
#    z 0.000000 0.000000 1.745770 
# 
# From -- ./inp_files/4929.got.cif
#   From: 2010.03.12/outbox.cif.g09.slc.cpg/sg24_3_cif.got.tgz:4929.got - 2010.04.14 03:06:53.
