data_PCOD8164947
_publ_section_title
;
Structure prediction by ZEFSAII (Michael W. Deem and Ramdas Pophale) SiO2 
 PCOD8164947
Probable space group: I 21 21 21
;
_chemical_formula_sum "Si O2"
_cell_formula_units_Z 56
_cell_length_a 8.630737
_cell_length_b 16.028567
_cell_length_c 21.405655
_cell_angle_alpha 90.000000
_cell_angle_beta 90.000000
_cell_angle_gamma 90.000000
_cell_volume 2961.222913
_symmetry_space_group_name_H-M "I 21 21 21"
_symmetry_group_IT_number 24
_symmetry_cell_setting 'orthorhombic'
loop_
_space_group_symop_operation_xyz
x,y,z
-x,1/2-y,z
x,-y,1/2-z
1/2-x,y,-z
1/2+x,1/2+y,1/2+z
1/2-x,-y,1/2+z
1/2+x,1/2-y,-z
-x,1/2+y,1/2-z
loop_
_atom_site_type_symbol
_atom_site_label
_atom_site_fract_x
_atom_site_fract_y
_atom_site_fract_z
Si Si1 0.500000 0.250000 0.381499
Si Si2 0.076512 0.638713 0.176581
Si Si3 0.793234 0.892563 0.929511
Si Si4 0.179729 0.277985 0.068851
Si Si5 0.346328 0.430425 0.132195
Si Si6 0.715245 0.000000 0.750000
Si Si7 0.259685 0.797683 0.789967
Si Si8 0.619758 0.678634 0.339070
O O1 0.424254 0.321218 0.424640
O O2 0.616809 0.298975 0.336657
O O3 0.141746 0.642099 0.106201
O O4 0.103724 0.548062 0.203468
O O5 0.170693 0.704652 0.220044
O O6 0.893676 0.650796 0.175317
O O7 0.849852 0.980251 0.901312
O O8 0.750000 0.909048 0.000000
O O9 0.218155 0.367806 0.101316
O O10 0.262920 0.205524 0.107216
O O11 0.000000 0.250000 0.067027
O O12 0.250000 0.281463 0.000000
O O13 0.316853 0.439408 0.206504
O O14 0.522366 0.396529 0.130160
O O15 0.215762 0.841194 0.724118
O O16 0.500000 0.750000 0.319060
#
# Coordination Sequence:
#
# PCOD8164947 Si02
#       8
#     4   8   8   8   8   4   8   8
#     4  10  22  38  60  88 112 152 202 256 308 362
#     4   9  20  35  56  82 117 152 192 244 298 366
#     4  10  22  41  63  84 117 161 206 252 312 367
#     4  11  23  39  63  91 127 168 211 248 297 379
#     4  10  22  38  61  88 121 164 205 253 310 370
#     4  10  20  36  56  84 118 154 204 240 310 366
#     4  10  19  35  58  85 119 148 193 247 305 359
#     4  10  20  34  60  90 120 160 201 245 306 365
#
# _framework density 18.911106
#
# number of rings (size 3 to 8) (size 9 to 14) (size 15 to 20)
#    0.000    2.000    0.714    3.429    8.000    2.286 
#    2.571    0.000    0.000    4.286    0.000    0.000 
#    0.000    0.000    0.000    0.000    0.000    0.000 
#
# Total GULP energy -347054.397683 kJ/mol
# GULP energy per Si atom -12394.799917 kJ/mol
# Density = 1.886806 g / cm^3
# Si number density = 18.911106 Si / 1000 Ang^3
#
#
#
# Elastic Constant Matrix: (Units=GPa)
#
#
# Indices 1 2 3 4 5 6 
#
# 1 129.8886 47.8269 51.1938 0.0000 0.0000 0.0000
# 2 47.8269 92.3183 40.0880 0.0000 0.0000 0.0000
# 3 51.1938 40.0880 120.0462 0.0000 0.0000 0.0000
# 4 0.0000 0.0000 0.0000 26.4210 0.0000 0.0000
# 5 0.0000 0.0000 0.0000 0.0000 23.3923 0.0000
# 6 0.0000 0.0000 0.0000 0.0000 0.0000 25.3728
#
#
#
# Elastic Compliance Matrix: (Units=1/GPa)
#
#
# Indices 1 2 3 4 5 6 
#
# 1 0.010407 -0.004052 -0.003085 0.000000 0.000000 0.000000
# 2 -0.004052 0.014247 -0.003030 0.000000 0.000000 0.000000
# 3 -0.003085 -0.003030 0.010657 0.000000 0.000000 0.000000
# 4 0.000000 0.000000 0.000000 0.037849 0.000000 0.000000
# 5 0.000000 0.000000 0.000000 0.000000 0.042749 0.000000
# 6 0.000000 0.000000 0.000000 0.000000 0.000000 0.039412
#
#
# Mechanical properties :
#
#
# Convention : Reuss Voigt Hill
#
# Bulk Modulus (GPa) = 66.76370 68.94117 67.85243
# Shear Modulus (GPa) = 27.67840 28.58019 28.12929
#
# Velocity S-wave (km/s) = 3.82986 3.89175 3.86093
# Velocity P-wave (km/s) = 7.41200 7.53185 7.47217
#
# Compressibility (1/GPa) = 0.01497820
#
# Stress axis : x y z
#
# Youngs Moduli (GPa) = 96.09193 70.19139 93.83155
#
# Poissons Ratio (x) = 0.28440 0.28946
# Poissons Ratio (y) = 0.38934 0.28428
# Poissons Ratio (z) = 0.29643 0.21266
#
# Static dielectric constant tensor:
#      x y z
#    x 3.595810 0.000000 0.000000 
#    y 0.000000 3.515380 0.000000 
#    z 0.000000 0.000000 3.442600 
# 
# 
# High freq. dielectric constant tensor:
#      x y z
#    x 1.734410 0.000000 0.000000 
#    y 0.000000 1.730140 0.000000 
#    z 0.000000 0.000000 1.735700 
# 
# From -- ./inp_files/32921.got.cif
#   From: 2010.03.12/outbox.cif.g09.slc.cpg/sg24_17_cif.got.tgz:32921.got - 2010.04.14 03:06:53.
