data_PCOD8164389
_publ_section_title
;
Structure prediction by ZEFSAII (Michael W. Deem and Ramdas Pophale) SiO2 
 PCOD8164389
Probable space group: I 2 2 2
;
_chemical_formula_sum "Si O2"
_cell_formula_units_Z 34
_cell_length_a 5.911393
_cell_length_b 11.410074
_cell_length_c 21.843384
_cell_angle_alpha 90.000000
_cell_angle_beta 90.000000
_cell_angle_gamma 90.000000
_cell_volume 1473.323834
_symmetry_space_group_name_H-M "I 2 2 2"
_symmetry_group_IT_number 23
_symmetry_cell_setting 'orthorhombic'
loop_
_space_group_symop_operation_xyz
x,y,z
-x,-y,z
x,-y,-z
-x,y,-z
1/2+x,1/2+y,1/2+z
1/2-x,1/2-y,1/2+z
1/2+x,1/2-y,1/2-z
1/2-x,1/2+y,1/2-z
loop_
_atom_site_type_symbol
_atom_site_label
_atom_site_fract_x
_atom_site_fract_y
_atom_site_fract_z
Si Si1 0.664079 0.681151 0.556388
Si Si2 0.654874 0.707991 0.339137
Si Si3 0.038500 0.129561 0.616778
Si Si4 0.500000 0.000000 0.000000
Si Si5 0.141188 0.386229 0.226967
O O1 0.500000 0.704147 0.500000
O O2 0.510933 0.641012 0.613993
O O3 0.790001 0.802741 0.571712
O O4 0.844257 0.578911 0.543725
O O5 0.798923 0.614848 0.299497
O O6 0.512267 0.774586 0.287437
O O7 0.807163 0.796989 0.378952
O O8 0.136774 0.114732 0.684938
O O9 0.000000 0.000000 0.588512
O O10 0.000000 0.500000 0.210822
#
# Coordination Sequence:
#
# PCOD8164389 Si02
#       5
#     8   8   8   2   8
#     4  11  27  51  76 101 143 190 244 302 358 425
#     4  11  23  44  72 110 144 190 241 289 360 426
#     4  11  23  45  75 105 150 188 236 299 357 428
#     4  12  26  60  74  98 140 188 246 306 354 434
#     4  11  22  41  71 106 150 191 233 290 356 427
#
# _framework density 23.077074
#
# number of rings (size 3 to 8) (size 9 to 14) (size 15 to 20)
#    0.000    0.941    4.706    1.765    0.000    0.000 
#   12.706   11.176    0.000    0.000    0.000    0.000 
#    0.000    0.000    0.000    0.000    0.000    0.000 
#
# Total GULP energy -210864.246384 kJ/mol
# GULP energy per Si atom -12403.779199 kJ/mol
# Density = 2.302455 g / cm^3
# Si number density = 23.077074 Si / 1000 Ang^3
#
#
#
# Elastic Constant Matrix: (Units=GPa)
#
#
# Indices 1 2 3 4 5 6 
#
# 1 134.0796 49.7523 66.3568 0.0000 0.0000 0.0000
# 2 49.7523 104.8570 57.3859 0.0000 0.0000 0.0000
# 3 66.3568 57.3859 135.1614 0.0000 0.0000 0.0000
# 4 0.0000 0.0000 0.0000 76.9557 0.0000 0.0000
# 5 0.0000 0.0000 0.0000 0.0000 22.3581 0.0000
# 6 0.0000 0.0000 0.0000 0.0000 0.0000 35.4406
#
#
#
# Elastic Compliance Matrix: (Units=1/GPa)
#
#
# Indices 1 2 3 4 5 6 
#
# 1 0.010447 -0.002801 -0.003940 0.000000 0.000000 0.000000
# 2 -0.002801 0.013174 -0.004218 0.000000 0.000000 0.000000
# 3 -0.003940 -0.004218 0.011124 0.000000 0.000000 0.000000
# 4 0.000000 0.000000 0.000000 0.012994 0.000000 0.000000
# 5 0.000000 0.000000 0.000000 0.000000 0.044726 0.000000
# 6 0.000000 0.000000 0.000000 0.000000 0.000000 0.028216
#
#
# Mechanical properties :
#
#
# Convention : Reuss Voigt Hill
#
# Bulk Modulus (GPa) = 77.95887 80.12089 79.03988
# Shear Modulus (GPa) = 34.04203 40.32441 37.18322
#
# Velocity S-wave (km/s) = 3.84493 4.18470 4.01841
# Velocity P-wave (km/s) = 7.31892 7.62517 7.47361
#
# Compressibility (1/GPa) = 0.01282728
#
# Stress axis : x y z
#
# Youngs Moduli (GPa) = 95.71707 75.90479 89.89649
#
# Poissons Ratio (x) = 0.21260 0.35419
# Poissons Ratio (y) = 0.26809 0.37922
# Poissons Ratio (z) = 0.37712 0.32020
#
# Static dielectric constant tensor:
#      x y z
#    x 4.427300 0.000000 0.000000 
#    y 0.000000 4.117550 0.000000 
#    z 0.000000 0.000000 4.025230 
# 
# 
# High freq. dielectric constant tensor:
#      x y z
#    x 1.932630 0.000000 0.000000 
#    y 0.000000 1.902630 0.000000 
#    z 0.000000 0.000000 1.906090 
# 
# From -- ./inp_files/1558.got.cif
#   From: 2010.03.12/outbox.cif.g09.slc.cpg/sg23_1_cif.got.tgz:1558.got - 2010.04.14 02:50:06.
