data_PCOD8164994
_publ_section_title
;
Structure prediction by ZEFSAII (Michael W. Deem and Ramdas Pophale) SiO2 
 PCOD8164994
Probable space group: I 21 21 21
;
_chemical_formula_sum "Si O2"
_cell_formula_units_Z 56
_cell_length_a 19.996030
_cell_length_b 9.293942
_cell_length_c 14.935073
_cell_angle_alpha 90.000000
_cell_angle_beta 90.000000
_cell_angle_gamma 90.000000
_cell_volume 2775.562986
_symmetry_space_group_name_H-M "I 21 21 21"
_symmetry_group_IT_number 24
_symmetry_cell_setting 'orthorhombic'
loop_
_space_group_symop_operation_xyz
x,y,z
-x,1/2-y,z
x,-y,1/2-z
1/2-x,y,-z
1/2+x,1/2+y,1/2+z
1/2-x,-y,1/2+z
1/2+x,1/2-y,-z
-x,1/2+y,1/2-z
loop_
_atom_site_type_symbol
_atom_site_label
_atom_site_fract_x
_atom_site_fract_y
_atom_site_fract_z
Si Si1 0.629579 0.217195 0.564241
Si Si2 0.462950 0.488293 0.649230
Si Si3 0.234217 0.480500 0.349828
Si Si4 0.587414 0.525705 0.523054
Si Si5 0.015813 0.080209 0.836379
Si Si6 0.120426 0.486142 0.595801
Si Si7 0.143353 0.681286 0.438714
O O1 0.631245 0.385501 0.544419
O O2 0.569445 0.169931 0.631526
O O3 0.700372 0.159628 0.603250
O O4 0.612574 0.148018 0.469386
O O5 0.490148 0.500000 0.750000
O O6 0.520646 0.523448 0.580077
O O7 0.406394 0.608244 0.633048
O O8 0.205958 0.500000 0.250000
O O9 0.313755 0.461288 0.344398
O O10 0.216552 0.623881 0.408314
O O11 0.565732 0.551462 0.420038
O O12 0.636855 0.648024 0.560921
O O13 0.945661 0.995951 0.845197
O O14 0.000000 0.250000 0.822954
O O15 0.049096 0.000000 0.750000
O O16 0.126248 0.632337 0.539033
#
# Coordination Sequence:
#
# PCOD8164994 Si02
#       7
#     8   8   8   8   8   8   8
#     4  10  21  35  61  85 123 158 204 250 313 355
#     4  10  20  34  56  87 122 164 210 245 295 376
#     4  10  21  41  62  89 116 160 221 255 289 377
#     4  12  22  38  58  91 129 159 196 259 316 372
#     4  12  25  41  65  96 126 166 209 262 319 375
#     4  10  20  41  65  84 114 164 210 250 302 365
#     4  10  19  37  61  81 123 159 200 246 315 362
#
# _framework density 20.176088
#
# number of rings (size 3 to 8) (size 9 to 14) (size 15 to 20)
#    0.000    1.714    4.286    4.714    2.000    3.429 
#    0.000    2.857    0.000    0.000    0.000    0.000 
#    0.000    0.000    0.000    0.000    0.000    0.000 
#
# Total GULP energy -347039.921473 kJ/mol
# GULP energy per Si atom -12394.282910 kJ/mol
# Density = 2.013017 g / cm^3
# Si number density = 20.176088 Si / 1000 Ang^3
#
#
#
# Elastic Constant Matrix: (Units=GPa)
#
#
# Indices 1 2 3 4 5 6 
#
# 1 60.9654 14.8166 8.0622 0.0000 0.0000 0.0000
# 2 14.8166 149.7969 27.9214 0.0000 0.0000 0.0000
# 3 8.0622 27.9214 109.5399 0.0000 0.0000 0.0000
# 4 0.0000 0.0000 0.0000 16.7708 0.0000 0.0000
# 5 0.0000 0.0000 0.0000 0.0000 15.9532 0.0000
# 6 0.0000 0.0000 0.0000 0.0000 0.0000 -13.2284
#
#
#
# Elastic Compliance Matrix: (Units=1/GPa)
#
#
# Indices 1 2 3 4 5 6 
#
# 1 0.016883 -0.001510 -0.000858 0.000000 0.000000 0.000000
# 2 -0.001510 0.007144 -0.001710 0.000000 0.000000 0.000000
# 3 -0.000858 -0.001710 0.009628 0.000000 0.000000 0.000000
# 4 0.000000 0.000000 0.000000 0.059628 0.000000 0.000000
# 5 0.000000 0.000000 0.000000 0.000000 0.062683 0.000000
# 6 0.000000 0.000000 0.000000 0.000000 0.000000 -0.075595
#
#
# Mechanical properties :
#
#
# Convention : Reuss Voigt Hill
#
# Bulk Modulus (GPa) = 39.21587 46.87806 43.04697
# Shear Modulus (GPa) = 51.53242 21.86590 36.69916
#
# Velocity S-wave (km/s) = 5.05933 3.29561 4.26953
# Velocity P-wave (km/s) = 7.32175 6.14543 6.75923
#
# Compressibility (1/GPa) = 0.02549988
#
# Stress axis : x y z
#
# Youngs Moduli (GPa) = 59.23059 139.98229 103.86329
#
# Poissons Ratio (x) = 0.21138 0.08908
# Poissons Ratio (y) = 0.08944 0.17758
# Poissons Ratio (z) = 0.05080 0.23934
#
# Static dielectric constant tensor:
#      x y z
#    x 3.475250 0.000000 0.000000 
#    y 0.000000 3.585610 0.000000 
#    z 0.000000 0.000000 3.782390 
# 
# 
# High freq. dielectric constant tensor:
#      x y z
#    x 1.770590 0.000000 0.000000 
#    y 0.000000 1.770710 0.000000 
#    z 0.000000 0.000000 1.794660 
# 
# From -- ./inp_files/27529.got.cif
#   From: 2010.03.12/outbox.cif.g09.slc.cpg/sg24_14_cif.got.tgz:27529.got - 2010.04.14 03:06:53.
