data_PCOD8164188
_publ_section_title
;
Structure prediction by ZEFSAII (Michael W. Deem and Ramdas Pophale) SiO2 
 PCOD8164188
Probable space group: I 2 2 2
;
_chemical_formula_sum "Si O2"
_cell_formula_units_Z 28
_cell_length_a 11.411232
_cell_length_b 5.951031
_cell_length_c 17.528542
_cell_angle_alpha 90.000000
_cell_angle_beta 90.000000
_cell_angle_gamma 90.000000
_cell_volume 1190.338666
_symmetry_space_group_name_H-M "I 2 2 2"
_symmetry_group_IT_number 23
_symmetry_cell_setting 'orthorhombic'
loop_
_space_group_symop_operation_xyz
x,y,z
-x,-y,z
x,-y,-z
-x,y,-z
1/2+x,1/2+y,1/2+z
1/2-x,1/2-y,1/2+z
1/2+x,1/2-y,1/2-z
1/2-x,1/2+y,1/2-z
loop_
_atom_site_type_symbol
_atom_site_label
_atom_site_fract_x
_atom_site_fract_y
_atom_site_fract_z
Si Si1 0.175882 0.692911 0.317590
Si Si2 0.000000 0.000000 0.405868
Si Si3 0.365034 0.031821 0.348106
Si Si4 0.193239 0.677866 0.565950
O O1 0.152586 0.677927 0.228026
O O2 0.159455 0.450875 0.356345
O O3 0.084475 0.868691 0.349906
O O4 0.305805 0.787911 0.335647
O O5 0.919319 0.831588 0.457641
O O6 0.305655 0.164504 0.418913
O O7 0.500000 0.000000 0.368763
O O8 0.222223 0.500000 0.500000
#
# Coordination Sequence:
#
# PCOD8164188 Si02
#       4
#     8   4   8   8
#     4  11  23  42  69 106 139 185 239 300 358 429
#     4  10  24  41  72 104 139 182 240 298 371 414
#     4  11  24  42  71 104 145 190 243 294 358 434
#     4  11  25  45  69 105 148 187 240 299 366 431
#
# _framework density 23.522718000000001
#
# number of rings (size 3 to 8) (size 9 to 14) (size 15 to 20)
#    0.000    1.143    2.857    2.571    4.000    9.143 
#    0.000    4.286    0.000    1.714    0.000    0.000 
#    0.000    0.000    0.000    0.000    0.000    0.000 
#
# Total GULP energy -173647.369213 kJ/mol
# GULP energy per Si atom -12403.383515 kJ/mol
# Density = 2.346918 g / cm^3
# Si number density = 23.522718 Si / 1000 Ang^3
#
#
#
# Elastic Constant Matrix: (Units=GPa)
#
#
# Indices 1 2 3 4 5 6 
#
# 1 197.9962 68.0286 44.0404 0.0000 0.0000 0.0000
# 2 68.0286 114.4360 34.9888 0.0000 0.0000 0.0000
# 3 44.0404 34.9888 98.7867 0.0000 0.0000 0.0000
# 4 0.0000 0.0000 0.0000 55.0004 0.0000 0.0000
# 5 0.0000 0.0000 0.0000 0.0000 26.0610 0.0000
# 6 0.0000 0.0000 0.0000 0.0000 0.0000 22.8473
#
#
#
# Elastic Compliance Matrix: (Units=1/GPa)
#
#
# Indices 1 2 3 4 5 6 
#
# 1 0.006604 -0.003393 -0.001742 0.000000 0.000000 0.000000
# 2 -0.003393 0.011543 -0.002576 0.000000 0.000000 0.000000
# 3 -0.001742 -0.002576 0.011812 0.000000 0.000000 0.000000
# 4 0.000000 0.000000 0.000000 0.018182 0.000000 0.000000
# 5 0.000000 0.000000 0.000000 0.000000 0.038372 0.000000
# 6 0.000000 0.000000 0.000000 0.000000 0.000000 0.043769
#
#
# Mechanical properties :
#
#
# Convention : Reuss Voigt Hill
#
# Bulk Modulus (GPa) = 68.79183 78.37050 73.58117
# Shear Modulus (GPa) = 33.21177 38.39246 35.80212
#
# Velocity S-wave (km/s) = 3.76160 4.04436 3.90554
# Velocity P-wave (km/s) = 6.94079 7.42956 7.18933
#
# Compressibility (1/GPa) = 0.01453661
#
# Stress axis : x y z
#
# Youngs Moduli (GPa) = 151.42367 86.63153 84.66069
#
# Poissons Ratio (x) = 0.29395 0.14751
# Poissons Ratio (y) = 0.51380 0.21806
# Poissons Ratio (z) = 0.26383 0.22314
#
# Static dielectric constant tensor:
#      x y z
#    x 4.345670 0.000000 0.000000 
#    y 0.000000 4.586030 0.000000 
#    z 0.000000 0.000000 4.117980 
# 
# 
# High freq. dielectric constant tensor:
#      x y z
#    x 1.931350 0.000000 0.000000 
#    y 0.000000 1.948430 0.000000 
#    z 0.000000 0.000000 1.932630 
# 
# From -- ./inp_files/1245.got.cif
#   From: 2010.03.12/outbox.cif.g09.slc.cpg/sg23_1_cif.got.tgz:1245.got - 2010.04.14 02:50:06.
