data_PCOD8164681
_publ_section_title
;
Structure prediction by ZEFSAII (Michael W. Deem and Ramdas Pophale) SiO2 
 PCOD8164681
Probable space group: I 21 21 21
;
_chemical_formula_sum "Si O2"
_cell_formula_units_Z 52
_cell_length_a 13.082246
_cell_length_b 18.438774
_cell_length_c 12.324567
_cell_angle_alpha 90.000000
_cell_angle_beta 90.000000
_cell_angle_gamma 90.000000
_cell_volume 2972.939168
_symmetry_space_group_name_H-M "I 21 21 21"
_symmetry_group_IT_number 24
_symmetry_cell_setting 'orthorhombic'
loop_
_space_group_symop_operation_xyz
x,y,z
-x,1/2-y,z
x,-y,1/2-z
1/2-x,y,-z
1/2+x,1/2+y,1/2+z
1/2-x,-y,1/2+z
1/2+x,1/2-y,-z
-x,1/2+y,1/2-z
loop_
_atom_site_type_symbol
_atom_site_label
_atom_site_fract_x
_atom_site_fract_y
_atom_site_fract_z
Si Si1 0.946858 0.640531 0.001597
Si Si2 0.150751 0.711710 0.943900
Si Si3 0.171576 0.232513 0.789828
Si Si4 0.844316 0.425657 0.694093
Si Si5 0.838416 0.330324 0.080738
Si Si6 0.000000 0.250000 0.943740
Si Si7 0.387562 0.924458 0.781879
O O1 0.877384 0.712262 0.000138
O O2 0.900025 0.580153 0.921956
O O3 0.059512 0.655346 0.956271
O O4 0.954907 0.615027 0.126440
O O5 0.179806 0.722670 0.819286
O O6 0.250000 0.677999 0.000000
O O7 0.138091 0.147771 0.766638
O O8 0.280608 0.234278 0.852858
O O9 0.089744 0.276796 0.862913
O O10 0.885306 0.500000 0.750000
O O11 0.724851 0.434862 0.667648
O O12 0.880728 0.385756 0.167081
O O13 0.750000 0.362872 0.000000
O O14 0.942093 0.308245 0.018684
O O15 0.440260 0.000000 0.750000
#
# Coordination Sequence:
#
# PCOD8164681 Si02
#       7
#     8   8   8   8   8   4   8
#     4  10  19  31  50  76  99 127 163 201 249 302
#     4  10  19  32  52  74  99 127 160 207 252 293
#     4   9  17  31  47  72  99 121 156 197 238 289
#     4   9  17  30  51  74  99 128 155 193 245 301
#     4   9  19  31  46  68  95 127 159 192 236 288
#     4  10  18  30  46  66 100 130 154 192 236 282
#     4  10  20  31  46  71 102 129 157 197 243 296
#
# _framework density 17.491108000000001
#
# number of rings (size 3 to 8) (size 9 to 14) (size 15 to 20)
#    0.000    2.462    0.000    5.077    0.000    7.385 
#    0.000    0.000    0.000    0.923    0.000    6.462 
#    0.000    0.000    0.000    0.000    0.000    0.000 
#
# Total GULP energy -322108.194726 kJ/mol
# GULP energy per Si atom -12388.776720 kJ/mol
# Density = 1.745130 g / cm^3
# Si number density = 17.491108 Si / 1000 Ang^3
#
#
#
# Elastic Constant Matrix: (Units=GPa)
#
#
# Indices 1 2 3 4 5 6 
#
# 1 61.9003 18.5239 28.9572 0.0000 0.0000 0.0000
# 2 18.5239 41.5488 34.5835 0.0000 0.0000 0.0000
# 3 28.9572 34.5835 135.5944 0.0002 0.0000 0.0000
# 4 0.0000 0.0000 0.0002 21.8690 0.0000 0.0000
# 5 0.0000 0.0000 0.0000 0.0000 28.0386 0.0000
# 6 0.0000 0.0000 0.0000 0.0000 0.0000 14.9026
#
#
#
# Elastic Compliance Matrix: (Units=1/GPa)
#
#
# Indices 1 2 3 4 5 6 
#
# 1 0.019258 -0.006554 -0.002441 0.000000 0.000000 0.000000
# 2 -0.006554 0.032785 -0.006962 0.000000 0.000000 0.000000
# 3 -0.002441 -0.006962 0.009672 0.000000 0.000000 0.000000
# 4 0.000000 0.000000 0.000000 0.045727 0.000000 0.000000
# 5 0.000000 0.000000 0.000000 0.000000 0.035665 0.000000
# 6 0.000000 0.000000 0.000000 0.000000 0.000000 0.067102
#
#
# Mechanical properties :
#
#
# Convention : Reuss Voigt Hill
#
# Bulk Modulus (GPa) = 33.55641 44.79695 39.17668
# Shear Modulus (GPa) = 19.83669 23.42732 21.63201
#
# Velocity S-wave (km/s) = 3.37130 3.66373 3.52055
# Velocity P-wave (km/s) = 5.86350 6.60031 6.24279
#
# Compressibility (1/GPa) = 0.02980057
#
# Stress axis : x y z
#
# Youngs Moduli (GPa) = 51.92561 30.50158 103.39149
#
# Poissons Ratio (x) = 0.19991 0.25239
# Poissons Ratio (y) = 0.34033 0.71983
# Poissons Ratio (z) = 0.12676 0.21236
#
# Static dielectric constant tensor:
#      x y z
#    x 3.216070 0.000000 0.000000 
#    y 0.000000 2.991500 0.000000 
#    z 0.000000 0.000000 3.491040 
# 
# 
# High freq. dielectric constant tensor:
#      x y z
#    x 1.656620 0.000000 0.000000 
#    y 0.000000 1.627200 0.000000 
#    z 0.000000 0.000000 1.702300 
# 
# From -- ./inp_files/20985.got.cif
#   From: 2010.03.12/outbox.cif.g09.slc.cpg/sg24_11_cif.got.tgz:20985.got - 2010.04.14 03:06:53.
