data_PCOD8164476
_publ_section_title
;
Structure prediction by ZEFSAII (Michael W. Deem and Ramdas Pophale) SiO2 
 PCOD8164476
Probable space group: I 2 2 2
;
_chemical_formula_sum "Si O2"
_cell_formula_units_Z 40
_cell_length_a 8.376700
_cell_length_b 23.712985
_cell_length_c 7.763098
_cell_angle_alpha 90.000000
_cell_angle_beta 90.000000
_cell_angle_gamma 90.000000
_cell_volume 1542.035093
_symmetry_space_group_name_H-M "I 2 2 2"
_symmetry_group_IT_number 23
_symmetry_cell_setting 'orthorhombic'
loop_
_space_group_symop_operation_xyz
x,y,z
-x,-y,z
x,-y,-z
-x,y,-z
1/2+x,1/2+y,1/2+z
1/2-x,1/2-y,1/2+z
1/2+x,1/2-y,1/2-z
1/2-x,1/2+y,1/2-z
loop_
_atom_site_type_symbol
_atom_site_label
_atom_site_fract_x
_atom_site_fract_y
_atom_site_fract_z
Si Si1 0.298294 0.689932 0.339661
Si Si2 0.799786 0.386900 0.649668
Si Si3 0.393321 0.892236 0.671273
Si Si4 0.184429 0.001767 0.296227
Si Si5 0.891520 0.802168 0.653932
O O1 0.277582 0.640661 0.480903
O O2 0.219951 0.663689 0.161926
O O3 0.200396 0.745010 0.394067
O O4 0.484490 0.705955 0.314882
O O5 0.759995 0.452075 0.683047
O O6 0.730230 0.352461 0.812601
O O7 0.990317 0.380588 0.665323
O O8 0.500000 0.905357 0.500000
O O9 0.281904 0.941984 0.745898
O O10 0.204263 0.000000 0.500000
O O11 0.000000 0.000000 0.241831
O O12 0.000000 0.822711 0.500000
#
# Coordination Sequence:
#
# PCOD8164476 Si02
#       5
#     8   8   8   8   8
#     4  12  27  48  74 113 152 201 264 336 404 469
#     4  12  26  45  75 111 156 198 267 332 391 474
#     4  12  24  45  76 110 150 207 263 319 398 479
#     4  11  25  46  75 113 151 202 261 317 391 480
#     4  12  26  47  74 107 152 208 262 325 404 485
#
# _framework density 25.939748000000002
#
# number of rings (size 3 to 8) (size 9 to 14) (size 15 to 20)
#    0.000    0.200    2.000    7.800    2.800    2.400 
#    0.000    3.000    0.000    0.000    0.000    0.000 
#    0.000    0.000    0.000    0.000    0.000    0.000 
#
# Total GULP energy -247875.209321 kJ/mol
# GULP energy per Si atom -12393.760466 kJ/mol
# Density = 2.588071 g / cm^3
# Si number density = 25.939748 Si / 1000 Ang^3
#
#
#
# Elastic Constant Matrix: (Units=GPa)
#
#
# Indices 1 2 3 4 5 6 
#
# 1 120.6852 19.9982 -29.0321 -0.0003 -0.0016 0.0076
# 2 19.9982 106.4264 -13.7932 0.0000 -0.0013 0.0111
# 3 -29.0321 -13.7932 38.1349 0.0053 0.0026 -0.0203
# 4 -0.0003 0.0000 0.0053 40.0376 0.0002 -0.0067
# 5 -0.0016 -0.0013 0.0026 0.0002 27.8676 -0.0019
# 6 0.0076 0.0111 -0.0203 -0.0067 -0.0019 39.7747
#
#
#
# Elastic Compliance Matrix: (Units=1/GPa)
#
#
# Indices 1 2 3 4 5 6 
#
# 1 0.010236 -0.000958 0.007446 -0.000001 0.000000 0.000002
# 2 -0.000958 0.009948 0.002869 0.000000 0.000000 -0.000001
# 3 0.007446 0.002869 0.032929 -0.000004 -0.000003 0.000015
# 4 -0.000001 0.000000 -0.000004 0.024976 0.000000 0.000004
# 5 0.000000 0.000000 -0.000003 0.000000 0.035884 0.000002
# 6 0.000002 -0.000001 0.000015 0.000004 0.000002 0.025142
#
#
# Mechanical properties :
#
#
# Convention : Reuss Voigt Hill
#
# Bulk Modulus (GPa) = 13.92262 24.39914 19.16088
# Shear Modulus (GPa) = 34.63935 40.74089 37.69012
#
# Velocity S-wave (km/s) = 3.65825 3.96738 3.81594
# Velocity P-wave (km/s) = 4.81899 5.51482 5.17860
#
# Compressibility (1/GPa) = 0.07182555
#
# Stress axis : x y z
#
# Youngs Moduli (GPa) = 97.69377 100.52249 30.36838
#
# Poissons Ratio (x) = 0.09634 -0.22613
# Poissons Ratio (y) = 0.09363 -0.08711
# Poissons Ratio (z) = -0.72744 -0.28835
#
# Static dielectric constant tensor:
#      x y z
#    x 5.448960 0.000000 -0.000010 
#    y 0.000000 4.597230 0.000000 
#    z -0.000010 0.000000 4.771840 
# 
# 
# High freq. dielectric constant tensor:
#      x y z
#    x 2.067500 0.000000 0.000000 
#    y 0.000000 2.035890 0.000000 
#    z 0.000000 0.000000 2.047530 
# 
# From -- ./inp_files/7087.got.cif
#   From: 2010.03.12/outbox.cif.g09.slc.cpg/sg23_4_cif.got.tgz:7087.got - 2010.04.14 02:50:06.
