data_PCOD8164384
_publ_section_title
;
Structure prediction by ZEFSAII (Michael W. Deem and Ramdas Pophale) SiO2 
 PCOD8164384
Probable space group: I 2 2 2
;
_chemical_formula_sum "Si O2"
_cell_formula_units_Z 60
_cell_length_a 11.399949
_cell_length_b 20.558425
_cell_length_c 12.518545
_cell_angle_alpha 90.000000
_cell_angle_beta 90.000000
_cell_angle_gamma 90.000000
_cell_volume 2933.908755
_symmetry_space_group_name_H-M "I 2 2 2"
_symmetry_group_IT_number 23
_symmetry_cell_setting 'orthorhombic'
loop_
_space_group_symop_operation_xyz
x,y,z
-x,-y,z
x,-y,-z
-x,y,-z
1/2+x,1/2+y,1/2+z
1/2-x,1/2-y,1/2+z
1/2+x,1/2-y,1/2-z
1/2-x,1/2+y,1/2-z
loop_
_atom_site_type_symbol
_atom_site_label
_atom_site_fract_x
_atom_site_fract_y
_atom_site_fract_z
Si Si1 0.266844 0.290869 0.544602
Si Si2 0.135584 0.497914 0.373215
Si Si3 0.000000 0.730496 0.000000
Si Si4 0.650114 0.309308 0.811097
Si Si5 0.663132 0.144624 0.152550
Si Si6 0.957795 0.688915 0.780981
Si Si7 0.989423 0.924824 0.372822
Si Si8 0.266673 0.615913 0.263437
O O1 0.384192 0.273546 0.478886
O O2 0.196889 0.226290 0.581744
O O3 0.178963 0.330495 0.468305
O O4 0.309181 0.335939 0.642794
O O5 0.143088 0.500000 0.500000
O O6 0.195245 0.430690 0.337848
O O7 0.215052 0.551163 0.316058
O O8 0.000000 0.500000 0.335551
O O9 0.976091 0.686734 0.104923
O O10 0.759916 0.313655 0.732823
O O11 0.553301 0.263709 0.755798
O O12 0.595871 0.380481 0.830238
O O13 0.527727 0.152344 0.187370
O O14 0.834519 0.653487 0.800331
O O15 0.867974 0.898616 0.322770
O O16 0.000000 0.919196 0.500000
O O17 0.000000 0.000000 0.336509
#
# Coordination Sequence:
#
# PCOD8164384 Si02
#       8
#     8   8   4   8   8   8   8   8
#     4  11  25  39  69 101 136 175 226 282 344 412
#     4  11  22  40  67  97 133 177 222 279 334 400
#     4  12  22  42  60 100 136 176 220 282 346 398
#     4  11  25  39  65  94 130 175 216 280 331 403
#     4  12  23  42  64 101 132 175 226 271 349 403
#     4  11  25  39  67  99 133 174 222 283 340 404
#     4  11  27  47  68  93 131 183 230 268 328 414
#     4  11  24  45  67  99 136 175 220 283 340 402
#
# _framework density 20.450534000000001
#
# number of rings (size 3 to 8) (size 9 to 14) (size 15 to 20)
#    0.000    0.800    5.333    1.600    5.600    1.600 
#    0.000    0.000    0.000    0.800    0.000    0.000 
#    0.000    0.000    0.000    0.000    0.000    0.000 
#
# Total GULP energy -371972.308625 kJ/mol
# GULP energy per Si atom -12399.076954 kJ/mol
# Density = 2.040399 g / cm^3
# Si number density = 20.450534 Si / 1000 Ang^3
#
#
#
# Elastic Constant Matrix: (Units=GPa)
#
#
# Indices 1 2 3 4 5 6 
#
# 1 96.6058 35.7618 45.6033 0.0001 0.0000 0.0000
# 2 35.7618 132.3302 35.2721 -0.0001 0.0000 0.0000
# 3 45.6033 35.2721 100.4505 -0.0003 0.0000 0.0002
# 4 0.0001 -0.0001 -0.0003 28.4401 0.0000 0.0001
# 5 0.0000 0.0000 0.0000 0.0000 36.5034 0.0000
# 6 0.0000 0.0000 0.0002 0.0001 0.0000 20.1972
#
#
#
# Elastic Compliance Matrix: (Units=1/GPa)
#
#
# Indices 1 2 3 4 5 6 
#
# 1 0.013764 -0.002266 -0.005453 0.000000 0.000000 0.000000
# 2 -0.002266 0.008710 -0.002030 0.000000 0.000000 0.000000
# 3 -0.005453 -0.002030 0.013143 0.000000 0.000000 0.000000
# 4 0.000000 0.000000 0.000000 0.035162 0.000000 0.000000
# 5 0.000000 0.000000 0.000000 0.000000 0.027395 0.000000
# 6 0.000000 0.000000 0.000000 0.000000 0.000000 0.049512
#
#
# Mechanical properties :
#
#
# Convention : Reuss Voigt Hill
#
# Bulk Modulus (GPa) = 62.03426 62.51789 62.27607
# Shear Modulus (GPa) = 28.97577 31.21143 30.09360
#
# Velocity S-wave (km/s) = 3.76822 3.91089 3.84022
# Velocity P-wave (km/s) = 7.02369 7.14353 7.08387
#
# Compressibility (1/GPa) = 0.01612012
#
# Stress axis : x y z
#
# Youngs Moduli (GPa) = 72.65090 114.80644 76.08334
#
# Poissons Ratio (x) = 0.26019 0.41489
# Poissons Ratio (y) = 0.16465 0.15442
# Poissons Ratio (z) = 0.39617 0.23302
#
# Static dielectric constant tensor:
#      x y z
#    x 3.618350 0.000000 0.000000 
#    y 0.000000 3.820670 0.000000 
#    z 0.000000 0.000000 3.627000 
# 
# 
# High freq. dielectric constant tensor:
#      x y z
#    x 1.800360 0.000000 0.000000 
#    y 0.000000 1.805800 0.000000 
#    z 0.000000 0.000000 1.802270 
# 
# From -- ./inp_files/15959.got.cif
#   From: 2010.03.12/outbox.cif.g09.slc.cpg/sg23_8_cif.got.tgz:15959.got - 2010.04.14 02:50:06.
