data_PCOD8164108
_publ_section_title
;
Structure prediction by ZEFSAII (Michael W. Deem and Ramdas Pophale) SiO2 
 PCOD8164108
Probable space group: I 2 2 2
;
_chemical_formula_sum "Si O2"
_cell_formula_units_Z 40
_cell_length_a 15.225973
_cell_length_b 14.630683
_cell_length_c 7.998129
_cell_angle_alpha 90.000000
_cell_angle_beta 90.000000
_cell_angle_gamma 90.000000
_cell_volume 1781.714279
_symmetry_space_group_name_H-M "I 2 2 2"
_symmetry_group_IT_number 23
_symmetry_cell_setting 'orthorhombic'
loop_
_space_group_symop_operation_xyz
x,y,z
-x,-y,z
x,-y,-z
-x,y,-z
1/2+x,1/2+y,1/2+z
1/2-x,1/2-y,1/2+z
1/2+x,1/2-y,1/2-z
1/2-x,1/2+y,1/2-z
loop_
_atom_site_type_symbol
_atom_site_label
_atom_site_fract_x
_atom_site_fract_y
_atom_site_fract_z
Si Si1 0.673623 0.785335 0.677417
Si Si2 0.164410 0.332584 0.794440
Si Si3 0.775428 0.521568 0.305196
Si Si4 0.417546 0.455688 0.316171
Si Si5 0.490127 0.277153 0.191166
O O1 0.756480 0.718552 0.699479
O O2 0.663441 0.802357 0.483755
O O3 0.587119 0.734043 0.738269
O O4 0.680655 0.880199 0.777540
O O5 0.174501 0.441983 0.792482
O O6 0.070921 0.312998 0.704066
O O7 0.776502 0.500000 0.500000
O O8 0.676064 0.524236 0.232139
O O9 0.500000 0.500000 0.215112
O O10 0.416532 0.500000 0.500000
O O11 0.435748 0.347668 0.308473
O O12 0.500000 0.309436 0.000000
#
# Coordination Sequence:
#
# PCOD8164108 Si02
#       5
#     8   8   8   8   8
#     4  12  26  45  72 103 149 192 240 296 358 433
#     4  12  26  45  72 104 146 192 241 293 363 428
#     4  11  23  45  72 104 142 189 240 298 357 425
#     4  10  23  40  71 103 142 181 236 289 364 415
#     4  12  26  46  72 109 141 191 242 297 362 430
#
# _framework density 22.450289000000001
#
# number of rings (size 3 to 8) (size 9 to 14) (size 15 to 20)
#    0.000    0.600    2.000    6.000    8.400    1.200 
#    3.600    4.000    0.000    0.000    0.000    0.000 
#    0.000    0.000    0.000    0.000    0.000    0.000 
#
# Total GULP energy -247990.760845 kJ/mol
# GULP energy per Si atom -12399.538042 kJ/mol
# Density = 2.239919 g / cm^3
# Si number density = 22.450289 Si / 1000 Ang^3
#
#
#
# Elastic Constant Matrix: (Units=GPa)
#
#
# Indices 1 2 3 4 5 6 
#
# 1 93.9522 -2.0200 19.3667 0.0000 0.0000 0.0000
# 2 -2.0200 91.0732 11.4301 0.0000 0.0000 0.0000
# 3 19.3667 11.4301 98.7732 0.0000 0.0000 0.0000
# 4 0.0000 0.0000 0.0000 70.5773 0.0000 0.0000
# 5 0.0000 0.0000 0.0000 0.0000 24.3347 0.0000
# 6 0.0000 0.0000 0.0000 0.0000 0.0000 45.5225
#
#
#
# Elastic Compliance Matrix: (Units=1/GPa)
#
#
# Indices 1 2 3 4 5 6 
#
# 1 0.011117 0.000528 -0.002241 0.000000 0.000000 0.000000
# 2 0.000528 0.011167 -0.001396 0.000000 0.000000 0.000000
# 3 -0.002241 -0.001396 0.010725 0.000000 0.000000 0.000000
# 4 0.000000 0.000000 0.000000 0.014169 0.000000 0.000000
# 5 0.000000 0.000000 0.000000 0.000000 0.041094 0.000000
# 6 0.000000 0.000000 0.000000 0.000000 0.000000 0.021967
#
#
# Mechanical properties :
#
#
# Convention : Reuss Voigt Hill
#
# Bulk Modulus (GPa) = 37.32514 37.92804 37.62659
# Shear Modulus (GPa) = 39.87661 45.08835 42.48248
#
# Velocity S-wave (km/s) = 4.21909 4.48634 4.35477
# Velocity P-wave (km/s) = 6.35579 6.61568 6.48704
#
# Compressibility (1/GPa) = 0.02679160
#
# Stress axis : x y z
#
# Youngs Moduli (GPa) = 89.95257 89.54908 93.23939
#
# Poissons Ratio (x) = -0.04726 0.20893
# Poissons Ratio (y) = -0.04748 0.13014
# Poissons Ratio (z) = 0.20157 0.12499
#
# Static dielectric constant tensor:
#      x y z
#    x 4.212220 0.000000 0.000000 
#    y 0.000000 4.523580 0.000000 
#    z 0.000000 0.000000 3.946190 
# 
# 
# High freq. dielectric constant tensor:
#      x y z
#    x 1.899380 0.000000 0.000000 
#    y 0.000000 1.892840 0.000000 
#    z 0.000000 0.000000 1.879300 
# 
# From -- ./inp_files/9582.got.cif
#   From: 2010.03.12/outbox.cif.g09.slc.cpg/sg23_5_cif.got.tgz:9582.got - 2010.04.14 02:50:06.
