data_PCOD8164316
_publ_section_title
;
Structure prediction by ZEFSAII (Michael W. Deem and Ramdas Pophale) SiO2 
 PCOD8164316
Probable space group: I 2 2 2
;
_chemical_formula_sum "Si O2"
_cell_formula_units_Z 64
_cell_length_a 9.692119
_cell_length_b 21.300586
_cell_length_c 15.672378
_cell_angle_alpha 90.000000
_cell_angle_beta 90.000000
_cell_angle_gamma 90.000000
_cell_volume 3235.528183
_symmetry_space_group_name_H-M "I 2 2 2"
_symmetry_group_IT_number 23
_symmetry_cell_setting 'orthorhombic'
loop_
_space_group_symop_operation_xyz
x,y,z
-x,-y,z
x,-y,-z
-x,y,-z
1/2+x,1/2+y,1/2+z
1/2-x,1/2-y,1/2+z
1/2+x,1/2-y,1/2-z
1/2-x,1/2+y,1/2-z
loop_
_atom_site_type_symbol
_atom_site_label
_atom_site_fract_x
_atom_site_fract_y
_atom_site_fract_z
Si Si1 0.209010 0.772132 0.088868
Si Si2 0.454001 0.177070 0.813430
Si Si3 0.242707 0.131208 0.397295
Si Si4 0.514497 0.067347 0.692304
Si Si5 0.193504 0.270073 0.602303
Si Si6 0.965557 0.205841 0.803849
Si Si7 0.438016 0.363634 0.148021
Si Si8 0.217371 0.562082 0.942258
O O1 0.305204 0.817558 0.144248
O O2 0.231973 0.702933 0.127243
O O3 0.052471 0.792583 0.108289
O O4 0.239427 0.777227 0.989826
O O5 0.448103 0.114082 0.759502
O O6 0.568847 0.179822 0.888491
O O7 0.498358 0.232825 0.750946
O O8 0.328090 0.086246 0.332064
O O9 0.293855 0.120438 0.493453
O O10 0.079248 0.118868 0.400101
O O11 0.428523 0.060239 0.604730
O O12 0.500000 0.000000 0.738147
O O13 0.304710 0.291887 0.672896
O O14 0.137175 0.199349 0.613829
O O15 0.014069 0.145709 0.747098
O O16 0.336149 0.422561 0.129045
O O17 0.248586 0.500000 0.000000
#
# Coordination Sequence:
#
# PCOD8164316 Si02
#       8
#     8   8   8   8   8   8   8   8
#     4  12  22  36  61  93 122 159 210 261 321 377
#     4  11  22  38  60  87 125 161 209 257 322 375
#     4  12  23  37  60  86 127 169 212 253 309 370
#     4  12  25  44  62  89 128 177 215 258 306 384
#     4  11  22  37  60  90 121 159 206 263 321 374
#     4  11  21  36  57  89 123 161 201 260 319 374
#     4  11  24  38  60  89 127 167 210 260 313 377
#     4  12  25  41  60  88 132 172 216 251 297 378
#
# _framework density 19.780387999999999
#
# number of rings (size 3 to 8) (size 9 to 14) (size 15 to 20)
#    0.000    0.500    6.250    5.250    0.000    2.000 
#    0.000    0.000    0.000    1.500    0.000    0.000 
#    0.000    4.000    0.000    0.000    0.000    0.000 
#
# Total GULP energy -396636.021488 kJ/mol
# GULP energy per Si atom -12394.875672 kJ/mol
# Density = 1.973537 g / cm^3
# Si number density = 19.780388 Si / 1000 Ang^3
#
#
#
# Elastic Constant Matrix: (Units=GPa)
#
#
# Indices 1 2 3 4 5 6 
#
# 1 104.8346 34.0246 19.7695 0.0000 0.0000 0.0000
# 2 34.0246 79.3722 38.0286 0.0000 0.0000 0.0000
# 3 19.7695 38.0286 72.8390 0.0000 0.0000 0.0000
# 4 0.0000 0.0000 0.0000 33.4460 0.0000 0.0000
# 5 0.0000 0.0000 0.0000 0.0000 37.4023 0.0000
# 6 0.0000 0.0000 0.0000 0.0000 0.0000 24.0005
#
#
#
# Elastic Compliance Matrix: (Units=1/GPa)
#
#
# Indices 1 2 3 4 5 6 
#
# 1 0.011108 -0.004424 -0.000705 0.000000 0.000000 0.000000
# 2 -0.004424 0.018563 -0.008491 0.000000 0.000000 0.000000
# 3 -0.000705 -0.008491 0.018353 0.000000 0.000000 0.000000
# 4 0.000000 0.000000 0.000000 0.029899 0.000000 0.000000
# 5 0.000000 0.000000 0.000000 0.000000 0.026736 0.000000
# 6 0.000000 0.000000 0.000000 0.000000 0.000000 0.041666
#
#
# Mechanical properties :
#
#
# Convention : Reuss Voigt Hill
#
# Bulk Modulus (GPa) = 48.11289 48.96569 48.53929
# Shear Modulus (GPa) = 27.70182 29.98464 28.84323
#
# Velocity S-wave (km/s) = 3.74634 3.89765 3.82275
# Velocity P-wave (km/s) = 6.56428 6.71297 6.63904
#
# Compressibility (1/GPa) = 0.02078445
#
# Stress axis : x y z
#
# Youngs Moduli (GPa) = 90.02902 53.86942 54.48556
#
# Poissons Ratio (x) = 0.23830 0.03842
# Poissons Ratio (y) = 0.39825 0.46265
# Poissons Ratio (z) = 0.06349 0.45741
#
# Static dielectric constant tensor:
#      x y z
#    x 3.844940 0.000000 0.000000 
#    y 0.000000 3.540220 0.000000 
#    z 0.000000 0.000000 3.639540 
# 
# 
# High freq. dielectric constant tensor:
#      x y z
#    x 1.793650 0.000000 0.000000 
#    y 0.000000 1.730570 0.000000 
#    z 0.000000 0.000000 1.764570 
# 
# From -- ./inp_files/23978.got.cif
#   From: 2010.03.12/outbox.cif.g09.slc.cpg/sg23_12_cif.got.tgz:23978.got - 2010.04.14 02:50:06.
