data_PCOD8164400
_publ_section_title
;
Structure prediction by ZEFSAII (Michael W. Deem and Ramdas Pophale) SiO2 
 PCOD8164400
Probable space group: I 2 2 2
;
_chemical_formula_sum "Si O2"
_cell_formula_units_Z 32
_cell_length_a 10.928553
_cell_length_b 18.669670
_cell_length_c 6.783073
_cell_angle_alpha 90.000000
_cell_angle_beta 90.000000
_cell_angle_gamma 90.000000
_cell_volume 1383.967193
_symmetry_space_group_name_H-M "I 2 2 2"
_symmetry_group_IT_number 23
_symmetry_cell_setting 'orthorhombic'
loop_
_space_group_symop_operation_xyz
x,y,z
-x,-y,z
x,-y,-z
-x,y,-z
1/2+x,1/2+y,1/2+z
1/2-x,1/2-y,1/2+z
1/2+x,1/2-y,1/2-z
1/2-x,1/2+y,1/2-z
loop_
_atom_site_type_symbol
_atom_site_label
_atom_site_fract_x
_atom_site_fract_y
_atom_site_fract_z
Si Si1 0.533003 0.924606 0.728039
Si Si2 0.712227 0.580568 0.073787
Si Si3 0.623420 0.322106 0.622692
Si Si4 0.684636 0.831208 0.213446
O O1 0.500000 0.924907 0.500000
O O2 0.678161 0.914074 0.734677
O O3 0.448477 0.865620 0.835312
O O4 0.500000 0.000000 0.827620
O O5 0.604345 0.615861 0.208249
O O6 0.681451 0.500000 0.000000
O O7 0.743197 0.629008 0.887385
O O8 0.500000 0.311825 0.500000
O O9 0.660055 0.250573 0.736276
O O10 0.733567 0.340439 0.477680
#
# Coordination Sequence:
#
# PCOD8164400 Si02
#       4
#     8   8   8   8
#     4   9  16  37  73 100 133 172 235 307 356 408
#     4  11  22  45  74 104 143 191 242 308 364 424
#     4  12  27  46  70 108 151 194 246 292 363 458
#     4  11  23  44  73 107 142 188 241 303 371 434
#
# _framework density 23.121936000000002
#
# number of rings (size 3 to 8) (size 9 to 14) (size 15 to 20)
#    0.000    1.250    7.500    2.250    0.000    3.000 
#    0.000    5.000    0.000    0.000    0.000    0.000 
#    0.000    0.000    0.000    0.000    0.000    0.000 
#
# Total GULP energy -198265.108406 kJ/mol
# GULP energy per Si atom -12391.569275 kJ/mol
# Density = 2.306931 g / cm^3
# Si number density = 23.121936 Si / 1000 Ang^3
#
#
#
# Elastic Constant Matrix: (Units=GPa)
#
#
# Indices 1 2 3 4 5 6 
#
# 1 24.7773 22.0673 31.9585 -0.0025 0.0033 0.0008
# 2 22.0673 153.5381 75.1318 0.0130 0.0019 -0.0003
# 3 31.9585 75.1318 100.5149 0.0395 0.0113 -0.0013
# 4 -0.0025 0.0130 0.0395 43.7695 0.0142 -0.0013
# 5 0.0033 0.0019 0.0113 0.0142 18.8925 -0.0010
# 6 0.0008 -0.0003 -0.0013 -0.0013 -0.0010 34.3928
#
#
#
# Elastic Compliance Matrix: (Units=1/GPa)
#
#
# Indices 1 2 3 4 5 6 
#
# 1 0.068577 0.001282 -0.022762 0.000024 0.000001 -0.000002
# 2 0.001282 0.010293 -0.008101 0.000004 0.000004 0.000000
# 3 -0.022762 -0.008101 0.023242 -0.000020 -0.000009 0.000001
# 4 0.000024 0.000004 -0.000020 0.022847 -0.000017 0.000001
# 5 0.000001 0.000004 -0.000009 -0.000017 0.052931 0.000002
# 6 -0.000002 0.000000 0.000001 0.000001 0.000002 0.029076
#
#
# Mechanical properties :
#
#
# Convention : Reuss Voigt Hill
#
# Bulk Modulus (GPa) = 23.28367 59.68285 41.48326
# Shear Modulus (GPa) = 17.82881 29.38914 23.60898
#
# Velocity S-wave (km/s) = 2.77984 3.56905 3.19888
# Velocity P-wave (km/s) = 4.51610 6.54617 5.62350
#
# Compressibility (1/GPa) = 0.04294855
#
# Stress axis : x y z
#
# Youngs Moduli (GPa) = 14.58213 97.15268 43.02634
#
# Poissons Ratio (x) = -0.12457 0.97938
# Poissons Ratio (y) = -0.01870 0.34857
# Poissons Ratio (z) = 0.33192 0.78707
#
# Static dielectric constant tensor:
#      x y z
#    x 4.019030 -0.000030 0.000070 
#    y -0.000030 4.406870 0.000010 
#    z 0.000070 0.000010 4.172680 
# 
# 
# High freq. dielectric constant tensor:
#      x y z
#    x 1.898900 0.000000 0.000000 
#    y 0.000000 1.918960 0.000000 
#    z 0.000000 0.000000 1.931700 
# 
# From -- ./inp_files/7821.got.cif
#   From: 2010.03.12/outbox.cif.g09.slc.cpg/sg23_4_cif.got.tgz:7821.got - 2010.04.14 02:50:06.
