data_PCOD8164992
_publ_section_title
;
Structure prediction by ZEFSAII (Michael W. Deem and Ramdas Pophale) SiO2 
 PCOD8164992
Probable space group: I 21 21 21
;
_chemical_formula_sum "Si O2"
_cell_formula_units_Z 60
_cell_length_a 8.602147
_cell_length_b 24.250194
_cell_length_c 14.781717
_cell_angle_alpha 90.000000
_cell_angle_beta 90.000000
_cell_angle_gamma 90.000000
_cell_volume 3083.521355
_symmetry_space_group_name_H-M "I 21 21 21"
_symmetry_group_IT_number 24
_symmetry_cell_setting 'orthorhombic'
loop_
_space_group_symop_operation_xyz
x,y,z
-x,1/2-y,z
x,-y,1/2-z
1/2-x,y,-z
1/2+x,1/2+y,1/2+z
1/2-x,-y,1/2+z
1/2+x,1/2-y,-z
-x,1/2+y,1/2-z
loop_
_atom_site_type_symbol
_atom_site_label
_atom_site_fract_x
_atom_site_fract_y
_atom_site_fract_z
Si Si1 0.444162 0.910002 0.733127
Si Si2 0.582754 0.339248 0.022253
Si Si3 0.925538 0.195804 0.798148
Si Si4 0.919381 0.805776 0.343573
Si Si5 0.160580 0.940062 0.620253
Si Si6 0.681980 0.000000 0.750000
Si Si7 0.946714 0.078921 0.716933
Si Si8 0.234723 0.937291 0.899906
O O1 0.533899 0.852185 0.729507
O O2 0.298638 0.904552 0.665805
O O3 0.378006 0.920056 0.834765
O O4 0.563465 0.958151 0.698888
O O5 0.539648 0.315452 0.118973
O O6 0.596439 0.406171 0.033651
O O7 0.750000 0.312810 0.000000
O O8 0.458989 0.325148 0.945341
O O9 0.760249 0.208092 0.840868
O O10 0.908058 0.143208 0.732800
O O11 0.000000 0.250000 0.748175
O O12 0.000000 0.750000 0.313803
O O13 0.022844 0.949050 0.693548
O O14 0.234020 0.997097 0.590570
O O15 0.793636 0.041804 0.692055
O O16 0.066579 0.080823 0.635012
O O17 0.250000 0.911035 0.000000
#
# Coordination Sequence:
#
# PCOD8164992 Si02
#       8
#     8   8   8   8   8   4   8   8
#     4  11  22  38  63  88 123 166 206 259 311 375
#     4  11  21  36  58  85 130 164 207 247 294 357
#     4  11  24  39  59  87 120 167 204 251 308 371
#     4  12  25  39  59  91 124 168 209 255 302 373
#     4  10  19  37  59  87 123 164 201 238 302 376
#     4  12  18  38  62  90 122 154 206 254 308 374
#     4  10  21  38  62  84 120 160 202 251 307 369
#     4  11  22  38  62  91 117 156 206 255 311 373
#
# _framework density 19.458272999999998
#
# number of rings (size 3 to 8) (size 9 to 14) (size 15 to 20)
#    0.000    1.067    5.333    2.800    3.733    0.000 
#    0.000    0.667    2.933    0.800    0.000    0.000 
#    0.000    0.000    0.000    0.000    0.000    0.000 
#
# Total GULP energy -371798.576505 kJ/mol
# GULP energy per Si atom -12393.285884 kJ/mol
# Density = 1.941398 g / cm^3
# Si number density = 19.458273 Si / 1000 Ang^3
#
#
#
# Elastic Constant Matrix: (Units=GPa)
#
#
# Indices 1 2 3 4 5 6 
#
# 1 106.7016 39.1984 27.6045 -0.0001 -0.0001 0.0000
# 2 39.1984 133.4107 32.0207 -0.0001 0.0000 0.0000
# 3 27.6045 32.0207 70.7933 -0.0005 -0.0002 0.0000
# 4 -0.0001 -0.0001 -0.0005 22.5629 -0.0001 0.0000
# 5 -0.0001 0.0000 -0.0002 -0.0001 18.9589 0.0000
# 6 0.0000 0.0000 0.0000 0.0000 0.0000 36.8871
#
#
#
# Elastic Compliance Matrix: (Units=1/GPa)
#
#
# Indices 1 2 3 4 5 6 
#
# 1 0.011119 -0.002497 -0.003206 0.000000 0.000000 0.000000
# 2 -0.002497 0.008969 -0.003083 0.000000 0.000000 0.000000
# 3 -0.003206 -0.003083 0.016770 0.000000 0.000000 0.000000
# 4 0.000000 0.000000 0.000000 0.044321 0.000000 0.000000
# 5 0.000000 0.000000 0.000000 0.000000 0.052746 0.000000
# 6 0.000000 0.000000 0.000000 0.000000 0.000000 0.027110
#
#
# Mechanical properties :
#
#
# Convention : Reuss Voigt Hill
#
# Bulk Modulus (GPa) = 51.85258 56.50588 54.17923
# Shear Modulus (GPa) = 27.02177 29.82059 28.42118
#
# Velocity S-wave (km/s) = 3.73057 3.91901 3.82595
# Velocity P-wave (km/s) = 6.72772 7.04136 6.88633
#
# Compressibility (1/GPa) = 0.01928544
#
# Stress axis : x y z
#
# Youngs Moduli (GPa) = 89.93777 111.48962 59.62926
#
# Poissons Ratio (x) = 0.27844 0.19117
# Poissons Ratio (y) = 0.22461 0.18385
# Poissons Ratio (z) = 0.28834 0.34374
#
# Static dielectric constant tensor:
#      x y z
#    x 3.840970 0.000000 0.000000 
#    y 0.000000 3.805250 0.000000 
#    z 0.000000 0.000000 3.208540 
# 
# 
# High freq. dielectric constant tensor:
#      x y z
#    x 1.775820 0.000000 0.000000 
#    y 0.000000 1.765420 0.000000 
#    z 0.000000 0.000000 1.706620 
# 
# From -- ./inp_files/25184.got.cif
#   From: 2010.03.12/outbox.cif.g09.slc.cpg/sg24_13_cif.got.tgz:25184.got - 2010.04.14 03:06:53.
