data_PCOD8164914
_publ_section_title
;
Structure prediction by ZEFSAII (Michael W. Deem and Ramdas Pophale) SiO2 
 PCOD8164914
Probable space group: I 21 21 21
;
_chemical_formula_sum "Si O2"
_cell_formula_units_Z 40
_cell_length_a 14.658282
_cell_length_b 14.163548
_cell_length_c 8.757054
_cell_angle_alpha 90.000000
_cell_angle_beta 90.000000
_cell_angle_gamma 90.000000
_cell_volume 1818.080710
_symmetry_space_group_name_H-M "I 21 21 21"
_symmetry_group_IT_number 24
_symmetry_cell_setting 'orthorhombic'
loop_
_space_group_symop_operation_xyz
x,y,z
-x,1/2-y,z
x,-y,1/2-z
1/2-x,y,-z
1/2+x,1/2+y,1/2+z
1/2-x,-y,1/2+z
1/2+x,1/2-y,-z
-x,1/2+y,1/2-z
loop_
_atom_site_type_symbol
_atom_site_label
_atom_site_fract_x
_atom_site_fract_y
_atom_site_fract_z
Si Si1 0.221354 0.760573 0.667774
Si Si2 0.010754 0.470144 0.411854
Si Si3 0.115972 0.597686 0.818419
Si Si4 0.315608 0.090603 0.646454
Si Si5 0.037027 0.152125 0.902367
O O1 0.250000 0.721189 0.500000
O O2 0.191732 0.675901 0.780904
O O3 0.302620 0.815309 0.751447
O O4 0.141667 0.837563 0.645905
O O5 0.053072 0.500000 0.250000
O O6 0.921602 0.404009 0.401531
O O7 0.974714 0.567797 0.481394
O O8 0.092783 0.418198 0.502606
O O9 0.152929 0.500000 0.750000
O O10 0.019397 0.628334 0.749071
O O11 0.250000 0.090851 0.500000
O O12 0.294350 0.000000 0.750000
O O13 0.000000 0.250000 0.975906
#
# Coordination Sequence:
#
# PCOD8164914 Si02
#       5
#     8   8   8   8   8
#     4  11  21  37  62  92 123 158 204 258 315 366
#     4  10  19  34  57  87 124 161 202 253 304 364
#     4   9  20  40  63  85 115 163 209 245 298 367
#     4  11  21  34  56  91 130 162 198 256 319 370
#     4   9  18  35  59  85 116 158 204 248 301 365
#
# _framework density 22.001223
#
# number of rings (size 3 to 8) (size 9 to 14) (size 15 to 20)
#    0.000    2.000    0.000    5.400    0.000    1.600 
#    0.000   14.000    0.000    4.800    0.000    0.000 
#    0.000    0.000    0.000    0.000    0.000    0.000 
#
# Total GULP energy -247962.131913 kJ/mol
# GULP energy per Si atom -12398.106596 kJ/mol
# Density = 2.195115 g / cm^3
# Si number density = 22.001223 Si / 1000 Ang^3
#
#
#
# Elastic Constant Matrix: (Units=GPa)
#
#
# Indices 1 2 3 4 5 6 
#
# 1 52.7526 45.2004 39.9061 0.0000 0.0000 0.0000
# 2 45.2004 132.6641 58.1103 0.0000 0.0000 0.0000
# 3 39.9061 58.1103 146.7868 0.0000 0.0000 0.0000
# 4 0.0000 0.0000 0.0000 22.1981 0.0000 0.0000
# 5 0.0000 0.0000 0.0000 0.0000 27.7518 0.0000
# 6 0.0000 0.0000 0.0000 0.0000 0.0000 27.7653
#
#
#
# Elastic Compliance Matrix: (Units=1/GPa)
#
#
# Indices 1 2 3 4 5 6 
#
# 1 0.029394 -0.007881 -0.004871 0.000000 0.000000 0.000000
# 2 -0.007881 0.011232 -0.002304 0.000000 0.000000 0.000000
# 3 -0.004871 -0.002304 0.009049 0.000000 0.000000 0.000000
# 4 0.000000 0.000000 0.000000 0.045049 0.000000 0.000000
# 5 0.000000 0.000000 0.000000 0.000000 0.036034 0.000000
# 6 0.000000 0.000000 0.000000 0.000000 0.000000 0.036016
#
#
# Mechanical properties :
#
#
# Convention : Reuss Voigt Hill
#
# Bulk Modulus (GPa) = 51.11792 68.73744 59.92768
# Shear Modulus (GPa) = 24.58110 28.14218 26.36164
#
# Velocity S-wave (km/s) = 3.34617 3.58036 3.46524
# Velocity P-wave (km/s) = 6.18172 6.95718 6.58088
#
# Compressibility (1/GPa) = 0.01956261
#
# Stress axis : x y z
#
# Youngs Moduli (GPa) = 34.02014 89.02875 110.50912
#
# Poissons Ratio (x) = 0.70166 0.53831
# Poissons Ratio (y) = 0.26812 0.25462
# Poissons Ratio (z) = 0.16572 0.20512
#
# Static dielectric constant tensor:
#      x y z
#    x 3.752350 0.000000 0.000000 
#    y 0.000000 4.186120 0.000000 
#    z 0.000000 0.000000 4.089430 
# 
# 
# High freq. dielectric constant tensor:
#      x y z
#    x 1.846100 0.000000 0.000000 
#    y 0.000000 1.865220 0.000000 
#    z 0.000000 0.000000 1.868140 
# 
# From -- ./inp_files/12293.got.cif
#   From: 2010.03.12/outbox.cif.g09.slc.cpg/sg24_7_cif.got.tgz:12293.got - 2010.04.14 03:06:53.
