data_PCOD8164919
_publ_section_title
;
Structure prediction by ZEFSAII (Michael W. Deem and Ramdas Pophale) SiO2 
 PCOD8164919
Probable space group: I 21 21 21
;
_chemical_formula_sum "Si O2"
_cell_formula_units_Z 32
_cell_length_a 5.880753
_cell_length_b 8.993171
_cell_length_c 28.851269
_cell_angle_alpha 90.000000
_cell_angle_beta 90.000000
_cell_angle_gamma 90.000000
_cell_volume 1525.846023
_symmetry_space_group_name_H-M "I 21 21 21"
_symmetry_group_IT_number 24
_symmetry_cell_setting 'orthorhombic'
loop_
_space_group_symop_operation_xyz
x,y,z
-x,1/2-y,z
x,-y,1/2-z
1/2-x,y,-z
1/2+x,1/2+y,1/2+z
1/2-x,-y,1/2+z
1/2+x,1/2-y,-z
-x,1/2+y,1/2-z
loop_
_atom_site_type_symbol
_atom_site_label
_atom_site_fract_x
_atom_site_fract_y
_atom_site_fract_z
Si Si1 0.500000 0.250000 0.151795
Si Si2 0.500000 0.250000 0.394195
Si Si3 0.680064 0.994997 0.623300
Si Si4 0.633981 0.602970 0.955015
Si Si5 0.125979 0.901148 0.294786
O O1 0.324745 0.342457 0.119875
O O2 0.373453 0.132683 0.184683
O O3 0.332962 0.358991 0.365698
O O4 0.347449 0.138763 0.423389
O O5 0.511277 0.991362 0.666486
O O6 0.543231 0.003089 0.574435
O O7 0.500000 0.750000 0.972166
O O8 0.750000 0.523260 0.000000
O O9 0.000000 0.750000 0.280682
O O10 0.159965 0.000000 0.250000
#
# Coordination Sequence:
#
# PCOD8164919 Si02
#       5
#     4   4   8   8   8
#     4  10  22  42  61  90 126 176 202 248 313 368
#     4  10  20  36  61  98 120 154 206 260 313 358
#     4  10  22  38  62  95 125 166 206 255 311 371
#     4  10  19  34  59  95 127 156 205 261 315 362
#     4  10  23  42  63  92 126 164 210 256 304 370
#
# _framework density 20.971975
#
# number of rings (size 3 to 8) (size 9 to 14) (size 15 to 20)
#    0.000    2.000    1.250    1.500    0.000    9.000 
#    0.000    2.500    0.000    0.000  146.250    0.000 
#    0.000    0.000    0.000    0.000    0.000    0.000 
#
# Total GULP energy -198328.845268 kJ/mol
# GULP energy per Si atom -12395.552829 kJ/mol
# Density = 2.092424 g / cm^3
# Si number density = 20.971975 Si / 1000 Ang^3
#
#
#
# Elastic Constant Matrix: (Units=GPa)
#
#
# Indices 1 2 3 4 5 6 
#
# 1 142.2167 56.8032 75.7947 0.0000 0.0000 0.0000
# 2 56.8032 92.0082 81.1723 0.0000 0.0000 0.0000
# 3 75.7947 81.1723 138.3944 0.0000 0.0000 0.0000
# 4 0.0000 0.0000 0.0000 33.6083 0.0000 0.0000
# 5 0.0000 0.0000 0.0000 0.0000 17.8068 0.0000
# 6 0.0000 0.0000 0.0000 0.0000 0.0000 46.9724
#
#
#
# Elastic Compliance Matrix: (Units=1/GPa)
#
#
# Indices 1 2 3 4 5 6 
#
# 1 0.010280 -0.002859 -0.003953 0.000000 0.000000 0.000000
# 2 -0.002859 0.023319 -0.012111 0.000000 0.000000 0.000000
# 3 -0.003953 -0.012111 0.016494 0.000000 0.000000 0.000000
# 4 0.000000 0.000000 0.000000 0.029755 0.000000 0.000000
# 5 0.000000 0.000000 0.000000 0.000000 0.056158 0.000000
# 6 0.000000 0.000000 0.000000 0.000000 0.000000 0.021289
#
#
# Mechanical properties :
#
#
# Convention : Reuss Voigt Hill
#
# Bulk Modulus (GPa) = 81.65810 88.90663 85.28237
# Shear Modulus (GPa) = 25.09729 30.26744 27.68236
#
# Velocity S-wave (km/s) = 3.46310 3.80311 3.63708
# Velocity P-wave (km/s) = 7.41701 7.85939 7.64140
#
# Compressibility (1/GPa) = 0.01224618
#
# Stress axis : x y z
#
# Youngs Moduli (GPa) = 97.27229 42.88437 60.62649
#
# Poissons Ratio (x) = 0.12261 0.23968
# Poissons Ratio (y) = 0.27811 0.73426
# Poissons Ratio (z) = 0.38455 0.51938
#
# Static dielectric constant tensor:
#      x y z
#    x 4.326560 0.000000 0.000000 
#    y 0.000000 3.685010 0.000000 
#    z 0.000000 0.000000 3.575680 
# 
# 
# High freq. dielectric constant tensor:
#      x y z
#    x 1.851350 0.000000 0.000000 
#    y 0.000000 1.801880 0.000000 
#    z 0.000000 0.000000 1.800320 
# 
# From -- ./inp_files/1186.got.cif
#   From: 2010.03.12/outbox.cif.g09.slc.cpg/sg24_1_cif.got.tgz:1186.got - 2010.04.14 03:06:53.
