data_PCOD8164835
_publ_section_title
;
Structure prediction by ZEFSAII (Michael W. Deem and Ramdas Pophale) SiO2 
 PCOD8164835
Probable space group: I 21 21 21
;
_chemical_formula_sum "Si O2"
_cell_formula_units_Z 64
_cell_length_a 15.543473
_cell_length_b 12.040089
_cell_length_c 16.849097
_cell_angle_alpha 90.000000
_cell_angle_beta 90.000000
_cell_angle_gamma 90.000000
_cell_volume 3153.220859
_symmetry_space_group_name_H-M "I 21 21 21"
_symmetry_group_IT_number 24
_symmetry_cell_setting 'orthorhombic'
loop_
_space_group_symop_operation_xyz
x,y,z
-x,1/2-y,z
x,-y,1/2-z
1/2-x,y,-z
1/2+x,1/2+y,1/2+z
1/2-x,-y,1/2+z
1/2+x,1/2-y,-z
-x,1/2+y,1/2-z
loop_
_atom_site_type_symbol
_atom_site_label
_atom_site_fract_x
_atom_site_fract_y
_atom_site_fract_z
Si Si1 0.184156 0.500000 0.575046
Si Si2 0.652849 1.000000 0.658959
Si Si3 0.751097 0.626741 0.904992
Si Si4 0.748903 0.626741 0.404992
Si Si5 0.593074 0.233351 0.897521
Si Si6 0.593460 0.231977 0.078966
Si Si7 0.593074 0.233350 0.602479
Si Si8 0.093460 0.731977 0.921033
O O1 0.250000 0.499998 0.500000
O O2 0.243742 0.500000 0.653421
O O3 0.122170 0.604775 0.578857
O O4 0.122170 0.395225 0.578859
O O5 0.616879 0.894532 0.612258
O O6 0.623326 0.000000 0.750000
O O7 0.616878 0.105467 0.612258
O O8 0.753218 0.500000 0.875693
O O9 0.668737 0.686971 0.863595
O O10 0.836871 0.690898 0.875756
O O11 0.750000 0.635969 0.000000
O O12 0.750000 0.635969 0.500000
O O13 0.831263 0.686970 0.363595
O O14 0.663129 0.690898 0.375757
O O15 0.500000 0.250000 0.855165
O O16 0.584904 0.270653 0.988338
O O17 0.500000 0.250000 0.120193
O O18 0.500000 0.250000 0.644835
O O19 0.584904 0.270652 0.511662
O O20 0.000000 0.750000 0.879806
#
# Coordination Sequence:
#
# PCOD8164835 Si02
#       8
#     8   8   8   8   8   8   8   8
#     4  12  18  38  60  81 115 150 191 243 286 335
#     4  12  24  38  58  81 111 157 203 239 278 336
#     4   9  17  30  47  78 115 140 173 225 281 336
#     4   9  17  30  47  78 115 140 173 225 281 336
#     4  10  20  34  54  80 111 149 186 229 283 338
#     4  10  19  30  55  87 113 141 179 232 292 341
#     4  10  20  34  54  80 111 149 186 229 283 338
#     4  10  19  30  55  87 113 141 179 232 292 341
#
# _framework density 20.296707000000001
#
# number of rings (size 3 to 8) (size 9 to 14) (size 15 to 20)
#    0.000    1.750    5.000    0.750    3.500    0.500 
#    0.000    0.000    0.000    0.750    0.000    0.000 
#    0.000    0.000    0.000    0.000    0.000    0.000 
#
# Total GULP energy -396586.688727 kJ/mol
# GULP energy per Si atom -12393.334023 kJ/mol
# Density = 2.025051 g / cm^3
# Si number density = 20.296707 Si / 1000 Ang^3
#
#
#
# Elastic Constant Matrix: (Units=GPa)
#
#
# Indices 1 2 3 4 5 6 
#
# 1 228.6699 108.9134 5.8486 0.0000 0.0000 0.0000
# 2 108.9134 185.1167 -5.8868 0.0000 0.0000 0.0000
# 3 5.8486 -5.8868 16.8759 0.0000 0.0000 0.0000
# 4 0.0000 0.0000 0.0000 1.4738 0.0000 0.0000
# 5 0.0000 0.0000 0.0000 0.0000 5.6864 0.0000
# 6 0.0000 0.0000 0.0000 0.0000 0.0000 33.9557
#
#
#
# Elastic Compliance Matrix: (Units=1/GPa)
#
#
# Indices 1 2 3 4 5 6 
#
# 1 0.006274 -0.003802 -0.003501 0.000000 0.000000 0.000000
# 2 -0.003802 0.007767 0.004027 0.000000 0.000000 0.000000
# 3 -0.003501 0.004027 0.061874 0.000000 0.000000 0.000000
# 4 0.000000 0.000000 0.000000 0.678515 0.000000 0.000000
# 5 0.000000 0.000000 0.000000 0.000000 0.175857 0.000000
# 6 0.000000 0.000000 0.000000 0.000000 0.000000 0.029450
#
#
# Mechanical properties :
#
#
# Convention : Reuss Voigt Hill
#
# Bulk Modulus (GPa) = 14.41686 72.04588 43.23137
# Shear Modulus (GPa) = 5.05352 29.67567 17.36459
#
# Velocity S-wave (km/s) = 1.57963 3.82788 2.92813
# Velocity P-wave (km/s) = 3.23194 7.42363 5.72520
#
# Compressibility (1/GPa) = 0.06936323
#
# Stress axis : x y z
#
# Youngs Moduli (GPa) = 159.39473 128.74570 16.16187
#
# Poissons Ratio (x) = 0.48955 0.05658
# Poissons Ratio (y) = 0.60609 -0.06509
# Poissons Ratio (z) = 0.55799 -0.51849
#
# Static dielectric constant tensor:
#      x y z
#    x 4.260640 0.000000 0.000000 
#    y 0.000000 3.656650 0.000000 
#    z 0.000000 0.000000 2.978280 
# 
# 
# High freq. dielectric constant tensor:
#      x y z
#    x 1.814100 0.000000 0.000000 
#    y 0.000000 1.802530 0.000000 
#    z 0.000000 0.000000 1.712310 
# 
# From -- ./inp_files/30913.got.cif
#   From: 2010.03.12/outbox.cif.g09.slc.cpg/sg24_16_cif.got.tgz:30913.got - 2010.04.14 03:06:53.
