data_PCOD8164106
_publ_section_title
;
Structure prediction by ZEFSAII (Michael W. Deem and Ramdas Pophale) SiO2 
 PCOD8164106
Probable space group: I 2 2 2
;
_chemical_formula_sum "Si O2"
_cell_formula_units_Z 32
_cell_length_a 9.020285
_cell_length_b 16.523459
_cell_length_c 10.007845
_cell_angle_alpha 90.000000
_cell_angle_beta 90.000000
_cell_angle_gamma 90.000000
_cell_volume 1491.632362
_symmetry_space_group_name_H-M "I 2 2 2"
_symmetry_group_IT_number 23
_symmetry_cell_setting 'orthorhombic'
loop_
_space_group_symop_operation_xyz
x,y,z
-x,-y,z
x,-y,-z
-x,y,-z
1/2+x,1/2+y,1/2+z
1/2-x,1/2-y,1/2+z
1/2+x,1/2-y,1/2-z
1/2-x,1/2+y,1/2-z
loop_
_atom_site_type_symbol
_atom_site_label
_atom_site_fract_x
_atom_site_fract_y
_atom_site_fract_z
Si Si1 0.336417 0.778451 0.995194
Si Si2 0.831463 0.008131 0.343693
Si Si3 0.911393 0.418613 0.310368
Si Si4 0.814273 0.328163 0.781720
O O1 0.359132 0.870827 0.942648
O O2 0.217671 0.731065 0.905487
O O3 0.500000 0.735611 0.000000
O O4 0.272216 0.781874 0.144764
O O5 0.733160 0.938618 0.275937
O O6 0.804723 0.000000 0.500000
O O7 0.791454 0.095886 0.292212
O O8 0.000000 0.000000 0.300543
O O9 0.000000 0.500000 0.350525
O O10 0.014894 0.358343 0.221784
#
# Coordination Sequence:
#
# PCOD8164106 Si02
#       4
#     8   8   8   8
#     4  10  23  42  66  97 137 174 218 284 332 397
#     4  10  23  40  66  92 131 171 218 277 332 394
#     4   9  21  43  68  96 128 176 230 276 330 405
#     4  10  23  41  66  95 129 176 217 271 338 389
#
# _framework density 21.453006999999999
#
# number of rings (size 3 to 8) (size 9 to 14) (size 15 to 20)
#    0.000    2.250    0.000    0.000    7.000   18.000 
#    4.500    7.500    0.000    0.000    0.000    0.000 
#    0.000    0.000    0.000    0.000    0.000    0.000 
#
# Total GULP energy -198382.114025 kJ/mol
# GULP energy per Si atom -12398.882127 kJ/mol
# Density = 2.140418 g / cm^3
# Si number density = 21.453007 Si / 1000 Ang^3
#
#
#
# Elastic Constant Matrix: (Units=GPa)
#
#
# Indices 1 2 3 4 5 6 
#
# 1 98.0695 37.0279 60.5617 0.0003 0.0000 0.0000
# 2 37.0279 83.4845 45.3889 0.0006 -0.0001 -0.0001
# 3 60.5617 45.3889 120.6131 0.0006 -0.0002 -0.0001
# 4 0.0003 0.0006 0.0006 39.0198 -0.0001 -0.0001
# 5 0.0000 -0.0001 -0.0002 -0.0001 38.3893 0.0000
# 6 0.0000 -0.0001 -0.0001 -0.0001 0.0000 32.1264
#
#
#
# Elastic Compliance Matrix: (Units=1/GPa)
#
#
# Indices 1 2 3 4 5 6 
#
# 1 0.015478 -0.003319 -0.006523 0.000000 0.000000 0.000000
# 2 -0.003319 0.015771 -0.004269 0.000000 0.000000 0.000000
# 3 -0.006523 -0.004269 0.013173 0.000000 0.000000 0.000000
# 4 0.000000 0.000000 0.000000 0.025628 0.000000 0.000000
# 5 0.000000 0.000000 0.000000 0.000000 0.026049 0.000000
# 6 0.000000 0.000000 0.000000 0.000000 0.000000 0.031127
#
#
# Mechanical properties :
#
#
# Convention : Reuss Voigt Hill
#
# Bulk Modulus (GPa) = 61.72322 65.34712 63.53517
# Shear Modulus (GPa) = 31.08565 32.51968 31.80266
#
# Velocity S-wave (km/s) = 3.81072 3.89762 3.85442
# Velocity P-wave (km/s) = 6.94233 7.12615 7.03484
#
# Compressibility (1/GPa) = 0.01620136
#
# Stress axis : x y z
#
# Youngs Moduli (GPa) = 64.60791 63.40797 75.91543
#
# Poissons Ratio (x) = 0.21042 0.49519
# Poissons Ratio (y) = 0.21441 0.32405
# Poissons Ratio (z) = 0.42143 0.27066
#
# Static dielectric constant tensor:
#      x y z
#    x 4.012050 0.000000 0.000000 
#    y 0.000000 3.914700 0.000000 
#    z 0.000000 0.000000 3.845890 
# 
# 
# High freq. dielectric constant tensor:
#      x y z
#    x 1.837730 0.000000 0.000000 
#    y 0.000000 1.845590 0.000000 
#    z 0.000000 0.000000 1.843230 
# 
# From -- ./inp_files/6598.got.cif
#   From: 2010.03.12/outbox.cif.g09.slc.cpg/sg23_4_cif.got.tgz:6598.got - 2010.04.14 02:50:06.
