data_PCOD8164727
_publ_section_title
;
Structure prediction by ZEFSAII (Michael W. Deem and Ramdas Pophale) SiO2 
 PCOD8164727
Probable space group: I 21 21 21
;
_chemical_formula_sum "Si O2"
_cell_formula_units_Z 52
_cell_length_a 20.260709
_cell_length_b 6.306561
_cell_length_c 18.812058
_cell_angle_alpha 90.000000
_cell_angle_beta 90.000000
_cell_angle_gamma 90.000000
_cell_volume 2403.718183
_symmetry_space_group_name_H-M "I 21 21 21"
_symmetry_group_IT_number 24
_symmetry_cell_setting 'orthorhombic'
loop_
_space_group_symop_operation_xyz
x,y,z
-x,1/2-y,z
x,-y,1/2-z
1/2-x,y,-z
1/2+x,1/2+y,1/2+z
1/2-x,-y,1/2+z
1/2+x,1/2-y,-z
-x,1/2+y,1/2-z
loop_
_atom_site_type_symbol
_atom_site_label
_atom_site_fract_x
_atom_site_fract_y
_atom_site_fract_z
Si Si1 0.000000 0.750000 0.840857
Si Si2 0.250000 0.143277 0.000000
Si Si3 0.927343 0.274266 0.078418
Si Si4 0.175807 0.630916 0.684447
Si Si5 0.197390 0.548740 0.383328
Si Si6 0.394658 0.000000 0.250000
Si Si7 0.915720 0.009237 0.939664
Si Si8 0.143899 0.164806 0.463867
O O1 0.940154 0.664559 0.793111
O O2 0.022486 0.548737 0.889104
O O3 0.312681 0.991838 0.012486
O O4 0.263262 0.293418 0.934517
O O5 0.808796 0.808802 0.086830
O O6 0.905691 0.520030 0.082922
O O7 0.000000 0.250000 0.111908
O O8 0.929272 0.197529 0.995595
O O9 0.144680 0.500000 0.750000
O O10 0.254821 0.572039 0.684957
O O11 0.154833 0.874770 0.697182
O O12 0.147109 0.562346 0.608439
O O13 0.122802 0.635127 0.373265
O O14 0.900498 0.800825 0.984454
#
# Coordination Sequence:
#
# PCOD8164727 Si02
#       8
#     4   4   8   8   8   4   8   8
#     4  12  24  42  60  86 132 180 218 270 306 372
#     4  10  18  32  58  86 120 154 198 256 320 372
#     4  10  22  38  62  96 124 161 197 255 335 402
#     4  12  25  42  59  87 120 173 226 268 305 366
#     4  10  22  37  59  88 121 155 215 265 314 385
#     4  12  28  44  58  86 128 184 232 262 312 352
#     4  11  23  36  59  90 125 165 210 259 305 392
#     4  10  20  37  60  91 124 162 198 260 331 378
#
# _framework density 21.633153
#
# number of rings (size 3 to 8) (size 9 to 14) (size 15 to 20)
#    0.000    1.231    1.538    6.000    6.462    4.308 
#    0.000    0.000    0.000    0.000    6.000    0.000 
#    0.000    0.000    0.000    0.000    0.000    0.000 
#
# Total GULP energy -322201.816644 kJ/mol
# GULP energy per Si atom -12392.377563 kJ/mol
# Density = 2.158391 g / cm^3
# Si number density = 21.633153 Si / 1000 Ang^3
#
#
#
# Elastic Constant Matrix: (Units=GPa)
#
#
# Indices 1 2 3 4 5 6 
#
# 1 140.0404 45.1025 14.6020 0.0000 0.0000 0.0000
# 2 45.1025 124.6345 16.3892 0.0000 0.0000 0.0000
# 3 14.6020 16.3892 35.3587 0.0000 0.0000 0.0000
# 4 0.0000 0.0000 0.0000 24.2461 0.0000 0.0000
# 5 0.0000 0.0000 0.0000 0.0000 34.0861 0.0000
# 6 0.0000 0.0000 0.0000 0.0000 0.0000 6.5311
#
#
#
# Elastic Compliance Matrix: (Units=1/GPa)
#
#
# Indices 1 2 3 4 5 6 
#
# 1 0.008234 -0.002697 -0.002150 0.000000 0.000000 0.000000
# 2 -0.002697 0.009428 -0.003256 0.000000 0.000000 0.000000
# 3 -0.002150 -0.003256 0.030679 0.000000 0.000000 0.000000
# 4 0.000000 0.000000 0.000000 0.041244 0.000000 0.000000
# 5 0.000000 0.000000 0.000000 0.000000 0.029338 0.000000
# 6 0.000000 0.000000 0.000000 0.000000 0.000000 0.153114
#
#
# Mechanical properties :
#
#
# Convention : Reuss Voigt Hill
#
# Bulk Modulus (GPa) = 31.11999 50.24678 40.68339
# Shear Modulus (GPa) = 16.72509 27.90198 22.31353
#
# Velocity S-wave (km/s) = 2.78353 3.59525 3.21511
# Velocity P-wave (km/s) = 4.97466 6.36487 5.71221
#
# Compressibility (1/GPa) = 0.03213368
#
# Stress axis : x y z
#
# Youngs Moduli (GPa) = 121.45438 106.07218 32.59585
#
# Poissons Ratio (x) = 0.28605 0.07009
# Poissons Ratio (y) = 0.32754 0.10614
# Poissons Ratio (z) = 0.26115 0.34538
#
# Static dielectric constant tensor:
#      x y z
#    x 4.218380 0.000000 0.000000 
#    y 0.000000 4.240910 0.000000 
#    z 0.000000 0.000000 3.552710 
# 
# 
# High freq. dielectric constant tensor:
#      x y z
#    x 1.859620 0.000000 0.000000 
#    y 0.000000 1.864280 0.000000 
#    z 0.000000 0.000000 1.797400 
# 
# From -- ./inp_files/34154.got.cif
#   From: 2010.03.12/outbox.cif.g09.slc.cpg/sg24_18_cif.got.tgz:34154.got - 2010.04.14 03:06:53.
