data_PCOD8164788
_publ_section_title
;
Structure prediction by ZEFSAII (Michael W. Deem and Ramdas Pophale) SiO2 
 PCOD8164788
Probable space group: I 21 21 21
;
_chemical_formula_sum "Si O2"
_cell_formula_units_Z 56
_cell_length_a 14.325410
_cell_length_b 9.262686
_cell_length_c 19.137981
_cell_angle_alpha 90.000000
_cell_angle_beta 90.000000
_cell_angle_gamma 90.000000
_cell_volume 2539.452662
_symmetry_space_group_name_H-M "I 21 21 21"
_symmetry_group_IT_number 24
_symmetry_cell_setting 'orthorhombic'
loop_
_space_group_symop_operation_xyz
x,y,z
-x,1/2-y,z
x,-y,1/2-z
1/2-x,y,-z
1/2+x,1/2+y,1/2+z
1/2-x,-y,1/2+z
1/2+x,1/2-y,-z
-x,1/2+y,1/2-z
loop_
_atom_site_type_symbol
_atom_site_label
_atom_site_fract_x
_atom_site_fract_y
_atom_site_fract_z
Si Si1 0.566202 0.935242 0.523528
Si Si2 0.219915 0.665682 0.228225
Si Si3 0.644983 0.245744 0.865375
Si Si4 0.094346 0.830744 0.732903
Si Si5 0.359768 0.984954 0.530210
Si Si6 0.890517 0.218266 0.413307
Si Si7 0.837037 0.723854 0.583736
O O1 0.566485 0.855514 0.599694
O O2 0.462328 0.960731 0.498076
O O3 0.612160 0.832418 0.467540
O O4 0.617716 0.087561 0.531929
O O5 0.239220 0.500000 0.250000
O O6 0.144079 0.737139 0.281645
O O7 0.317013 0.755042 0.229357
O O8 0.169977 0.677756 0.154108
O O9 0.642077 0.409093 0.893678
O O10 0.747045 0.188062 0.889947
O O11 0.100041 0.820074 0.649095
O O12 0.000000 0.750000 0.758373
O O13 0.090282 0.000000 0.750000
O O14 0.302991 0.918310 0.462431
O O15 0.340641 0.151757 0.545032
O O16 0.000000 0.250000 0.394306
#
# Coordination Sequence:
#
# PCOD8164788 Si02
#       7
#     8   8   8   8   8   8   8
#     4  10  18  37  59  88 123 166 208 260 312 384
#     4  11  23  42  62  88 135 176 216 269 319 386
#     4  10  20  35  59  84 119 166 215 259 315 378
#     4  11  25  46  73  97 126 166 220 276 332 393
#     4  10  20  35  59  89 126 159 210 266 320 380
#     4  10  23  38  59  97 137 170 215 264 322 384
#     4  10  21  39  65  93 119 162 216 259 327 396
#
# _framework density 22.051997
#
# number of rings (size 3 to 8) (size 9 to 14) (size 15 to 20)
#    0.000    1.714    1.429    4.714    4.000    1.143 
#    0.000    9.286    0.000    0.000    0.000    0.000 
#    0.000    0.000    0.000    0.000    0.000    0.000 
#
# Total GULP energy -346975.891711 kJ/mol
# GULP energy per Si atom -12391.996133 kJ/mol
# Density = 2.200181 g / cm^3
# Si number density = 22.051997 Si / 1000 Ang^3
#
#
#
# Elastic Constant Matrix: (Units=GPa)
#
#
# Indices 1 2 3 4 5 6 
#
# 1 57.5259 18.9913 24.7048 0.0000 0.0000 0.0000
# 2 18.9913 154.2900 34.1562 0.0000 0.0000 0.0000
# 3 24.7048 34.1562 90.2462 0.0000 0.0000 0.0000
# 4 0.0000 0.0000 0.0000 18.1716 0.0000 0.0000
# 5 0.0000 0.0000 0.0000 0.0000 15.5772 0.0000
# 6 0.0000 0.0000 0.0000 0.0000 0.0000 34.3871
#
#
#
# Elastic Compliance Matrix: (Units=1/GPa)
#
#
# Indices 1 2 3 4 5 6 
#
# 1 0.019958 -0.001361 -0.004948 0.000000 0.000000 0.000000
# 2 -0.001361 0.007167 -0.002340 0.000000 0.000000 0.000000
# 3 -0.004948 -0.002340 0.013321 0.000000 0.000000 0.000000
# 4 0.000000 0.000000 0.000000 0.055031 0.000000 0.000000
# 5 0.000000 0.000000 0.000000 0.000000 0.064196 0.000000
# 6 0.000000 0.000000 0.000000 0.000000 0.000000 0.029081
#
#
# Mechanical properties :
#
#
# Convention : Reuss Voigt Hill
#
# Bulk Modulus (GPa) = 43.20199 50.86298 47.03248
# Shear Modulus (GPa) = 23.38985 28.57451 25.98218
#
# Velocity S-wave (km/s) = 3.26032 3.60360 3.43625
# Velocity P-wave (km/s) = 5.81433 6.35843 6.09246
#
# Compressibility (1/GPa) = 0.02314708
#
# Stress axis : x y z
#
# Youngs Moduli (GPa) = 50.10547 139.53162 75.06956
#
# Poissons Ratio (x) = 0.18992 0.37147
# Poissons Ratio (y) = 0.06820 0.17565
# Poissons Ratio (z) = 0.24794 0.32649
#
# Static dielectric constant tensor:
#      x y z
#    x 4.284880 0.000000 0.000000 
#    y 0.000000 4.202820 0.000000 
#    z 0.000000 0.000000 4.044720 
# 
# 
# High freq. dielectric constant tensor:
#      x y z
#    x 1.886280 0.000000 0.000000 
#    y 0.000000 1.869120 0.000000 
#    z 0.000000 0.000000 1.854140 
# 
# From -- ./inp_files/33741.got.cif
#   From: 2010.03.12/outbox.cif.g09.slc.cpg/sg24_17_cif.got.tgz:33741.got - 2010.04.14 03:06:53.
