data_PCOD8164057
_publ_section_title
;
Structure prediction by ZEFSAII (Michael W. Deem and Ramdas Pophale) SiO2 
 PCOD8164057
Probable space group: I 2 2 2
;
_chemical_formula_sum "Si O2"
_cell_formula_units_Z 28
_cell_length_a 24.360217
_cell_length_b 8.881228
_cell_length_c 5.443572
_cell_angle_alpha 90.000000
_cell_angle_beta 90.000000
_cell_angle_gamma 90.000000
_cell_volume 1177.709406
_symmetry_space_group_name_H-M "I 2 2 2"
_symmetry_group_IT_number 23
_symmetry_cell_setting 'orthorhombic'
loop_
_space_group_symop_operation_xyz
x,y,z
-x,-y,z
x,-y,-z
-x,y,-z
1/2+x,1/2+y,1/2+z
1/2-x,1/2-y,1/2+z
1/2+x,1/2-y,1/2-z
1/2-x,1/2+y,1/2-z
loop_
_atom_site_type_symbol
_atom_site_label
_atom_site_fract_x
_atom_site_fract_y
_atom_site_fract_z
Si Si1 0.048482 0.249238 0.306750
Si Si2 0.000000 0.500000 0.000000
Si Si3 0.726879 0.597355 0.250261
Si Si4 0.500000 0.500000 0.500000
Si Si5 0.164131 0.672755 0.526555
O O1 0.109673 0.235883 0.407263
O O2 0.000000 0.253937 0.500000
O O3 0.042004 0.098641 0.153675
O O4 0.042687 0.400219 0.150608
O O5 0.714696 0.500000 0.500000
O O6 0.787434 0.672449 0.269366
O O7 0.686248 0.741708 0.219704
O O8 0.721927 0.500000 0.000000
O O9 0.146268 0.500000 0.500000
#
# Coordination Sequence:
#
# PCOD8164057 Si02
#       5
#     8   2   8   2   8
#     4  11  24  48  74 108 148 196 252 315 384 462
#     4  10  22  42  72 116 140 190 250 318 390 444
#     4  11  26  50  74 118 162 210 258 320 395 466
#     4  10  26  50  72 104 148 194 258 306 400 450
#     4  11  24  47  78 110 154 202 261 320 390 463
#
# _framework density 23.774963
#
# number of rings (size 3 to 8) (size 9 to 14) (size 15 to 20)
#    0.000    1.143    0.000    6.000    2.000    2.286 
#   38.571    0.000    0.000    0.000    0.000    0.000 
#    0.000    0.000    0.000    0.000    0.000    0.000 
#
# Total GULP energy -173472.611939 kJ/mol
# GULP energy per Si atom -12390.900853 kJ/mol
# Density = 2.372085 g / cm^3
# Si number density = 23.774963 Si / 1000 Ang^3
#
#
#
# Elastic Constant Matrix: (Units=GPa)
#
#
# Indices 1 2 3 4 5 6 
#
# 1 186.1127 73.9089 65.5050 0.0004 -0.0001 0.0002
# 2 73.9089 165.7443 77.1047 0.0016 0.0001 0.0006
# 3 65.5050 77.1047 145.4694 0.0027 0.0003 0.0009
# 4 0.0004 0.0016 0.0027 76.2115 0.0000 0.0007
# 5 -0.0001 0.0001 0.0003 0.0000 40.5913 0.0001
# 6 0.0002 0.0006 0.0009 0.0007 0.0001 14.8946
#
#
#
# Elastic Compliance Matrix: (Units=1/GPa)
#
#
# Indices 1 2 3 4 5 6 
#
# 1 0.006929 -0.002175 -0.001968 0.000000 0.000000 0.000000
# 2 -0.002175 0.008690 -0.003627 0.000000 0.000000 0.000000
# 3 -0.001968 -0.003627 0.009683 0.000000 0.000000 0.000000
# 4 0.000000 0.000000 0.000000 0.013121 0.000000 -0.000001
# 5 0.000000 0.000000 0.000000 0.000000 0.024636 0.000000
# 6 0.000000 0.000000 0.000000 -0.000001 0.000000 0.067138
#
#
# Mechanical properties :
#
#
# Convention : Reuss Voigt Hill
#
# Bulk Modulus (GPa) = 102.41773 103.37375 102.89574
# Shear Modulus (GPa) = 33.55906 45.05999 39.30952
#
# Velocity S-wave (km/s) = 3.76111 4.35819 4.07061
# Velocity P-wave (km/s) = 7.87609 8.30058 8.09112
#
# Compressibility (1/GPa) = 0.00976393
#
# Stress axis : x y z
#
# Youngs Moduli (GPa) = 144.31750 115.06990 103.27580
#
# Poissons Ratio (x) = 0.25022 0.20321
# Poissons Ratio (y) = 0.31382 0.37459
# Poissons Ratio (z) = 0.28396 0.41737
#
# Static dielectric constant tensor:
#      x y z
#    x 4.093310 0.000000 0.000000 
#    y 0.000000 4.759330 0.000000 
#    z 0.000000 0.000000 4.601850 
# 
# 
# High freq. dielectric constant tensor:
#      x y z
#    x 1.941180 0.000000 0.000000 
#    y 0.000000 1.972500 0.000000 
#    z 0.000000 0.000000 1.934640 
# 
# From -- ./inp_files/4716.got.cif
#   From: 2010.03.12/outbox.cif.g09.slc.cpg/sg23_3_cif.got.tgz:4716.got - 2010.04.14 02:50:06.
