data_PCOD8164724
_publ_section_title
;
Structure prediction by ZEFSAII (Michael W. Deem and Ramdas Pophale) SiO2 
 PCOD8164724
Probable space group: I 21 21 21
;
_chemical_formula_sum "Si O2"
_cell_formula_units_Z 64
_cell_length_a 9.526673
_cell_length_b 14.218696
_cell_length_c 22.730916
_cell_angle_alpha 90.000000
_cell_angle_beta 90.000000
_cell_angle_gamma 90.000000
_cell_volume 3079.058672
_symmetry_space_group_name_H-M "I 21 21 21"
_symmetry_group_IT_number 24
_symmetry_cell_setting 'orthorhombic'
loop_
_space_group_symop_operation_xyz
x,y,z
-x,1/2-y,z
x,-y,1/2-z
1/2-x,y,-z
1/2+x,1/2+y,1/2+z
1/2-x,-y,1/2+z
1/2+x,1/2-y,-z
-x,1/2+y,1/2-z
loop_
_atom_site_type_symbol
_atom_site_label
_atom_site_fract_x
_atom_site_fract_y
_atom_site_fract_z
Si Si1 0.981937 0.958283 0.065226
Si Si2 0.747438 0.614800 0.123231
Si Si3 0.522548 0.039231 0.430647
Si Si4 0.256522 0.673758 0.893391
Si Si5 0.328191 0.106800 0.747033
Si Si6 0.663877 0.243039 0.836360
Si Si7 0.155816 0.393643 0.265833
Si Si8 0.751660 0.111056 0.068823
O O1 0.889263 0.864666 0.070748
O O2 0.117032 0.948970 0.107107
O O3 0.888889 0.048385 0.085816
O O4 0.028063 0.968670 0.997939
O O5 0.615428 0.549113 0.108623
O O6 0.749001 0.715583 0.091343
O O7 0.741737 0.645455 0.191589
O O8 0.615548 0.131328 0.420492
O O9 0.611507 0.946223 0.413502
O O10 0.271348 0.642673 0.825200
O O11 0.286877 0.157025 0.808720
O O12 0.489766 0.122246 0.729744
O O13 0.285058 0.000000 0.750000
O O14 0.500000 0.250000 0.850244
O O15 0.710149 0.167306 0.788156
O O16 0.742277 0.210448 0.896183
O O17 0.196483 0.500000 0.250000
O O18 0.750000 0.134648 0.000000
#
# Coordination Sequence:
#
# PCOD8164724 Si02
#       8
#     8   8   8   8   8   8   8   8
#     4  10  21  35  60  89 121 169 217 263 318 362
#     4  12  22  35  56  85 129 166 214 264 314 377
#     4  10  23  38  55  85 127 176 211 253 318 392
#     4  11  20  34  55  86 124 163 213 268 319 371
#     4  10  22  37  59  91 125 150 203 268 317 366
#     4  10  20  35  67 102 118 154 212 263 318 370
#     4  10  18  32  57  93 120 155 205 268 315 368
#     4   9  20  42  67  94 128 158 210 266 312 383
#
# _framework density 20.785571999999998
#
# number of rings (size 3 to 8) (size 9 to 14) (size 15 to 20)
#    0.000    1.750    2.500    3.750    3.500    3.000 
#    0.000    1.875    5.500    0.000    0.000    0.000 
#    0.000    0.000    0.000    0.000    0.000    0.000 
#
# Total GULP energy -396665.278719 kJ/mol
# GULP energy per Si atom -12395.789960 kJ/mol
# Density = 2.073826 g / cm^3
# Si number density = 20.785572 Si / 1000 Ang^3
#
#
#
# Elastic Constant Matrix: (Units=GPa)
#
#
# Indices 1 2 3 4 5 6 
#
# 1 92.9260 31.4295 33.9789 0.0000 0.0000 0.0000
# 2 31.4295 119.5031 48.6302 0.0000 0.0000 0.0000
# 3 33.9789 48.6302 94.1573 0.0000 0.0000 0.0000
# 4 0.0000 0.0000 0.0000 32.7267 0.0000 0.0000
# 5 0.0000 0.0000 0.0000 0.0000 21.4423 0.0000
# 6 0.0000 0.0000 0.0000 0.0000 0.0000 17.2385
#
#
#
# Elastic Compliance Matrix: (Units=1/GPa)
#
#
# Indices 1 2 3 4 5 6 
#
# 1 0.012719 -0.001870 -0.003624 0.000000 0.000000 0.000000
# 2 -0.001870 0.010870 -0.004939 0.000000 0.000000 0.000000
# 3 -0.003624 -0.004939 0.014479 0.000000 0.000000 0.000000
# 4 0.000000 0.000000 0.000000 0.030556 0.000000 0.000000
# 5 0.000000 0.000000 0.000000 0.000000 0.046637 0.000000
# 6 0.000000 0.000000 0.000000 0.000000 0.000000 0.058010
#
#
# Mechanical properties :
#
#
# Convention : Reuss Voigt Hill
#
# Bulk Modulus (GPa) = 58.13528 59.40705 58.77116
# Shear Modulus (GPa) = 25.01613 27.11802 26.06707
#
# Velocity S-wave (km/s) = 3.47296 3.61592 3.54516
# Velocity P-wave (km/s) = 6.64167 6.78794 6.71520
#
# Compressibility (1/GPa) = 0.01720126
#
# Stress axis : x y z
#
# Youngs Moduli (GPa) = 78.62274 91.99819 69.06452
#
# Poissons Ratio (x) = 0.17207 0.25028
# Poissons Ratio (y) = 0.14706 0.34111
# Poissons Ratio (z) = 0.28492 0.45438
#
# Static dielectric constant tensor:
#      x y z
#    x 3.599890 0.000000 0.000000 
#    y 0.000000 3.809840 0.000000 
#    z 0.000000 0.000000 3.888570 
# 
# 
# High freq. dielectric constant tensor:
#      x y z
#    x 1.780650 0.000000 0.000000 
#    y 0.000000 1.807700 0.000000 
#    z 0.000000 0.000000 1.820040 
# 
# From -- ./inp_files/35302.got.cif
#   From: 2010.03.12/outbox.cif.g09.slc.cpg/sg24_18_cif.got.tgz:35302.got - 2010.04.14 03:06:53.
