data_PCOD8164381
_publ_section_title
;
Structure prediction by ZEFSAII (Michael W. Deem and Ramdas Pophale) SiO2 
 PCOD8164381
Probable space group: I 2 2 2
;
_chemical_formula_sum "Si O2"
_cell_formula_units_Z 58
_cell_length_a 12.766644
_cell_length_b 17.057442
_cell_length_c 11.768219
_cell_angle_alpha 90.000000
_cell_angle_beta 90.000000
_cell_angle_gamma 90.000000
_cell_volume 2562.721386
_symmetry_space_group_name_H-M "I 2 2 2"
_symmetry_group_IT_number 23
_symmetry_cell_setting 'orthorhombic'
loop_
_space_group_symop_operation_xyz
x,y,z
-x,-y,z
x,-y,-z
-x,y,-z
1/2+x,1/2+y,1/2+z
1/2-x,1/2-y,1/2+z
1/2+x,1/2-y,1/2-z
1/2-x,1/2+y,1/2-z
loop_
_atom_site_type_symbol
_atom_site_label
_atom_site_fract_x
_atom_site_fract_y
_atom_site_fract_z
Si Si1 0.738263 0.648557 0.467730
Si Si2 0.072430 0.404613 0.598925
Si Si3 0.525517 0.787669 0.725344
Si Si4 0.749936 0.510829 0.296122
Si Si5 0.168982 0.393063 0.098556
Si Si6 0.692704 0.806464 0.374175
Si Si7 0.500000 0.000000 0.500000
Si Si8 0.850980 0.143713 0.802745
O O1 0.844257 0.649764 0.538045
O O2 0.720785 0.569583 0.397498
O O3 0.746991 0.722815 0.387086
O O4 0.647031 0.660548 0.561965
O O5 0.998350 0.345300 0.670368
O O6 0.135459 0.471462 0.672394
O O7 0.000000 0.443278 0.500000
O O8 0.633020 0.815926 0.666215
O O9 0.431255 0.792980 0.635724
O O10 0.553920 0.695085 0.754071
O O11 0.751768 0.556472 0.175806
O O12 0.650595 0.451045 0.288336
O O13 0.068212 0.447078 0.082602
O O14 0.218836 0.366390 0.978127
O O15 0.738506 0.838955 0.257243
#
# Coordination Sequence:
#
# PCOD8164381 Si02
#       8
#     8   8   8   8   8   8   2   8
#     4  11  24  40  67  91 139 178 225 283 338 414
#     4  11  22  40  63 100 135 177 228 285 348 404
#     4  12  23  42  67  97 136 180 229 280 342 412
#     4  11  24  42  65 101 139 181 223 290 353 402
#     4  12  23  37  62  96 136 175 222 280 350 410
#     4  12  23  44  66 100 134 182 226 281 352 412
#     4  12  20  32  56  96 134 162 206 276 352 398
#     4  11  23  43  63  97 137 179 232 276 336 414
#
# _framework density 22.632190000000001
#
# number of rings (size 3 to 8) (size 9 to 14) (size 15 to 20)
#    0.000    0.552    5.517    5.793    0.000    3.310 
#    0.000    0.690    0.000    3.310    0.000    1.931 
#    0.000    0.000    0.000    0.000    0.000    0.000 
#
# Total GULP energy -359297.642069 kJ/mol
# GULP energy per Si atom -12389.573864 kJ/mol
# Density = 2.258068 g / cm^3
# Si number density = 22.632190 Si / 1000 Ang^3
#
#
#
# Elastic Constant Matrix: (Units=GPa)
#
#
# Indices 1 2 3 4 5 6 
#
# 1 29.8777 28.0793 24.5340 0.0000 0.0000 0.0000
# 2 28.0793 145.6016 69.8755 0.0000 0.0000 0.0000
# 3 24.5340 69.8755 115.5668 0.0001 0.0000 0.0000
# 4 0.0000 0.0000 0.0001 43.5165 0.0000 0.0000
# 5 0.0000 0.0000 0.0000 0.0000 18.8642 0.0000
# 6 0.0000 0.0000 0.0000 0.0000 0.0000 23.4073
#
#
#
# Elastic Compliance Matrix: (Units=1/GPa)
#
#
# Indices 1 2 3 4 5 6 
#
# 1 0.043532 -0.005579 -0.005868 0.000000 0.000000 0.000000
# 2 -0.005579 0.010391 -0.005098 0.000000 0.000000 0.000000
# 3 -0.005868 -0.005098 0.012981 0.000000 0.000000 0.000000
# 4 0.000000 0.000000 0.000000 0.022980 0.000000 0.000000
# 5 0.000000 0.000000 0.000000 0.000000 0.053010 0.000000
# 6 0.000000 0.000000 0.000000 0.000000 0.000000 0.042722
#
#
# Mechanical properties :
#
#
# Convention : Reuss Voigt Hill
#
# Bulk Modulus (GPa) = 29.57448 59.55818 44.56633
# Shear Modulus (GPa) = 21.74131 28.39475 25.06803
#
# Velocity S-wave (km/s) = 3.10278 3.54590 3.33171
# Velocity P-wave (km/s) = 5.09236 6.56791 5.87663
#
# Compressibility (1/GPa) = 0.03381294
#
# Stress axis : x y z
#
# Youngs Moduli (GPa) = 22.97182 96.24106 77.03376
#
# Poissons Ratio (x) = 0.53691 0.45206
# Poissons Ratio (y) = 0.12816 0.39273
# Poissons Ratio (z) = 0.13481 0.49065
#
# Static dielectric constant tensor:
#      x y z
#    x 3.664710 0.000000 0.000000 
#    y 0.000000 4.308600 0.000000 
#    z 0.000000 0.000000 4.316110 
# 
# 
# High freq. dielectric constant tensor:
#      x y z
#    x 1.840490 0.000000 0.000000 
#    y 0.000000 1.911900 0.000000 
#    z 0.000000 0.000000 1.904110 
# 
# From -- ./inp_files/16934.got.cif
#   From: 2010.03.12/outbox.cif.g09.slc.cpg/sg23_9_cif.got.tgz:16934.got - 2010.04.14 02:50:06.
