data_PCOD8164355
_publ_section_title
;
Structure prediction by ZEFSAII (Michael W. Deem and Ramdas Pophale) SiO2 
 PCOD8164355
Probable space group: I 2 2 2
;
_chemical_formula_sum "Si O2"
_cell_formula_units_Z 64
_cell_length_a 13.870162
_cell_length_b 11.653368
_cell_length_c 21.889741
_cell_angle_alpha 90.000000
_cell_angle_beta 90.000000
_cell_angle_gamma 90.000000
_cell_volume 3538.128630
_symmetry_space_group_name_H-M "I 2 2 2"
_symmetry_group_IT_number 23
_symmetry_cell_setting 'orthorhombic'
loop_
_space_group_symop_operation_xyz
x,y,z
-x,-y,z
x,-y,-z
-x,y,-z
1/2+x,1/2+y,1/2+z
1/2-x,1/2-y,1/2+z
1/2+x,1/2-y,1/2-z
1/2-x,1/2+y,1/2-z
loop_
_atom_site_type_symbol
_atom_site_label
_atom_site_fract_x
_atom_site_fract_y
_atom_site_fract_z
Si Si1 0.107926 0.133677 0.143151
Si Si2 0.389634 0.629988 0.214450
Si Si3 0.200298 0.268292 0.389300
Si Si4 0.892074 0.133677 0.143151
Si Si5 0.889634 0.129988 0.285550
Si Si6 0.200298 0.268292 0.610700
Si Si7 0.613451 1.000000 0.068927
Si Si8 0.110878 0.135871 0.500000
O O1 0.121345 0.158605 0.214579
O O2 0.184595 0.210321 0.105898
O O3 1.000000 0.168545 0.122360
O O4 0.126055 0.000000 0.129102
O O5 0.323216 0.716315 0.176725
O O6 0.356122 0.500000 0.201356
O O7 0.500000 0.645352 0.193268
O O8 0.315405 0.289679 0.394102
O O9 0.147009 0.389093 0.394465
O O10 0.166099 0.180976 0.440925
O O11 0.878655 0.158604 0.214579
O O12 0.823216 0.216315 0.323275
O O13 0.147009 0.389093 0.605535
O O14 0.166099 0.180977 0.559075
O O15 0.500000 0.000000 0.065700
O O16 0.656580 0.000000 0.000000
O O17 0.000000 0.179968 0.500000
O O18 0.114431 0.000000 0.500000
#
# Coordination Sequence:
#
# PCOD8164355 Si02
#       8
#     8   8   8   8   8   8   8   8
#     4   9  19  36  55  79 108 142 185 223 259 313
#     4   9  18  33  55  81 109 141 179 222 265 315
#     4  12  20  34  56  80 109 142 180 220 268 323
#     4   9  19  36  55  79 108 142 185 223 259 313
#     4   9  18  33  55  81 109 141 179 222 265 315
#     4  12  20  34  56  80 109 142 180 220 268 323
#     4  11  22  34  49  77 115 145 168 215 280 327
#     4  11  24  39  58  83 108 139 179 220 266 324
#
# _framework density 18.088657999999999
#
# number of rings (size 3 to 8) (size 9 to 14) (size 15 to 20)
#    0.000    1.750    2.500    5.250    0.000    2.000 
#    0.000    0.625    0.000    6.000    0.000    0.000 
#    0.000    0.000    0.000    0.000    0.000    0.000 
#
# Total GULP energy -396833.454438 kJ/mol
# GULP energy per Si atom -12401.045451 kJ/mol
# Density = 1.804749 g / cm^3
# Si number density = 18.088658 Si / 1000 Ang^3
#
#
#
# Elastic Constant Matrix: (Units=GPa)
#
#
# Indices 1 2 3 4 5 6 
#
# 1 139.6253 50.6829 46.2946 0.0000 0.0000 0.0000
# 2 50.6829 85.7117 32.9128 0.0000 0.0000 0.0000
# 3 46.2946 32.9128 51.7551 0.0000 0.0000 0.0000
# 4 0.0000 0.0000 0.0000 367.0519 0.0000 0.0000
# 5 0.0000 0.0000 0.0000 0.0000 23.8959 0.0000
# 6 0.0000 0.0000 0.0000 0.0000 0.0000 28.7220
#
#
#
# Elastic Compliance Matrix: (Units=1/GPa)
#
#
# Indices 1 2 3 4 5 6 
#
# 1 0.010959 -0.003594 -0.007517 0.000000 0.000000 0.000000
# 2 -0.003594 0.016615 -0.007352 0.000000 0.000000 0.000000
# 3 -0.007517 -0.007352 0.030721 0.000000 0.000000 0.000000
# 4 0.000000 0.000000 0.000000 0.002724 0.000000 0.000000
# 5 0.000000 0.000000 0.000000 0.000000 0.041848 0.000000
# 6 0.000000 0.000000 0.000000 0.000000 0.000000 0.034817
#
#
# Mechanical properties :
#
#
# Convention : Reuss Voigt Hill
#
# Bulk Modulus (GPa) = 46.79481 59.65252 53.22367
# Shear Modulus (GPa) = 27.51293 93.74739 60.63016
#
# Velocity S-wave (km/s) = 3.90424 7.20688 5.79578
# Velocity P-wave (km/s) = 6.80073 10.11443 8.61834
#
# Compressibility (1/GPa) = 0.02136989
#
# Stress axis : x y z
#
# Youngs Moduli (GPa) = 91.24940 60.18682 32.55085
#
# Poissons Ratio (x) = 0.21629 0.24470
# Poissons Ratio (y) = 0.32791 0.23930
# Poissons Ratio (z) = 0.68596 0.44247
#
# Static dielectric constant tensor:
#      x y z
#    x 3.449300 0.000000 0.000000 
#    y 0.000000 3.314160 0.000000 
#    z 0.000000 0.000000 3.284800 
# 
# 
# High freq. dielectric constant tensor:
#      x y z
#    x 1.700330 0.000000 0.000000 
#    y 0.000000 1.696260 0.000000 
#    z 0.000000 0.000000 1.693030 
# 
# From -- ./inp_files/28415.got.cif
#   From: 2010.03.12/outbox.cif.g09.slc.cpg/sg23_15_cif.got.tgz:28415.got - 2010.04.14 02:50:06.
