data_PCOD8164412
_publ_section_title
;
Structure prediction by ZEFSAII (Michael W. Deem and Ramdas Pophale) SiO2 
 PCOD8164412
Probable space group: I 2 2 2
;
_chemical_formula_sum "Si O2"
_cell_formula_units_Z 64
_cell_length_a 11.895015
_cell_length_b 8.927024
_cell_length_c 27.745410
_cell_angle_alpha 90.000000
_cell_angle_beta 90.000000
_cell_angle_gamma 90.000000
_cell_volume 2946.204193
_symmetry_space_group_name_H-M "I 2 2 2"
_symmetry_group_IT_number 23
_symmetry_cell_setting 'orthorhombic'
loop_
_space_group_symop_operation_xyz
x,y,z
-x,-y,z
x,-y,-z
-x,y,-z
1/2+x,1/2+y,1/2+z
1/2-x,1/2-y,1/2+z
1/2+x,1/2-y,1/2-z
1/2-x,1/2+y,1/2-z
loop_
_atom_site_type_symbol
_atom_site_label
_atom_site_fract_x
_atom_site_fract_y
_atom_site_fract_z
Si Si1 0.504789 0.823012 0.055263
Si Si2 0.920596 0.861378 0.277229
Si Si3 0.225226 0.890274 0.812287
Si Si4 0.072927 0.366173 0.756675
Si Si5 0.770281 0.192193 0.403887
Si Si6 0.377851 0.826326 0.490988
Si Si7 0.717181 0.343214 0.076078
Si Si8 0.285865 0.723979 0.667769
O O1 0.621143 0.781518 0.079861
O O2 0.402334 0.740132 0.082341
O O3 0.500000 0.000000 0.060210
O O4 0.500000 0.769311 0.000000
O O5 0.885679 0.869883 0.220490
O O6 0.816868 0.827206 0.312245
O O7 0.998603 0.717285 0.282949
O O8 0.000000 0.000000 0.293378
O O9 0.319654 0.919136 0.772251
O O10 0.240575 0.748709 0.849088
O O11 0.228237 0.046923 0.840127
O O12 0.106021 0.252913 0.799363
O O13 0.000000 0.500000 0.779547
O O14 0.661635 0.223803 0.437614
O O15 0.800138 0.018236 0.412470
O O16 0.500000 0.746762 0.500000
O O17 0.273257 0.789378 0.526141
O O18 0.398319 0.000000 0.500000
O O19 0.807502 0.285066 0.114737
#
# Coordination Sequence:
#
# PCOD8164412 Si02
#       8
#     8   8   8   8   8   8   8   8
#     4  11  23  41  67  92 131 171 213 274 339 397
#     4  11  24  43  67  91 132 178 218 268 335 394
#     4  11  25  42  63  98 133 171 220 274 336 400
#     4  11  24  43  67  90 131 179 218 272 332 396
#     4  11  24  40  68  98 131 172 223 279 335 404
#     4   9  20  43  65  93 131 174 218 275 329 396
#     4  11  24  40  67 100 129 171 229 273 335 403
#     4  11  25  42  63  98 132 169 224 275 326 413
#
# _framework density 21.722864999999999
#
# number of rings (size 3 to 8) (size 9 to 14) (size 15 to 20)
#    0.000    1.250    3.750    1.125    5.250    2.000 
#    2.250    0.000    0.000    3.000    0.000    0.000 
#    0.000    0.000    0.000    0.000    0.000    0.000 
#
# Total GULP energy -396449.962611 kJ/mol
# GULP energy per Si atom -12389.061332 kJ/mol
# Density = 2.167342 g / cm^3
# Si number density = 21.722865 Si / 1000 Ang^3
#
#
#
# Elastic Constant Matrix: (Units=GPa)
#
#
# Indices 1 2 3 4 5 6 
#
# 1 89.0826 14.2239 -2.4163 0.0000 0.0000 0.0000
# 2 14.2239 89.7765 9.6650 0.0000 0.0000 0.0000
# 3 -2.4163 9.6650 63.4460 0.0000 0.0000 0.0000
# 4 0.0000 0.0000 0.0000 29.0676 0.0000 0.0000
# 5 0.0000 0.0000 0.0000 0.0000 20.4398 0.0000
# 6 0.0000 0.0000 0.0000 0.0000 0.0000 24.2934
#
#
#
# Elastic Compliance Matrix: (Units=1/GPa)
#
#
# Indices 1 2 3 4 5 6 
#
# 1 0.011550 -0.001909 0.000731 0.000000 0.000000 0.000000
# 2 -0.001909 0.011640 -0.001846 0.000000 0.000000 0.000000
# 3 0.000731 -0.001846 0.016070 0.000000 0.000000 0.000000
# 4 0.000000 0.000000 0.000000 0.034403 0.000000 0.000000
# 5 0.000000 0.000000 0.000000 0.000000 0.048924 0.000000
# 6 0.000000 0.000000 0.000000 0.000000 0.000000 0.041164
#
#
# Mechanical properties :
#
#
# Convention : Reuss Voigt Hill
#
# Bulk Modulus (GPa) = 30.10890 31.69448 30.90169
# Shear Modulus (GPa) = 27.64427 29.48231 28.56329
#
# Velocity S-wave (km/s) = 3.57121 3.68802 3.63008
# Velocity P-wave (km/s) = 5.55835 5.72340 5.64148
#
# Compressibility (1/GPa) = 0.03321277
#
# Stress axis : x y z
#
# Youngs Moduli (GPa) = 86.57930 85.91147 62.22598
#
# Poissons Ratio (x) = 0.16397 -0.04546
# Poissons Ratio (y) = 0.16525 0.11486
# Poissons Ratio (z) = -0.06326 0.15858
#
# Static dielectric constant tensor:
#      x y z
#    x 4.236270 0.000000 0.000000 
#    y 0.000000 4.150110 0.000000 
#    z 0.000000 0.000000 4.039980 
# 
# 
# High freq. dielectric constant tensor:
#      x y z
#    x 1.862770 0.000000 0.000000 
#    y 0.000000 1.848520 0.000000 
#    z 0.000000 0.000000 1.849220 
# 
# From -- ./inp_files/30479.got.cif
#   From: 2010.03.12/outbox.cif.g09.slc.cpg/sg23_16_cif.got.tgz:30479.got - 2010.04.14 02:50:06.
