data_PCOD8164878
_publ_section_title
;
Structure prediction by ZEFSAII (Michael W. Deem and Ramdas Pophale) SiO2 
 PCOD8164878
Probable space group: I 21 21 21
;
_chemical_formula_sum "Si O2"
_cell_formula_units_Z 64
_cell_length_a 19.445665
_cell_length_b 20.536388
_cell_length_c 9.088176
_cell_angle_alpha 90.000000
_cell_angle_beta 90.000000
_cell_angle_gamma 90.000000
_cell_volume 3629.306024
_symmetry_space_group_name_H-M "I 21 21 21"
_symmetry_group_IT_number 24
_symmetry_cell_setting 'orthorhombic'
loop_
_space_group_symop_operation_xyz
x,y,z
-x,1/2-y,z
x,-y,1/2-z
1/2-x,y,-z
1/2+x,1/2+y,1/2+z
1/2-x,-y,1/2+z
1/2+x,1/2-y,-z
-x,1/2+y,1/2-z
loop_
_atom_site_type_symbol
_atom_site_label
_atom_site_fract_x
_atom_site_fract_y
_atom_site_fract_z
Si Si1 0.819302 0.227573 0.422336
Si Si2 0.051588 0.926690 0.582579
Si Si3 0.681334 0.378629 0.578519
Si Si4 0.051588 0.073310 0.582579
Si Si5 0.046664 0.689063 0.577908
Si Si6 0.180698 0.272427 0.077664
Si Si7 0.181334 0.121371 0.078519
Si Si8 0.953336 0.189063 0.577908
O O1 0.750000 0.202458 0.500000
O O2 0.831432 0.303207 0.459030
O O3 0.812917 0.214332 0.250000
O O4 0.883082 0.187778 0.486959
O O5 0.074016 0.911092 0.750000
O O6 0.117452 0.919644 0.479558
O O7 0.991823 0.877393 0.534347
O O8 0.022862 0.000000 0.567131
O O9 0.750000 0.404220 0.500000
O O10 0.617452 0.419644 0.520442
O O11 0.690082 0.391181 0.750000
O O12 0.991823 0.122607 0.534347
O O13 0.116918 0.687778 0.486959
O O14 0.064350 0.693285 0.750000
O O15 0.000000 0.750000 0.528990
O O16 0.168568 0.196793 0.040970
O O17 0.250000 0.297542 0.000000
O O18 0.250000 0.095780 0.000000
O O19 0.000000 0.250000 0.528990
#
# Coordination Sequence:
#
# PCOD8164878 Si02
#       8
#     8   8   8   8   8   8   8   8
#     4  10  20  33  53  80 108 136 171 216 262 307
#     4  10  21  36  53  75 105 140 175 212 257 308
#     4  10  20  33  51  75 105 140 177 214 254 304
#     4  10  21  36  53  75 105 140 175 212 257 308
#     4  10  19  33  55  79 104 136 173 214 259 306
#     4  10  20  33  53  80 108 136 171 216 262 307
#     4  10  20  33  51  75 105 140 177 214 254 304
#     4  10  19  33  55  79 104 136 173 214 259 306
#
# _framework density 17.634226000000002
#
# number of rings (size 3 to 8) (size 9 to 14) (size 15 to 20)
#    0.000    2.000    2.500    1.500    0.000    4.500 
#    0.000    0.000    0.000    0.750    0.000    0.000 
#    0.000    0.000    0.000    0.000    0.000    0.000 
#
# Total GULP energy -396958.923976 kJ/mol
# GULP energy per Si atom -12404.966374 kJ/mol
# Density = 1.759409 g / cm^3
# Si number density = 17.634226 Si / 1000 Ang^3
#
#
#
# Elastic Constant Matrix: (Units=GPa)
#
#
# Indices 1 2 3 4 5 6 
#
# 1 138.6600 59.6084 60.4434 0.0000 0.0000 0.0000
# 2 59.6084 93.7151 37.9003 0.0000 0.0000 0.0000
# 3 60.4434 37.9003 78.3409 0.0000 0.0000 0.0000
# 4 0.0000 0.0000 0.0000 16.9280 0.0000 0.0000
# 5 0.0000 0.0000 0.0000 0.0000 39.1287 0.0000
# 6 0.0000 0.0000 0.0000 0.0000 0.0000 23.1911
#
#
#
# Elastic Compliance Matrix: (Units=1/GPa)
#
#
# Indices 1 2 3 4 5 6 
#
# 1 0.012533 -0.005049 -0.007227 0.000000 0.000000 0.000000
# 2 -0.005049 0.015300 -0.003507 0.000000 0.000000 0.000000
# 3 -0.007227 -0.003507 0.020037 0.000000 0.000000 0.000000
# 4 0.000000 0.000000 0.000000 0.059074 0.000000 0.000000
# 5 0.000000 0.000000 0.000000 0.000000 0.025557 0.000000
# 6 0.000000 0.000000 0.000000 0.000000 0.000000 0.043120
#
#
# Mechanical properties :
#
#
# Convention : Reuss Voigt Hill
#
# Bulk Modulus (GPa) = 61.33040 69.62445 65.47743
# Shear Modulus (GPa) = 23.51616 26.03383 24.77500
#
# Velocity S-wave (km/s) = 3.65575 3.84646 3.75232
# Velocity P-wave (km/s) = 7.25768 7.70035 7.48229
#
# Compressibility (1/GPa) = 0.01630513
#
# Stress axis : x y z
#
# Youngs Moduli (GPa) = 79.79209 65.35897 49.90750
#
# Poissons Ratio (x) = 0.32998 0.36068
# Poissons Ratio (y) = 0.40285 0.17501
# Poissons Ratio (z) = 0.57665 0.22919
#
# Static dielectric constant tensor:
#      x y z
#    x 3.225570 0.000000 0.000000 
#    y 0.000000 3.122090 0.000000 
#    z 0.000000 0.000000 3.233860 
# 
# 
# High freq. dielectric constant tensor:
#      x y z
#    x 1.681010 0.000000 0.000000 
#    y 0.000000 1.657960 0.000000 
#    z 0.000000 0.000000 1.687040 
# 
# From -- ./inp_files/14597.got.cif
#   From: 2010.03.12/outbox.cif.g09.slc.cpg/sg24_8_cif.got.tgz:14597.got - 2010.04.14 03:06:53.
