data_PCOD8164109
_publ_section_title
;
Structure prediction by ZEFSAII (Michael W. Deem and Ramdas Pophale) SiO2 
 PCOD8164109
Probable space group: I 2 2 2
;
_chemical_formula_sum "Si O2"
_cell_formula_units_Z 20
_cell_length_a 5.192084
_cell_length_b 12.467121
_cell_length_c 13.211793
_cell_angle_alpha 90.000000
_cell_angle_beta 90.000000
_cell_angle_gamma 90.000000
_cell_volume 855.203846
_symmetry_space_group_name_H-M "I 2 2 2"
_symmetry_group_IT_number 23
_symmetry_cell_setting 'orthorhombic'
loop_
_space_group_symop_operation_xyz
x,y,z
-x,-y,z
x,-y,-z
-x,y,-z
1/2+x,1/2+y,1/2+z
1/2-x,1/2-y,1/2+z
1/2+x,1/2-y,1/2-z
1/2-x,1/2+y,1/2-z
loop_
_atom_site_type_symbol
_atom_site_label
_atom_site_fract_x
_atom_site_fract_y
_atom_site_fract_z
Si Si1 0.324581 0.817486 0.868044
Si Si2 0.675419 0.182514 0.631956
Si Si3 0.000000 0.500000 0.500000
Si Si4 0.000000 0.500000 0.000000
O O1 0.316859 0.846037 0.750000
O O2 0.585208 0.756037 0.899005
O O3 0.085208 0.743963 0.899005
O O4 0.314454 0.928500 0.929197
O O5 0.685546 0.071500 0.570803
#
# Coordination Sequence:
#
# PCOD8164109 Si02
#       4
#     8   8   2   2
#     4  10  23  41  59  85 120 153 190 238 289 342
#     4  10  23  41  59  85 120 153 190 238 289 342
#     4  12  22  38  64  90 112 154 198 238 284 342
#     4  12  22  38  64  90 112 154 198 238 284 342
#
# _framework density 23.386234999999999
#
# number of rings (size 3 to 8) (size 9 to 14) (size 15 to 20)
#    0.000    1.600    0.000    3.600    0.000    6.400 
#    0.000   12.000    0.000    0.000    0.000    0.000 
#    0.000    0.000    0.000    0.000    0.000    0.000 
#
# Total GULP energy -124085.293092 kJ/mol
# GULP energy per Si atom -12408.529309 kJ/mol
# Density = 2.333301 g / cm^3
# Si number density = 23.386235 Si / 1000 Ang^3
#
#
#
# Elastic Constant Matrix: (Units=GPa)
#
#
# Indices 1 2 3 4 5 6 
#
# 1 158.8463 61.7559 52.1217 0.0000 0.0000 0.0000
# 2 61.7559 169.0426 100.7509 0.0000 0.0000 0.0000
# 3 52.1217 100.7509 95.4508 0.0000 0.0000 0.0000
# 4 0.0000 0.0000 0.0000 67.3371 0.0000 0.0000
# 5 0.0000 0.0000 0.0000 0.0000 29.5148 0.0000
# 6 0.0000 0.0000 0.0000 0.0000 0.0000 10.9149
#
#
#
# Elastic Compliance Matrix: (Units=1/GPa)
#
#
# Indices 1 2 3 4 5 6 
#
# 1 0.007712 -0.000829 -0.003336 0.000000 0.000000 0.000000
# 2 -0.000829 0.016039 -0.016477 0.000000 0.000000 0.000000
# 3 -0.003336 -0.016477 0.029690 0.000000 0.000000 0.000000
# 4 0.000000 0.000000 0.000000 0.014851 0.000000 0.000000
# 5 0.000000 0.000000 0.000000 0.000000 0.033881 0.000000
# 6 0.000000 0.000000 0.000000 0.000000 0.000000 0.091618
#
#
# Mechanical properties :
#
#
# Convention : Reuss Voigt Hill
#
# Bulk Modulus (GPa) = 82.25646 94.73298 88.49472
# Shear Modulus (GPa) = 20.90933 35.46743 28.18838
#
# Velocity S-wave (km/s) = 2.99337 3.89857 3.47557
# Velocity P-wave (km/s) = 6.86997 7.80135 7.35043
#
# Compressibility (1/GPa) = 0.01215710
#
# Stress axis : x y z
#
# Youngs Moduli (GPa) = 129.66024 62.34894 33.68146
#
# Poissons Ratio (x) = 0.05169 0.11237
# Poissons Ratio (y) = 0.10750 0.55496
# Poissons Ratio (z) = 0.43259 1.02730
#
# Static dielectric constant tensor:
#      x y z
#    x 4.029860 0.000000 0.000000 
#    y 0.000000 4.098450 0.000000 
#    z 0.000000 0.000000 4.530460 
# 
# 
# High freq. dielectric constant tensor:
#      x y z
#    x 1.914520 0.000000 0.000000 
#    y 0.000000 1.921110 0.000000 
#    z 0.000000 0.000000 1.967430 
# 
# From -- ./inp_files/348.got.cif
#   From: 2010.03.12/outbox.cif.g09.slc.cpg/sg23_1_cif.got.tgz:348.got - 2010.04.14 02:50:06.
