data_PCOD8164528
_publ_section_title
;
Structure prediction by ZEFSAII (Michael W. Deem and Ramdas Pophale) SiO2 
 PCOD8164528
Probable space group: I 2 2 2
;
_chemical_formula_sum "Si O2"
_cell_formula_units_Z 48
_cell_length_a 13.723175
_cell_length_b 17.474180
_cell_length_c 9.302477
_cell_angle_alpha 90.000000
_cell_angle_beta 90.000000
_cell_angle_gamma 90.000000
_cell_volume 2230.745428
_symmetry_space_group_name_H-M "I 2 2 2"
_symmetry_group_IT_number 23
_symmetry_cell_setting 'orthorhombic'
loop_
_space_group_symop_operation_xyz
x,y,z
-x,-y,z
x,-y,-z
-x,y,-z
1/2+x,1/2+y,1/2+z
1/2-x,1/2-y,1/2+z
1/2+x,1/2-y,1/2-z
1/2-x,1/2+y,1/2-z
loop_
_atom_site_type_symbol
_atom_site_label
_atom_site_fract_x
_atom_site_fract_y
_atom_site_fract_z
Si Si1 0.687849 0.822972 0.368072
Si Si2 0.163227 0.935779 0.108765
Si Si3 0.500000 0.762238 0.500000
Si Si4 0.294534 0.808701 0.968109
Si Si5 0.816392 0.959474 0.357464
Si Si6 0.519369 0.347552 0.263355
Si Si7 0.000000 0.741405 0.500000
O O1 0.574317 0.814754 0.409468
O O2 0.751609 0.768596 0.467571
O O3 0.721709 0.909740 0.398607
O O4 0.709829 0.803403 0.203409
O O5 0.241184 0.883491 0.027409
O O6 0.072777 0.888443 0.166789
O O7 0.215911 0.976243 0.243629
O O8 0.123260 0.000000 0.000000
O O9 0.438374 0.708329 0.388903
O O10 0.406738 0.813118 0.020087
O O11 0.900085 0.907011 0.287462
O O12 0.858568 0.000000 0.500000
O O13 0.480158 0.296388 0.134479
#
# Coordination Sequence:
#
# PCOD8164528 Si02
#       7
#     8   8   4   8   8   8   4
#     4  12  26  48  72 106 146 191 246 299 355 441
#     4  12  25  46  71 104 151 191 232 294 369 438
#     4  12  24  44  80 104 140 190 248 300 356 424
#     4  12  25  47  73 105 147 191 247 299 356 438
#     4  12  27  45  70 106 152 190 234 300 373 434
#     4  12  24  44  69 112 145 183 233 303 370 431
#     4  12  24  42  76 108 138 188 250 298 354 418
#
# _framework density 21.517471
#
# number of rings (size 3 to 8) (size 9 to 14) (size 15 to 20)
#    0.000    0.000    6.667    3.500    2.333    1.333 
#    0.000    0.833    0.000    0.000    0.000    0.000 
#    0.000    0.000    0.000    0.000    0.000    0.000 
#
# Total GULP energy -297674.809502 kJ/mol
# GULP energy per Si atom -12403.117063 kJ/mol
# Density = 2.146850 g / cm^3
# Si number density = 21.517471 Si / 1000 Ang^3
#
#
#
# Elastic Constant Matrix: (Units=GPa)
#
#
# Indices 1 2 3 4 5 6 
#
# 1 119.4050 58.5584 62.6766 0.0000 0.0000 0.0000
# 2 58.5584 98.1768 66.1497 0.0000 0.0000 0.0000
# 3 62.6766 66.1497 160.3088 0.0000 0.0000 0.0000
# 4 0.0000 0.0000 0.0000 46.3733 0.0000 0.0000
# 5 0.0000 0.0000 0.0000 0.0000 31.6937 0.0000
# 6 0.0000 0.0000 0.0000 0.0000 0.0000 12.0588
#
#
#
# Elastic Compliance Matrix: (Units=1/GPa)
#
#
# Indices 1 2 3 4 5 6 
#
# 1 0.012528 -0.005779 -0.002514 0.000000 0.000000 0.000000
# 2 -0.005779 0.016774 -0.004662 0.000000 0.000000 0.000000
# 3 -0.002514 -0.004662 0.009144 0.000000 0.000000 0.000000
# 4 0.000000 0.000000 0.000000 0.021564 0.000000 0.000000
# 5 0.000000 0.000000 0.000000 0.000000 0.031552 0.000000
# 6 0.000000 0.000000 0.000000 0.000000 0.000000 0.082927
#
#
# Mechanical properties :
#
#
# Convention : Reuss Voigt Hill
#
# Bulk Modulus (GPa) = 79.76232 83.62890 81.69561
# Shear Modulus (GPa) = 24.44043 30.72554 27.58299
#
# Velocity S-wave (km/s) = 3.37388 3.78290 3.58423
# Velocity P-wave (km/s) = 7.23371 7.61777 7.42822
#
# Compressibility (1/GPa) = 0.01253725
#
# Stress axis : x y z
#
# Youngs Moduli (GPa) = 79.81835 59.61636 109.35545
#
# Poissons Ratio (x) = 0.34453 0.27488
# Poissons Ratio (y) = 0.46128 0.50983
# Poissons Ratio (z) = 0.20063 0.27794
#
# Static dielectric constant tensor:
#      x y z
#    x 4.016320 0.000000 0.000000 
#    y 0.000000 4.125600 0.000000 
#    z 0.000000 0.000000 4.385500 
# 
# 
# High freq. dielectric constant tensor:
#      x y z
#    x 1.833770 0.000000 0.000000 
#    y 0.000000 1.838920 0.000000 
#    z 0.000000 0.000000 1.877690 
# 
# From -- ./inp_files/10001.got.cif
#   From: 2010.03.12/outbox.cif.g09.slc.cpg/sg23_6_cif.got.tgz:10001.got - 2010.04.14 02:50:06.
