data_PCOD8164934
_publ_section_title
;
Structure prediction by ZEFSAII (Michael W. Deem and Ramdas Pophale) SiO2 
 PCOD8164934
Probable space group: I 21 21 21
;
_chemical_formula_sum "Si O2"
_cell_formula_units_Z 64
_cell_length_a 9.359840
_cell_length_b 20.784278
_cell_length_c 19.147087
_cell_angle_alpha 90.000000
_cell_angle_beta 90.000000
_cell_angle_gamma 90.000000
_cell_volume 3724.826755
_symmetry_space_group_name_H-M "I 21 21 21"
_symmetry_group_IT_number 24
_symmetry_cell_setting 'orthorhombic'
loop_
_space_group_symop_operation_xyz
x,y,z
-x,1/2-y,z
x,-y,1/2-z
1/2-x,y,-z
1/2+x,1/2+y,1/2+z
1/2-x,-y,1/2+z
1/2+x,1/2-y,-z
-x,1/2+y,1/2-z
loop_
_atom_site_type_symbol
_atom_site_label
_atom_site_fract_x
_atom_site_fract_y
_atom_site_fract_z
Si Si1 0.087297 0.619673 0.421934
Si Si2 0.082843 0.560692 0.797706
Si Si3 0.585370 0.188003 0.784706
Si Si4 0.914630 0.188003 0.784706
Si Si5 0.412703 0.619673 0.421934
Si Si6 0.082843 0.560692 0.202294
Si Si7 0.416103 0.990858 0.920434
Si Si8 0.583897 0.490858 0.420434
O O1 0.052729 0.675620 0.366679
O O2 0.250000 0.594684 0.409975
O O3 0.067769 0.647867 0.500000
O O4 0.981726 0.561027 0.408634
O O5 0.040084 0.500000 0.750000
O O6 0.037012 0.625597 0.758518
O O7 0.250000 0.559508 0.815213
O O8 0.994982 0.559317 0.869832
O O9 0.500000 0.250000 0.758518
O O10 0.750000 0.203042 0.771719
O O11 0.537012 0.125597 0.741482
O O12 0.947271 0.175620 0.866679
O O13 0.000000 0.250000 0.758518
O O14 0.518274 0.561027 0.408634
O O15 0.040084 0.500000 0.250000
O O16 0.994982 0.559317 0.130168
O O17 0.250000 0.994255 0.901303
O O18 0.439916 0.967767 1.000000
#
# Coordination Sequence:
#
# PCOD8164934 Si02
#       8
#     8   8   8   8   8   8   8   8
#     4   9  17  32  52  72 101 143 181 209 245 300
#     4  10  19  35  56  77 102 136 178 216 253 307
#     4  10  21  35  51  75 105 138 175 215 257 306
#     4  10  21  35  51  75 105 138 175 215 257 306
#     4   9  17  32  52  72 101 143 181 209 245 300
#     4  10  19  35  56  77 102 136 178 216 253 307
#     4  10  20  32  50  80 110 133 166 216 267 307
#     4  10  20  32  50  80 110 133 166 216 267 307
#
# _framework density 17.182006999999999
#
# number of rings (size 3 to 8) (size 9 to 14) (size 15 to 20)
#    0.000    2.250    2.500    0.750    0.000    4.500 
#    0.000    0.000    0.000    0.750    0.000    0.000 
#    0.000    0.000    0.000    0.000    0.000    0.000 
#
# Total GULP energy -396820.118895 kJ/mol
# GULP energy per Si atom -12400.628715 kJ/mol
# Density = 1.714290 g / cm^3
# Si number density = 17.182007 Si / 1000 Ang^3
#
#
#
# Elastic Constant Matrix: (Units=GPa)
#
#
# Indices 1 2 3 4 5 6 
#
# 1 76.3680 51.5238 55.0879 0.0000 0.0000 0.0000
# 2 51.5238 118.9785 54.5922 0.0000 0.0000 0.0000
# 3 55.0879 54.5922 91.0738 0.0000 0.0000 0.0000
# 4 0.0000 0.0000 0.0000 19.7823 0.0000 0.0000
# 5 0.0000 0.0000 0.0000 0.0000 28.0258 0.0000
# 6 0.0000 0.0000 0.0000 0.0000 0.0000 28.9703
#
#
#
# Elastic Compliance Matrix: (Units=1/GPa)
#
#
# Indices 1 2 3 4 5 6 
#
# 1 0.025590 -0.005489 -0.012188 0.000000 0.000000 0.000000
# 2 -0.005489 0.012771 -0.004335 0.000000 0.000000 0.000000
# 3 -0.012188 -0.004335 0.020951 0.000000 0.000000 0.000000
# 4 0.000000 0.000000 0.000000 0.050550 0.000000 0.000000
# 5 0.000000 0.000000 0.000000 0.000000 0.035681 0.000000
# 6 0.000000 0.000000 0.000000 0.000000 0.000000 0.034518
#
#
# Mechanical properties :
#
#
# Convention : Reuss Voigt Hill
#
# Bulk Modulus (GPa) = 65.41534 67.64756 66.53145
# Shear Modulus (GPa) = 21.81670 23.70346 22.76008
#
# Velocity S-wave (km/s) = 3.56721 3.71826 3.64352
# Velocity P-wave (km/s) = 7.42437 7.60859 7.51704
#
# Compressibility (1/GPa) = 0.01528693
#
# Stress axis : x y z
#
# Youngs Moduli (GPa) = 39.07790 78.30163 47.73063
#
# Poissons Ratio (x) = 0.42982 0.58175
# Poissons Ratio (y) = 0.21451 0.20691
# Poissons Ratio (z) = 0.47629 0.33944
#
# Static dielectric constant tensor:
#      x y z
#    x 3.218860 0.000000 0.000000 
#    y 0.000000 2.893790 0.000000 
#    z 0.000000 0.000000 3.404880 
# 
# 
# High freq. dielectric constant tensor:
#      x y z
#    x 1.664380 0.000000 0.000000 
#    y 0.000000 1.632200 0.000000 
#    z 0.000000 0.000000 1.667690 
# 
# From -- ./inp_files/14588.got.cif
#   From: 2010.03.12/outbox.cif.g09.slc.cpg/sg24_8_cif.got.tgz:14588.got - 2010.04.14 03:06:53.
