data_PCOD8164270
_publ_section_title
;
Structure prediction by ZEFSAII (Michael W. Deem and Ramdas Pophale) SiO2 
 PCOD8164270
Probable space group: I 2 2 2
;
_chemical_formula_sum "Si O2"
_cell_formula_units_Z 40
_cell_length_a 5.193201
_cell_length_b 27.800246
_cell_length_c 11.764063
_cell_angle_alpha 90.000000
_cell_angle_beta 90.000000
_cell_angle_gamma 90.000000
_cell_volume 1698.404425
_symmetry_space_group_name_H-M "I 2 2 2"
_symmetry_group_IT_number 23
_symmetry_cell_setting 'orthorhombic'
loop_
_space_group_symop_operation_xyz
x,y,z
-x,-y,z
x,-y,-z
-x,y,-z
1/2+x,1/2+y,1/2+z
1/2-x,1/2-y,1/2+z
1/2+x,1/2-y,1/2-z
1/2-x,1/2+y,1/2-z
loop_
_atom_site_type_symbol
_atom_site_label
_atom_site_fract_x
_atom_site_fract_y
_atom_site_fract_z
Si Si1 0.000000 0.000000 0.500000
Si Si2 0.117147 0.638999 0.885636
Si Si3 0.500000 0.831875 0.000000
Si Si4 0.645863 0.221471 0.218423
Si Si5 0.500000 0.000000 0.000000
Si Si6 0.192120 0.917856 0.899944
Si Si7 0.612032 0.417816 0.150794
O O1 0.172299 0.032589 0.415123
O O2 0.224142 0.677676 0.798699
O O3 0.368269 0.606645 0.914974
O O4 0.883531 0.608773 0.834736
O O5 0.000000 0.662891 0.000000
O O6 0.348344 0.796327 0.087036
O O7 0.673189 0.865702 0.081226
O O8 0.364129 0.238729 0.259762
O O9 0.367581 0.964823 0.908814
O O10 0.031387 0.921942 0.782835
O O11 0.000000 0.924953 0.000000
#
# Coordination Sequence:
#
# PCOD8164270 Si02
#       7
#     2   8   4   8   2   8   8
#     4  12  28  46  72 114 150 206 250 312 360 454
#     4  12  25  51  73 105 145 197 245 305 382 444
#     4  11  26  49  75 104 150 196 245 311 390 447
#     4  12  29  47  77 112 144 190 250 316 379 463
#     4  10  26  44  64 116 134 192 250 316 380 426
#     4  11  25  46  75 103 148 196 250 314 375 455
#     4  12  27  47  74 106 149 197 254 302 371 451
#
# _framework density 23.551518999999999
#
# number of rings (size 3 to 8) (size 9 to 14) (size 15 to 20)
#    0.000    0.400    4.000    2.700   11.200    1.600 
#    0.000    0.000    0.000    0.000    0.000    0.000 
#    0.000    0.000    0.000    0.000    0.000    0.000 
#
# Total GULP energy -247862.095331 kJ/mol
# GULP energy per Si atom -12393.104767 kJ/mol
# Density = 2.349791 g / cm^3
# Si number density = 23.551519 Si / 1000 Ang^3
#
#
#
# Elastic Constant Matrix: (Units=GPa)
#
#
# Indices 1 2 3 4 5 6 
#
# 1 106.1580 27.7502 14.9464 0.0000 0.0000 0.0000
# 2 27.7502 104.5880 30.1463 0.0000 0.0000 0.0000
# 3 14.9464 30.1463 117.9574 0.0000 0.0000 0.0001
# 4 0.0000 0.0000 0.0000 40.7431 0.0000 0.0000
# 5 0.0000 0.0000 0.0000 0.0000 67.7378 0.0000
# 6 0.0000 0.0000 0.0001 0.0000 0.0000 -6.8186
#
#
#
# Elastic Compliance Matrix: (Units=1/GPa)
#
#
# Indices 1 2 3 4 5 6 
#
# 1 0.010167 -0.002511 -0.000646 0.000000 0.000000 0.000000
# 2 -0.002511 0.010942 -0.002478 0.000000 0.000000 0.000000
# 3 -0.000646 -0.002478 0.009193 0.000000 0.000000 0.000000
# 4 0.000000 0.000000 0.000000 0.024544 0.000000 0.000000
# 5 0.000000 0.000000 0.000000 0.000000 0.014763 0.000000
# 6 0.000000 0.000000 0.000000 0.000000 0.000000 -0.146658
#
#
# Mechanical properties :
#
#
# Convention : Reuss Voigt Hill
#
# Bulk Modulus (GPa) = 52.54815 52.70992 52.62904
# Shear Modulus (GPa) = -84.12733 37.38982 -23.36875
#
# Velocity S-wave (km/s) = -5.98315 3.98876 -3.15340
# Velocity P-wave (km/s) = 5.03690 6.60628 3.02263
#
# Compressibility (1/GPa) = 0.01903017
#
# Stress axis : x y z
#
# Youngs Moduli (GPa) = 98.35332 91.39111 108.77942
#
# Poissons Ratio (x) = 0.22952 0.07032
# Poissons Ratio (y) = 0.24700 0.26958
# Poissons Ratio (z) = 0.06358 0.22649
#
# Static dielectric constant tensor:
#      x y z
#    x 3.671020 0.000000 0.000000 
#    y 0.000000 3.241920 0.000000 
#    z 0.000000 0.000000 4.486980 
# 
# 
# High freq. dielectric constant tensor:
#      x y z
#    x 1.922820 0.000000 0.000000 
#    y 0.000000 1.932480 0.000000 
#    z 0.000000 0.000000 1.960730 
# 
# From -- ./inp_files/13929.got.cif
#   From: 2010.03.12/outbox.cif.g09.slc.cpg/sg23_7_cif.got.tgz:13929.got - 2010.04.14 02:50:06.
