data_PCOD8164522
_publ_section_title
;
Structure prediction by ZEFSAII (Michael W. Deem and Ramdas Pophale) SiO2 
 PCOD8164522
Probable space group: I 2 2 2
;
_chemical_formula_sum "Si O2"
_cell_formula_units_Z 36
_cell_length_a 7.493324
_cell_length_b 16.070323
_cell_length_c 13.524626
_cell_angle_alpha 90.000000
_cell_angle_beta 90.000000
_cell_angle_gamma 90.000000
_cell_volume 1628.637316
_symmetry_space_group_name_H-M "I 2 2 2"
_symmetry_group_IT_number 23
_symmetry_cell_setting 'orthorhombic'
loop_
_space_group_symop_operation_xyz
x,y,z
-x,-y,z
x,-y,-z
-x,y,-z
1/2+x,1/2+y,1/2+z
1/2-x,1/2-y,1/2+z
1/2+x,1/2-y,1/2-z
1/2-x,1/2+y,1/2-z
loop_
_atom_site_type_symbol
_atom_site_label
_atom_site_fract_x
_atom_site_fract_y
_atom_site_fract_z
Si Si1 0.858681 0.667041 0.128408
Si Si2 0.864703 0.927669 0.278872
Si Si3 0.674670 0.283622 0.060367
Si Si4 0.500000 0.000000 0.691844
Si Si5 0.895060 0.194445 0.198890
O O1 0.913392 0.570733 0.123746
O O2 0.676072 0.681899 0.189648
O O3 0.013950 0.715791 0.186110
O O4 0.833335 0.696243 0.016240
O O5 0.846377 0.863552 0.369546
O O6 0.669523 0.963325 0.245374
O O7 0.956379 0.878653 0.185053
O O8 0.000000 0.000000 0.312889
O O9 0.731659 0.199052 0.120453
O O10 0.500000 0.260852 0.000000
#
# Coordination Sequence:
#
# PCOD8164522 Si02
#       5
#     8   8   8   4   8
#     4  12  23  42  69 103 138 180 224 290 349 420
#     4  12  25  43  68 104 145 185 226 293 350 423
#     4  12  24  42  69 105 140 185 231 285 353 423
#     4  12  24  41  70 104 143 182 224 289 364 422
#     4  12  23  44  65 101 145 183 233 282 354 421
#
# _framework density 22.104369999999999
#
# number of rings (size 3 to 8) (size 9 to 14) (size 15 to 20)
#    0.000    0.000    8.889    0.667    0.000    4.000 
#    0.000    0.000    0.000    2.667    0.000    0.000 
#    0.000    0.000    0.000    0.000    0.000    0.000 
#
# Total GULP energy -223010.399962 kJ/mol
# GULP energy per Si atom -12389.466665 kJ/mol
# Density = 2.205406 g / cm^3
# Si number density = 22.104370 Si / 1000 Ang^3
#
#
#
# Elastic Constant Matrix: (Units=GPa)
#
#
# Indices 1 2 3 4 5 6 
#
# 1 163.5195 61.9424 51.9066 0.0000 0.0000 0.0000
# 2 61.9424 97.5632 69.0739 0.0000 0.0000 0.0000
# 3 51.9066 69.0739 85.6361 0.0000 0.0000 0.0000
# 4 0.0000 0.0000 0.0000 14.1493 0.0000 0.0000
# 5 0.0000 0.0000 0.0000 0.0000 31.6903 0.0000
# 6 0.0000 0.0000 0.0000 0.0000 0.0000 60.0609
#
#
#
# Elastic Compliance Matrix: (Units=1/GPa)
#
#
# Indices 1 2 3 4 5 6 
#
# 1 0.008168 -0.003918 -0.001790 0.000000 0.000000 0.000000
# 2 -0.003918 0.025775 -0.018415 0.000000 0.000000 0.000000
# 3 -0.001790 -0.018415 0.027616 0.000000 0.000000 0.000000
# 4 0.000000 0.000000 0.000000 0.070675 0.000000 0.000000
# 5 0.000000 0.000000 0.000000 0.000000 0.031555 0.000000
# 6 0.000000 0.000000 0.000000 0.000000 0.000000 0.016650
#
#
# Mechanical properties :
#
#
# Convention : Reuss Voigt Hill
#
# Bulk Modulus (GPa) = 75.12227 79.17383 77.14805
# Shear Modulus (GPa) = 21.44771 32.09983 26.77377
#
# Velocity S-wave (km/s) = 3.11833 3.81490 3.48407
# Velocity P-wave (km/s) = 6.85743 7.43643 7.15279
#
# Compressibility (1/GPa) = 0.01331163
#
# Stress axis : x y z
#
# Youngs Moduli (GPa) = 122.42765 38.79676 36.21039
#
# Poissons Ratio (x) = 0.15201 0.06483
# Poissons Ratio (y) = 0.47970 0.66683
# Poissons Ratio (z) = 0.21921 0.71446
#
# Static dielectric constant tensor:
#      x y z
#    x 4.953380 0.000000 0.000000 
#    y 0.000000 4.101510 0.000000 
#    z 0.000000 0.000000 3.856640 
# 
# 
# High freq. dielectric constant tensor:
#      x y z
#    x 1.920920 0.000000 0.000000 
#    y 0.000000 1.857690 0.000000 
#    z 0.000000 0.000000 1.820850 
# 
# From -- ./inp_files/19724.got.cif
#   From: 2010.03.12/outbox.cif.g09.slc.cpg/sg23_10_cif.got.tgz:19724.got - 2010.04.14 02:50:06.
