data_PCOD8164831
_publ_section_title
;
Structure prediction by ZEFSAII (Michael W. Deem and Ramdas Pophale) SiO2 
 PCOD8164831
Probable space group: I 21 21 21
;
_chemical_formula_sum "Si O2"
_cell_formula_units_Z 64
_cell_length_a 13.838782
_cell_length_b 15.089846
_cell_length_c 17.085908
_cell_angle_alpha 90.000000
_cell_angle_beta 90.000000
_cell_angle_gamma 90.000000
_cell_volume 3567.966262
_symmetry_space_group_name_H-M "I 21 21 21"
_symmetry_group_IT_number 24
_symmetry_cell_setting 'orthorhombic'
loop_
_space_group_symop_operation_xyz
x,y,z
-x,1/2-y,z
x,-y,1/2-z
1/2-x,y,-z
1/2+x,1/2+y,1/2+z
1/2-x,-y,1/2+z
1/2+x,1/2-y,-z
-x,1/2+y,1/2-z
loop_
_atom_site_type_symbol
_atom_site_label
_atom_site_fract_x
_atom_site_fract_y
_atom_site_fract_z
Si Si1 0.740879 0.576281 0.306107
Si Si2 0.996676 0.070637 0.000448
Si Si3 0.315623 0.614311 0.575050
Si Si4 0.083867 0.628723 0.809849
Si Si5 0.868978 0.059574 0.856392
Si Si6 0.835117 0.318135 0.062122
Si Si7 0.135459 0.179125 0.673233
Si Si8 0.836314 0.464405 0.559491
O O1 0.787621 0.500000 0.250000
O O2 0.821655 0.625164 0.358043
O O3 0.686047 0.647502 0.252912
O O4 0.664931 0.530500 0.365742
O O5 0.931849 0.101219 0.926554
O O6 0.061287 0.982251 0.984818
O O7 0.066287 0.152104 0.021153
O O8 0.916124 0.057773 0.069592
O O9 0.250000 0.596946 0.500000
O O10 0.245860 0.582225 0.644884
O O11 0.343489 0.716513 0.586269
O O12 0.121597 0.546816 0.860979
O O13 0.087054 0.603871 0.719552
O O14 0.147977 0.715018 0.830610
O O15 0.974175 0.648563 0.828645
O O16 0.750000 0.334962 0.000000
O O17 0.177948 0.134915 0.593570
O O18 0.750000 0.485405 0.500000
#
# Coordination Sequence:
#
# PCOD8164831 Si02
#       8
#     8   8   8   8   8   8   8   8
#     4  10  19  30  51  76 110 137 169 215 277 332
#     4  11  18  33  53  77 107 144 173 217 269 322
#     4   9  21  33  48  76 106 138 179 211 260 328
#     4  10  20  34  57  77 107 141 182 222 272 314
#     4  10  20  36  55  77 110 145 175 221 271 319
#     4  11  19  32  50  80 112 139 173 221 271 329
#     4  10  21  33  52  85 107 138 183 225 272 329
#     4  11  19  34  54  79 113 141 173 222 280 326
#
# _framework density 17.937390000000001
#
# number of rings (size 3 to 8) (size 9 to 14) (size 15 to 20)
#    0.000    1.750    3.750    1.875    3.500    0.000 
#    6.750    1.875    2.750    0.000    0.000    0.000 
#    0.000    0.000    0.000    0.000    0.000    0.000 
#
# Total GULP energy -396569.833065 kJ/mol
# GULP energy per Si atom -12392.807283 kJ/mol
# Density = 1.789656 g / cm^3
# Si number density = 17.937390 Si / 1000 Ang^3
#
#
#
# Elastic Constant Matrix: (Units=GPa)
#
#
# Indices 1 2 3 4 5 6 
#
# 1 97.0036 35.6368 31.2049 0.0000 0.0000 0.0000
# 2 35.6368 113.3150 34.2329 0.0000 0.0000 0.0000
# 3 31.2049 34.2329 60.9390 0.0000 0.0000 0.0000
# 4 0.0000 0.0000 0.0000 18.7484 0.0000 0.0000
# 5 0.0000 0.0000 0.0000 0.0000 15.0230 0.0000
# 6 0.0000 0.0000 0.0000 0.0000 0.0000 23.0819
#
#
#
# Elastic Compliance Matrix: (Units=1/GPa)
#
#
# Indices 1 2 3 4 5 6 
#
# 1 0.012897 -0.002482 -0.005210 0.000000 0.000000 0.000000
# 2 -0.002482 0.011106 -0.004968 0.000000 0.000000 0.000000
# 3 -0.005210 -0.004968 0.021868 0.000000 0.000000 0.000000
# 4 0.000000 0.000000 0.000000 0.053338 0.000000 0.000000
# 5 0.000000 0.000000 0.000000 0.000000 0.066565 0.000000
# 6 0.000000 0.000000 0.000000 0.000000 0.000000 0.043324
#
#
# Mechanical properties :
#
#
# Convention : Reuss Voigt Hill
#
# Bulk Modulus (GPa) = 48.65747 52.60076 50.62912
# Shear Modulus (GPa) = 20.72380 22.71618 21.71999
#
# Velocity S-wave (km/s) = 3.40272 3.56253 3.48354
# Velocity P-wave (km/s) = 6.52864 6.80518 6.66835
#
# Compressibility (1/GPa) = 0.02055183
#
# Stress axis : x y z
#
# Youngs Moduli (GPa) = 77.53974 90.03795 45.72810
#
# Poissons Ratio (x) = 0.22348 0.23823
# Poissons Ratio (y) = 0.19246 0.22718
# Poissons Ratio (z) = 0.40395 0.44732
#
# Static dielectric constant tensor:
#      x y z
#    x 3.404770 0.000000 0.000000 
#    y 0.000000 3.483150 0.000000 
#    z 0.000000 0.000000 3.352430 
# 
# 
# High freq. dielectric constant tensor:
#      x y z
#    x 1.682980 0.000000 0.000000 
#    y 0.000000 1.688180 0.000000 
#    z 0.000000 0.000000 1.678610 
# 
# From -- ./inp_files/30935.got.cif
#   From: 2010.03.12/outbox.cif.g09.slc.cpg/sg24_16_cif.got.tgz:30935.got - 2010.04.14 03:06:53.
