data_PCOD8164169
_publ_section_title
;
Structure prediction by ZEFSAII (Michael W. Deem and Ramdas Pophale) SiO2 
 PCOD8164169
Probable space group: I 2 2 2
;
_chemical_formula_sum "Si O2"
_cell_formula_units_Z 64
_cell_length_a 11.360632
_cell_length_b 9.143826
_cell_length_c 27.386546
_cell_angle_alpha 90.000000
_cell_angle_beta 90.000000
_cell_angle_gamma 90.000000
_cell_volume 2844.904601
_symmetry_space_group_name_H-M "I 2 2 2"
_symmetry_group_IT_number 23
_symmetry_cell_setting 'orthorhombic'
loop_
_space_group_symop_operation_xyz
x,y,z
-x,-y,z
x,-y,-z
-x,y,-z
1/2+x,1/2+y,1/2+z
1/2-x,1/2-y,1/2+z
1/2+x,1/2-y,1/2-z
1/2-x,1/2+y,1/2-z
loop_
_atom_site_type_symbol
_atom_site_label
_atom_site_fract_x
_atom_site_fract_y
_atom_site_fract_z
Si Si1 0.291285 0.413803 0.315979
Si Si2 0.534666 0.343569 0.759421
Si Si3 0.302038 0.599946 0.846988
Si Si4 0.381934 0.084329 0.737069
Si Si5 0.226938 0.799297 0.601351
Si Si6 0.376683 0.954138 0.055123
Si Si7 0.684727 0.358777 0.393104
Si Si8 0.482496 0.832197 0.557686
O O1 0.368439 0.303422 0.281849
O O2 0.194678 0.490080 0.280033
O O3 0.225812 0.305079 0.351991
O O4 0.354197 0.548555 0.344732
O O5 0.500000 0.500000 0.739492
O O6 0.584363 0.360314 0.814399
O O7 0.419402 0.244073 0.756848
O O8 0.186663 0.584464 0.813584
O O9 0.319668 0.457278 0.881109
O O10 0.280349 0.734200 0.882668
O O11 0.500000 0.000000 0.726666
O O12 0.137489 0.721949 0.562936
O O13 0.351837 0.797263 0.574447
O O14 0.500000 0.000000 0.081746
O O15 0.255826 0.030150 0.072838
O O16 0.389889 0.000000 0.000000
O O17 0.569212 0.284436 0.416448
O O18 0.500000 0.813788 0.500000
O O19 0.500000 0.000000 0.574055
#
# Coordination Sequence:
#
# PCOD8164169 Si02
#       8
#     8   8   8   8   8   8   8   8
#     4  10  24  38  58  95 121 171 228 260 328 385
#     4  11  23  38  59  85 132 176 215 275 314 381
#     4  11  24  39  60 100 126 172 232 263 335 392
#     4  11  23  40  62  84 131 180 216 275 319 379
#     4  11  23  41  68  97 133 170 222 285 335 417
#     4  10  24  47  70  94 128 172 219 278 350 419
#     4  11  23  41  67  96 132 168 218 275 330 418
#     4  11  24  42  68 102 135 169 210 280 360 416
#
# _framework density 22.496361
#
# number of rings (size 3 to 8) (size 9 to 14) (size 15 to 20)
#    0.000    1.250    1.250    3.750    5.250   10.500 
#    0.000    3.125    0.000    1.500    0.000    0.000 
#    0.000    0.000    0.000    0.000    0.000    0.000 
#
# Total GULP energy -396558.584800 kJ/mol
# GULP energy per Si atom -12392.455775 kJ/mol
# Density = 2.244516 g / cm^3
# Si number density = 22.496361 Si / 1000 Ang^3
#
#
#
# Elastic Constant Matrix: (Units=GPa)
#
#
# Indices 1 2 3 4 5 6 
#
# 1 83.7216 12.8811 22.7058 0.0000 0.0000 0.0000
# 2 12.8811 109.4346 33.3327 0.0000 0.0000 0.0000
# 3 22.7058 33.3327 89.5054 0.0000 0.0000 0.0000
# 4 0.0000 0.0000 0.0000 32.0273 0.0000 0.0000
# 5 0.0000 0.0000 0.0000 0.0000 24.2450 0.0000
# 6 0.0000 0.0000 0.0000 0.0000 0.0000 32.5679
#
#
#
# Elastic Compliance Matrix: (Units=1/GPa)
#
#
# Indices 1 2 3 4 5 6 
#
# 1 0.012860 -0.000587 -0.003044 0.000000 0.000000 0.000000
# 2 -0.000587 0.010334 -0.003700 0.000000 0.000000 0.000000
# 3 -0.003044 -0.003700 0.013322 0.000000 0.000000 0.000000
# 4 0.000000 0.000000 0.000000 0.031223 0.000000 0.000000
# 5 0.000000 0.000000 0.000000 0.000000 0.041246 0.000000
# 6 0.000000 0.000000 0.000000 0.000000 0.000000 0.030705
#
#
# Mechanical properties :
#
#
# Convention : Reuss Voigt Hill
#
# Bulk Modulus (GPa) = 45.75364 46.72232 46.23798
# Shear Modulus (GPa) = 30.93370 32.01750 31.47560
#
# Velocity S-wave (km/s) = 3.71219 3.77667 3.74457
# Velocity P-wave (km/s) = 6.22545 6.31122 6.26848
#
# Compressibility (1/GPa) = 0.02185619
#
# Stress axis : x y z
#
# Youngs Moduli (GPa) = 77.75977 96.76990 75.06112
#
# Poissons Ratio (x) = 0.05676 0.22848
# Poissons Ratio (y) = 0.04561 0.27770
# Poissons Ratio (z) = 0.23669 0.35801
#
# Static dielectric constant tensor:
#      x y z
#    x 3.685250 0.000000 0.000000 
#    y 0.000000 4.191210 0.000000 
#    z 0.000000 0.000000 4.068350 
# 
# 
# High freq. dielectric constant tensor:
#      x y z
#    x 1.886660 0.000000 0.000000 
#    y 0.000000 1.895300 0.000000 
#    z 0.000000 0.000000 1.884100 
# 
# From -- ./inp_files/30501.got.cif
#   From: 2010.03.12/outbox.cif.g09.slc.cpg/sg23_16_cif.got.tgz:30501.got - 2010.04.14 02:50:06.
