data_PCOD8164058
_publ_section_title
;
Structure prediction by ZEFSAII (Michael W. Deem and Ramdas Pophale) SiO2 
 PCOD8164058
Probable space group: I 2 2 2
;
_chemical_formula_sum "Si O2"
_cell_formula_units_Z 48
_cell_length_a 15.071237
_cell_length_b 5.293718
_cell_length_c 26.922820
_cell_angle_alpha 90.000000
_cell_angle_beta 90.000000
_cell_angle_gamma 90.000000
_cell_volume 2147.980079
_symmetry_space_group_name_H-M "I 2 2 2"
_symmetry_group_IT_number 23
_symmetry_cell_setting 'orthorhombic'
loop_
_space_group_symop_operation_xyz
x,y,z
-x,-y,z
x,-y,-z
-x,y,-z
1/2+x,1/2+y,1/2+z
1/2-x,1/2-y,1/2+z
1/2+x,1/2-y,1/2-z
1/2-x,1/2+y,1/2-z
loop_
_atom_site_type_symbol
_atom_site_label
_atom_site_fract_x
_atom_site_fract_y
_atom_site_fract_z
Si Si1 0.275494 0.500000 0.500000
Si Si2 0.500000 0.500000 0.902229
Si Si3 0.097179 0.087874 0.082792
Si Si4 0.698479 0.914214 0.256484
Si Si5 0.404877 0.879231 0.840357
Si Si6 0.670684 0.740674 0.915553
Si Si7 0.337546 0.925716 0.631209
O O1 0.341066 0.343673 0.535839
O O2 0.213770 0.317406 0.467816
O O3 0.423211 0.618785 0.868035
O O4 0.568722 0.672170 0.933223
O O5 0.097043 0.348491 0.113864
O O6 0.135911 0.853422 0.113551
O O7 0.000000 0.000000 0.065503
O O8 0.772259 0.695925 0.258944
O O9 0.631547 0.821281 0.214081
O O10 0.652914 0.932236 0.309732
O O11 0.500000 0.000000 0.833839
O O12 0.337065 0.037942 0.874523
O O13 0.736285 0.531560 0.889462
#
# Coordination Sequence:
#
# PCOD8164058 Si02
#       7
#     4   4   8   8   8   8   8
#     4  10  25  44  75  98 132 176 234 287 349 426
#     4  10  22  42  73  88 148 178 234 287 352 406
#     4  11  25  47  71 103 141 178 227 291 355 413
#     4  12  24  41  70 102 136 185 232 277 337 412
#     4  10  23  42  64 100 138 185 225 289 342 420
#     4  10  22  44  66 100 134 185 231 290 350 413
#     4  11  24  43  73 102 141 184 230 287 338 423
#
# _framework density 22.346575999999999
#
# number of rings (size 3 to 8) (size 9 to 14) (size 15 to 20)
#    0.000    1.333    1.667    2.750    9.333    4.000 
#    1.500    7.917    0.000    0.000    0.000    0.000 
#    0.000    0.000    0.000    0.000    0.000    0.000 
#
# Total GULP energy -297347.646141 kJ/mol
# GULP energy per Si atom -12389.485256 kJ/mol
# Density = 2.229571 g / cm^3
# Si number density = 22.346576 Si / 1000 Ang^3
#
#
#
# Elastic Constant Matrix: (Units=GPa)
#
#
# Indices 1 2 3 4 5 6 
#
# 1 126.2874 26.9836 62.3907 0.0000 0.0000 0.0000
# 2 26.9836 98.4922 35.3361 0.0000 0.0000 0.0000
# 3 62.3907 35.3361 147.8486 0.0000 0.0000 0.0000
# 4 0.0000 0.0000 0.0000 17.4417 0.0000 0.0000
# 5 0.0000 0.0000 0.0000 0.0000 34.5762 0.0000
# 6 0.0000 0.0000 0.0000 0.0000 0.0000 37.2247
#
#
#
# Elastic Compliance Matrix: (Units=1/GPa)
#
#
# Indices 1 2 3 4 5 6 
#
# 1 0.010169 -0.001363 -0.003965 0.000000 0.000000 0.000000
# 2 -0.001363 0.011288 -0.002123 0.000000 0.000000 0.000000
# 3 -0.003965 -0.002123 0.008944 0.000000 0.000000 0.000000
# 4 0.000000 0.000000 0.000000 0.057334 0.000000 0.000000
# 5 0.000000 0.000000 0.000000 0.000000 0.028922 0.000000
# 6 0.000000 0.000000 0.000000 0.000000 0.000000 0.026864
#
#
# Mechanical properties :
#
#
# Convention : Reuss Voigt Hill
#
# Bulk Modulus (GPa) = 64.52098 69.11656 66.81877
# Shear Modulus (GPa) = 30.56438 34.37636 32.47037
#
# Velocity S-wave (km/s) = 3.70231 3.92641 3.81601
# Velocity P-wave (km/s) = 6.87108 7.17998 7.02723
#
# Compressibility (1/GPa) = 0.01549883
#
# Stress axis : x y z
#
# Youngs Moduli (GPa) = 98.34067 88.58883 111.80312
#
# Poissons Ratio (x) = 0.12077 0.44333
# Poissons Ratio (y) = 0.13406 0.23731
# Poissons Ratio (z) = 0.38995 0.18804
#
# Static dielectric constant tensor:
#      x y z
#    x 4.532970 0.000000 0.000000 
#    y 0.000000 191.008870 0.000000 
#    z 0.000000 0.000000 4.097600 
# 
# 
# High freq. dielectric constant tensor:
#      x y z
#    x 1.891500 0.000000 0.000000 
#    y 0.000000 1.878870 0.000000 
#    z 0.000000 0.000000 1.877620 
# 
# From -- ./inp_files/19249.got.cif
#   From: 2010.03.12/outbox.cif.g09.slc.cpg/sg23_10_cif.got.tgz:19249.got - 2010.04.14 02:50:06.
