data_PCOD8164229
_publ_section_title
;
Structure prediction by ZEFSAII (Michael W. Deem and Ramdas Pophale) SiO2 
 PCOD8164229
Probable space group: I 2 2 2
;
_chemical_formula_sum "Si O2"
_cell_formula_units_Z 34
_cell_length_a 9.569427
_cell_length_b 7.652978
_cell_length_c 19.937347
_cell_angle_alpha 90.000000
_cell_angle_beta 90.000000
_cell_angle_gamma 90.000000
_cell_volume 1460.103918
_symmetry_space_group_name_H-M "I 2 2 2"
_symmetry_group_IT_number 23
_symmetry_cell_setting 'orthorhombic'
loop_
_space_group_symop_operation_xyz
x,y,z
-x,-y,z
x,-y,-z
-x,y,-z
1/2+x,1/2+y,1/2+z
1/2-x,1/2-y,1/2+z
1/2+x,1/2-y,1/2-z
1/2-x,1/2+y,1/2-z
loop_
_atom_site_type_symbol
_atom_site_label
_atom_site_fract_x
_atom_site_fract_y
_atom_site_fract_z
Si Si1 0.165394 0.500855 0.076161
Si Si2 0.500000 0.000000 0.000000
Si Si3 0.709319 0.312794 0.329396
Si Si4 0.671542 0.164483 0.115158
Si Si5 0.482007 0.194627 0.240420
O O1 0.223906 0.328952 0.112073
O O2 0.222688 0.674099 0.111857
O O3 0.000000 0.500000 0.079599
O O4 0.219220 0.500000 0.000000
O O5 0.401345 0.124697 0.955614
O O6 0.737951 0.500350 0.360552
O O7 0.557276 0.320406 0.293933
O O8 0.818697 0.260211 0.269641
O O9 0.548075 0.207182 0.166565
O O10 0.500000 0.000000 0.270517
#
# Coordination Sequence:
#
# PCOD8164229 Si02
#       5
#     8   2   8   8   8
#     4  11  27  48  72 107 147 190 248 311 375 451
#     4  12  20  52  78 106 152 186 266 310 374 456
#     4  11  24  49  72 107 148 194 245 305 373 449
#     4  11  25  46  74 107 144 192 246 313 367 438
#     4  10  24  46  68 108 144 191 243 302 369 442
#
# _framework density 23.286014000000002
#
# number of rings (size 3 to 8) (size 9 to 14) (size 15 to 20)
#    0.000    1.176    3.529    2.118    9.882    1.882 
#    4.235    2.353    0.000    0.000    0.000    0.000 
#    0.000    0.000    0.000    0.000    0.000    0.000 
#
# Total GULP energy -210888.739803 kJ/mol
# GULP energy per Si atom -12405.219988 kJ/mol
# Density = 2.323301 g / cm^3
# Si number density = 23.286014 Si / 1000 Ang^3
#
#
#
# Elastic Constant Matrix: (Units=GPa)
#
#
# Indices 1 2 3 4 5 6 
#
# 1 55.0860 14.7685 -9.7076 0.0000 0.0000 0.0000
# 2 14.7685 95.7581 11.3893 0.0000 0.0000 0.0000
# 3 -9.7076 11.3893 71.3025 0.0000 0.0000 0.0000
# 4 0.0000 0.0000 0.0000 16.2336 0.0000 0.0000
# 5 0.0000 0.0000 0.0000 0.0000 41.6076 0.0000
# 6 0.0000 0.0000 0.0000 0.0000 0.0000 39.2717
#
#
#
# Elastic Compliance Matrix: (Units=1/GPa)
#
#
# Indices 1 2 3 4 5 6 
#
# 1 0.019635 -0.003411 0.003218 0.000000 0.000000 0.000000
# 2 -0.003411 0.011238 -0.002259 0.000000 0.000000 0.000000
# 3 0.003218 -0.002259 0.014824 0.000000 0.000000 0.000000
# 4 0.000000 0.000000 0.000000 0.061601 0.000000 0.000000
# 5 0.000000 0.000000 0.000000 0.000000 0.024034 0.000000
# 6 0.000000 0.000000 0.000000 0.000000 0.000000 0.025464
#
#
# Mechanical properties :
#
#
# Convention : Reuss Voigt Hill
#
# Bulk Modulus (GPa) = 24.51466 28.33854 26.42660
# Shear Modulus (GPa) = 28.52301 33.13568 30.82934
#
# Velocity S-wave (km/s) = 3.50365 3.77634 3.64255
# Velocity P-wave (km/s) = 5.18825 5.58664 5.39112
#
# Compressibility (1/GPa) = 0.04079192
#
# Stress axis : x y z
#
# Youngs Moduli (GPa) = 50.92939 88.98549 67.45911
#
# Poissons Ratio (x) = 0.30353 -0.21709
# Poissons Ratio (y) = 0.17372 0.15242
# Poissons Ratio (z) = -0.16390 0.20106
#
# Static dielectric constant tensor:
#      x y z
#    x 4.318300 0.000000 0.000000 
#    y 0.000000 4.116600 0.000000 
#    z 0.000000 0.000000 4.413110 
# 
# 
# High freq. dielectric constant tensor:
#      x y z
#    x 1.928500 0.000000 0.000000 
#    y 0.000000 1.917050 0.000000 
#    z 0.000000 0.000000 1.936570 
# 
# From -- ./inp_files/11680.got.cif
#   From: 2010.03.12/outbox.cif.g09.slc.cpg/sg23_6_cif.got.tgz:11680.got - 2010.04.14 02:50:06.
