data_PCOD8164787
_publ_section_title
;
Structure prediction by ZEFSAII (Michael W. Deem and Ramdas Pophale) SiO2 
 PCOD8164787
Probable space group: I 21 21 21
;
_chemical_formula_sum "Si O2"
_cell_formula_units_Z 60
_cell_length_a 11.477910
_cell_length_b 26.390395
_cell_length_c 9.329624
_cell_angle_alpha 90.000000
_cell_angle_beta 90.000000
_cell_angle_gamma 90.000000
_cell_volume 2826.004486
_symmetry_space_group_name_H-M "I 21 21 21"
_symmetry_group_IT_number 24
_symmetry_cell_setting 'orthorhombic'
loop_
_space_group_symop_operation_xyz
x,y,z
-x,1/2-y,z
x,-y,1/2-z
1/2-x,y,-z
1/2+x,1/2+y,1/2+z
1/2-x,-y,1/2+z
1/2+x,1/2-y,-z
-x,1/2+y,1/2-z
loop_
_atom_site_type_symbol
_atom_site_label
_atom_site_fract_x
_atom_site_fract_y
_atom_site_fract_z
Si Si1 0.990109 0.500000 0.250000
Si Si2 0.379975 0.500888 0.033315
Si Si3 0.844163 0.586365 0.390200
Si Si4 0.843500 0.178996 0.884504
Si Si5 0.260861 0.778927 0.279498
Si Si6 0.308771 0.126425 0.354979
Si Si7 0.074971 0.811780 0.469447
Si Si8 0.549425 0.918996 0.252736
O O1 0.909469 0.544213 0.303683
O O2 0.067178 0.481355 0.382624
O O3 0.375840 0.549935 0.135788
O O4 0.458702 0.455896 0.106520
O O5 0.250000 0.480902 0.000000
O O6 0.750000 0.562116 0.500000
O O7 0.777359 0.619774 0.275642
O O8 0.932999 0.626154 0.464607
O O9 0.790371 0.219105 0.769737
O O10 0.883460 0.132131 0.789432
O O11 0.750000 0.160293 0.000000
O O12 0.946448 0.205985 0.978979
O O13 0.311066 0.811120 0.142167
O O14 0.122039 0.786898 0.319315
O O15 0.331310 0.800565 0.412038
O O16 0.250000 0.105273 0.500000
O O17 0.426780 0.095842 0.320526
#
# Coordination Sequence:
#
# PCOD8164787 Si02
#       8
#     4   8   8   8   8   8   8   8
#     4  12  24  36  66  92 116 166 216 250 306 388
#     4  11  25  46  63  86 127 171 213 263 326 374
#     4  11  21  39  60  90 127 157 202 263 315 375
#     4  12  22  34  65 101 124 164 222 272 314 385
#     4  10  20  35  62  91 127 164 205 265 328 380
#     4  11  22  39  63  92 128 169 200 253 337 391
#     4  10  18  37  58  89 127 160 203 266 325 368
#     4  11  24  42  66  92 125 165 219 271 315 384
#
# _framework density 21.231390000000001
#
# number of rings (size 3 to 8) (size 9 to 14) (size 15 to 20)
#    0.000    1.067    5.333    4.000    0.000    3.733 
#    0.000    0.667    0.000    3.200    0.000    0.000 
#    0.000    0.000    0.000    0.000    0.000    0.000 
#
# Total GULP energy -371695.822314 kJ/mol
# GULP energy per Si atom -12389.860744 kJ/mol
# Density = 2.118307 g / cm^3
# Si number density = 21.231390 Si / 1000 Ang^3
#
#
#
# Elastic Constant Matrix: (Units=GPa)
#
#
# Indices 1 2 3 4 5 6 
#
# 1 106.3188 36.9056 35.5232 -0.0004 0.0002 -0.0002
# 2 36.9056 114.6305 31.4188 0.0005 -0.0004 -0.0003
# 3 35.5232 31.4188 93.1965 -0.0026 0.0011 0.0000
# 4 -0.0004 0.0005 -0.0026 35.9672 0.0003 -0.0009
# 5 0.0002 -0.0004 0.0011 0.0003 35.1525 -0.0002
# 6 -0.0002 -0.0003 0.0000 -0.0009 -0.0002 31.5011
#
#
#
# Elastic Compliance Matrix: (Units=1/GPa)
#
#
# Indices 1 2 3 4 5 6 
#
# 1 0.011520 -0.002760 -0.003460 0.000000 0.000000 0.000000
# 2 -0.002760 0.010273 -0.002411 0.000000 0.000000 0.000000
# 3 -0.003460 -0.002411 0.012862 0.000001 0.000000 0.000000
# 4 0.000000 0.000000 0.000001 0.027803 0.000000 0.000001
# 5 0.000000 0.000000 0.000000 0.000000 0.028447 0.000000
# 6 0.000000 0.000000 0.000000 0.000001 0.000000 0.031745
#
#
# Mechanical properties :
#
#
# Convention : Reuss Voigt Hill
#
# Bulk Modulus (GPa) = 57.50067 57.98234 57.74151
# Shear Modulus (GPa) = 34.31426 34.54403 34.42914
#
# Velocity S-wave (km/s) = 4.02457 4.03802 4.03130
# Velocity P-wave (km/s) = 6.98125 7.00784 6.99456
#
# Compressibility (1/GPa) = 0.01739110
#
# Stress axis : x y z
#
# Youngs Moduli (GPa) = 86.80492 97.33971 77.74916
#
# Poissons Ratio (x) = 0.26870 0.26904
# Poissons Ratio (y) = 0.23962 0.18747
# Poissons Ratio (z) = 0.30038 0.23470
#
# Static dielectric constant tensor:
#      x y z
#    x 3.910740 0.000000 0.000010 
#    y 0.000000 4.291260 0.000000 
#    z 0.000010 0.000000 3.865870 
# 
# 
# High freq. dielectric constant tensor:
#      x y z
#    x 1.829600 0.000000 0.000000 
#    y 0.000000 1.843840 0.000000 
#    z 0.000000 0.000000 1.810600 
# 
# From -- ./inp_files/11537.got.cif
#   From: 2010.03.12/outbox.cif.g09.slc.cpg/sg24_6_cif.got.tgz:11537.got - 2010.04.14 03:06:53.
