data_PCOD8164393
_publ_section_title
;
Structure prediction by ZEFSAII (Michael W. Deem and Ramdas Pophale) SiO2 
 PCOD8164393
Probable space group: I 2 2 2
;
_chemical_formula_sum "Si O2"
_cell_formula_units_Z 58
_cell_length_a 10.295631
_cell_length_b 9.133236
_cell_length_c 27.513543
_cell_angle_alpha 90.000000
_cell_angle_beta 90.000000
_cell_angle_gamma 90.000000
_cell_volume 2587.165243
_symmetry_space_group_name_H-M "I 2 2 2"
_symmetry_group_IT_number 23
_symmetry_cell_setting 'orthorhombic'
loop_
_space_group_symop_operation_xyz
x,y,z
-x,-y,z
x,-y,-z
-x,y,-z
1/2+x,1/2+y,1/2+z
1/2-x,1/2-y,1/2+z
1/2+x,1/2-y,1/2-z
1/2-x,1/2+y,1/2-z
loop_
_atom_site_type_symbol
_atom_site_label
_atom_site_fract_x
_atom_site_fract_y
_atom_site_fract_z
Si Si1 0.847813 0.988212 0.650736
Si Si2 0.735948 0.249512 0.782235
Si Si3 0.668403 0.290826 0.935176
Si Si4 0.855514 0.667827 0.987886
Si Si5 0.476679 0.172462 0.296014
Si Si6 0.858929 0.456514 0.364901
Si Si7 0.000000 0.000000 0.500000
Si Si8 0.194366 0.756848 0.122061
O O1 0.815507 0.909985 0.701768
O O2 0.777618 0.891490 0.608833
O O3 0.791192 0.150019 0.650913
O O4 0.000000 0.000000 0.641428
O O5 0.651120 0.202580 0.736176
O O6 0.892109 0.258318 0.772339
O O7 0.716153 0.130392 0.823704
O O8 0.609043 0.143191 0.912122
O O9 0.776312 0.235891 0.973328
O O10 0.569569 0.389284 0.964494
O O11 0.823232 0.704181 0.932827
O O12 0.819848 0.500000 0.000000
O O13 0.000000 0.708119 0.000000
O O14 0.442787 0.248821 0.348404
O O15 0.500000 0.000000 0.304302
O O16 0.762385 0.586507 0.379101
O O17 0.000000 0.500000 0.343896
#
# Coordination Sequence:
#
# PCOD8164393 Si02
#       8
#     8   8   8   8   8   8   2   8
#     4  11  22  42  74 107 140 194 248 301 378 453
#     4  11  28  49  78 109 152 191 249 320 381 461
#     4  11  23  43  69 105 143 192 252 311 372 437
#     4  11  25  42  73 100 144 190 259 316 369 440
#     4  12  29  50  81 115 149 198 261 314 383 470
#     4  11  28  48  73 110 160 197 246 317 392 455
#     4  12  20  40  72 104 144 188 266 314 364 456
#     4  12  26  47  73 109 151 200 249 314 386 457
#
# _framework density 22.41836
#
# number of rings (size 3 to 8) (size 9 to 14) (size 15 to 20)
#    0.000    0.690    4.138    2.069   13.517    1.103 
#    0.000    0.690    0.000    0.000    0.000    0.000 
#    0.000    0.000    0.000    0.000    0.000    0.000 
#
# Total GULP energy -359466.968764 kJ/mol
# GULP energy per Si atom -12395.412716 kJ/mol
# Density = 2.236734 g / cm^3
# Si number density = 22.418360 Si / 1000 Ang^3
#
#
#
# Elastic Constant Matrix: (Units=GPa)
#
#
# Indices 1 2 3 4 5 6 
#
# 1 132.4599 43.1213 45.0049 0.0000 0.0000 0.0000
# 2 43.1213 119.4277 37.0114 0.0000 0.0000 0.0000
# 3 45.0049 37.0114 109.2825 0.0000 0.0000 0.0000
# 4 0.0000 0.0000 0.0000 36.1941 0.0000 0.0000
# 5 0.0000 0.0000 0.0000 0.0000 13.1015 0.0000
# 6 0.0000 0.0000 0.0000 0.0000 0.0000 891.2355
#
#
#
# Elastic Compliance Matrix: (Units=1/GPa)
#
#
# Indices 1 2 3 4 5 6 
#
# 1 0.009376 -0.002445 -0.003033 0.000000 0.000000 0.000000
# 2 -0.002445 0.009993 -0.002377 0.000000 0.000000 0.000000
# 3 -0.003033 -0.002377 0.011205 0.000000 0.000000 0.000000
# 4 0.000000 0.000000 0.000000 0.027629 0.000000 0.000000
# 5 0.000000 0.000000 0.000000 0.000000 0.076327 0.000000
# 6 0.000000 0.000000 0.000000 0.000000 0.000000 0.001122
#
#
# Mechanical properties :
#
#
# Convention : Reuss Voigt Hill
#
# Bulk Modulus (GPa) = 67.28442 67.93835 67.61139
# Shear Modulus (GPa) = 31.98622 203.84172 117.91397
#
# Velocity S-wave (km/s) = 3.78138 9.54587 7.26025
# Velocity P-wave (km/s) = 7.01023 12.32350 10.02527
#
# Compressibility (1/GPa) = 0.01486228
#
# Stress axis : x y z
#
# Youngs Moduli (GPa) = 106.65462 100.07043 89.24737
#
# Poissons Ratio (x) = 0.24471 0.27069
# Poissons Ratio (y) = 0.26081 0.21217
# Poissons Ratio (z) = 0.32349 0.23790
#
# Static dielectric constant tensor:
#      x y z
#    x 4.031930 0.000000 0.000000 
#    y 0.000000 4.130000 0.000000 
#    z 0.000000 0.000000 2.222040 
# 
# 
# High freq. dielectric constant tensor:
#      x y z
#    x 1.887710 0.000000 0.000000 
#    y 0.000000 1.879270 0.000000 
#    z 0.000000 0.000000 1.895620 
# 
# From -- ./inp_files/29458.got.cif
#   From: 2010.03.12/outbox.cif.g09.slc.cpg/sg23_15_cif.got.tgz:29458.got - 2010.04.14 02:50:06.
