data_PCOD8164531
_publ_section_title
;
Structure prediction by ZEFSAII (Michael W. Deem and Ramdas Pophale) SiO2 
 PCOD8164531
Probable space group: I 2 2 2
;
_chemical_formula_sum "Si O2"
_cell_formula_units_Z 46
_cell_length_a 21.747437
_cell_length_b 8.611054
_cell_length_c 11.387183
_cell_angle_alpha 90.000000
_cell_angle_beta 90.000000
_cell_angle_gamma 90.000000
_cell_volume 2132.459021
_symmetry_space_group_name_H-M "I 2 2 2"
_symmetry_group_IT_number 23
_symmetry_cell_setting 'orthorhombic'
loop_
_space_group_symop_operation_xyz
x,y,z
-x,-y,z
x,-y,-z
-x,y,-z
1/2+x,1/2+y,1/2+z
1/2-x,1/2-y,1/2+z
1/2+x,1/2-y,1/2-z
1/2-x,1/2+y,1/2-z
loop_
_atom_site_type_symbol
_atom_site_label
_atom_site_fract_x
_atom_site_fract_y
_atom_site_fract_z
Si Si1 0.182753 0.702424 0.708203
Si Si2 0.725308 0.470920 0.876308
Si Si3 0.500000 0.500000 0.000000
Si Si4 0.600092 0.296461 0.872919
Si Si5 0.573580 0.175216 0.370230
Si Si6 0.635850 0.000000 0.000000
Si Si7 0.067482 0.311032 0.869663
O O1 0.228105 0.621960 0.797660
O O2 0.117526 0.743311 0.769643
O O3 0.177243 0.593950 0.593610
O O4 0.211452 0.866707 0.682229
O O5 0.663735 0.375759 0.908723
O O6 0.759460 0.500000 0.000000
O O7 0.542200 0.604400 0.084152
O O8 0.603342 0.281485 0.731352
O O9 0.593945 0.125450 0.931506
O O10 0.503899 0.220477 0.342305
O O11 0.588132 0.245267 0.500337
O O12 0.582466 0.991685 0.365275
#
# Coordination Sequence:
#
# PCOD8164531 Si02
#       7
#     8   8   2   8   8   4   8
#     4  12  26  45  72  97 141 182 233 292 355 415
#     4  12  28  48  68 100 139 182 237 290 345 426
#     4  12  28  42  68 102 160 186 228 294 354 410
#     4  12  25  46  69 105 141 188 230 291 356 425
#     4   9  20  40  65 106 128 175 220 292 336 415
#     4  12  24  45  72 108 134 181 246 286 358 436
#     4   9  20  38  69  97 139 165 231 276 348 412
#
# _framework density 21.571338999999998
#
# number of rings (size 3 to 8) (size 9 to 14) (size 15 to 20)
#    0.000    1.043    4.348    2.087    7.304    0.348 
#    0.000    0.000    0.000    0.000    0.000    0.000 
#    0.000    0.000    0.000    0.000    0.000    0.000 
#
# Total GULP energy -285178.743627 kJ/mol
# GULP energy per Si atom -12399.075810 kJ/mol
# Density = 2.152224 g / cm^3
# Si number density = 21.571339 Si / 1000 Ang^3
#
#
#
# Elastic Constant Matrix: (Units=GPa)
#
#
# Indices 1 2 3 4 5 6 
#
# 1 70.4322 24.4420 31.8653 0.0000 0.0000 0.0000
# 2 24.4420 98.3808 41.2312 0.0000 0.0000 0.0000
# 3 31.8653 41.2312 135.7428 0.0000 0.0000 0.0000
# 4 0.0000 0.0000 0.0000 36.7604 0.0000 0.0000
# 5 0.0000 0.0000 0.0000 0.0000 32.0232 0.0000
# 6 0.0000 0.0000 0.0000 0.0000 0.0000 12.3074
#
#
#
# Elastic Compliance Matrix: (Units=1/GPa)
#
#
# Indices 1 2 3 4 5 6 
#
# 1 0.016553 -0.002846 -0.003021 0.000000 0.000000 0.000000
# 2 -0.002846 0.012137 -0.003018 0.000000 0.000000 0.000000
# 3 -0.003021 -0.003018 0.008993 0.000000 0.000000 0.000000
# 4 0.000000 0.000000 0.000000 0.027203 0.000000 0.000000
# 5 0.000000 0.000000 0.000000 0.000000 0.031227 0.000000
# 6 0.000000 0.000000 0.000000 0.000000 0.000000 0.081252
#
#
# Mechanical properties :
#
#
# Convention : Reuss Voigt Hill
#
# Bulk Modulus (GPa) = 50.22402 55.51477 52.86940
# Shear Modulus (GPa) = 24.78030 30.01936 27.39983
#
# Velocity S-wave (km/s) = 3.39301 3.73450 3.56785
# Velocity P-wave (km/s) = 6.21959 6.66233 6.44477
#
# Compressibility (1/GPa) = 0.01991079
#
# Stress axis : x y z
#
# Youngs Moduli (GPa) = 60.41339 82.39493 111.19905
#
# Poissons Ratio (x) = 0.23451 0.33595
# Poissons Ratio (y) = 0.17195 0.33563
# Poissons Ratio (z) = 0.18252 0.24869
#
# Static dielectric constant tensor:
#      x y z
#    x 3.842660 0.000000 0.000000 
#    y 0.000000 3.897970 0.000000 
#    z 0.000000 0.000000 4.664950 
# 
# 
# High freq. dielectric constant tensor:
#      x y z
#    x 1.837460 0.000000 0.000000 
#    y 0.000000 1.839020 0.000000 
#    z 0.000000 0.000000 1.871660 
# 
# From -- ./inp_files/18329.got.cif
#   From: 2010.03.12/outbox.cif.g09.slc.cpg/sg23_10_cif.got.tgz:18329.got - 2010.04.14 02:50:06.
