data_PCOD8164177
_publ_section_title
;
Structure prediction by ZEFSAII (Michael W. Deem and Ramdas Pophale) SiO2 
 PCOD8164177
Probable space group: I 2 2 2
;
_chemical_formula_sum "Si O2"
_cell_formula_units_Z 38
_cell_length_a 10.526156
_cell_length_b 16.617795
_cell_length_c 11.077237
_cell_angle_alpha 90.000000
_cell_angle_beta 90.000000
_cell_angle_gamma 90.000000
_cell_volume 1937.646940
_symmetry_space_group_name_H-M "I 2 2 2"
_symmetry_group_IT_number 23
_symmetry_cell_setting 'orthorhombic'
loop_
_space_group_symop_operation_xyz
x,y,z
-x,-y,z
x,-y,-z
-x,y,-z
1/2+x,1/2+y,1/2+z
1/2-x,1/2-y,1/2+z
1/2+x,1/2-y,1/2-z
1/2-x,1/2+y,1/2-z
loop_
_atom_site_type_symbol
_atom_site_label
_atom_site_fract_x
_atom_site_fract_y
_atom_site_fract_z
Si Si1 0.424784 0.857058 0.625340
Si Si2 0.232589 0.037228 0.875943
Si Si3 0.538354 0.324980 0.637932
Si Si4 0.500000 0.000000 0.199165
Si Si5 0.343054 0.592295 0.186611
Si Si6 0.500000 0.500000 0.000000
O O1 0.500000 0.872137 0.500000
O O2 0.446203 0.767526 0.674629
O O3 0.272380 0.862545 0.619378
O O4 0.468808 0.923093 0.719985
O O5 0.169858 0.124355 0.848506
O O6 0.385859 0.034126 0.884536
O O7 0.199616 0.984454 0.761353
O O8 0.175811 0.000000 0.000000
O O9 0.500000 0.333853 0.500000
O O10 0.425450 0.352534 0.724991
O O11 0.421616 0.562173 0.075969
#
# Coordination Sequence:
#
# PCOD8164177 Si02
#       6
#     8   8   8   4   8   2
#     4  10  25  42  66  93 132 175 215 263 335 391
#     4  11  21  40  68  91 129 166 218 268 328 393
#     4  11  22  42  69  95 126 171 218 278 324 382
#     4  10  24  40  64  96 130 175 215 270 332 398
#     4  11  24  41  64  97 125 170 217 259 329 392
#     4  12  24  40  64  96 124 166 216 264 312 392
#
# _framework density 19.611415000000001
#
# number of rings (size 3 to 8) (size 9 to 14) (size 15 to 20)
#    0.000    1.263    4.211    0.632    8.842    0.000 
#    3.789    0.000    0.000    0.000    0.000    0.000 
#    0.000    0.000    0.000    0.000    0.000    0.000 
#
# Total GULP energy -235429.504848 kJ/mol
# GULP energy per Si atom -12391.026571 kJ/mol
# Density = 1.956678 g / cm^3
# Si number density = 19.611415 Si / 1000 Ang^3
#
#
#
# Elastic Constant Matrix: (Units=GPa)
#
#
# Indices 1 2 3 4 5 6 
#
# 1 143.6732 61.6508 50.9292 0.0004 0.0000 0.0000
# 2 61.6508 137.1084 34.7418 0.0022 -0.0001 0.0002
# 3 50.9292 34.7418 94.3211 0.0033 -0.0001 0.0003
# 4 0.0004 0.0022 0.0033 43.5243 -0.0001 0.0010
# 5 0.0000 -0.0001 -0.0001 -0.0001 44.2755 0.0000
# 6 0.0000 0.0002 0.0003 0.0010 0.0000 20.6870
#
#
#
# Elastic Compliance Matrix: (Units=1/GPa)
#
#
# Indices 1 2 3 4 5 6 
#
# 1 0.009864 -0.003404 -0.004073 0.000000 0.000000 0.000000
# 2 -0.003404 0.009219 -0.001558 0.000000 0.000000 0.000000
# 3 -0.004073 -0.001558 0.013375 -0.000001 0.000000 0.000000
# 4 0.000000 0.000000 -0.000001 0.022976 0.000000 -0.000001
# 5 0.000000 0.000000 0.000000 0.000000 0.022586 0.000000
# 6 0.000000 0.000000 0.000000 -0.000001 0.000000 0.048340
#
#
# Mechanical properties :
#
#
# Convention : Reuss Voigt Hill
#
# Bulk Modulus (GPa) = 69.49305 74.41624 71.95465
# Shear Modulus (GPa) = 33.50672 36.88276 35.19474
#
# Velocity S-wave (km/s) = 4.13792 4.34138 4.24087
# Velocity P-wave (km/s) = 7.63818 7.94719 7.79422
#
# Compressibility (1/GPa) = 0.01438993
#
# Stress axis : x y z
#
# Youngs Moduli (GPa) = 101.37462 108.47599 74.76665
#
# Poissons Ratio (x) = 0.36920 0.30450
# Poissons Ratio (y) = 0.34503 0.11647
# Poissons Ratio (z) = 0.41287 0.16898
#
# Static dielectric constant tensor:
#      x y z
#    x 4.027810 0.000000 0.000000 
#    y 0.000000 3.694350 0.000000 
#    z 0.000000 0.000000 3.502950 
# 
# 
# High freq. dielectric constant tensor:
#      x y z
#    x 1.778990 0.000000 0.000000 
#    y 0.000000 1.766880 0.000000 
#    z 0.000000 0.000000 1.767800 
# 
# From -- ./inp_files/8245.got.cif
#   From: 2010.03.12/outbox.cif.g09.slc.cpg/sg23_5_cif.got.tgz:8245.got - 2010.04.14 02:50:06.
