data_PCOD8164273
_publ_section_title
;
Structure prediction by ZEFSAII (Michael W. Deem and Ramdas Pophale) SiO2 
 PCOD8164273
Probable space group: I 2 2 2
;
_chemical_formula_sum "Si O2"
_cell_formula_units_Z 32
_cell_length_a 15.726670
_cell_length_b 5.647445
_cell_length_c 16.500874
_cell_angle_alpha 90.000000
_cell_angle_beta 90.000000
_cell_angle_gamma 90.000000
_cell_volume 1465.533438
_symmetry_space_group_name_H-M "I 2 2 2"
_symmetry_group_IT_number 23
_symmetry_cell_setting 'orthorhombic'
loop_
_space_group_symop_operation_xyz
x,y,z
-x,-y,z
x,-y,-z
-x,y,-z
1/2+x,1/2+y,1/2+z
1/2-x,1/2-y,1/2+z
1/2+x,1/2-y,1/2-z
1/2-x,1/2+y,1/2-z
loop_
_atom_site_type_symbol
_atom_site_label
_atom_site_fract_x
_atom_site_fract_y
_atom_site_fract_z
Si Si1 0.857871 0.802232 0.442217
Si Si2 0.417148 0.650170 0.377492
Si Si3 0.500000 0.000000 0.500000
Si Si4 0.287337 0.500000 0.500000
Si Si5 0.702130 0.305271 0.236282
Si Si6 0.500000 0.000000 0.000000
O O1 0.774519 0.723915 0.492852
O O2 0.831601 0.874481 0.352065
O O3 0.936942 0.624816 0.436075
O O4 0.897365 0.000000 0.500000
O O5 0.500000 0.500000 0.356274
O O6 0.344738 0.492983 0.419630
O O7 0.378187 0.749508 0.294505
O O8 0.438436 0.852138 0.442280
O O9 0.748201 0.551015 0.265866
#
# Coordination Sequence:
#
# PCOD8164273 Si02
#       6
#     8   8   2   4   8   2
#     4  11  25  46  77 102 148 198 254 311 377 453
#     4  12  26  44  71 108 153 192 246 307 375 447
#     4  12  26  42  76 106 152 204 242 308 384 456
#     4  11  21  45  67 102 142 192 245 297 369 447
#     4  12  29  50  75 113 151 198 256 312 376 447
#     4  10  26  46  70 110 138 198 256 308 376 442
#
# _framework density 21.835052000000001
#
# number of rings (size 3 to 8) (size 9 to 14) (size 15 to 20)
#    0.000    0.500    5.000    1.875   12.250    3.000 
#    0.000    0.000    0.000    0.000    0.000    0.000 
#    0.000    0.000    0.000    0.000    0.000    0.000 
#
# Total GULP energy -198220.979942 kJ/mol
# GULP energy per Si atom -12388.811246 kJ/mol
# Density = 2.178535 g / cm^3
# Si number density = 21.835052 Si / 1000 Ang^3
#
#
#
# Elastic Constant Matrix: (Units=GPa)
#
#
# Indices 1 2 3 4 5 6 
#
# 1 138.7281 38.1120 50.2286 0.0000 0.0000 0.0000
# 2 38.1120 108.0956 37.7550 0.0000 0.0000 0.0000
# 3 50.2286 37.7550 158.3248 0.0000 0.0000 0.0000
# 4 0.0000 0.0000 0.0000 11.8541 0.0000 0.0000
# 5 0.0000 0.0000 0.0000 0.0000 54.2927 0.0000
# 6 0.0000 0.0000 0.0000 0.0000 0.0000 2.8803
#
#
#
# Elastic Compliance Matrix: (Units=1/GPa)
#
#
# Indices 1 2 3 4 5 6 
#
# 1 0.008628 -0.002276 -0.002195 0.000000 0.000000 0.000000
# 2 -0.002276 0.010692 -0.001828 0.000000 0.000000 0.000000
# 3 -0.002195 -0.001828 0.007448 0.000000 0.000000 0.000000
# 4 0.000000 0.000000 0.000000 0.084359 0.000000 0.000000
# 5 0.000000 0.000000 0.000000 0.000000 0.018419 0.000000
# 6 0.000000 0.000000 0.000000 0.000000 0.000000 0.347185
#
#
# Mechanical properties :
#
#
# Convention : Reuss Voigt Hill
#
# Bulk Modulus (GPa) = 70.56003 73.03774 71.79888
# Shear Modulus (GPa) = 10.12043 32.40894 21.26468
#
# Velocity S-wave (km/s) = 2.15523 3.85679 3.12409
# Velocity P-wave (km/s) = 6.21116 7.30449 6.77990
#
# Compressibility (1/GPa) = 0.01417233
#
# Stress axis : x y z
#
# Youngs Moduli (GPa) = 115.90053 93.53013 134.26029
#
# Poissons Ratio (x) = 0.21283 0.29465
# Poissons Ratio (y) = 0.26374 0.24539
# Poissons Ratio (z) = 0.25436 0.17094
#
# Static dielectric constant tensor:
#      x y z
#    x 4.404880 0.000000 0.000000 
#    y 0.000000 3.927930 0.000000 
#    z 0.000000 0.000000 3.938100 
# 
# 
# High freq. dielectric constant tensor:
#      x y z
#    x 1.876150 0.000000 0.000000 
#    y 0.000000 1.853930 0.000000 
#    z 0.000000 0.000000 1.862940 
# 
# From -- ./inp_files/2146.got.cif
#   From: 2010.03.12/outbox.cif.g09.slc.cpg/sg23_2_cif.got.tgz:2146.got - 2010.04.14 02:50:06.
