data_PCOD8164458
_publ_section_title
;
Structure prediction by ZEFSAII (Michael W. Deem and Ramdas Pophale) SiO2 
 PCOD8164458
Probable space group: I 2 2 2
;
_chemical_formula_sum "Si O2"
_cell_formula_units_Z 34
_cell_length_a 13.498753
_cell_length_b 10.960044
_cell_length_c 9.813030
_cell_angle_alpha 90.000000
_cell_angle_beta 90.000000
_cell_angle_gamma 90.000000
_cell_volume 1451.807631
_symmetry_space_group_name_H-M "I 2 2 2"
_symmetry_group_IT_number 23
_symmetry_cell_setting 'orthorhombic'
loop_
_space_group_symop_operation_xyz
x,y,z
-x,-y,z
x,-y,-z
-x,y,-z
1/2+x,1/2+y,1/2+z
1/2-x,1/2-y,1/2+z
1/2+x,1/2-y,1/2-z
1/2-x,1/2+y,1/2-z
loop_
_atom_site_type_symbol
_atom_site_label
_atom_site_fract_x
_atom_site_fract_y
_atom_site_fract_z
Si Si1 0.000000 0.692760 0.500000
Si Si2 0.869741 0.716288 0.903761
Si Si3 0.000000 0.500000 0.000000
Si Si4 0.991008 0.860499 0.257359
Si Si5 0.223208 0.177418 0.167301
Si Si6 0.661983 0.000000 0.000000
O O1 0.036828 0.776098 0.376053
O O2 0.907479 0.610885 0.449448
O O3 0.801605 0.733536 0.771343
O O4 0.928014 0.586143 0.908600
O O5 0.953615 0.821952 0.883392
O O6 0.802304 0.736131 0.037536
O O7 0.875076 0.839311 0.252130
O O8 0.000000 0.000000 0.295756
O O9 0.266087 0.046240 0.119985
#
# Coordination Sequence:
#
# PCOD8164458 Si02
#       6
#     4   8   2   8   8   4
#     4  11  25  48  74 114 157 209 256 332 390 473
#     4  12  28  51  79 119 157 210 263 331 401 474
#     4  12  28  52  82 114 170 200 268 336 396 480
#     4  12  26  48  76 111 164 204 259 329 403 466
#     4  12  26  48  78 113 156 206 262 316 402 470
#     4  11  24  44  79 110 154 200 267 310 395 466
#
# _framework density 23.419082
#
# number of rings (size 3 to 8) (size 9 to 14) (size 15 to 20)
#    0.000    0.235    4.706    3.176    3.294    4.706 
#    0.000    0.000    0.000    0.000    0.000    0.000 
#    0.000    0.000    0.000    0.000    0.000    0.000 
#
# Total GULP energy -210746.194216 kJ/mol
# GULP energy per Si atom -12396.834954 kJ/mol
# Density = 2.336578 g / cm^3
# Si number density = 23.419082 Si / 1000 Ang^3
#
#
#
# Elastic Constant Matrix: (Units=GPa)
#
#
# Indices 1 2 3 4 5 6 
#
# 1 138.9535 56.1294 51.3894 0.0000 0.0000 0.0000
# 2 56.1294 153.2033 54.5439 0.0000 0.0000 0.0000
# 3 51.3894 54.5439 111.6414 0.0000 0.0000 0.0000
# 4 0.0000 0.0000 0.0000 35.9654 0.0000 0.0000
# 5 0.0000 0.0000 0.0000 0.0000 21.5691 0.0000
# 6 0.0000 0.0000 0.0000 0.0000 0.0000 39.8741
#
#
#
# Elastic Compliance Matrix: (Units=1/GPa)
#
#
# Indices 1 2 3 4 5 6 
#
# 1 0.009286 -0.002276 -0.003162 0.000000 0.000000 0.000000
# 2 -0.002276 0.008460 -0.003085 0.000000 0.000000 0.000000
# 3 -0.003162 -0.003085 0.011920 0.000000 0.000000 0.000000
# 4 0.000000 0.000000 0.000000 0.027805 0.000000 0.000000
# 5 0.000000 0.000000 0.000000 0.000000 0.046363 0.000000
# 6 0.000000 0.000000 0.000000 0.000000 0.000000 0.025079
#
#
# Mechanical properties :
#
#
# Convention : Reuss Voigt Hill
#
# Bulk Modulus (GPa) = 79.25136 80.88038 80.06587
# Shear Modulus (GPa) = 33.29673 35.59741 34.44707
#
# Velocity S-wave (km/s) = 3.77474 3.90297 3.83939
# Velocity P-wave (km/s) = 7.27407 7.41094 7.34282
#
# Compressibility (1/GPa) = 0.01261808
#
# Stress axis : x y z
#
# Youngs Moduli (GPa) = 107.69406 118.20826 83.89119
#
# Poissons Ratio (x) = 0.26906 0.26528
# Poissons Ratio (y) = 0.24513 0.25883
# Poissons Ratio (z) = 0.34055 0.36471
#
# Static dielectric constant tensor:
#      x y z
#    x 4.416060 0.000000 0.000000 
#    y 0.000000 4.771420 0.000000 
#    z 0.000000 0.000000 4.073880 
# 
# 
# High freq. dielectric constant tensor:
#      x y z
#    x 1.956500 0.000000 0.000000 
#    y 0.000000 1.916750 0.000000 
#    z 0.000000 0.000000 1.919280 
# 
# From -- ./inp_files/15380.got.cif
#   From: 2010.03.12/outbox.cif.g09.slc.cpg/sg23_8_cif.got.tgz:15380.got - 2010.04.14 02:50:06.
