data_PCOD8164086
_publ_section_title
;
Structure prediction by ZEFSAII (Michael W. Deem and Ramdas Pophale) SiO2 
 PCOD8164086
Probable space group: I 2 2 2
;
_chemical_formula_sum "Si O2"
_cell_formula_units_Z 44
_cell_length_a 6.364340
_cell_length_b 22.377317
_cell_length_c 14.136878
_cell_angle_alpha 90.000000
_cell_angle_beta 90.000000
_cell_angle_gamma 90.000000
_cell_volume 2013.329686
_symmetry_space_group_name_H-M "I 2 2 2"
_symmetry_group_IT_number 23
_symmetry_cell_setting 'orthorhombic'
loop_
_space_group_symop_operation_xyz
x,y,z
-x,-y,z
x,-y,-z
-x,y,-z
1/2+x,1/2+y,1/2+z
1/2-x,1/2-y,1/2+z
1/2+x,1/2-y,1/2-z
1/2-x,1/2+y,1/2-z
loop_
_atom_site_type_symbol
_atom_site_label
_atom_site_fract_x
_atom_site_fract_y
_atom_site_fract_z
Si Si1 0.000000 0.695685 0.500000
Si Si2 0.688705 0.594460 0.940442
Si Si3 0.790624 0.242358 0.156245
Si Si4 0.000000 0.500000 0.000000
Si Si5 0.301896 0.404082 0.564672
Si Si6 0.923541 0.846211 0.249647
Si Si7 0.500000 0.191915 0.500000
Si Si8 0.500000 0.000000 0.000000
O O1 0.083956 0.734516 0.589023
O O2 0.200987 0.656437 0.474192
O O3 0.575689 0.614981 0.844415
O O4 0.500000 0.567044 0.000000
O O5 0.861454 0.541834 0.929879
O O6 0.791143 0.650965 0.996134
O O7 0.738980 0.291575 0.235940
O O8 0.989568 0.265482 0.092901
O O9 0.854783 0.182093 0.212970
O O10 0.500000 0.420612 0.500000
O O11 0.356811 0.394495 0.672910
O O12 0.141524 0.459013 0.567041
#
# Coordination Sequence:
#
# PCOD8164086 Si02
#       8
#     4   8   8   2   8   8   4   2
#     4  11  22  39  68  92 140 183 214 259 334 394
#     4  10  23  43  69  95 130 176 225 284 333 398
#     4  11  22  38  64 103 142 185 215 264 322 400
#     4  10  22  50  68  94 124 178 226 292 356 376
#     4  11  22  46  65  97 130 174 221 283 331 403
#     4  11  24  38  66 101 137 173 224 265 322 402
#     4   9  22  37  62  94 140 177 218 257 322 398
#     4  10  26  42  76  86 128 174 222 284 360 376
#
# _framework density 21.854341999999999
#
# number of rings (size 3 to 8) (size 9 to 14) (size 15 to 20)
#    0.000    1.455    1.818    2.727    7.636    0.727 
#    3.273    3.636    0.000    0.000    0.000    0.000 
#    0.000    0.000    0.000    0.000    0.000    0.000 
#
# Total GULP energy -272665.613923 kJ/mol
# GULP energy per Si atom -12393.891542 kJ/mol
# Density = 2.180460 g / cm^3
# Si number density = 21.854342 Si / 1000 Ang^3
#
#
#
# Elastic Constant Matrix: (Units=GPa)
#
#
# Indices 1 2 3 4 5 6 
#
# 1 107.5638 50.5687 66.3722 -0.0001 0.0000 0.0000
# 2 50.5687 112.1099 58.0233 0.0000 0.0000 0.0000
# 3 66.3722 58.0233 134.1756 -0.0005 0.0000 0.0000
# 4 -0.0001 0.0000 -0.0005 99.1077 0.0000 0.0000
# 5 0.0000 0.0000 0.0000 0.0000 39.2599 0.0000
# 6 0.0000 0.0000 0.0000 0.0000 0.0000 33.6160
#
#
#
# Elastic Compliance Matrix: (Units=1/GPa)
#
#
# Indices 1 2 3 4 5 6 
#
# 1 0.014443 -0.003629 -0.005575 0.000000 0.000000 0.000000
# 2 -0.003629 0.012404 -0.003569 0.000000 0.000000 0.000000
# 3 -0.005575 -0.003569 0.011754 0.000000 0.000000 0.000000
# 4 0.000000 0.000000 0.000000 0.010090 0.000000 0.000000
# 5 0.000000 0.000000 0.000000 0.000000 0.025471 0.000000
# 6 0.000000 0.000000 0.000000 0.000000 0.000000 0.029748
#
#
# Mechanical properties :
#
#
# Convention : Reuss Voigt Hill
#
# Bulk Modulus (GPa) = 76.59989 78.19751 77.39870
# Shear Modulus (GPa) = 37.36703 46.32239 41.84471
#
# Velocity S-wave (km/s) = 4.13948 4.60890 4.38049
# Velocity P-wave (km/s) = 7.61403 8.01134 7.81521
#
# Compressibility (1/GPa) = 0.01305485
#
# Stress axis : x y z
#
# Youngs Moduli (GPa) = 69.23688 80.61997 85.07780
#
# Poissons Ratio (x) = 0.29260 0.47431
# Poissons Ratio (y) = 0.25129 0.30361
# Poissons Ratio (z) = 0.38600 0.28770
#
# Static dielectric constant tensor:
#      x y z
#    x 3.683040 0.000000 0.000000 
#    y 0.000000 4.002490 0.000000 
#    z 0.000000 0.000000 3.879010 
# 
# 
# High freq. dielectric constant tensor:
#      x y z
#    x 1.857750 0.000000 0.000000 
#    y 0.000000 1.861590 0.000000 
#    z 0.000000 0.000000 1.847330 
# 
# From -- ./inp_files/19213.got.cif
#   From: 2010.03.12/outbox.cif.g09.slc.cpg/sg23_10_cif.got.tgz:19213.got - 2010.04.14 02:50:06.
