data_PCOD8164327
_publ_section_title
;
Structure prediction by ZEFSAII (Michael W. Deem and Ramdas Pophale) SiO2 
 PCOD8164327
Probable space group: I 2 2 2
;
_chemical_formula_sum "Si O2"
_cell_formula_units_Z 52
_cell_length_a 9.633056
_cell_length_b 13.164546
_cell_length_c 20.174036
_cell_angle_alpha 90.000000
_cell_angle_beta 90.000000
_cell_angle_gamma 90.000000
_cell_volume 2558.366519
_symmetry_space_group_name_H-M "I 2 2 2"
_symmetry_group_IT_number 23
_symmetry_cell_setting 'orthorhombic'
loop_
_space_group_symop_operation_xyz
x,y,z
-x,-y,z
x,-y,-z
-x,y,-z
1/2+x,1/2+y,1/2+z
1/2-x,1/2-y,1/2+z
1/2+x,1/2-y,1/2-z
1/2-x,1/2+y,1/2-z
loop_
_atom_site_type_symbol
_atom_site_label
_atom_site_fract_x
_atom_site_fract_y
_atom_site_fract_z
Si Si1 0.965021 0.788268 0.342157
Si Si2 0.339415 0.389901 0.504287
Si Si3 0.328912 0.719799 0.630240
Si Si4 0.582558 0.206827 0.294438
Si Si5 0.500000 0.500000 0.809673
Si Si6 0.245638 0.539162 0.722400
Si Si7 0.702511 0.155596 0.860713
O O1 0.802900 0.789655 0.356705
O O2 0.994083 0.764440 0.265074
O O3 0.020258 0.901743 0.356455
O O4 0.052916 0.703042 0.382151
O O5 0.262524 0.500000 0.500000
O O6 0.500000 0.411390 0.500000
O O7 0.307830 0.310803 0.446167
O O8 0.298493 0.345472 0.574963
O O9 0.468051 0.786995 0.645806
O O10 0.323558 0.619066 0.674995
O O11 0.627840 0.093435 0.268855
O O12 0.724507 0.264052 0.312034
O O13 0.362657 0.483608 0.765578
O O14 0.177863 0.452312 0.675609
#
# Coordination Sequence:
#
# PCOD8164327 Si02
#       7
#     8   8   8   8   4   8   8
#     4  11  24  38  62  92 130 167 215 273 338 386
#     4  11  23  38  65  95 128 177 220 265 335 407
#     4  11  22  41  58  95 132 172 213 265 332 403
#     4  11  21  38  60  94 131 173 215 259 339 400
#     4  12  20  38  62  94 122 168 204 266 326 394
#     4  11  22  36  64  92 134 168 211 272 325 408
#     4  12  22  41  63  97 133 171 219 267 332 411
#
# _framework density 20.325468999999998
#
# number of rings (size 3 to 8) (size 9 to 14) (size 15 to 20)
#    0.000    0.769    7.692    0.923    0.000    3.077 
#    0.000    0.769    0.000    1.846    0.000    1.077 
#    0.000    0.000    0.000    0.000    0.000    0.000 
#
# Total GULP energy -322220.886907 kJ/mol
# GULP energy per Si atom -12393.111035 kJ/mol
# Density = 2.027921 g / cm^3
# Si number density = 20.325469 Si / 1000 Ang^3
#
#
#
# Elastic Constant Matrix: (Units=GPa)
#
#
# Indices 1 2 3 4 5 6 
#
# 1 96.9114 50.9190 22.7281 0.0000 0.0000 0.0000
# 2 50.9190 121.0901 46.1957 0.0000 0.0000 0.0000
# 3 22.7281 46.1957 85.9030 0.0000 0.0000 0.0000
# 4 0.0000 0.0000 0.0000 25.9710 0.0000 0.0000
# 5 0.0000 0.0000 0.0000 0.0000 22.5764 0.0000
# 6 0.0000 0.0000 0.0000 0.0000 0.0000 29.5431
#
#
#
# Elastic Compliance Matrix: (Units=1/GPa)
#
#
# Indices 1 2 3 4 5 6 
#
# 1 0.013273 -0.005337 -0.000642 0.000000 0.000000 0.000000
# 2 -0.005337 0.012535 -0.005329 0.000000 0.000000 0.000000
# 3 -0.000642 -0.005329 0.014677 0.000000 0.000000 0.000000
# 4 0.000000 0.000000 0.000000 0.038504 0.000000 0.000000
# 5 0.000000 0.000000 0.000000 0.000000 0.044294 0.000000
# 6 0.000000 0.000000 0.000000 0.000000 0.000000 0.033849
#
#
# Mechanical properties :
#
#
# Convention : Reuss Voigt Hill
#
# Bulk Modulus (GPa) = 55.95993 60.39890 58.17942
# Shear Modulus (GPa) = 26.92447 27.88890 27.40669
#
# Velocity S-wave (km/s) = 3.64355 3.70823 3.67603
# Velocity P-wave (km/s) = 6.72995 6.93650 6.83400
#
# Compressibility (1/GPa) = 0.01786993
#
# Stress axis : x y z
#
# Youngs Moduli (GPa) = 75.33995 79.77392 68.13498
#
# Poissons Ratio (x) = 0.42571 0.04374
# Poissons Ratio (y) = 0.40205 0.36310
# Poissons Ratio (z) = 0.04837 0.42513
#
# Static dielectric constant tensor:
#      x y z
#    x 3.663650 0.000000 0.000000 
#    y 0.000000 3.689370 0.000000 
#    z 0.000000 0.000000 3.582820 
# 
# 
# High freq. dielectric constant tensor:
#      x y z
#    x 1.801600 0.000000 0.000000 
#    y 0.000000 1.790570 0.000000 
#    z 0.000000 0.000000 1.759140 
# 
# From -- ./inp_files/26217.got.cif
#   From: 2010.03.12/outbox.cif.g09.slc.cpg/sg23_14_cif.got.tgz:26217.got - 2010.04.14 02:50:06.
