data_PCOD8164815
_publ_section_title
;
Structure prediction by ZEFSAII (Michael W. Deem and Ramdas Pophale) SiO2 
 PCOD8164815
Probable space group: I 21 21 21
;
_chemical_formula_sum "Si O2"
_cell_formula_units_Z 44
_cell_length_a 8.839517
_cell_length_b 14.519708
_cell_length_c 17.225461
_cell_angle_alpha 90.000000
_cell_angle_beta 90.000000
_cell_angle_gamma 90.000000
_cell_volume 2210.839786
_symmetry_space_group_name_H-M "I 21 21 21"
_symmetry_group_IT_number 24
_symmetry_cell_setting 'orthorhombic'
loop_
_space_group_symop_operation_xyz
x,y,z
-x,1/2-y,z
x,-y,1/2-z
1/2-x,y,-z
1/2+x,1/2+y,1/2+z
1/2-x,-y,1/2+z
1/2+x,1/2-y,-z
-x,1/2+y,1/2-z
loop_
_atom_site_type_symbol
_atom_site_label
_atom_site_fract_x
_atom_site_fract_y
_atom_site_fract_z
Si Si1 0.843927 0.617854 0.574978
Si Si2 0.095236 0.521530 0.957607
Si Si3 0.062232 0.412701 0.706222
Si Si4 0.397899 0.838374 0.950088
Si Si5 0.722671 0.458916 0.674635
Si Si6 0.500000 0.250000 0.189646
O O1 0.750000 0.654593 0.500000
O O2 0.738914 0.538667 0.610842
O O3 0.010536 0.574851 0.559160
O O4 0.874338 0.700361 0.635506
O O5 0.128951 0.584167 0.881004
O O6 0.250000 0.497366 0.000000
O O7 0.985075 0.578911 0.010891
O O8 0.135147 0.500000 0.750000
O O9 0.881960 0.421357 0.704651
O O10 0.095021 0.319574 0.754428
O O11 0.500000 0.750000 0.942807
O O12 0.361178 0.871904 0.862999
O O13 0.250000 0.813458 0.000000
O O14 0.634315 0.500000 0.750000
#
# Coordination Sequence:
#
# PCOD8164815 Si02
#       6
#     8   8   8   8   8   4
#     4  11  21  42  70  94 127 177 218 270 331 397
#     4  11  22  40  65  93 136 175 210 273 338 381
#     4  10  20  38  63  96 126 170 222 273 318 385
#     4  12  23  39  65 101 129 166 219 269 332 400
#     4  10  18  41  69  86 130 178 210 263 338 384
#     4  12  22  36  72 102 120 170 242 266 310 416
#
# _framework density 19.901938999999999
#
# number of rings (size 3 to 8) (size 9 to 14) (size 15 to 20)
#    0.000    1.091   10.909    0.545    1.273    2.182 
#    0.000    0.909    6.000    0.000    0.000    0.000 
#    0.000    0.000    0.000    0.000    0.000    0.000 
#
# Total GULP energy -272715.855746 kJ/mol
# GULP energy per Si atom -12396.175261 kJ/mol
# Density = 1.985664 g / cm^3
# Si number density = 19.901939 Si / 1000 Ang^3
#
#
#
# Elastic Constant Matrix: (Units=GPa)
#
#
# Indices 1 2 3 4 5 6 
#
# 1 72.4620 34.8550 49.5623 0.0000 0.0000 0.0000
# 2 34.8550 104.8263 46.0386 0.0000 0.0000 0.0000
# 3 49.5623 46.0386 137.3816 0.0000 0.0000 0.0000
# 4 0.0000 0.0000 0.0000 37.2782 0.0000 0.0000
# 5 0.0000 0.0000 0.0000 0.0000 20.0863 0.0000
# 6 0.0000 0.0000 0.0000 0.0000 0.0000 13.4716
#
#
#
# Elastic Compliance Matrix: (Units=1/GPa)
#
#
# Indices 1 2 3 4 5 6 
#
# 1 0.019663 -0.004013 -0.005749 0.000000 0.000000 0.000000
# 2 -0.004013 0.012005 -0.002575 0.000000 0.000000 0.000000
# 3 -0.005749 -0.002575 0.010216 0.000000 0.000000 0.000000
# 4 0.000000 0.000000 0.000000 0.026825 0.000000 0.000000
# 5 0.000000 0.000000 0.000000 0.000000 0.049785 0.000000
# 6 0.000000 0.000000 0.000000 0.000000 0.000000 0.074230
#
#
# Mechanical properties :
#
#
# Convention : Reuss Voigt Hill
#
# Bulk Modulus (GPa) = 58.10775 63.95350 61.03062
# Shear Modulus (GPa) = 22.40799 26.44817 24.42808
#
# Velocity S-wave (km/s) = 3.35911 3.64940 3.50726
# Velocity P-wave (km/s) = 6.65622 7.06835 6.86538
#
# Compressibility (1/GPa) = 0.01720941
#
# Stress axis : x y z
#
# Youngs Moduli (GPa) = 50.85779 83.29871 97.88629
#
# Poissons Ratio (x) = 0.33429 0.56272
# Poissons Ratio (y) = 0.20410 0.25208
# Poissons Ratio (z) = 0.29237 0.21452
#
# Static dielectric constant tensor:
#      x y z
#    x 3.679150 0.000000 0.000000 
#    y 0.000000 3.855840 0.000000 
#    z 0.000000 0.000000 3.806500 
# 
# 
# High freq. dielectric constant tensor:
#      x y z
#    x 1.731820 0.000000 0.000000 
#    y 0.000000 1.773370 0.000000 
#    z 0.000000 0.000000 1.797780 
# 
# From -- ./inp_files/29420.got.cif
#   From: 2010.03.12/outbox.cif.g09.slc.cpg/sg24_15_cif.got.tgz:29420.got - 2010.04.14 03:06:53.
