data_PCOD8164090
_publ_section_title
;
Structure prediction by ZEFSAII (Michael W. Deem and Ramdas Pophale) SiO2 
 PCOD8164090
Probable space group: I 2 2 2
;
_chemical_formula_sum "Si O2"
_cell_formula_units_Z 58
_cell_length_a 17.919332
_cell_length_b 8.719406
_cell_length_c 18.485502
_cell_angle_alpha 90.000000
_cell_angle_beta 90.000000
_cell_angle_gamma 90.000000
_cell_volume 2888.284469
_symmetry_space_group_name_H-M "I 2 2 2"
_symmetry_group_IT_number 23
_symmetry_cell_setting 'orthorhombic'
loop_
_space_group_symop_operation_xyz
x,y,z
-x,-y,z
x,-y,-z
-x,y,-z
1/2+x,1/2+y,1/2+z
1/2-x,1/2-y,1/2+z
1/2+x,1/2-y,1/2-z
1/2-x,1/2+y,1/2-z
loop_
_atom_site_type_symbol
_atom_site_label
_atom_site_fract_x
_atom_site_fract_y
_atom_site_fract_z
Si Si1 0.000000 0.000000 0.500000
Si Si2 0.468102 0.655947 0.356621
Si Si3 0.785575 0.815816 0.552748
Si Si4 0.342465 0.597351 0.236650
Si Si5 0.617124 0.097726 0.434002
Si Si6 0.632557 0.367063 0.077764
Si Si7 0.192432 0.259140 0.706979
Si Si8 0.070846 0.403698 0.799027
O O1 0.047889 0.887570 0.551014
O O2 0.500000 0.500000 0.389947
O O3 0.408804 0.623342 0.293110
O O4 0.432309 0.751255 0.422146
O O5 0.540930 0.742385 0.327330
O O6 0.698364 0.845336 0.543390
O O7 0.821777 0.751940 0.477113
O O8 0.802190 0.706861 0.621012
O O9 0.825073 0.973287 0.572099
O O10 0.367655 0.679826 0.161561
O O11 0.270879 0.693600 0.259555
O O12 0.324508 0.417285 0.227745
O O13 0.582660 0.000000 0.500000
O O14 0.615490 0.996045 0.361223
O O15 0.127998 0.372342 0.734568
O O16 0.000000 0.500000 0.770174
#
# Coordination Sequence:
#
# PCOD8164090 Si02
#       8
#     2   8   8   8   8   8   8   8
#     4   8  16  28  48  84 116 154 186 242 308 354
#     4  11  23  41  58  94 129 161 204 267 329 368
#     4   9  17  33  57  89 116 153 208 260 291 369
#     4  11  23  36  64  92 126 162 210 267 310 383
#     4  11  21  41  66  87 118 171 217 257 312 386
#     4   9  18  31  55  87 121 149 202 245 308 364
#     4  11  21  37  61  92 124 166 213 262 316 371
#     4  10  23  37  60  89 126 164 213 256 317 393
#
# _framework density 20.081126000000001
#
# number of rings (size 3 to 8) (size 9 to 14) (size 15 to 20)
#    0.000    1.931    4.138    1.655    2.897    3.586 
#    0.000    1.379    0.000    2.483    0.000    2.897 
#    0.000    0.000    0.000    0.000    0.000    0.000 
#
# Total GULP energy -359399.437353 kJ/mol
# GULP energy per Si atom -12393.084047 kJ/mol
# Density = 2.003542 g / cm^3
# Si number density = 20.081126 Si / 1000 Ang^3
#
#
#
# Elastic Constant Matrix: (Units=GPa)
#
#
# Indices 1 2 3 4 5 6 
#
# 1 122.7091 32.5481 62.3853 0.0000 0.0000 0.0000
# 2 32.5481 85.0530 47.1207 0.0000 0.0000 0.0000
# 3 62.3853 47.1207 149.3927 0.0000 0.0000 0.0000
# 4 0.0000 0.0000 0.0000 30.5004 0.0000 0.0000
# 5 0.0000 0.0000 0.0000 0.0000 26.5639 0.0000
# 6 0.0000 0.0000 0.0000 0.0000 0.0000 21.3916
#
#
#
# Elastic Compliance Matrix: (Units=1/GPa)
#
#
# Indices 1 2 3 4 5 6 
#
# 1 0.010605 -0.001945 -0.003815 0.000000 0.000000 0.000000
# 2 -0.001945 0.014604 -0.003794 0.000000 0.000000 0.000000
# 3 -0.003815 -0.003794 0.009484 0.000000 0.000000 0.000000
# 4 0.000000 0.000000 0.000000 0.032786 0.000000 0.000000
# 5 0.000000 0.000000 0.000000 0.000000 0.037645 0.000000
# 6 0.000000 0.000000 0.000000 0.000000 0.000000 0.046747
#
#
# Mechanical properties :
#
#
# Convention : Reuss Voigt Hill
#
# Bulk Modulus (GPa) = 64.16722 71.25143 67.70932
# Shear Modulus (GPa) = 28.38116 30.03124 29.20620
#
# Velocity S-wave (km/s) = 3.76350 3.87136 3.81781
# Velocity P-wave (km/s) = 7.13503 7.45265 7.29557
#
# Compressibility (1/GPa) = 0.01558428
#
# Stress axis : x y z
#
# Youngs Moduli (GPa) = 94.29734 68.47653 105.44461
#
# Poissons Ratio (x) = 0.13316 0.40228
# Poissons Ratio (y) = 0.18337 0.40007
# Poissons Ratio (z) = 0.35975 0.25981
#
# Static dielectric constant tensor:
#      x y z
#    x 3.887230 0.000000 0.000000 
#    y 0.000000 3.487490 0.000000 
#    z 0.000000 0.000000 4.647080 
# 
# 
# High freq. dielectric constant tensor:
#      x y z
#    x 1.800440 0.000000 0.000000 
#    y 0.000000 1.750790 0.000000 
#    z 0.000000 0.000000 1.787300 
# 
# From -- ./inp_files/25090.got.cif
#   From: 2010.03.12/outbox.cif.g09.slc.cpg/sg23_13_cif.got.tgz:25090.got - 2010.04.14 02:50:06.
