data_PCOD8164959
_publ_section_title
;
Structure prediction by ZEFSAII (Michael W. Deem and Ramdas Pophale) SiO2 
 PCOD8164959
Probable space group: I 21 21 21
;
_chemical_formula_sum "Si O2"
_cell_formula_units_Z 64
_cell_length_a 15.564232
_cell_length_b 21.802129
_cell_length_c 9.194454
_cell_angle_alpha 90.000000
_cell_angle_beta 90.000000
_cell_angle_gamma 90.000000
_cell_volume 3119.985280
_symmetry_space_group_name_H-M "I 21 21 21"
_symmetry_group_IT_number 24
_symmetry_cell_setting 'orthorhombic'
loop_
_space_group_symop_operation_xyz
x,y,z
-x,1/2-y,z
x,-y,1/2-z
1/2-x,y,-z
1/2+x,1/2+y,1/2+z
1/2-x,-y,1/2+z
1/2+x,1/2-y,-z
-x,1/2+y,1/2-z
loop_
_atom_site_type_symbol
_atom_site_label
_atom_site_fract_x
_atom_site_fract_y
_atom_site_fract_z
Si Si1 0.440988 0.070292 0.715061
Si Si2 0.334435 0.785952 0.296763
Si Si3 0.093386 0.336728 0.924276
Si Si4 0.713887 0.058533 0.161869
Si Si5 0.874415 0.125353 0.239488
Si Si6 0.356875 0.245841 0.713906
Si Si7 0.350070 0.854468 0.012754
Si Si8 0.409512 0.836932 0.551403
O O1 0.541589 0.084962 0.734171
O O2 0.406066 0.088535 0.553464
O O3 0.388911 0.107210 0.839331
O O4 0.424329 0.000000 0.750000
O O5 0.393236 0.726697 0.336708
O O6 0.242362 0.761115 0.255454
O O7 0.330075 0.828098 0.441366
O O8 0.373612 0.832389 0.175163
O O9 0.135178 0.393468 0.836063
O O10 0.137531 0.340573 0.082888
O O11 0.992525 0.347254 0.950327
O O12 0.792005 0.083082 0.262504
O O13 0.678596 0.000000 0.250000
O O14 0.750000 0.042843 0.000000
O O15 0.876010 0.185141 0.342753
O O16 0.377508 0.204675 0.577176
O O17 0.417864 0.224339 0.848047
O O18 0.250000 0.872509 0.000000
#
# Coordination Sequence:
#
# PCOD8164959 Si02
#       8
#     8   8   8   8   8   8   8   8
#     4  10  22  42  62  86 120 164 215 255 291 360
#     4  11  19  36  59  92 126 149 191 257 327 365
#     4  10  20  34  56  85 123 155 199 252 297 356
#     4  10  21  39  57  84 122 170 210 246 290 361
#     4  10  19  35  63  89 114 160 214 247 284 365
#     4  10  19  36  62  91 120 154 202 249 309 369
#     4   9  22  40  59  89 127 149 190 261 318 371
#     4  10  21  34  61  87 114 158 203 250 303 372
#
# _framework density 20.512917999999999
#
# number of rings (size 3 to 8) (size 9 to 14) (size 15 to 20)
#    0.000    2.000    2.500    1.125    1.750    1.500 
#    6.750    8.125    0.000    0.000    0.000    0.875 
#    0.000    0.000    0.000    0.000    0.000    0.000 
#
# Total GULP energy -396456.844741 kJ/mol
# GULP energy per Si atom -12389.276398 kJ/mol
# Density = 2.046623 g / cm^3
# Si number density = 20.512918 Si / 1000 Ang^3
#
#
#
# Elastic Constant Matrix: (Units=GPa)
#
#
# Indices 1 2 3 4 5 6 
#
# 1 39.3828 26.4944 24.0531 0.0000 0.0000 0.0000
# 2 26.4944 126.8025 39.5202 0.0000 0.0000 0.0000
# 3 24.0531 39.5202 73.8884 0.0000 0.0000 0.0000
# 4 0.0000 0.0000 0.0000 20.8511 0.0000 0.0000
# 5 0.0000 0.0000 0.0000 0.0000 28.9857 0.0000
# 6 0.0000 0.0000 0.0000 0.0000 0.0000 28.4090
#
#
#
# Elastic Compliance Matrix: (Units=1/GPa)
#
#
# Indices 1 2 3 4 5 6 
#
# 1 0.033563 -0.004329 -0.008610 0.000000 0.000000 0.000000
# 2 -0.004329 0.010022 -0.003951 0.000000 0.000000 0.000000
# 3 -0.008610 -0.003951 0.018450 0.000000 0.000000 0.000000
# 4 0.000000 0.000000 0.000000 0.047959 0.000000 0.000000
# 5 0.000000 0.000000 0.000000 0.000000 0.034500 0.000000
# 6 0.000000 0.000000 0.000000 0.000000 0.000000 0.035200
#
#
# Mechanical properties :
#
#
# Convention : Reuss Voigt Hill
#
# Bulk Modulus (GPa) = 35.39324 46.68990 41.04157
# Shear Modulus (GPa) = 22.43219 25.64958 24.04088
#
# Velocity S-wave (km/s) = 3.31050 3.53995 3.42714
# Velocity P-wave (km/s) = 5.64837 6.28641 5.97591
#
# Compressibility (1/GPa) = 0.02825398
#
# Stress axis : x y z
#
# Youngs Moduli (GPa) = 29.79475 99.77742 54.19976
#
# Poissons Ratio (x) = 0.43195 0.46668
# Poissons Ratio (y) = 0.12899 0.21416
# Poissons Ratio (z) = 0.25654 0.39425
#
# Static dielectric constant tensor:
#      x y z
#    x 3.577400 0.000000 0.000000 
#    y 0.000000 3.709810 0.000000 
#    z 0.000000 0.000000 3.856280 
# 
# 
# High freq. dielectric constant tensor:
#      x y z
#    x 1.794830 0.000000 0.000000 
#    y 0.000000 1.792500 0.000000 
#    z 0.000000 0.000000 1.787900 
# 
# From -- ./inp_files/14589.got.cif
#   From: 2010.03.12/outbox.cif.g09.slc.cpg/sg24_8_cif.got.tgz:14589.got - 2010.04.14 03:06:53.
