data_PCOD8164990
_publ_section_title
;
Structure prediction by ZEFSAII (Michael W. Deem and Ramdas Pophale) SiO2 
 PCOD8164990
Probable space group: I 21 21 21
;
_chemical_formula_sum "Si O2"
_cell_formula_units_Z 52
_cell_length_a 24.811263
_cell_length_b 8.402610
_cell_length_c 12.604594
_cell_angle_alpha 90.000000
_cell_angle_beta 90.000000
_cell_angle_gamma 90.000000
_cell_volume 2627.797773
_symmetry_space_group_name_H-M "I 21 21 21"
_symmetry_group_IT_number 24
_symmetry_cell_setting 'orthorhombic'
loop_
_space_group_symop_operation_xyz
x,y,z
-x,1/2-y,z
x,-y,1/2-z
1/2-x,y,-z
1/2+x,1/2+y,1/2+z
1/2-x,-y,1/2+z
1/2+x,1/2-y,-z
-x,1/2+y,1/2-z
loop_
_atom_site_type_symbol
_atom_site_label
_atom_site_fract_x
_atom_site_fract_y
_atom_site_fract_z
Si Si1 0.422910 0.500000 0.250000
Si Si2 0.692817 0.360752 0.123563
Si Si3 0.269402 0.810827 0.150813
Si Si4 0.579629 0.499833 0.375839
Si Si5 0.750000 0.889193 0.500000
Si Si6 0.000000 0.750000 0.651499
Si Si7 0.872782 0.176588 0.560689
Si Si8 0.676294 0.086299 0.643740
O O1 0.457546 0.657996 0.273458
O O2 0.386966 0.538966 0.145643
O O3 0.735793 0.505760 0.112638
O O4 0.693825 0.299725 0.244075
O O5 0.634092 0.416151 0.092372
O O6 0.702453 0.218709 0.044130
O O7 0.308306 0.717664 0.068109
O O8 0.208490 0.750188 0.169954
O O9 0.570318 0.500000 0.250000
O O10 0.530458 0.612573 0.419432
O O11 0.584526 0.322483 0.425723
O O12 0.725030 0.983704 0.596924
O O13 0.873767 0.111620 0.438521
O O14 0.653873 0.000000 0.750000
#
# Coordination Sequence:
#
# PCOD8164990 Si02
#       8
#     4   8   8   8   4   4   8   8
#     4  12  22  36  62  90 126 146 192 248 336 374
#     4  10  21  35  56  82 119 164 198 244 298 360
#     4  10  19  37  52  77 118 160 203 243 294 353
#     4  11  20  38  56  88 125 160 193 243 318 382
#     4  12  24  32  58  84 116 164 222 252 288 338
#     4  12  22  36  60  96 128 144 188 260 312 416
#     4  11  23  36  57  81 121 171 194 250 312 370
#     4  12  25  37  52  84 124 169 220 255 287 357
#
# _framework density 19.788433000000001
#
# number of rings (size 3 to 8) (size 9 to 14) (size 15 to 20)
#    0.000    0.923    8.462    0.000    9.692    0.000 
#    0.000    0.000    0.000    0.000    0.000    3.231 
#    0.000    0.000    0.000    0.000    0.000    0.000 
#
# Total GULP energy -322144.428137 kJ/mol
# GULP energy per Si atom -12390.170313 kJ/mol
# Density = 1.974339 g / cm^3
# Si number density = 19.788433 Si / 1000 Ang^3
#
#
#
# Elastic Constant Matrix: (Units=GPa)
#
#
# Indices 1 2 3 4 5 6 
#
# 1 54.2772 38.6663 25.1608 0.0000 0.0000 0.0000
# 2 38.6663 87.4117 40.0895 0.0000 0.0000 0.0000
# 3 25.1608 40.0895 97.6458 0.0000 0.0000 0.0000
# 4 0.0000 0.0000 0.0000 21.2720 0.0000 0.0000
# 5 0.0000 0.0000 0.0000 0.0000 16.4555 0.0000
# 6 0.0000 0.0000 0.0000 0.0000 0.0000 36.4035
#
#
#
# Elastic Compliance Matrix: (Units=1/GPa)
#
#
# Indices 1 2 3 4 5 6 
#
# 1 0.027414 -0.010948 -0.002569 0.000000 0.000000 0.000000
# 2 -0.010948 0.018466 -0.004760 0.000000 0.000000 0.000000
# 3 -0.002569 -0.004760 0.012857 0.000000 0.000000 0.000000
# 4 0.000000 0.000000 0.000000 0.047010 0.000000 0.000000
# 5 0.000000 0.000000 0.000000 0.000000 0.060770 0.000000
# 6 0.000000 0.000000 0.000000 0.000000 0.000000 0.027470
#
#
# Mechanical properties :
#
#
# Convention : Reuss Voigt Hill
#
# Bulk Modulus (GPa) = 45.08054 49.68532 47.38293
# Shear Modulus (GPa) = 21.01388 23.85408 22.43398
#
# Velocity S-wave (km/s) = 3.26226 3.47573 3.37069
# Velocity P-wave (km/s) = 6.08445 6.42421 6.25663
#
# Compressibility (1/GPa) = 0.02218252
#
# Stress axis : x y z
#
# Youngs Moduli (GPa) = 36.47728 54.15236 77.77569
#
# Poissons Ratio (x) = 0.59288 0.19980
# Poissons Ratio (y) = 0.39937 0.37025
# Poissons Ratio (z) = 0.09371 0.25779
#
# Static dielectric constant tensor:
#      x y z
#    x 3.598500 0.000000 0.000000 
#    y 0.000000 4.025550 0.000000 
#    z 0.000000 0.000000 3.631450 
# 
# 
# High freq. dielectric constant tensor:
#      x y z
#    x 1.736580 0.000000 0.000000 
#    y 0.000000 1.797070 0.000000 
#    z 0.000000 0.000000 1.733110 
# 
# From -- ./inp_files/22950.got.cif
#   From: 2010.03.12/outbox.cif.g09.slc.cpg/sg24_12_cif.got.tgz:22950.got - 2010.04.14 03:06:53.
