data_PCOD8164277
_publ_section_title
;
Structure prediction by ZEFSAII (Michael W. Deem and Ramdas Pophale) SiO2 
 PCOD8164277
Probable space group: I 2 2 2
;
_chemical_formula_sum "Si O2"
_cell_formula_units_Z 64
_cell_length_a 12.717479
_cell_length_b 13.637826
_cell_length_c 17.837352
_cell_angle_alpha 90.000000
_cell_angle_beta 90.000000
_cell_angle_gamma 90.000000
_cell_volume 3093.688315
_symmetry_space_group_name_H-M "I 2 2 2"
_symmetry_group_IT_number 23
_symmetry_cell_setting 'orthorhombic'
loop_
_space_group_symop_operation_xyz
x,y,z
-x,-y,z
x,-y,-z
-x,y,-z
1/2+x,1/2+y,1/2+z
1/2-x,1/2-y,1/2+z
1/2+x,1/2-y,1/2-z
1/2-x,1/2+y,1/2-z
loop_
_atom_site_type_symbol
_atom_site_label
_atom_site_fract_x
_atom_site_fract_y
_atom_site_fract_z
Si Si1 0.720893 0.820627 0.163285
Si Si2 0.379896 0.766457 0.682884
Si Si3 0.016360 0.388722 0.080606
Si Si4 0.213305 0.782567 0.561756
Si Si5 0.747213 0.123189 0.411499
Si Si6 0.447587 0.597121 0.303117
Si Si7 0.379960 0.897638 0.975051
Si Si8 0.895799 0.048719 0.634919
O O1 0.681008 0.815476 0.247949
O O2 0.698146 0.712618 0.130927
O O3 0.843198 0.858393 0.155900
O O4 0.643494 0.889926 0.114221
O O5 0.438946 0.856015 0.645234
O O6 0.293935 0.735358 0.621182
O O7 0.460101 0.678639 0.703119
O O8 0.129219 0.374008 0.117393
O O9 0.000000 0.500000 0.062311
O O10 0.000000 0.332166 0.000000
O O11 0.258044 0.861766 0.501807
O O12 0.174716 0.690215 0.516977
O O13 0.120035 0.841413 0.603567
O O14 0.799163 0.020898 0.387468
O O15 0.500000 0.500000 0.343278
O O16 0.407297 0.558399 0.223554
O O17 0.500000 0.895719 0.000000
O O18 0.328616 0.000000 0.000000
O O19 0.000000 0.000000 0.599065
#
# Coordination Sequence:
#
# PCOD8164277 Si02
#       8
#     8   8   8   8   8   8   8   8
#     4  11  24  44  70  97 136 179 232 283 352 408
#     4  12  24  45  68 103 138 176 230 292 349 418
#     4  11  23  40  66  97 136 174 216 275 349 416
#     4  11  24  40  72 100 135 181 228 281 356 422
#     4  11  23  43  65  95 138 177 223 281 344 427
#     4  11  25  43  67 101 139 177 230 290 349 421
#     4  10  26  49  69  96 137 187 234 284 339 420
#     4  11  24  42  67 104 140 175 223 286 356 423
#
# _framework density 20.687280999999999
#
# number of rings (size 3 to 8) (size 9 to 14) (size 15 to 20)
#    0.000    1.000    3.750    2.625    8.750    0.500 
#    2.250    0.000    0.000    0.000    0.000    0.000 
#    0.000    0.000    0.000    0.000    0.000    0.000 
#
# Total GULP energy -396523.622780 kJ/mol
# GULP energy per Si atom -12391.363212 kJ/mol
# Density = 2.064020 g / cm^3
# Si number density = 20.687281 Si / 1000 Ang^3
#
#
#
# Elastic Constant Matrix: (Units=GPa)
#
#
# Indices 1 2 3 4 5 6 
#
# 1 105.8472 30.0481 35.9904 0.0000 0.0000 0.0000
# 2 30.0481 99.6256 36.0004 0.0000 0.0000 0.0000
# 3 35.9904 36.0004 109.2495 0.0000 0.0000 0.0000
# 4 0.0000 0.0000 0.0000 27.1288 0.0000 0.0000
# 5 0.0000 0.0000 0.0000 0.0000 33.9136 0.0000
# 6 0.0000 0.0000 0.0000 0.0000 0.0000 36.9847
#
#
#
# Elastic Compliance Matrix: (Units=1/GPa)
#
#
# Indices 1 2 3 4 5 6 
#
# 1 0.011084 -0.002297 -0.002894 0.000000 0.000000 0.000000
# 2 -0.002297 0.011870 -0.003155 0.000000 0.000000 0.000000
# 3 -0.002894 -0.003155 0.011146 0.000000 0.000000 0.000000
# 4 0.000000 0.000000 0.000000 0.036861 0.000000 0.000000
# 5 0.000000 0.000000 0.000000 0.000000 0.029487 0.000000
# 6 0.000000 0.000000 0.000000 0.000000 0.000000 0.027038
#
#
# Mechanical properties :
#
#
# Convention : Reuss Voigt Hill
#
# Bulk Modulus (GPa) = 57.44485 57.64446 57.54466
# Shear Modulus (GPa) = 33.33727 33.78431 33.56079
#
# Velocity S-wave (km/s) = 4.01869 4.04554 4.03214
# Velocity P-wave (km/s) = 7.02578 7.05316 7.03948
#
# Compressibility (1/GPa) = 0.01740800
#
# Stress axis : x y z
#
# Youngs Moduli (GPa) = 90.22136 84.24291 89.71435
#
# Poissons Ratio (x) = 0.19351 0.25967
# Poissons Ratio (y) = 0.20725 0.28304
# Poissons Ratio (z) = 0.26114 0.26578
#
# Static dielectric constant tensor:
#      x y z
#    x 4.617830 0.000000 0.000000 
#    y 0.000000 3.917200 0.000000 
#    z 0.000000 0.000000 3.845870 
# 
# 
# High freq. dielectric constant tensor:
#      x y z
#    x 1.817570 0.000000 0.000000 
#    y 0.000000 1.812210 0.000000 
#    z 0.000000 0.000000 1.808310 
# 
# From -- ./inp_files/24445.got.cif
#   From: 2010.03.12/outbox.cif.g09.slc.cpg/sg23_13_cif.got.tgz:24445.got - 2010.04.14 02:50:06.
