data_PCOD8164955
_publ_section_title
;
Structure prediction by ZEFSAII (Michael W. Deem and Ramdas Pophale) SiO2 
 PCOD8164955
Probable space group: I 21 21 21
;
_chemical_formula_sum "Si O2"
_cell_formula_units_Z 52
_cell_length_a 24.393727
_cell_length_b 5.956818
_cell_length_c 17.776322
_cell_angle_alpha 90.000000
_cell_angle_beta 90.000000
_cell_angle_gamma 90.000000
_cell_volume 2583.059433
_symmetry_space_group_name_H-M "I 21 21 21"
_symmetry_group_IT_number 24
_symmetry_cell_setting 'orthorhombic'
loop_
_space_group_symop_operation_xyz
x,y,z
-x,1/2-y,z
x,-y,1/2-z
1/2-x,y,-z
1/2+x,1/2+y,1/2+z
1/2-x,-y,1/2+z
1/2+x,1/2-y,-z
-x,1/2+y,1/2-z
loop_
_atom_site_type_symbol
_atom_site_label
_atom_site_fract_x
_atom_site_fract_y
_atom_site_fract_z
Si Si1 0.155880 0.514817 0.329873
Si Si2 0.945613 0.622747 0.678130
Si Si3 0.881984 0.400652 0.072038
Si Si4 0.187393 0.286394 0.478574
Si Si5 0.405390 0.565004 0.449371
Si Si6 0.938322 0.677586 0.186291
Si Si7 0.000000 0.250000 0.580562
O O1 0.189255 0.500000 0.250000
O O2 0.147068 0.767723 0.359338
O O3 0.187285 0.379623 0.393963
O O4 0.097873 0.400354 0.309795
O O5 0.915899 0.500000 0.750000
O O6 0.908314 0.805774 0.632108
O O7 0.961704 0.418092 0.625916
O O8 0.000000 0.750000 0.708093
O O9 0.836573 0.535237 0.023737
O O10 0.927888 0.566502 0.104818
O O11 0.914106 0.240750 0.015754
O O12 0.250000 0.276970 0.500000
O O13 0.152891 0.438910 0.538171
O O14 0.455827 0.396144 0.465161
O O15 0.921364 0.500000 0.250000
O O16 0.000000 0.750000 0.196034
#
# Coordination Sequence:
#
# PCOD8164955 Si02
#       7
#     8   8   8   8   8   8   4
#     4  10  20  40  65  89 119 163 213 258 316 373
#     4  10  19  35  61  90 126 170 212 249 309 384
#     4  10  22  41  58  89 123 168 211 262 310 373
#     4  10  23  43  66  91 123 164 218 271 324 377
#     4  10  22  40  61  94 124 171 210 261 314 381
#     4  11  22  36  54  87 131 170 207 250 303 369
#     4  10  20  38  58  90 132 160 210 244 310 380
#
# _framework density 20.131166
#
# number of rings (size 3 to 8) (size 9 to 14) (size 15 to 20)
#    0.000    1.846    2.308    1.385    0.000    2.462 
#   41.538    0.000    6.769    0.000    0.000    0.000 
#    0.000    0.000    0.000    0.000    0.000    0.000 
#
# Total GULP energy -322170.804764 kJ/mol
# GULP energy per Si atom -12391.184799 kJ/mol
# Density = 2.008535 g / cm^3
# Si number density = 20.131166 Si / 1000 Ang^3
#
#
#
# Elastic Constant Matrix: (Units=GPa)
#
#
# Indices 1 2 3 4 5 6 
#
# 1 99.1646 45.5916 54.0059 0.0000 0.0000 0.0000
# 2 45.5916 120.4432 50.5100 0.0000 0.0000 0.0000
# 3 54.0059 50.5100 116.1982 0.0000 0.0000 0.0000
# 4 0.0000 0.0000 0.0000 44.3758 0.0000 0.0000
# 5 0.0000 0.0000 0.0000 0.0000 18.1112 0.0000
# 6 0.0000 0.0000 0.0000 0.0000 0.0000 13.5108
#
#
#
# Elastic Compliance Matrix: (Units=1/GPa)
#
#
# Indices 1 2 3 4 5 6 
#
# 1 0.014472 -0.003250 -0.005314 0.000000 0.000000 0.000000
# 2 -0.003250 0.010883 -0.003220 0.000000 0.000000 0.000000
# 3 -0.005314 -0.003220 0.012476 0.000000 0.000000 0.000000
# 4 0.000000 0.000000 0.000000 0.022535 0.000000 0.000000
# 5 0.000000 0.000000 0.000000 0.000000 0.055214 0.000000
# 6 0.000000 0.000000 0.000000 0.000000 0.000000 0.074015
#
#
# Mechanical properties :
#
#
# Convention : Reuss Voigt Hill
#
# Bulk Modulus (GPa) = 70.11007 70.66900 70.38954
# Shear Modulus (GPa) = 22.94449 27.57948 25.26199
#
# Velocity S-wave (km/s) = 3.37968 3.70535 3.54626
# Velocity P-wave (km/s) = 7.08039 7.31346 7.19787
#
# Compressibility (1/GPa) = 0.01426329
#
# Stress axis : x y z
#
# Youngs Moduli (GPa) = 69.09782 91.88323 80.15700
#
# Poissons Ratio (x) = 0.29860 0.42593
# Poissons Ratio (y) = 0.22456 0.25814
# Poissons Ratio (z) = 0.36716 0.29590
#
# Static dielectric constant tensor:
#      x y z
#    x 3.150630 0.000000 0.000000 
#    y 0.000000 4.212260 0.000000 
#    z 0.000000 0.000000 3.897510 
# 
# 
# High freq. dielectric constant tensor:
#      x y z
#    x 1.728770 0.000000 0.000000 
#    y 0.000000 1.815300 0.000000 
#    z 0.000000 0.000000 1.792220 
# 
# From -- ./inp_files/31642.got.cif
#   From: 2010.03.12/outbox.cif.g09.slc.cpg/sg24_16_cif.got.tgz:31642.got - 2010.04.14 03:06:53.
