data_PCOD8164180
_publ_section_title
;
Structure prediction by ZEFSAII (Michael W. Deem and Ramdas Pophale) SiO2 
 PCOD8164180
Probable space group: I 2 2 2
;
_chemical_formula_sum "Si O2"
_cell_formula_units_Z 64
_cell_length_a 12.860795
_cell_length_b 18.298907
_cell_length_c 14.075493
_cell_angle_alpha 90.000000
_cell_angle_beta 90.000000
_cell_angle_gamma 90.000000
_cell_volume 3312.505292
_symmetry_space_group_name_H-M "I 2 2 2"
_symmetry_group_IT_number 23
_symmetry_cell_setting 'orthorhombic'
loop_
_space_group_symop_operation_xyz
x,y,z
-x,-y,z
x,-y,-z
-x,y,-z
1/2+x,1/2+y,1/2+z
1/2-x,1/2-y,1/2+z
1/2+x,1/2-y,1/2-z
1/2-x,1/2+y,1/2-z
loop_
_atom_site_type_symbol
_atom_site_label
_atom_site_fract_x
_atom_site_fract_y
_atom_site_fract_z
Si Si1 0.294958 0.430742 0.114814
Si Si2 0.222970 0.414776 0.914598
Si Si3 0.161705 0.365079 0.272055
Si Si4 0.682176 0.171057 0.860797
Si Si5 0.955031 0.810852 0.603379
Si Si6 0.880845 0.418408 0.524248
Si Si7 0.541901 0.079257 0.721805
Si Si8 0.835405 0.800000 0.294578
O O1 0.301126 0.519039 0.117051
O O2 0.254992 0.402016 0.215314
O O3 0.405734 0.391972 0.096299
O O4 0.216943 0.409219 0.028530
O O5 0.106870 0.428334 0.875590
O O6 0.268322 0.339495 0.875363
O O7 0.139090 0.411887 0.364904
O O8 0.191738 0.284632 0.304153
O O9 0.057168 0.367335 0.207092
O O10 0.630334 0.251339 0.864715
O O11 0.612724 0.112568 0.804305
O O12 0.795885 0.175194 0.810379
O O13 0.693011 0.138160 0.966464
O O14 0.000000 0.788828 0.500000
O O15 0.043080 0.813753 0.685348
O O16 0.849114 0.500000 0.500000
O O17 0.000000 0.399372 0.500000
O O18 0.500000 0.000000 0.753743
#
# Coordination Sequence:
#
# PCOD8164180 Si02
#       8
#     8   8   8   8   8   8   8   8
#     4  11  24  41  62  91 124 166 209 257 312 376
#     4  10  24  41  60  90 131 164 209 258 314 375
#     4  12  22  37  63  95 126 159 207 254 315 380
#     4  11  22  37  61  94 125 161 201 257 313 370
#     4  12  22  41  65  90 124 164 211 261 309 368
#     4  11  22  35  61  93 124 157 197 253 314 370
#     4  11  20  36  63  89 129 161 203 254 320 381
#     4  11  23  39  63  90 126 162 202 256 310 369
#
# _framework density 19.320723999999998
#
# number of rings (size 3 to 8) (size 9 to 14) (size 15 to 20)
#    0.000    0.875    6.250    1.875    1.750    1.000 
#    0.000    0.000    0.000    0.750    0.000    0.875 
#    0.000    0.000    0.000    0.000    0.000    0.000 
#
# Total GULP energy -396751.366048 kJ/mol
# GULP energy per Si atom -12398.480189 kJ/mol
# Density = 1.927675 g / cm^3
# Si number density = 19.320724 Si / 1000 Ang^3
#
#
#
# Elastic Constant Matrix: (Units=GPa)
#
#
# Indices 1 2 3 4 5 6 
#
# 1 68.3014 31.8301 41.6118 0.0001 0.0000 0.0000
# 2 31.8301 116.3025 36.3762 0.0002 0.0000 0.0000
# 3 41.6118 36.3762 99.1276 0.0004 -0.0001 -0.0001
# 4 0.0001 0.0002 0.0004 26.9971 0.0000 0.0000
# 5 0.0000 0.0000 -0.0001 0.0000 32.5773 0.0000
# 6 0.0000 0.0000 -0.0001 0.0000 0.0000 24.1671
#
#
#
# Elastic Compliance Matrix: (Units=1/GPa)
#
#
# Indices 1 2 3 4 5 6 
#
# 1 0.020760 -0.003339 -0.007489 0.000000 0.000000 0.000000
# 2 -0.003339 0.010250 -0.002360 0.000000 0.000000 0.000000
# 3 -0.007489 -0.002360 0.014098 0.000000 0.000000 0.000000
# 4 0.000000 0.000000 0.000000 0.037041 0.000000 0.000000
# 5 0.000000 0.000000 0.000000 0.000000 0.030696 0.000000
# 6 0.000000 0.000000 0.000000 0.000000 0.000000 0.041378
#
#
# Mechanical properties :
#
#
# Convention : Reuss Voigt Hill
#
# Bulk Modulus (GPa) = 53.38587 55.92974 54.65780
# Shear Modulus (GPa) = 26.76034 28.34254 27.55144
#
# Velocity S-wave (km/s) = 3.72568 3.83423 3.78034
# Velocity P-wave (km/s) = 6.79698 6.97228 6.88519
#
# Compressibility (1/GPa) = 0.01873155
#
# Stress axis : x y z
#
# Youngs Moduli (GPa) = 48.16994 97.55903 70.93325
#
# Poissons Ratio (x) = 0.32577 0.53123
# Poissons Ratio (y) = 0.16085 0.16738
# Poissons Ratio (z) = 0.36075 0.23021
#
# Static dielectric constant tensor:
#      x y z
#    x 3.484500 0.000000 0.000000 
#    y 0.000000 3.699910 0.000000 
#    z 0.000000 0.000000 3.664900 
# 
# 
# High freq. dielectric constant tensor:
#      x y z
#    x 1.722060 0.000000 0.000000 
#    y 0.000000 1.767540 0.000000 
#    z 0.000000 0.000000 1.751890 
# 
# From -- ./inp_files/17566.got.cif
#   From: 2010.03.12/outbox.cif.g09.slc.cpg/sg23_9_cif.got.tgz:17566.got - 2010.04.14 02:50:06.
