data_PCOD8164023
_publ_section_title
;
Structure prediction by ZEFSAII (Michael W. Deem and Ramdas Pophale) SiO2 
 PCOD8164023
Probable space group: I 2 2 2
;
_chemical_formula_sum "Si O2"
_cell_formula_units_Z 34
_cell_length_a 14.020231
_cell_length_b 22.619671
_cell_length_c 5.018654
_cell_angle_alpha 90.000000
_cell_angle_beta 90.000000
_cell_angle_gamma 90.000000
_cell_volume 1591.580862
_symmetry_space_group_name_H-M "I 2 2 2"
_symmetry_group_IT_number 23
_symmetry_cell_setting 'orthorhombic'
loop_
_space_group_symop_operation_xyz
x,y,z
-x,-y,z
x,-y,-z
-x,y,-z
1/2+x,1/2+y,1/2+z
1/2-x,1/2-y,1/2+z
1/2+x,1/2-y,1/2-z
1/2-x,1/2+y,1/2-z
loop_
_atom_site_type_symbol
_atom_site_label
_atom_site_fract_x
_atom_site_fract_y
_atom_site_fract_z
Si Si1 0.587354 0.397130 0.190307
Si Si2 0.715313 0.069521 0.474710
Si Si3 0.500000 0.221716 0.000000
Si Si4 0.500000 0.302140 0.500000
Si Si5 0.500000 0.500000 0.500000
Si Si6 0.895461 0.608631 0.524290
O O1 0.588564 0.345476 0.416255
O O2 0.570612 0.461104 0.320857
O O3 0.500000 0.380205 0.000000
O O4 0.684215 0.398096 0.023938
O O5 0.682066 0.081740 0.174646
O O6 0.727101 0.000000 0.500000
O O7 0.638421 0.096647 0.676005
O O8 0.473263 0.260937 0.253366
O O9 0.592286 0.178856 0.039733
O O10 0.000000 0.577624 0.500000
#
# Coordination Sequence:
#
# PCOD8164023 Si02
#       6
#     8   8   4   4   2   8
#     4  11  25  42  68 106 141 181 226 275 350 424
#     4  12  25  41  71 105 141 176 224 280 348 425
#     4  10  22  48  71  91 132 186 228 302 332 388
#     4  11  22  43  78  92 135 182 233 282 352 396
#     4  10  22  40  68  94 154 190 206 286 350 410
#     4  10  25  45  70  95 139 180 233 284 343 398
#
# _framework density 21.362407999999999
#
# number of rings (size 3 to 8) (size 9 to 14) (size 15 to 20)
#    0.706    0.471    1.176    4.588    9.882    2.824 
#    0.000    4.706    0.000    0.000    0.000    0.000 
#    0.000    0.000    0.000    0.000    0.000    0.000 
#
# Total GULP energy -210757.609727 kJ/mol
# GULP energy per Si atom -12397.506455 kJ/mol
# Density = 2.131379 g / cm^3
# Si number density = 21.362408 Si / 1000 Ang^3
#
#
#
# Elastic Constant Matrix: (Units=GPa)
#
#
# Indices 1 2 3 4 5 6 
#
# 1 115.2912 22.5179 20.3837 0.0007 0.0006 -0.0001
# 2 22.5179 122.4346 32.4611 -0.0001 -0.0002 0.0002
# 3 20.3837 32.4611 98.2766 0.0093 0.0032 0.0005
# 4 0.0007 -0.0001 0.0093 46.1670 0.0001 0.0014
# 5 0.0006 -0.0002 0.0032 0.0001 43.5576 -0.0010
# 6 -0.0001 0.0002 0.0005 0.0014 -0.0010 22.4732
#
#
#
# Elastic Compliance Matrix: (Units=1/GPa)
#
#
# Indices 1 2 3 4 5 6 
#
# 1 0.009188 -0.001298 -0.001477 0.000000 0.000000 0.000000
# 2 -0.001298 0.009135 -0.002748 0.000001 0.000000 0.000000
# 3 -0.001477 -0.002748 0.011389 -0.000002 -0.000001 0.000000
# 4 0.000000 0.000001 -0.000002 0.021661 0.000000 -0.000001
# 5 0.000000 0.000000 -0.000001 0.000000 0.022958 0.000001
# 6 0.000000 0.000000 0.000000 -0.000001 0.000001 0.044498
#
#
# Mechanical properties :
#
#
# Convention : Reuss Voigt Hill
#
# Bulk Modulus (GPa) = 53.57285 54.08088 53.82686
# Shear Modulus (GPa) = 36.73836 39.81554 38.27695
#
# Velocity S-wave (km/s) = 4.15151 4.32187 4.23755
# Velocity P-wave (km/s) = 6.93632 7.09053 7.01385
#
# Compressibility (1/GPa) = 0.01866617
#
# Stress axis : x y z
#
# Youngs Moduli (GPa) = 108.83288 109.46912 87.80113
#
# Poissons Ratio (x) = 0.14213 0.12968
# Poissons Ratio (y) = 0.14130 0.24128
# Poissons Ratio (z) = 0.16074 0.30082
#
# Static dielectric constant tensor:
#      x y z
#    x 3.617070 0.000000 0.000010 
#    y 0.000000 3.953940 -0.000010 
#    z 0.000010 -0.000010 3.933430 
# 
# 
# High freq. dielectric constant tensor:
#      x y z
#    x 1.814610 0.000000 0.000000 
#    y 0.000000 1.845130 0.000000 
#    z 0.000000 0.000000 1.856140 
# 
# From -- ./inp_files/1626.got.cif
#   From: 2010.03.12/outbox.cif.g09.slc.cpg/sg23_1_cif.got.tgz:1626.got - 2010.04.14 02:50:06.
