data_PCOD8164911
_publ_section_title
;
Structure prediction by ZEFSAII (Michael W. Deem and Ramdas Pophale) SiO2 
 PCOD8164911
Probable space group: I 21 21 21
;
_chemical_formula_sum "Si O2"
_cell_formula_units_Z 40
_cell_length_a 7.560224
_cell_length_b 15.414281
_cell_length_c 16.417850
_cell_angle_alpha 90.000000
_cell_angle_beta 90.000000
_cell_angle_gamma 90.000000
_cell_volume 1913.260999
_symmetry_space_group_name_H-M "I 21 21 21"
_symmetry_group_IT_number 24
_symmetry_cell_setting 'orthorhombic'
loop_
_space_group_symop_operation_xyz
x,y,z
-x,1/2-y,z
x,-y,1/2-z
1/2-x,y,-z
1/2+x,1/2+y,1/2+z
1/2-x,-y,1/2+z
1/2+x,1/2-y,-z
-x,1/2+y,1/2-z
loop_
_atom_site_type_symbol
_atom_site_label
_atom_site_fract_x
_atom_site_fract_y
_atom_site_fract_z
Si Si1 0.168035 0.835463 0.837196
Si Si2 0.696637 0.162288 0.408980
Si Si3 0.298988 0.998334 0.591725
Si Si4 0.194562 0.471622 0.092914
Si Si5 0.507344 0.417857 0.192059
O O1 0.260398 0.741540 0.849900
O O2 0.304236 0.914218 0.852547
O O3 0.071095 0.837566 0.748273
O O4 0.015649 0.846418 0.905784
O O5 0.750000 0.185438 0.500000
O O6 0.778652 0.071562 0.379196
O O7 0.250000 0.024094 0.500000
O O8 0.487458 0.950382 0.601617
O O9 0.151589 0.930821 0.621461
O O10 0.313635 0.407855 0.149789
O O11 0.250000 0.459227 0.000000
O O12 0.502378 0.500000 0.250000
#
# Coordination Sequence:
#
# PCOD8164911 Si02
#       5
#     8   8   8   8   8
#     4  10  21  36  52  80 128 153 188 244 296 350
#     4  10  19  34  57  83 115 159 187 223 293 361
#     4  11  19  33  57  80 111 154 196 245 292 348
#     4  11  20  34  60  85 114 150 200 243 291 359
#     4  10  20  37  51  81 120 149 197 244 298 342
#
# _framework density 20.906714000000001
#
# number of rings (size 3 to 8) (size 9 to 14) (size 15 to 20)
#    0.000    1.600    6.000    1.800    0.000    6.400 
#    0.000    0.000    0.000    0.000    0.000    5.600 
#    0.000    0.000    0.000    0.000    0.000    0.000 
#
# Total GULP energy -247856.396464 kJ/mol
# GULP energy per Si atom -12392.819823 kJ/mol
# Density = 2.085913 g / cm^3
# Si number density = 20.906714 Si / 1000 Ang^3
#
#
#
# Elastic Constant Matrix: (Units=GPa)
#
#
# Indices 1 2 3 4 5 6 
#
# 1 125.6923 1.0006 43.2351 0.0000 0.0000 0.0000
# 2 1.0006 42.0072 36.6183 0.0000 0.0000 0.0000
# 3 43.2351 36.6183 109.6994 0.0000 0.0000 0.0000
# 4 0.0000 0.0000 0.0000 25.5717 0.0000 0.0000
# 5 0.0000 0.0000 0.0000 0.0000 42.0613 0.0000
# 6 0.0000 0.0000 0.0000 0.0000 0.0000 20.0412
#
#
#
# Elastic Compliance Matrix: (Units=1/GPa)
#
#
# Indices 1 2 3 4 5 6 
#
# 1 0.009747 0.004396 -0.005309 0.000000 0.000000 0.000000
# 2 0.004396 0.035558 -0.013602 0.000000 0.000000 0.000000
# 3 -0.005309 -0.013602 0.015749 0.000000 0.000000 0.000000
# 4 0.000000 0.000000 0.000000 0.039106 0.000000 0.000000
# 5 0.000000 0.000000 0.000000 0.000000 0.023775 0.000000
# 6 0.000000 0.000000 0.000000 0.000000 0.000000 0.049897
#
#
# Mechanical properties :
#
#
# Convention : Reuss Voigt Hill
#
# Bulk Modulus (GPa) = 31.22731 48.78966 40.00849
# Shear Modulus (GPa) = 23.41532 30.63782 27.02657
#
# Velocity S-wave (km/s) = 3.35026 3.83228 3.59935
# Velocity P-wave (km/s) = 5.47125 6.55510 6.03754
#
# Compressibility (1/GPa) = 0.03202325
#
# Stress axis : x y z
#
# Youngs Moduli (GPa) = 102.59510 28.12335 63.49811
#
# Poissons Ratio (x) = -0.12362 0.33710
# Poissons Ratio (y) = -0.45097 0.86369
# Poissons Ratio (z) = 0.54466 0.38253
#
# Static dielectric constant tensor:
#      x y z
#    x 3.915090 0.000000 0.000000 
#    y 0.000000 3.648990 0.000000 
#    z 0.000000 0.000000 4.108200 
# 
# 
# High freq. dielectric constant tensor:
#      x y z
#    x 1.816680 0.000000 0.000000 
#    y 0.000000 1.769510 0.000000 
#    z 0.000000 0.000000 1.815790 
# 
# From -- ./inp_files/24637.got.cif
#   From: 2010.03.12/outbox.cif.g09.slc.cpg/sg24_13_cif.got.tgz:24637.got - 2010.04.14 03:06:53.
