data_PCOD8164758
_publ_section_title
;
Structure prediction by ZEFSAII (Michael W. Deem and Ramdas Pophale) SiO2 
 PCOD8164758
Probable space group: I 21 21 21
;
_chemical_formula_sum "Si O2"
_cell_formula_units_Z 60
_cell_length_a 11.243379
_cell_length_b 12.175771
_cell_length_c 22.312343
_cell_angle_alpha 90.000000
_cell_angle_beta 90.000000
_cell_angle_gamma 90.000000
_cell_volume 3054.488535
_symmetry_space_group_name_H-M "I 21 21 21"
_symmetry_group_IT_number 24
_symmetry_cell_setting 'orthorhombic'
loop_
_space_group_symop_operation_xyz
x,y,z
-x,1/2-y,z
x,-y,1/2-z
1/2-x,y,-z
1/2+x,1/2+y,1/2+z
1/2-x,-y,1/2+z
1/2+x,1/2-y,-z
-x,1/2+y,1/2-z
loop_
_atom_site_type_symbol
_atom_site_label
_atom_site_fract_x
_atom_site_fract_y
_atom_site_fract_z
Si Si1 0.677818 0.098400 0.914991
Si Si2 0.861399 0.265239 0.280660
Si Si3 0.500000 0.250000 0.106673
Si Si4 0.248228 0.206688 0.153287
Si Si5 0.496194 0.379569 0.381931
Si Si6 0.759485 0.052623 0.684754
Si Si7 0.225542 0.032438 0.683160
Si Si8 0.567719 0.053340 0.031351
O O1 0.673195 0.228649 0.897892
O O2 0.797999 0.070126 0.948878
O O3 0.677166 0.029167 0.853911
O O4 0.566987 0.067065 0.958721
O O5 0.795361 0.256911 0.217810
O O6 0.809822 0.167000 0.319937
O O7 0.834974 0.381742 0.313019
O O8 0.000000 0.250000 0.270868
O O9 0.385029 0.248270 0.149451
O O10 0.487498 0.144533 0.063872
O O11 0.233022 0.075426 0.146121
O O12 0.500000 0.250000 0.390870
O O13 0.390863 0.426966 0.340886
O O14 0.617984 0.411562 0.350729
O O15 0.482843 0.434721 0.447969
O O16 0.771388 0.000000 0.750000
O O17 0.183265 0.000000 0.750000
#
# Coordination Sequence:
#
# PCOD8164758 Si02
#       8
#     8   8   4   8   8   8   8   8
#     4   9  19  37  58  86 119 164 199 248 305 377
#     4  11  24  40  56  84 125 173 212 251 305 385
#     4  10  18  34  66  92 122 152 196 268 324 372
#     4  10  20  37  62  89 125 162 202 255 322 375
#     4  11  20  35  62  96 127 159 200 264 333 382
#     4  11  21  36  60  91 125 161 213 257 307 390
#     4  10  21  37  58  92 132 164 202 261 321 384
#     4   9  19  35  57  90 122 155 201 251 314 377
#
# _framework density 19.643222999999999
#
# number of rings (size 3 to 8) (size 9 to 14) (size 15 to 20)
#    0.000    1.867    4.000    0.400    0.000    3.733 
#    1.200    0.667    0.000    0.000    0.000    0.000 
#    0.000    0.000    0.000    0.000    0.000    0.000 
#
# Total GULP energy -371863.925527 kJ/mol
# GULP energy per Si atom -12395.464184 kJ/mol
# Density = 1.959851 g / cm^3
# Si number density = 19.643223 Si / 1000 Ang^3
#
#
#
# Elastic Constant Matrix: (Units=GPa)
#
#
# Indices 1 2 3 4 5 6 
#
# 1 82.9603 44.9224 50.6846 0.0000 0.0000 0.0000
# 2 44.9224 178.8141 71.0037 0.0000 0.0000 0.0000
# 3 50.6846 71.0037 106.3672 0.0000 0.0000 0.0000
# 4 0.0000 0.0000 0.0000 22.9331 0.0000 0.0000
# 5 0.0000 0.0000 0.0000 0.0000 10.1316 0.0000
# 6 0.0000 0.0000 0.0000 0.0000 0.0000 18.9643
#
#
#
# Elastic Compliance Matrix: (Units=1/GPa)
#
#
# Indices 1 2 3 4 5 6 
#
# 1 0.017279 -0.001458 -0.007260 0.000000 0.000000 0.000000
# 2 -0.001458 0.007732 -0.004467 0.000000 0.000000 0.000000
# 3 -0.007260 -0.004467 0.015843 0.000000 0.000000 0.000000
# 4 0.000000 0.000000 0.000000 0.043605 0.000000 0.000000
# 5 0.000000 0.000000 0.000000 0.000000 0.098701 0.000000
# 6 0.000000 0.000000 0.000000 0.000000 0.000000 0.052731
#
#
# Mechanical properties :
#
#
# Convention : Reuss Voigt Hill
#
# Bulk Modulus (GPa) = 69.04235 77.92923 73.48579
# Shear Modulus (GPa) = 18.72030 23.84119 21.28075
#
# Velocity S-wave (km/s) = 3.09044 3.48761 3.29502
# Velocity P-wave (km/s) = 6.92524 7.48174 7.20886
#
# Compressibility (1/GPa) = 0.01448386
#
# Stress axis : x y z
#
# Youngs Moduli (GPa) = 57.87312 129.32588 63.12009
#
# Poissons Ratio (x) = 0.18856 0.45828
# Poissons Ratio (y) = 0.08438 0.28195
# Poissons Ratio (z) = 0.42018 0.57769
#
# Static dielectric constant tensor:
#      x y z
#    x 3.366040 0.000000 0.000000 
#    y 0.000000 3.981420 0.000000 
#    z 0.000000 0.000000 3.766250 
# 
# 
# High freq. dielectric constant tensor:
#      x y z
#    x 1.743200 0.000000 0.000000 
#    y 0.000000 1.782540 0.000000 
#    z 0.000000 0.000000 1.750680 
# 
# From -- ./inp_files/33432.got.cif
#   From: 2010.03.12/outbox.cif.g09.slc.cpg/sg24_17_cif.got.tgz:33432.got - 2010.04.14 03:06:53.
