data_PCOD8164152
_publ_section_title
;
Structure prediction by ZEFSAII (Michael W. Deem and Ramdas Pophale) SiO2 
 PCOD8164152
Probable space group: I 2 2 2
;
_chemical_formula_sum "Si O2"
_cell_formula_units_Z 40
_cell_length_a 5.525715
_cell_length_b 15.730956
_cell_length_c 19.950521
_cell_angle_alpha 90.000000
_cell_angle_beta 90.000000
_cell_angle_gamma 90.000000
_cell_volume 1734.194640
_symmetry_space_group_name_H-M "I 2 2 2"
_symmetry_group_IT_number 23
_symmetry_cell_setting 'orthorhombic'
loop_
_space_group_symop_operation_xyz
x,y,z
-x,-y,z
x,-y,-z
-x,y,-z
1/2+x,1/2+y,1/2+z
1/2-x,1/2-y,1/2+z
1/2+x,1/2-y,1/2-z
1/2-x,1/2+y,1/2-z
loop_
_atom_site_type_symbol
_atom_site_label
_atom_site_fract_x
_atom_site_fract_y
_atom_site_fract_z
Si Si1 0.347380 0.081342 0.601910
Si Si2 0.500000 0.500000 0.500000
Si Si3 0.000000 0.707573 0.000000
Si Si4 0.800251 0.644085 0.548631
Si Si5 0.334413 0.646937 0.762440
Si Si6 0.661508 0.839259 0.203424
Si Si7 0.500000 0.500000 0.000000
O O1 0.527404 0.151860 0.568790
O O2 0.180201 0.114221 0.661756
O O3 0.164803 0.061875 0.542611
O O4 0.500000 0.000000 0.625678
O O5 0.622367 0.564028 0.553062
O O6 0.225440 0.770562 0.991145
O O7 0.864334 0.669724 0.623939
O O8 0.000000 0.604673 0.500000
O O9 0.336745 0.748542 0.760188
O O10 0.586145 0.614251 0.727191
O O11 0.086591 0.613162 0.726516
#
# Coordination Sequence:
#
# PCOD8164152 Si02
#       7
#     8   2   4   8   8   8   2
#     4  12  25  44  64 104 147 189 237 290 358 418
#     4  10  26  48  64 102 142 160 228 298 366 410
#     4  11  23  41  69 108 134 178 241 293 355 421
#     4  11  25  44  77 103 134 181 231 304 359 429
#     4  10  24  44  68 100 142 186 234 291 341 435
#     4  10  23  44  72 101 136 183 239 290 353 417
#     4  12  26  40  70  94 152 194 228 304 350 416
#
# _framework density 23.065462
#
# number of rings (size 3 to 8) (size 9 to 14) (size 15 to 20)
#    0.000    1.200    4.000    0.300    9.800    1.600 
#    3.600    0.000    0.000    0.000    0.000    0.000 
#    0.000    0.000    0.000    0.000    0.000    0.000 
#
# Total GULP energy -247784.695982 kJ/mol
# GULP energy per Si atom -12389.234799 kJ/mol
# Density = 2.301296 g / cm^3
# Si number density = 23.065462 Si / 1000 Ang^3
#
#
#
# Elastic Constant Matrix: (Units=GPa)
#
#
# Indices 1 2 3 4 5 6 
#
# 1 156.1509 16.8468 70.0579 0.0000 0.0000 0.0000
# 2 16.8468 74.9580 12.1891 0.0000 0.0000 0.0000
# 3 70.0579 12.1891 146.6159 0.0000 0.0000 0.0000
# 4 0.0000 0.0000 0.0000 28.2531 0.0000 0.0000
# 5 0.0000 0.0000 0.0000 0.0000 -16.8953 0.0000
# 6 0.0000 0.0000 0.0000 0.0000 0.0000 -18.0012
#
#
#
# Elastic Compliance Matrix: (Units=1/GPa)
#
#
# Indices 1 2 3 4 5 6 
#
# 1 0.008262 -0.001232 -0.003846 0.000000 0.000000 0.000000
# 2 -0.001232 0.013707 -0.000551 0.000000 0.000000 0.000000
# 3 -0.003846 -0.000551 0.008704 0.000000 0.000000 0.000000
# 4 0.000000 0.000000 0.000000 0.035394 0.000000 0.000000
# 5 0.000000 0.000000 0.000000 0.000000 -0.059188 0.000000
# 6 0.000000 0.000000 0.000000 0.000000 0.000000 -0.055552
#
#
# Mechanical properties :
#
#
# Convention : Reuss Voigt Hill
#
# Bulk Modulus (GPa) = 51.50162 63.99027 57.74595
# Shear Modulus (GPa) = -161.58583 17.24672 -72.16955
#
# Velocity S-wave (km/s) = -8.37899 2.73743 -5.59973
# Velocity P-wave (km/s) = 8.43996 6.14772 4.08891
#
# Compressibility (1/GPa) = 0.01941686
#
# Stress axis : x y z
#
# Youngs Moduli (GPa) = 121.03188 72.95431 114.89089
#
# Poissons Ratio (x) = 0.08985 0.44182
# Poissons Ratio (y) = 0.14906 0.06331
# Poissons Ratio (z) = 0.46544 0.04020
#
# Static dielectric constant tensor:
#      x y z
#    x 4.555520 0.000000 0.000000 
#    y 0.000000 4.091010 0.000000 
#    z 0.000000 0.000000 3.925610 
# 
# 
# High freq. dielectric constant tensor:
#      x y z
#    x 1.914600 0.000000 0.000000 
#    y 0.000000 1.901630 0.000000 
#    z 0.000000 0.000000 1.907550 
# 
# From -- ./inp_files/23056.got.cif
#   From: 2010.03.12/outbox.cif.g09.slc.cpg/sg23_12_cif.got.tgz:23056.got - 2010.04.14 02:50:06.
