data_PCOD8164370
_publ_section_title
;
Structure prediction by ZEFSAII (Michael W. Deem and Ramdas Pophale) SiO2 
 PCOD8164370
Probable space group: I 2 2 2
;
_chemical_formula_sum "Si O2"
_cell_formula_units_Z 64
_cell_length_a 15.600041
_cell_length_b 17.639309
_cell_length_c 11.166582
_cell_angle_alpha 90.000000
_cell_angle_beta 90.000000
_cell_angle_gamma 90.000000
_cell_volume 3072.752406
_symmetry_space_group_name_H-M "I 2 2 2"
_symmetry_group_IT_number 23
_symmetry_cell_setting 'orthorhombic'
loop_
_space_group_symop_operation_xyz
x,y,z
-x,-y,z
x,-y,-z
-x,y,-z
1/2+x,1/2+y,1/2+z
1/2-x,1/2-y,1/2+z
1/2+x,1/2-y,1/2-z
1/2-x,1/2+y,1/2-z
loop_
_atom_site_type_symbol
_atom_site_label
_atom_site_fract_x
_atom_site_fract_y
_atom_site_fract_z
Si Si1 0.962199 0.654319 0.373180
Si Si2 0.734643 0.688212 0.619704
Si Si3 0.624570 0.690051 0.833223
Si Si4 0.375300 0.879427 0.720179
Si Si5 0.078790 0.962895 0.628508
Si Si6 0.759392 0.477005 0.817775
Si Si7 0.291476 0.077330 0.927210
Si Si8 0.717826 0.159188 0.496613
O O1 0.917495 0.728299 0.318738
O O2 0.892312 0.590941 0.405426
O O3 0.000000 0.679614 0.500000
O O4 0.027752 0.620819 0.272500
O O5 0.658074 0.660451 0.704266
O O6 0.824920 0.673786 0.686024
O O7 0.739844 0.643794 0.494618
O O8 0.710536 0.776823 0.603782
O O9 0.556780 0.626668 0.875523
O O10 0.700797 0.687345 0.928710
O O11 0.364952 0.844561 0.585838
O O12 0.338224 0.965303 0.709508
O O13 0.077476 0.000000 0.500000
O O14 0.173811 0.973361 0.679403
O O15 0.000000 0.000000 0.704144
O O16 0.747990 0.423836 0.702662
O O17 0.771702 0.424413 0.936024
O O18 0.281181 0.000000 0.000000
#
# Coordination Sequence:
#
# PCOD8164370 Si02
#       8
#     8   8   8   8   8   8   8   8
#     4  12  24  41  65 104 136 173 231 286 346 405
#     4  11  22  43  62  95 129 179 223 274 338 417
#     4  11  22  41  64  93 137 166 223 287 342 409
#     4  11  23  42  67  97 141 174 227 289 336 417
#     4  11  22  38  66 100 127 161 217 291 345 401
#     4  12  22  42  69 101 133 183 230 277 356 423
#     4  12  23  41  67  96 132 182 225 282 338 414
#     4  11  22  39  71  96 132 183 227 275 351 419
#
# _framework density 20.828233000000001
#
# number of rings (size 3 to 8) (size 9 to 14) (size 15 to 20)
#    0.000    0.625    7.500    1.125    3.500    2.750 
#    0.000    2.500    0.000    7.125    0.000    0.000 
#    0.000    0.000    0.000    0.000    0.000    0.000 
#
# Total GULP energy -396466.433713 kJ/mol
# GULP energy per Si atom -12389.576054 kJ/mol
# Density = 2.078083 g / cm^3
# Si number density = 20.828233 Si / 1000 Ang^3
#
#
#
# Elastic Constant Matrix: (Units=GPa)
#
#
# Indices 1 2 3 4 5 6 
#
# 1 77.7236 34.0334 30.0064 0.0000 0.0000 0.0000
# 2 34.0334 113.5567 30.7567 0.0000 0.0000 0.0000
# 3 30.0064 30.7567 90.2841 0.0000 0.0000 0.0000
# 4 0.0000 0.0000 0.0000 36.5369 0.0000 0.0000
# 5 0.0000 0.0000 0.0000 0.0000 20.1293 0.0000
# 6 0.0000 0.0000 0.0000 0.0000 0.0000 30.4464
#
#
#
# Elastic Compliance Matrix: (Units=1/GPa)
#
#
# Indices 1 2 3 4 5 6 
#
# 1 0.016064 -0.003711 -0.004075 0.000000 0.000000 0.000000
# 2 -0.003711 0.010559 -0.002364 0.000000 0.000000 0.000000
# 3 -0.004075 -0.002364 0.013236 0.000000 0.000000 0.000000
# 4 0.000000 0.000000 0.000000 0.027370 0.000000 0.000000
# 5 0.000000 0.000000 0.000000 0.000000 0.049679 0.000000
# 6 0.000000 0.000000 0.000000 0.000000 0.000000 0.032845
#
#
# Mechanical properties :
#
#
# Convention : Reuss Voigt Hill
#
# Bulk Modulus (GPa) = 51.12543 52.35080 51.73812
# Shear Modulus (GPa) = 28.31741 29.87371 29.09556
#
# Velocity S-wave (km/s) = 3.69123 3.79131 3.74161
# Velocity P-wave (km/s) = 6.53961 6.65992 6.60003
#
# Compressibility (1/GPa) = 0.01955974
#
# Stress axis : x y z
#
# Youngs Moduli (GPa) = 62.25046 94.71038 75.55353
#
# Poissons Ratio (x) = 0.35145 0.30787
# Poissons Ratio (y) = 0.23100 0.17858
# Poissons Ratio (z) = 0.25366 0.22386
#
# Static dielectric constant tensor:
#      x y z
#    x 4.965900 0.000000 0.000000 
#    y 0.000000 4.046560 0.000000 
#    z 0.000000 0.000000 3.971010 
# 
# 
# High freq. dielectric constant tensor:
#      x y z
#    x 1.789600 0.000000 0.000000 
#    y 0.000000 1.830570 0.000000 
#    z 0.000000 0.000000 1.822260 
# 
# From -- ./inp_files/16958.got.cif
#   From: 2010.03.12/outbox.cif.g09.slc.cpg/sg23_9_cif.got.tgz:16958.got - 2010.04.14 02:50:06.
