data_PCOD8164706
_publ_section_title
;
Structure prediction by ZEFSAII (Michael W. Deem and Ramdas Pophale) SiO2 
 PCOD8164706
Probable space group: I 21 21 21
;
_chemical_formula_sum "Si O2"
_cell_formula_units_Z 40
_cell_length_a 19.030171
_cell_length_b 11.621276
_cell_length_c 10.153012
_cell_angle_alpha 90.000000
_cell_angle_beta 90.000000
_cell_angle_gamma 90.000000
_cell_volume 2245.388044
_symmetry_space_group_name_H-M "I 21 21 21"
_symmetry_group_IT_number 24
_symmetry_cell_setting 'orthorhombic'
loop_
_space_group_symop_operation_xyz
x,y,z
-x,1/2-y,z
x,-y,1/2-z
1/2-x,y,-z
1/2+x,1/2+y,1/2+z
1/2-x,-y,1/2+z
1/2+x,1/2-y,-z
-x,1/2+y,1/2-z
loop_
_atom_site_type_symbol
_atom_site_label
_atom_site_fract_x
_atom_site_fract_y
_atom_site_fract_z
Si Si1 0.589361 0.684137 0.722904
Si Si2 0.250000 0.115544 0.500000
Si Si3 0.026855 0.564312 0.888634
Si Si4 0.096813 0.789856 0.978244
Si Si5 0.296034 0.000000 0.750000
Si Si6 0.446565 0.581340 0.636894
O O1 0.659488 0.611348 0.709817
O O2 0.527534 0.604611 0.670085
O O3 0.596857 0.799133 0.634579
O O4 0.571281 0.723970 0.871488
O O5 0.180719 0.193100 0.518716
O O6 0.249312 0.032532 0.625777
O O7 0.031530 0.500000 0.750000
O O8 0.076886 0.677082 0.893669
O O9 0.945905 0.601362 0.917410
O O10 0.057638 0.475668 0.994593
O O11 0.413710 0.500000 0.750000
#
# Coordination Sequence:
#
# PCOD8164706 Si02
#       6
#     8   4   8   8   4   8
#     4  10  18  31  59  82 108 139 198 231 276 332
#     4  10  22  38  62  76 116 152 194 234 292 350
#     4  11  22  35  56  88 122 147 188 240 304 353
#     4  10  20  38  57  82 116 157 187 240 299 345
#     4  10  20  38  52  84 108 148 184 240 280 342
#     4  11  16  31  57  83 105 144 182 234 272 337
#
# _framework density 17.814291999999998
#
# number of rings (size 3 to 8) (size 9 to 14) (size 15 to 20)
#    0.000    1.600    5.000    2.400    1.400    3.200 
#    3.600    0.000    8.800    0.000    0.000    0.000 
#    0.000    0.000    0.000    0.000    0.000    0.000 
#
# Total GULP energy -247932.648077 kJ/mol
# GULP energy per Si atom -12396.632404 kJ/mol
# Density = 1.777375 g / cm^3
# Si number density = 17.814292 Si / 1000 Ang^3
#
#
#
# Elastic Constant Matrix: (Units=GPa)
#
#
# Indices 1 2 3 4 5 6 
#
# 1 86.4761 31.5038 32.4102 0.0000 0.0000 0.0000
# 2 31.5038 112.5825 57.2371 0.0000 0.0000 0.0000
# 3 32.4102 57.2371 124.4315 0.0000 0.0000 0.0000
# 4 0.0000 0.0000 0.0000 37.4592 0.0000 0.0000
# 5 0.0000 0.0000 0.0000 0.0000 17.0095 0.0000
# 6 0.0000 0.0000 0.0000 0.0000 0.0000 14.6326
#
#
#
# Elastic Compliance Matrix: (Units=1/GPa)
#
#
# Indices 1 2 3 4 5 6 
#
# 1 0.013362 -0.002571 -0.002298 0.000000 0.000000 0.000000
# 2 -0.002571 0.012088 -0.004891 0.000000 0.000000 0.000000
# 3 -0.002298 -0.004891 0.010885 0.000000 0.000000 0.000000
# 4 0.000000 0.000000 0.000000 0.026696 0.000000 0.000000
# 5 0.000000 0.000000 0.000000 0.000000 0.058791 0.000000
# 6 0.000000 0.000000 0.000000 0.000000 0.000000 0.068341
#
#
# Mechanical properties :
#
#
# Convention : Reuss Voigt Hill
#
# Bulk Modulus (GPa) = 59.46752 62.86581 61.16667
# Shear Modulus (GPa) = 23.22497 27.30954 25.26725
#
# Velocity S-wave (km/s) = 3.61463 3.91962 3.77021
# Velocity P-wave (km/s) = 7.13268 7.47333 7.30499
#
# Compressibility (1/GPa) = 0.01681590
#
# Stress axis : x y z
#
# Youngs Moduli (GPa) = 74.84135 82.72476 91.87147
#
# Poissons Ratio (x) = 0.21267 0.21109
# Poissons Ratio (y) = 0.19240 0.44933
# Poissons Ratio (z) = 0.17196 0.40460
#
# Static dielectric constant tensor:
#      x y z
#    x 3.013390 0.000000 0.000000 
#    y 0.000000 3.451630 0.000000 
#    z 0.000000 0.000000 3.284100 
# 
# 
# High freq. dielectric constant tensor:
#      x y z
#    x 1.660100 0.000000 0.000000 
#    y 0.000000 1.702180 0.000000 
#    z 0.000000 0.000000 1.683850 
# 
# From -- ./inp_files/11048.got.cif
#   From: 2010.03.12/outbox.cif.g09.slc.cpg/sg24_6_cif.got.tgz:11048.got - 2010.04.14 03:06:53.
