data_PCOD8164170
_publ_section_title
;
Structure prediction by ZEFSAII (Michael W. Deem and Ramdas Pophale) SiO2 
 PCOD8164170
Probable space group: I 2 2 2
;
_chemical_formula_sum "Si O2"
_cell_formula_units_Z 44
_cell_length_a 8.227638
_cell_length_b 23.255660
_cell_length_c 12.176715
_cell_angle_alpha 90.000000
_cell_angle_beta 90.000000
_cell_angle_gamma 90.000000
_cell_volume 2329.882321
_symmetry_space_group_name_H-M "I 2 2 2"
_symmetry_group_IT_number 23
_symmetry_cell_setting 'orthorhombic'
loop_
_space_group_symop_operation_xyz
x,y,z
-x,-y,z
x,-y,-z
-x,y,-z
1/2+x,1/2+y,1/2+z
1/2-x,1/2-y,1/2+z
1/2+x,1/2-y,1/2-z
1/2-x,1/2+y,1/2-z
loop_
_atom_site_type_symbol
_atom_site_label
_atom_site_fract_x
_atom_site_fract_y
_atom_site_fract_z
Si Si1 0.000000 0.000000 0.000000
Si Si2 0.811555 0.673578 0.770962
Si Si3 0.682929 0.794755 0.730323
Si Si4 0.818501 0.185408 0.044636
Si Si5 0.251859 0.918995 0.902363
Si Si6 0.686953 0.694704 0.001804
Si Si7 0.500000 0.000000 0.000000
O O1 0.904534 0.959373 0.084818
O O2 0.697653 0.725125 0.724897
O O3 0.756967 0.614198 0.713519
O O4 0.785026 0.665521 0.901388
O O5 0.997940 0.688525 0.742793
O O6 0.808601 0.817735 0.822940
O O7 0.733553 0.824984 0.616429
O O8 0.700424 0.236492 0.006789
O O9 0.745518 0.126612 0.000758
O O10 0.000000 0.197184 0.000000
O O11 0.403649 0.960523 0.915231
O O12 0.500000 0.675845 0.000000
#
# Coordination Sequence:
#
# PCOD8164170 Si02
#       7
#     2   8   8   8   8   8   2
#     4  10  24  38  60  82 114 150 216 258 302 328
#     4  11  23  35  59  82 126 160 198 235 299 355
#     4  11  21  36  54  89 126 165 188 230 284 385
#     4  11  22  34  60  83 127 160 192 237 302 352
#     4  11  22  40  57  88 113 157 197 258 295 343
#     4  11  23  34  54  89 126 166 197 223 283 386
#     4  10  24  38  60  82 114 146 220 250 308 334
#
# _framework density 18.885073999999999
#
# number of rings (size 3 to 8) (size 9 to 14) (size 15 to 20)
#    0.000    1.091    2.727    6.000    3.818    0.000 
#    0.000    0.000    0.000    0.000    0.000   31.182 
#    0.000    0.000    0.000    0.000    0.000    0.000 
#
# Total GULP energy -272774.314055 kJ/mol
# GULP energy per Si atom -12398.832457 kJ/mol
# Density = 1.884209 g / cm^3
# Si number density = 18.885074 Si / 1000 Ang^3
#
#
#
# Elastic Constant Matrix: (Units=GPa)
#
#
# Indices 1 2 3 4 5 6 
#
# 1 117.1564 38.6504 46.4341 0.0000 0.0000 0.0000
# 2 38.6504 101.4790 47.8931 0.0000 0.0000 0.0000
# 3 46.4341 47.8931 156.2995 0.0001 0.0000 -0.0001
# 4 0.0000 0.0000 0.0001 28.3564 0.0000 0.0000
# 5 0.0000 0.0000 0.0000 0.0000 29.7967 0.0000
# 6 0.0000 0.0000 -0.0001 0.0000 0.0000 26.6889
#
#
#
# Elastic Compliance Matrix: (Units=1/GPa)
#
#
# Indices 1 2 3 4 5 6 
#
# 1 0.010364 -0.002916 -0.002185 0.000000 0.000000 0.000000
# 2 -0.002916 0.012341 -0.002915 0.000000 0.000000 0.000000
# 3 -0.002185 -0.002915 0.007940 0.000000 0.000000 0.000000
# 4 0.000000 0.000000 0.000000 0.035265 0.000000 0.000000
# 5 0.000000 0.000000 0.000000 0.000000 0.033561 0.000000
# 6 0.000000 0.000000 0.000000 0.000000 0.000000 0.037469
#
#
# Mechanical properties :
#
#
# Convention : Reuss Voigt Hill
#
# Bulk Modulus (GPa) = 68.43686 71.21001 69.82343
# Shear Modulus (GPa) = 31.67700 33.09889 32.38795
#
# Velocity S-wave (km/s) = 4.10000 4.19101 4.14575
# Velocity P-wave (km/s) = 7.66359 7.82357 7.74399
#
# Compressibility (1/GPa) = 0.01461201
#
# Stress axis : x y z
#
# Youngs Moduli (GPa) = 96.49048 81.03325 125.93681
#
# Poissons Ratio (x) = 0.23628 0.27523
# Poissons Ratio (y) = 0.28135 0.36713
# Poissons Ratio (z) = 0.21087 0.23622
#
# Static dielectric constant tensor:
#      x y z
#    x 3.665330 0.000000 0.000000 
#    y 0.000000 3.270100 0.000000 
#    z 0.000000 0.000000 3.706520 
# 
# 
# High freq. dielectric constant tensor:
#      x y z
#    x 1.749170 0.000000 0.000000 
#    y 0.000000 1.692570 0.000000 
#    z 0.000000 0.000000 1.738820 
# 
# From -- ./inp_files/14732.got.cif
#   From: 2010.03.12/outbox.cif.g09.slc.cpg/sg23_8_cif.got.tgz:14732.got - 2010.04.14 02:50:06.
