data_PCOD8164392
_publ_section_title
;
Structure prediction by ZEFSAII (Michael W. Deem and Ramdas Pophale) SiO2 
 PCOD8164392
Probable space group: I 2 2 2
;
_chemical_formula_sum "Si O2"
_cell_formula_units_Z 40
_cell_length_a 14.997744
_cell_length_b 14.442046
_cell_length_c 8.372260
_cell_angle_alpha 90.000000
_cell_angle_beta 90.000000
_cell_angle_gamma 90.000000
_cell_volume 1813.415682
_symmetry_space_group_name_H-M "I 2 2 2"
_symmetry_group_IT_number 23
_symmetry_cell_setting 'orthorhombic'
loop_
_space_group_symop_operation_xyz
x,y,z
-x,-y,z
x,-y,-z
-x,y,-z
1/2+x,1/2+y,1/2+z
1/2-x,1/2-y,1/2+z
1/2+x,1/2-y,1/2-z
1/2-x,1/2+y,1/2-z
loop_
_atom_site_type_symbol
_atom_site_label
_atom_site_fract_x
_atom_site_fract_y
_atom_site_fract_z
Si Si1 0.984637 0.748760 0.825939
Si Si2 0.822765 0.343205 0.328149
Si Si3 0.171980 0.283807 0.309001
Si Si4 0.586385 0.548045 0.330921
Si Si5 0.728413 0.027684 0.319982
O O1 0.921927 0.681119 0.726605
O O2 0.933784 0.844682 0.858134
O O3 0.075885 0.762110 0.725726
O O4 0.000000 0.703779 0.000000
O O5 0.812791 0.315543 0.510874
O O6 0.747284 0.291762 0.225659
O O7 0.810875 0.452938 0.304048
O O8 0.179966 0.374434 0.200222
O O9 0.500000 0.500000 0.252852
O O10 0.609921 0.500000 0.500000
O O11 0.666328 0.538480 0.207571
O O12 0.709674 0.000000 0.500000
#
# Coordination Sequence:
#
# PCOD8164392 Si02
#       5
#     8   8   8   8   8
#     4  12  24  44  72 105 144 187 237 292 357 430
#     4  12  26  46  72 103 145 193 240 298 358 428
#     4  12  26  47  70 104 148 189 244 295 360 429
#     4  11  22  42  68 104 140 182 233 289 362 418
#     4  12  26  46  72 104 141 188 241 299 361 429
#
# _framework density 22.057821000000001
#
# number of rings (size 3 to 8) (size 9 to 14) (size 15 to 20)
#    0.000    0.200    4.000    7.200    0.000    1.200 
#    3.600    4.000    0.000    0.000    0.000    0.000 
#    0.000    0.000    0.000    0.000    0.000    0.000 
#
# Total GULP energy -248132.846107 kJ/mol
# GULP energy per Si atom -12406.642305 kJ/mol
# Density = 2.200762 g / cm^3
# Si number density = 22.057821 Si / 1000 Ang^3
#
#
#
# Elastic Constant Matrix: (Units=GPa)
#
#
# Indices 1 2 3 4 5 6 
#
# 1 99.1821 5.0687 9.0656 0.0000 0.0000 0.0000
# 2 5.0687 84.9132 -7.4078 0.0000 0.0000 0.0000
# 3 9.0656 -7.4078 83.7568 0.0000 0.0000 0.0000
# 4 0.0000 0.0000 0.0000 34.4928 0.0000 0.0000
# 5 0.0000 0.0000 0.0000 0.0000 33.1576 0.0000
# 6 0.0000 0.0000 0.0000 0.0000 0.0000 30.7982
#
#
#
# Elastic Compliance Matrix: (Units=1/GPa)
#
#
# Indices 1 2 3 4 5 6 
#
# 1 0.010226 -0.000712 -0.001170 0.000000 0.000000 0.000000
# 2 -0.000712 0.011918 0.001131 0.000000 0.000000 0.000000
# 3 -0.001170 0.001131 0.012166 0.000000 0.000000 0.000000
# 4 0.000000 0.000000 0.000000 0.028992 0.000000 0.000000
# 5 0.000000 0.000000 0.000000 0.000000 0.030159 0.000000
# 6 0.000000 0.000000 0.000000 0.000000 0.000000 0.032469
#
#
# Mechanical properties :
#
#
# Convention : Reuss Voigt Hill
#
# Bulk Modulus (GPa) = 30.48079 31.25612 30.86846
# Shear Modulus (GPa) = 36.13559 37.09810 36.61684
#
# Velocity S-wave (km/s) = 4.05189 4.10549 4.07878
# Velocity P-wave (km/s) = 5.97821 6.05593 6.01719
#
# Compressibility (1/GPa) = 0.03280754
#
# Stress axis : x y z
#
# Youngs Moduli (GPa) = 97.79180 83.90708 82.19637
#
# Poissons Ratio (x) = 0.05978 0.09616
# Poissons Ratio (y) = 0.06967 -0.09298
# Poissons Ratio (z) = 0.11440 -0.09491
#
# Static dielectric constant tensor:
#      x y z
#    x 4.156240 0.000000 0.000000 
#    y 0.000000 4.182350 0.000000 
#    z 0.000000 0.000000 3.969170 
# 
# 
# High freq. dielectric constant tensor:
#      x y z
#    x 1.877770 0.000000 0.000000 
#    y 0.000000 1.874820 0.000000 
#    z 0.000000 0.000000 1.870490 
# 
# From -- ./inp_files/9573.got.cif
#   From: 2010.03.12/outbox.cif.g09.slc.cpg/sg23_5_cif.got.tgz:9573.got - 2010.04.14 02:50:06.
