data_PCOD8164491
_publ_section_title
;
Structure prediction by ZEFSAII (Michael W. Deem and Ramdas Pophale) SiO2 
 PCOD8164491
Probable space group: I 2 2 2
;
_chemical_formula_sum "Si O2"
_cell_formula_units_Z 28
_cell_length_a 7.887210
_cell_length_b 27.595947
_cell_length_c 4.971129
_cell_angle_alpha 90.000000
_cell_angle_beta 90.000000
_cell_angle_gamma 90.000000
_cell_volume 1081.991227
_symmetry_space_group_name_H-M "I 2 2 2"
_symmetry_group_IT_number 23
_symmetry_cell_setting 'orthorhombic'
loop_
_space_group_symop_operation_xyz
x,y,z
-x,-y,z
x,-y,-z
-x,y,-z
1/2+x,1/2+y,1/2+z
1/2-x,1/2-y,1/2+z
1/2+x,1/2-y,1/2-z
1/2-x,1/2+y,1/2-z
loop_
_atom_site_type_symbol
_atom_site_label
_atom_site_fract_x
_atom_site_fract_y
_atom_site_fract_z
Si Si1 0.500000 0.225327 0.500000
Si Si2 0.692210 0.948027 0.443005
Si Si3 0.853387 0.811477 0.306220
Si Si4 0.819731 0.899701 0.945897
O O1 0.338129 0.192256 0.422352
O O2 0.430016 0.258706 0.741234
O O3 0.500000 0.955949 0.500000
O O4 0.695773 0.930311 0.136404
O O5 0.784126 0.000000 0.500000
O O6 0.768572 0.905516 0.633886
O O7 0.829666 0.843109 0.033696
O O8 0.000000 0.835845 0.500000
O O9 0.000000 0.924537 0.000000
#
# Coordination Sequence:
#
# PCOD8164491 Si02
#       4
#     4   8   8   8
#     4  12  26  48  78 102 156 212 258 322 386 456
#     4  11  26  50  76 109 150 196 249 308 385 472
#     4  12  26  48  74 113 155 205 268 321 387 460
#     4  12  26  46  77 111 151 192 251 320 376 456
#
# _framework density 25.878212999999999
#
# number of rings (size 3 to 8) (size 9 to 14) (size 15 to 20)
#    0.000    0.286    4.286    4.286    2.000    5.714 
#   10.286    0.000    0.000    0.000    0.000    0.000 
#    0.000    0.000    0.000    0.000    0.000    0.000 
#
# Total GULP energy -173525.823848 kJ/mol
# GULP energy per Si atom -12394.701703 kJ/mol
# Density = 2.581931 g / cm^3
# Si number density = 25.878213 Si / 1000 Ang^3
#
#
#
# Elastic Constant Matrix: (Units=GPa)
#
#
# Indices 1 2 3 4 5 6 
#
# 1 162.2237 30.5705 20.8599 -0.0275 0.0126 -0.0192
# 2 30.5705 100.9844 2.1213 -0.0311 0.0180 -0.0064
# 3 20.8599 2.1213 62.9460 -0.1596 0.0585 -0.0150
# 4 -0.0275 -0.0311 -0.1596 80.8179 0.0044 0.0203
# 5 0.0126 0.0180 0.0585 0.0044 47.9374 -0.0416
# 6 -0.0192 -0.0064 -0.0150 0.0203 -0.0416 36.1972
#
#
#
# Elastic Compliance Matrix: (Units=1/GPa)
#
#
# Indices 1 2 3 4 5 6 
#
# 1 0.006827 -0.002021 -0.002194 -0.000003 0.000002 0.000002
# 2 -0.002021 0.010508 0.000316 0.000004 -0.000004 0.000001
# 3 -0.002194 0.000316 0.016603 0.000032 -0.000020 0.000006
# 4 -0.000003 0.000004 0.000032 0.012374 -0.000001 -0.000007
# 5 0.000002 -0.000004 -0.000020 -0.000001 0.020861 0.000024
# 6 0.000002 0.000001 0.000006 -0.000007 0.000024 0.027626
#
#
# Mechanical properties :
#
#
# Convention : Reuss Voigt Hill
#
# Bulk Modulus (GPa) = 38.25693 48.13973 43.19833
# Shear Modulus (GPa) = 44.91920 51.16401 48.04161
#
# Velocity S-wave (km/s) = 4.17080 4.45129 4.31333
# Velocity P-wave (km/s) = 6.16520 6.71278 6.44481
#
# Compressibility (1/GPa) = 0.02613906
#
# Stress axis : x y z
#
# Youngs Moduli (GPa) = 146.47094 95.16920 60.22896
#
# Poissons Ratio (x) = 0.19231 0.13217
# Poissons Ratio (y) = 0.29597 -0.01901
# Poissons Ratio (z) = 0.32142 -0.03003
#
# Static dielectric constant tensor:
#      x y z
#    x 4.912480 -0.000140 -0.000670 
#    y -0.000140 4.693520 0.002080 
#    z -0.000670 0.002080 5.731070 
# 
# 
# High freq. dielectric constant tensor:
#      x y z
#    x 2.050430 0.000000 0.000000 
#    y 0.000000 2.032570 0.000000 
#    z 0.000000 0.000000 2.034070 
# 
# From -- ./inp_files/591.got.cif
#   From: 2010.03.12/outbox.cif.g09.slc.cpg/sg23_1_cif.got.tgz:591.got - 2010.04.14 02:50:06.
