data_PCOD8164136
_publ_section_title
;
Structure prediction by ZEFSAII (Michael W. Deem and Ramdas Pophale) SiO2 
 PCOD8164136
Probable space group: I 2 2 2
;
_chemical_formula_sum "Si O2"
_cell_formula_units_Z 48
_cell_length_a 8.099524
_cell_length_b 9.119796
_cell_length_c 27.311450
_cell_angle_alpha 90.000000
_cell_angle_beta 90.000000
_cell_angle_gamma 90.000000
_cell_volume 2017.387745
_symmetry_space_group_name_H-M "I 2 2 2"
_symmetry_group_IT_number 23
_symmetry_cell_setting 'orthorhombic'
loop_
_space_group_symop_operation_xyz
x,y,z
-x,-y,z
x,-y,-z
-x,y,-z
1/2+x,1/2+y,1/2+z
1/2-x,1/2-y,1/2+z
1/2+x,1/2-y,1/2-z
1/2-x,1/2+y,1/2-z
loop_
_atom_site_type_symbol
_atom_site_label
_atom_site_fract_x
_atom_site_fract_y
_atom_site_fract_z
Si Si1 0.605412 0.182761 0.950421
Si Si2 0.247784 0.432014 0.706099
Si Si3 0.312097 0.951076 0.447426
Si Si4 0.680067 0.468965 0.598489
Si Si5 0.340235 0.316357 0.883150
Si Si6 0.090592 0.733174 0.721666
O O1 0.776271 0.277626 0.949124
O O2 0.673706 0.018294 0.939549
O O3 0.503317 0.244018 0.905075
O O4 0.500000 0.191090 0.000000
O O5 0.292298 0.442975 0.649048
O O6 0.214555 0.594269 0.727657
O O7 0.398221 0.346721 0.732870
O O8 0.091651 0.328459 0.715543
O O9 0.500000 0.000000 0.438835
O O10 0.245980 0.000000 0.500000
O O11 0.199301 0.025271 0.405586
O O12 0.500000 0.500000 0.576665
O O13 0.690020 0.294666 0.604998
O O14 0.360262 0.331360 0.825183
#
# Coordination Sequence:
#
# PCOD8164136 Si02
#       6
#     8   8   8   8   8   8
#     4  12  24  45  72 101 136 185 235 286 351 422
#     4  10  23  43  68  97 140 180 233 290 354 416
#     4  11  24  44  67  99 139 177 222 283 346 414
#     4  11  25  45  70 101 140 186 238 295 355 419
#     4  11  23  44  68  98 138 183 233 283 347 421
#     4  10  23  43  65 101 136 180 232 287 347 422
#
# _framework density 23.793146
#
# number of rings (size 3 to 8) (size 9 to 14) (size 15 to 20)
#    0.000    1.167    3.333    2.000    4.667    2.667 
#    6.000    0.833    0.000    0.000    0.000    0.000 
#    0.000    0.000    0.000    0.000    0.000    0.000 
#
# Total GULP energy -297558.667428 kJ/mol
# GULP energy per Si atom -12398.277810 kJ/mol
# Density = 2.373899 g / cm^3
# Si number density = 23.793146 Si / 1000 Ang^3
#
#
#
# Elastic Constant Matrix: (Units=GPa)
#
#
# Indices 1 2 3 4 5 6 
#
# 1 74.8356 -0.3322 15.6402 0.0000 0.0000 0.0000
# 2 -0.3322 76.6724 34.9405 0.0000 0.0000 0.0000
# 3 15.6402 34.9405 82.4681 0.0000 0.0000 0.0000
# 4 0.0000 0.0000 0.0000 35.6984 0.0000 0.0000
# 5 0.0000 0.0000 0.0000 0.0000 28.2328 0.0000
# 6 0.0000 0.0000 0.0000 0.0000 0.0000 39.5625
#
#
#
# Elastic Compliance Matrix: (Units=1/GPa)
#
#
# Indices 1 2 3 4 5 6 
#
# 1 0.014067 0.001582 -0.003338 0.000000 0.000000 0.000000
# 2 0.001582 0.016341 -0.007224 0.000000 0.000000 0.000000
# 3 -0.003338 -0.007224 0.015820 0.000000 0.000000 0.000000
# 4 0.000000 0.000000 0.000000 0.028012 0.000000 0.000000
# 5 0.000000 0.000000 0.000000 0.000000 0.035420 0.000000
# 6 0.000000 0.000000 0.000000 0.000000 0.000000 0.025276
#
#
# Mechanical properties :
#
#
# Convention : Reuss Voigt Hill
#
# Bulk Modulus (GPa) = 35.37464 37.16367 36.26915
# Shear Modulus (GPa) = 30.80352 32.94723 31.87538
#
# Velocity S-wave (km/s) = 3.60201 3.72524 3.66414
# Velocity P-wave (km/s) = 5.67443 5.84437 5.76003
#
# Compressibility (1/GPa) = 0.02826884
#
# Stress axis : x y z
#
# Youngs Moduli (GPa) = 71.08675 61.19490 63.21297
#
# Poissons Ratio (x) = -0.09682 0.21102
# Poissons Ratio (y) = -0.11247 0.45663
# Poissons Ratio (z) = 0.23730 0.44205
#
# Static dielectric constant tensor:
#      x y z
#    x 4.159500 0.000000 0.000000 
#    y 0.000000 4.514000 0.000000 
#    z 0.000000 0.000000 4.173050 
# 
# 
# High freq. dielectric constant tensor:
#      x y z
#    x 1.945590 0.000000 0.000000 
#    y 0.000000 1.949820 0.000000 
#    z 0.000000 0.000000 1.934370 
# 
# From -- ./inp_files/30253.got.cif
#   From: 2010.03.12/outbox.cif.g09.slc.cpg/sg23_16_cif.got.tgz:30253.got - 2010.04.14 02:50:06.
