data_PCOD8164889
_publ_section_title
;
Structure prediction by ZEFSAII (Michael W. Deem and Ramdas Pophale) SiO2 
 PCOD8164889
Probable space group: I 21 21 21
;
_chemical_formula_sum "Si O2"
_cell_formula_units_Z 36
_cell_length_a 13.621512
_cell_length_b 13.150938
_cell_length_c 10.343844
_cell_angle_alpha 90.000000
_cell_angle_beta 90.000000
_cell_angle_gamma 90.000000
_cell_volume 1852.951320
_symmetry_space_group_name_H-M "I 21 21 21"
_symmetry_group_IT_number 24
_symmetry_cell_setting 'orthorhombic'
loop_
_space_group_symop_operation_xyz
x,y,z
-x,1/2-y,z
x,-y,1/2-z
1/2-x,y,-z
1/2+x,1/2+y,1/2+z
1/2-x,-y,1/2+z
1/2+x,1/2-y,-z
-x,1/2+y,1/2-z
loop_
_atom_site_type_symbol
_atom_site_label
_atom_site_fract_x
_atom_site_fract_y
_atom_site_fract_z
Si Si1 0.789204 0.189530 0.277076
Si Si2 0.985010 0.864588 0.096869
Si Si3 0.750000 0.127053 0.000000
Si Si4 0.200973 0.919325 0.139787
Si Si5 0.874493 0.039143 0.618308
O O1 0.895436 0.136251 0.300305
O O2 0.775499 0.196638 0.122961
O O3 0.770575 0.302946 0.328609
O O4 0.714721 0.115630 0.351107
O O5 0.000000 0.750000 0.059625
O O6 0.082097 0.923031 0.144252
O O7 0.960932 0.910014 0.958410
O O8 0.658494 0.056263 0.033282
O O9 0.237325 0.000000 0.250000
O O10 0.250000 0.947449 0.000000
O O11 0.922554 0.000000 0.750000
#
# Coordination Sequence:
#
# PCOD8164889 Si02
#       5
#     8   8   4   8   8
#     4  10  20  38  62  93 121 150 193 248 308 355
#     4  10  20  37  61  83 118 155 198 245 291 356
#     4  10  20  30  64  92 126 142 182 256 302 366
#     4  11  26  42  63  81 118 172 206 243 283 350
#     4  10  19  33  60  95 119 148 184 249 317 353
#
# _framework density 19.428464999999999
#
# number of rings (size 3 to 8) (size 9 to 14) (size 15 to 20)
#    0.000    1.778    2.222    2.667    4.667    0.889 
#    0.000    0.000    0.000    0.000    0.000    0.000 
#    0.000    0.000    0.000    0.000    0.000    0.000 
#
# Total GULP energy -223028.108246 kJ/mol
# GULP energy per Si atom -12390.450458 kJ/mol
# Density = 1.938425 g / cm^3
# Si number density = 19.428465 Si / 1000 Ang^3
#
#
#
# Elastic Constant Matrix: (Units=GPa)
#
#
# Indices 1 2 3 4 5 6 
#
# 1 54.0359 25.6164 31.4046 0.0000 0.0000 0.0000
# 2 25.6164 61.9686 53.8192 0.0000 0.0000 0.0000
# 3 31.4046 53.8192 140.2720 0.0000 0.0000 0.0000
# 4 0.0000 0.0000 0.0000 37.6950 0.0000 0.0000
# 5 0.0000 0.0000 0.0000 0.0000 24.8784 0.0000
# 6 0.0000 0.0000 0.0000 0.0000 0.0000 26.8976
#
#
#
# Elastic Compliance Matrix: (Units=1/GPa)
#
#
# Indices 1 2 3 4 5 6 
#
# 1 0.023502 -0.007717 -0.002301 0.000000 0.000000 0.000000
# 2 -0.007717 0.026735 -0.008530 0.000000 0.000000 0.000000
# 3 -0.002301 -0.008530 0.010917 0.000000 0.000000 0.000000
# 4 0.000000 0.000000 0.000000 0.026529 0.000000 0.000000
# 5 0.000000 0.000000 0.000000 0.000000 0.040195 0.000000
# 6 0.000000 0.000000 0.000000 0.000000 0.000000 0.037178
#
#
# Mechanical properties :
#
#
# Convention : Reuss Voigt Hill
#
# Bulk Modulus (GPa) = 41.56527 53.10632 47.33580
# Shear Modulus (GPa) = 23.79009 27.58996 25.69002
#
# Velocity S-wave (km/s) = 3.50308 3.77248 3.64027
# Velocity P-wave (km/s) = 6.14838 6.80949 6.48736
#
# Compressibility (1/GPa) = 0.02405855
#
# Stress axis : x y z
#
# Youngs Moduli (GPa) = 42.55012 37.40347 91.60057
#
# Poissons Ratio (x) = 0.28863 0.21076
# Poissons Ratio (y) = 0.32835 0.78137
# Poissons Ratio (z) = 0.09790 0.31906
#
# Static dielectric constant tensor:
#      x y z
#    x 4.290610 0.000000 0.000000 
#    y 0.000000 3.528370 0.000000 
#    z 0.000000 0.000000 3.740360 
# 
# 
# High freq. dielectric constant tensor:
#      x y z
#    x 1.739280 0.000000 0.000000 
#    y 0.000000 1.757120 0.000000 
#    z 0.000000 0.000000 1.769180 
# 
# From -- ./inp_files/19206.got.cif
#   From: 2010.03.12/outbox.cif.g09.slc.cpg/sg24_10_cif.got.tgz:19206.got - 2010.04.14 03:06:53.
