data_PCOD8164027
_publ_section_title
;
Structure prediction by ZEFSAII (Michael W. Deem and Ramdas Pophale) SiO2 
 PCOD8164027
Probable space group: I 2 2 2
;
_chemical_formula_sum "Si O2"
_cell_formula_units_Z 60
_cell_length_a 11.336039
_cell_length_b 12.418546
_cell_length_c 20.689493
_cell_angle_alpha 90.000000
_cell_angle_beta 90.000000
_cell_angle_gamma 90.000000
_cell_volume 2912.607276
_symmetry_space_group_name_H-M "I 2 2 2"
_symmetry_group_IT_number 23
_symmetry_cell_setting 'orthorhombic'
loop_
_space_group_symop_operation_xyz
x,y,z
-x,-y,z
x,-y,-z
-x,y,-z
1/2+x,1/2+y,1/2+z
1/2-x,1/2-y,1/2+z
1/2+x,1/2-y,1/2-z
1/2-x,1/2+y,1/2-z
loop_
_atom_site_type_symbol
_atom_site_label
_atom_site_fract_x
_atom_site_fract_y
_atom_site_fract_z
Si Si1 0.946000 0.293805 0.568748
Si Si2 0.054797 0.894308 0.781292
Si Si3 0.524802 0.813708 0.356231
Si Si4 0.823931 0.376182 0.263674
Si Si5 0.194656 0.574568 0.908138
Si Si6 0.707395 0.832041 0.456605
Si Si7 0.500000 0.000000 0.149600
Si Si8 0.397994 0.669933 0.834805
O O1 0.818051 0.239848 0.564327
O O2 0.941334 0.405571 0.607579
O O3 0.000000 0.321736 0.500000
O O4 0.031262 0.209934 0.603079
O O5 0.189681 0.914676 0.761879
O O6 0.038602 0.791001 0.826792
O O7 0.988174 0.884112 0.713722
O O8 0.000000 0.000000 0.816611
O O9 0.621550 0.865154 0.307855
O O10 0.427511 0.905112 0.370502
O O11 0.592376 0.779609 0.422375
O O12 0.894919 0.462623 0.304838
O O13 0.826105 0.262876 0.299410
O O14 0.207946 0.454978 0.933636
O O15 0.302359 0.585165 0.858800
O O16 0.199315 0.664061 0.965647
#
# Coordination Sequence:
#
# PCOD8164027 Si02
#       8
#     8   8   8   8   8   8   4   8
#     4  11  22  43  65  98 131 171 225 271 327 392
#     4  11  25  41  66  98 133 170 224 272 338 395
#     4  11  24  43  68  96 133 173 222 274 335 402
#     4  10  23  44  63  95 129 175 214 271 320 401
#     4  11  23  44  64  96 133 172 220 275 333 394
#     4  11  25  40  69  96 127 174 222 274 334 395
#     4  10  25  40  72  96 133 178 222 262 340 398
#     4  10  22  41  62  89 132 170 211 270 323 388
#
# _framework density 20.600097999999999
#
# number of rings (size 3 to 8) (size 9 to 14) (size 15 to 20)
#    0.000    1.333    2.667    1.800    7.467    1.067 
#    0.000    0.000    0.000    0.800    0.000    0.000 
#    0.000    0.000    0.000    0.000    0.000    0.000 
#
# Total GULP energy -372014.127594 kJ/mol
# GULP energy per Si atom -12400.470920 kJ/mol
# Density = 2.055321 g / cm^3
# Si number density = 20.600098 Si / 1000 Ang^3
#
#
#
# Elastic Constant Matrix: (Units=GPa)
#
#
# Indices 1 2 3 4 5 6 
#
# 1 154.5760 57.1324 48.6793 0.0000 0.0000 0.0000
# 2 57.1324 82.6302 19.2360 0.0000 0.0000 0.0000
# 3 48.6793 19.2360 91.2673 0.0000 0.0000 0.0000
# 4 0.0000 0.0000 0.0000 17.9175 0.0000 0.0000
# 5 0.0000 0.0000 0.0000 0.0000 47.5165 0.0000
# 6 0.0000 0.0000 0.0000 0.0000 0.0000 25.3596
#
#
#
# Elastic Compliance Matrix: (Units=1/GPa)
#
#
# Indices 1 2 3 4 5 6 
#
# 1 0.009935 -0.005927 -0.004050 0.000000 0.000000 0.000000
# 2 -0.005927 0.016262 -0.000266 0.000000 0.000000 0.000000
# 3 -0.004050 -0.000266 0.013173 0.000000 0.000000 0.000000
# 4 0.000000 0.000000 0.000000 0.055811 0.000000 0.000000
# 5 0.000000 0.000000 0.000000 0.000000 0.021045 0.000000
# 6 0.000000 0.000000 0.000000 0.000000 0.000000 0.039433
#
#
# Mechanical properties :
#
#
# Convention : Reuss Voigt Hill
#
# Bulk Modulus (GPa) = 52.95419 64.28545 58.61982
# Shear Modulus (GPa) = 27.40615 31.72043 29.56329
#
# Velocity S-wave (km/s) = 3.65141 3.92831 3.79239
# Velocity P-wave (km/s) = 6.59838 7.20067 6.90609
#
# Compressibility (1/GPa) = 0.01888425
#
# Stress axis : x y z
#
# Youngs Moduli (GPa) = 100.65128 61.49329 75.91197
#
# Poissons Ratio (x) = 0.36445 0.30745
# Poissons Ratio (y) = 0.59652 0.02022
# Poissons Ratio (z) = 0.40764 0.01638
#
# Static dielectric constant tensor:
#      x y z
#    x 3.741340 0.000000 0.000000 
#    y 0.000000 3.711700 0.000000 
#    z 0.000000 0.000000 4.045550 
# 
# 
# High freq. dielectric constant tensor:
#      x y z
#    x 1.817770 0.000000 0.000000 
#    y 0.000000 1.802630 0.000000 
#    z 0.000000 0.000000 1.815970 
# 
# From -- ./inp_files/26747.got.cif
#   From: 2010.03.12/outbox.cif.g09.slc.cpg/sg23_14_cif.got.tgz:26747.got - 2010.04.14 02:50:06.
