data_PCOD8164414
_publ_section_title
;
Structure prediction by ZEFSAII (Michael W. Deem and Ramdas Pophale) SiO2 
 PCOD8164414
Probable space group: I 2 2 2
;
_chemical_formula_sum "Si O2"
_cell_formula_units_Z 48
_cell_length_a 8.779161
_cell_length_b 10.131434
_cell_length_c 26.384277
_cell_angle_alpha 90.000000
_cell_angle_beta 90.000000
_cell_angle_gamma 90.000000
_cell_volume 2346.762453
_symmetry_space_group_name_H-M "I 2 2 2"
_symmetry_group_IT_number 23
_symmetry_cell_setting 'orthorhombic'
loop_
_space_group_symop_operation_xyz
x,y,z
-x,-y,z
x,-y,-z
-x,y,-z
1/2+x,1/2+y,1/2+z
1/2-x,1/2-y,1/2+z
1/2+x,1/2-y,1/2-z
1/2-x,1/2+y,1/2-z
loop_
_atom_site_type_symbol
_atom_site_label
_atom_site_fract_x
_atom_site_fract_y
_atom_site_fract_z
Si Si1 0.068651 0.137690 0.651945
Si Si2 0.917520 0.634341 0.289234
Si Si3 0.516359 0.784432 0.055449
Si Si4 0.102470 0.889441 0.153407
Si Si5 0.084596 0.633686 0.830315
Si Si6 0.252364 0.002359 0.943776
O O1 0.993837 0.172537 0.597688
O O2 0.249242 0.129741 0.645393
O O3 0.024387 0.246536 0.693359
O O4 0.000000 0.000000 0.670890
O O5 0.753536 0.640926 0.315181
O O6 0.897556 0.646846 0.229704
O O7 0.000000 0.500000 0.305860
O O8 0.386703 0.892755 0.058871
O O9 0.678049 0.856613 0.066240
O O10 0.500000 0.717545 0.000000
O O11 0.132076 0.955399 0.098548
O O12 0.010141 0.754458 0.146425
O O13 0.000000 0.000000 0.182648
O O14 0.000000 0.500000 0.845760
O O15 0.177084 0.000000 0.000000
#
# Coordination Sequence:
#
# PCOD8164414 Si02
#       6
#     8   8   8   8   8   8
#     4  12  24  40  65  90 123 170 218 262 319 383
#     4  11  23  42  65  88 125 171 224 260 315 386
#     4   9  18  36  63  95 123 157 213 263 304 373
#     4  12  23  37  63  95 130 164 209 270 330 375
#     4  11  26  42  59  93 133 170 209 268 326 390
#     4   9  18  35  63  95 125 159 207 263 316 381
#
# _framework density 20.453710999999998
#
# number of rings (size 3 to 8) (size 9 to 14) (size 15 to 20)
#    0.000    1.333    1.667    6.000    0.000    6.000 
#    0.000    0.000    0.000    0.000    0.000    0.000 
#    0.000    0.000    0.000    0.000    0.000    0.000 
#
# Total GULP energy -297623.745163 kJ/mol
# GULP energy per Si atom -12400.989382 kJ/mol
# Density = 2.040716 g / cm^3
# Si number density = 20.453711 Si / 1000 Ang^3
#
#
#
# Elastic Constant Matrix: (Units=GPa)
#
#
# Indices 1 2 3 4 5 6 
#
# 1 106.6886 37.7694 14.9931 0.0000 0.0000 0.0000
# 2 37.7694 130.8492 26.6389 0.0000 0.0000 0.0000
# 3 14.9931 26.6389 73.2488 0.0000 0.0000 0.0000
# 4 0.0000 0.0000 0.0000 20.3426 0.0000 0.0000
# 5 0.0000 0.0000 0.0000 0.0000 13.9641 0.0000
# 6 0.0000 0.0000 0.0000 0.0000 0.0000 31.0445
#
#
#
# Elastic Compliance Matrix: (Units=1/GPa)
#
#
# Indices 1 2 3 4 5 6 
#
# 1 0.010526 -0.002808 -0.001134 0.000000 0.000000 0.000000
# 2 -0.002808 0.009002 -0.002699 0.000000 0.000000 0.000000
# 3 -0.001134 -0.002699 0.014866 0.000000 0.000000 0.000000
# 4 0.000000 0.000000 0.000000 0.049158 0.000000 0.000000
# 5 0.000000 0.000000 0.000000 0.000000 0.071612 0.000000
# 6 0.000000 0.000000 0.000000 0.000000 0.000000 0.032212
#
#
# Mechanical properties :
#
#
# Convention : Reuss Voigt Hill
#
# Bulk Modulus (GPa) = 47.36287 52.17660 49.76973
# Shear Modulus (GPa) = 24.07376 28.49590 26.28483
#
# Velocity S-wave (km/s) = 3.43445 3.73660 3.58870
# Velocity P-wave (km/s) = 6.23968 6.64689 6.44650
#
# Compressibility (1/GPa) = 0.02111359
#
# Stress axis : x y z
#
# Youngs Moduli (GPa) = 95.00000 111.08231 67.26853
#
# Poissons Ratio (x) = 0.31188 0.07625
# Poissons Ratio (y) = 0.26672 0.18158
# Poissons Ratio (z) = 0.10769 0.29984
#
# Static dielectric constant tensor:
#      x y z
#    x 3.831820 0.000000 0.000000 
#    y 0.000000 3.730500 0.000000 
#    z 0.000000 0.000000 3.981130 
# 
# 
# High freq. dielectric constant tensor:
#      x y z
#    x 1.805740 0.000000 0.000000 
#    y 0.000000 1.795880 0.000000 
#    z 0.000000 0.000000 1.798370 
# 
# From -- ./inp_files/13353.got.cif
#   From: 2010.03.12/outbox.cif.g09.slc.cpg/sg23_7_cif.got.tgz:13353.got - 2010.04.14 02:50:06.
