data_PCOD8164117
_publ_section_title
;
Structure prediction by ZEFSAII (Michael W. Deem and Ramdas Pophale) SiO2 
 PCOD8164117
Probable space group: I 2 2 2
;
_chemical_formula_sum "Si O2"
_cell_formula_units_Z 56
_cell_length_a 11.725409
_cell_length_b 10.290761
_cell_length_c 20.627595
_cell_angle_alpha 90.000000
_cell_angle_beta 90.000000
_cell_angle_gamma 90.000000
_cell_volume 2488.995368
_symmetry_space_group_name_H-M "I 2 2 2"
_symmetry_group_IT_number 23
_symmetry_cell_setting 'orthorhombic'
loop_
_space_group_symop_operation_xyz
x,y,z
-x,-y,z
x,-y,-z
-x,y,-z
1/2+x,1/2+y,1/2+z
1/2-x,1/2-y,1/2+z
1/2+x,1/2-y,1/2-z
1/2-x,1/2+y,1/2-z
loop_
_atom_site_type_symbol
_atom_site_label
_atom_site_fract_x
_atom_site_fract_y
_atom_site_fract_z
Si Si1 0.947783 0.801602 0.571035
Si Si2 0.787768 0.412455 0.906047
Si Si3 0.170194 0.465006 0.569305
Si Si4 0.629384 0.319896 0.487667
Si Si5 0.052154 0.640470 0.800485
Si Si6 0.155131 0.300818 0.882590
Si Si7 0.874862 0.291539 0.661209
O O1 0.848967 0.909063 0.582014
O O2 0.890904 0.665767 0.590920
O O3 0.000000 0.814257 0.500000
O O4 0.052957 0.813367 0.620008
O O5 0.857986 0.320908 0.954940
O O6 0.822730 0.366560 0.833372
O O7 0.834407 0.557698 0.915617
O O8 0.113990 0.500000 0.500000
O O9 0.304676 0.430419 0.554448
O O10 0.142856 0.569651 0.624933
O O11 0.500000 0.360623 0.500000
O O12 0.681681 0.304406 0.560308
O O13 0.064649 0.701827 0.730206
O O14 0.000000 0.500000 0.790738
O O15 0.966633 0.721717 0.847512
O O16 0.252090 0.275946 0.828772
#
# Coordination Sequence:
#
# PCOD8164117 Si02
#       7
#     8   8   8   8   8   8   8
#     4  11  22  38  67  94 128 171 216 277 335 399
#     4  10  23  41  64  96 131 171 221 266 341 409
#     4  11  21  39  61  96 130 170 222 266 333 402
#     4  11  21  39  67  98 133 168 213 287 342 393
#     4  10  23  43  65  90 127 180 226 268 325 413
#     4  11  23  42  67  97 128 172 223 278 340 403
#     4  12  24  41  66  93 133 176 225 280 331 406
#
# _framework density 22.499037999999999
#
# number of rings (size 3 to 8) (size 9 to 14) (size 15 to 20)
#    0.000    1.143    4.286    2.571    2.000    1.429 
#    2.571    2.143    0.000    0.000    0.000    0.000 
#    0.000    0.000    0.000    0.000    0.000    0.000 
#
# Total GULP energy -346983.777962 kJ/mol
# GULP energy per Si atom -12392.277784 kJ/mol
# Density = 2.244783 g / cm^3
# Si number density = 22.499038 Si / 1000 Ang^3
#
#
#
# Elastic Constant Matrix: (Units=GPa)
#
#
# Indices 1 2 3 4 5 6 
#
# 1 147.0960 19.6145 49.5514 0.0000 0.0000 0.0000
# 2 19.6145 57.3986 24.0083 0.0000 0.0000 0.0000
# 3 49.5514 24.0083 127.1279 0.0000 0.0000 0.0000
# 4 0.0000 0.0000 0.0000 16.9165 0.0000 0.0000
# 5 0.0000 0.0000 0.0000 0.0000 37.9374 0.0000
# 6 0.0000 0.0000 0.0000 0.0000 0.0000 17.4807
#
#
#
# Elastic Compliance Matrix: (Units=1/GPa)
#
#
# Indices 1 2 3 4 5 6 
#
# 1 0.007950 -0.001542 -0.002807 0.000000 0.000000 0.000000
# 2 -0.001542 0.019215 -0.003028 0.000000 0.000000 0.000000
# 3 -0.002807 -0.003028 0.009532 0.000000 0.000000 0.000000
# 4 0.000000 0.000000 0.000000 0.059114 0.000000 0.000000
# 5 0.000000 0.000000 0.000000 0.000000 0.026359 0.000000
# 6 0.000000 0.000000 0.000000 0.000000 0.000000 0.057206
#
#
# Mechanical properties :
#
#
# Convention : Reuss Voigt Hill
#
# Bulk Modulus (GPa) = 45.57368 57.55233 51.56300
# Shear Modulus (GPa) = 24.82062 30.36345 27.59204
#
# Velocity S-wave (km/s) = 3.32503 3.67760 3.50575
# Velocity P-wave (km/s) = 5.91953 6.60821 6.27333
#
# Compressibility (1/GPa) = 0.02194249
#
# Stress axis : x y z
#
# Youngs Moduli (GPa) = 125.79202 52.04137 104.90869
#
# Poissons Ratio (x) = 0.08027 0.29451
# Poissons Ratio (y) = 0.19402 0.31763
# Poissons Ratio (z) = 0.35314 0.15757
#
# Static dielectric constant tensor:
#      x y z
#    x 4.353010 0.000000 0.000000 
#    y 0.000000 3.955010 0.000000 
#    z 0.000000 0.000000 3.918860 
# 
# 
# High freq. dielectric constant tensor:
#      x y z
#    x 1.902730 0.000000 0.000000 
#    y 0.000000 1.878670 0.000000 
#    z 0.000000 0.000000 1.869370 
# 
# From -- ./inp_files/26710.got.cif
#   From: 2010.03.12/outbox.cif.g09.slc.cpg/sg23_14_cif.got.tgz:26710.got - 2010.04.14 02:50:06.
