data_PCOD8164376
_publ_section_title
;
Structure prediction by ZEFSAII (Michael W. Deem and Ramdas Pophale) SiO2 
 PCOD8164376
Probable space group: I 2 2 2
;
_chemical_formula_sum "Si O2"
_cell_formula_units_Z 50
_cell_length_a 9.095872
_cell_length_b 14.259679
_cell_length_c 19.486770
_cell_angle_alpha 90.000000
_cell_angle_beta 90.000000
_cell_angle_gamma 90.000000
_cell_volume 2527.516205
_symmetry_space_group_name_H-M "I 2 2 2"
_symmetry_group_IT_number 23
_symmetry_cell_setting 'orthorhombic'
loop_
_space_group_symop_operation_xyz
x,y,z
-x,-y,z
x,-y,-z
-x,y,-z
1/2+x,1/2+y,1/2+z
1/2-x,1/2-y,1/2+z
1/2+x,1/2-y,1/2-z
1/2-x,1/2+y,1/2-z
loop_
_atom_site_type_symbol
_atom_site_label
_atom_site_fract_x
_atom_site_fract_y
_atom_site_fract_z
Si Si1 0.833190 0.325830 0.709552
Si Si2 0.000000 0.500000 0.500000
Si Si3 0.664125 0.494314 0.305338
Si Si4 0.337112 0.003060 0.579647
Si Si5 0.641969 0.617212 0.829649
Si Si6 0.886870 0.370465 0.379379
Si Si7 0.810447 0.831977 0.646498
O O1 0.717871 0.400353 0.681563
O O2 0.798492 0.222292 0.681900
O O3 0.807481 0.319281 0.791518
O O4 0.989327 0.366414 0.681497
O O5 0.920080 0.426709 0.449308
O O6 0.500000 0.500000 0.330926
O O7 0.686907 0.458835 0.227636
O O8 0.743858 0.420436 0.352364
O O9 0.265182 0.103081 0.591726
O O10 0.500000 0.000000 0.614758
O O11 0.358271 0.000000 0.500000
O O12 0.226738 0.919804 0.603280
O O13 0.464527 0.619986 0.830399
O O14 0.844276 0.263446 0.394696
#
# Coordination Sequence:
#
# PCOD8164376 Si02
#       7
#     8   2   8   8   8   8   8
#     4  11  22  39  66  99 124 166 222 273 339 384
#     4  12  24  48  66  92 146 192 244 252 344 436
#     4  12  21  38  63  99 131 158 216 281 336 387
#     4  11  26  43  62  91 132 175 214 262 332 404
#     4  11  23  38  65  96 129 162 216 278 334 396
#     4  11  26  42  69  97 133 183 221 279 329 409
#     4  11  23  41  68 101 127 170 222 281 340 392
#
# _framework density 19.782266
#
# number of rings (size 3 to 8) (size 9 to 14) (size 15 to 20)
#    0.000    0.800    6.400    0.480    2.240    5.120 
#    0.000    0.400    0.000    0.000    0.000    0.000 
#    0.000    0.000    0.000    0.000    0.000    0.000 
#
# Total GULP energy -309720.880105 kJ/mol
# GULP energy per Si atom -12388.835204 kJ/mol
# Density = 1.973724 g / cm^3
# Si number density = 19.782266 Si / 1000 Ang^3
#
#
#
# Elastic Constant Matrix: (Units=GPa)
#
#
# Indices 1 2 3 4 5 6 
#
# 1 117.0603 75.6792 40.4657 0.0000 0.0000 0.0000
# 2 75.6792 151.9226 40.8516 0.0000 0.0000 0.0000
# 3 40.4657 40.8516 73.1068 0.0000 0.0000 0.0000
# 4 0.0000 0.0000 0.0000 36.7857 0.0000 0.0000
# 5 0.0000 0.0000 0.0000 0.0000 14.4413 0.0000
# 6 0.0000 0.0000 0.0000 0.0000 0.0000 7.2358
#
#
#
# Elastic Compliance Matrix: (Units=1/GPa)
#
#
# Indices 1 2 3 4 5 6 
#
# 1 0.013727 -0.005643 -0.004445 0.000000 0.000000 0.000000
# 2 -0.005643 0.010066 -0.002501 0.000000 0.000000 0.000000
# 3 -0.004445 -0.002501 0.017537 0.000000 0.000000 0.000000
# 4 0.000000 0.000000 0.000000 0.027184 0.000000 0.000000
# 5 0.000000 0.000000 0.000000 0.000000 0.069246 0.000000
# 6 0.000000 0.000000 0.000000 0.000000 0.000000 0.138203
#
#
# Mechanical properties :
#
#
# Convention : Reuss Voigt Hill
#
# Bulk Modulus (GPa) = 61.91419 72.89808 67.40613
# Shear Modulus (GPa) = 16.31187 24.03209 20.17198
#
# Velocity S-wave (km/s) = 2.87465 3.48922 3.19674
# Velocity P-wave (km/s) = 6.51029 7.29130 6.91184
#
# Compressibility (1/GPa) = 0.01615139
#
# Stress axis : x y z
#
# Youngs Moduli (GPa) = 72.84751 99.34562 57.02312
#
# Poissons Ratio (x) = 0.56060 0.25347
# Poissons Ratio (y) = 0.41107 0.14263
# Poissons Ratio (z) = 0.32381 0.24849
#
# Static dielectric constant tensor:
#      x y z
#    x 3.894190 0.000000 0.000000 
#    y 0.000000 3.975790 0.000000 
#    z 0.000000 0.000000 4.150250 
# 
# 
# High freq. dielectric constant tensor:
#      x y z
#    x 1.775920 0.000000 0.000000 
#    y 0.000000 1.802220 0.000000 
#    z 0.000000 0.000000 1.744180 
# 
# From -- ./inp_files/23763.got.cif
#   From: 2010.03.12/outbox.cif.g09.slc.cpg/sg23_12_cif.got.tgz:23763.got - 2010.04.14 02:50:06.
