data_PCOD8164916
_publ_section_title
;
Structure prediction by ZEFSAII (Michael W. Deem and Ramdas Pophale) SiO2 
 PCOD8164916
Probable space group: I 21 21 21
;
_chemical_formula_sum "Si O2"
_cell_formula_units_Z 40
_cell_length_a 17.377205
_cell_length_b 12.614863
_cell_length_c 9.523358
_cell_angle_alpha 90.000000
_cell_angle_beta 90.000000
_cell_angle_gamma 90.000000
_cell_volume 2087.625406
_symmetry_space_group_name_H-M "I 21 21 21"
_symmetry_group_IT_number 24
_symmetry_cell_setting 'orthorhombic'
loop_
_space_group_symop_operation_xyz
x,y,z
-x,1/2-y,z
x,-y,1/2-z
1/2-x,y,-z
1/2+x,1/2+y,1/2+z
1/2-x,-y,1/2+z
1/2+x,1/2-y,-z
-x,1/2+y,1/2-z
loop_
_atom_site_type_symbol
_atom_site_label
_atom_site_fract_x
_atom_site_fract_y
_atom_site_fract_z
Si Si1 0.086521 0.254578 0.328180
Si Si2 0.797652 0.802773 0.709639
Si Si3 0.838035 0.921365 0.972021
Si Si4 0.221429 0.896667 0.155936
Si Si5 0.142503 0.645328 0.432843
O O1 0.135389 0.329981 0.426118
O O2 0.132236 0.142577 0.334421
O O3 0.079747 0.301971 0.169804
O O4 0.000000 0.250000 0.387521
O O5 0.846283 0.881073 0.811431
O O6 0.778555 0.693088 0.785341
O O7 0.847880 0.779585 0.569807
O O8 0.720626 0.863072 0.659047
O O9 0.750000 0.945349 0.000000
O O10 0.883657 0.029588 0.009377
O O11 0.229910 0.000000 0.250000
O O12 0.250000 0.924547 0.000000
#
# Coordination Sequence:
#
# PCOD8164916 Si02
#       5
#     8   8   8   8   8
#     4  11  24  41  57  86 131 165 193 239 300 372
#     4  10  19  34  57  93 120 141 192 259 300 335
#     4  12  18  35  62  94 120 148 201 250 306 346
#     4  11  23  39  63  90 113 160 209 250 291 349
#     4  10  21  30  62  95 121 148 188 253 304 354
#
# _framework density 19.160526000000001
#
# number of rings (size 3 to 8) (size 9 to 14) (size 15 to 20)
#    0.000    1.200    8.000    1.200    5.600    1.600 
#    0.000    1.000    0.000    0.000    0.000    0.000 
#    0.000    0.000    0.000    0.000    0.000    0.000 
#
# Total GULP energy -247875.208220 kJ/mol
# GULP energy per Si atom -12393.760411 kJ/mol
# Density = 1.911692 g / cm^3
# Si number density = 19.160526 Si / 1000 Ang^3
#
#
#
# Elastic Constant Matrix: (Units=GPa)
#
#
# Indices 1 2 3 4 5 6 
#
# 1 35.0489 21.9306 16.7208 0.0000 0.0000 0.0000
# 2 21.9306 117.5454 51.6906 0.0000 0.0000 0.0000
# 3 16.7208 51.6906 137.6416 0.0000 0.0000 0.0000
# 4 0.0000 0.0000 0.0000 39.8119 0.0000 0.0000
# 5 0.0000 0.0000 0.0000 0.0000 -4.7183 0.0000
# 6 0.0000 0.0000 0.0000 0.0000 0.0000 5.4398
#
#
#
# Elastic Compliance Matrix: (Units=1/GPa)
#
#
# Indices 1 2 3 4 5 6 
#
# 1 0.032764 -0.005225 -0.002018 0.000000 0.000000 0.000000
# 2 -0.005225 0.011024 -0.003505 0.000000 0.000000 0.000000
# 3 -0.002018 -0.003505 0.008827 0.000000 0.000000 0.000000
# 4 0.000000 0.000000 0.000000 0.025118 0.000000 0.000000
# 5 0.000000 0.000000 0.000000 0.000000 -0.211943 0.000000
# 6 0.000000 0.000000 0.000000 0.000000 0.000000 0.183830
#
#
# Mechanical properties :
#
#
# Convention : Reuss Voigt Hill
#
# Bulk Modulus (GPa) = 32.13625 52.32445 42.23035
# Shear Modulus (GPa) = 61.35771 21.43294 41.39533
#
# Velocity S-wave (km/s) = 5.66502 3.34817 4.65310
# Velocity P-wave (km/s) = 7.72001 6.50498 7.13839
#
# Compressibility (1/GPa) = 0.03111751
#
# Stress axis : x y z
#
# Youngs Moduli (GPa) = 30.52141 90.71415 113.29292
#
# Poissons Ratio (x) = 0.47403 0.22860
# Poissons Ratio (y) = 0.15949 0.39710
# Poissons Ratio (z) = 0.06159 0.31796
#
# Static dielectric constant tensor:
#      x y z
#    x 3.127170 0.000000 0.000000 
#    y 0.000000 3.656150 0.000000 
#    z 0.000000 0.000000 4.176180 
# 
# 
# High freq. dielectric constant tensor:
#      x y z
#    x 1.683200 0.000000 0.000000 
#    y 0.000000 1.742310 0.000000 
#    z 0.000000 0.000000 1.773410 
# 
# From -- ./inp_files/10685.got.cif
#   From: 2010.03.12/outbox.cif.g09.slc.cpg/sg24_6_cif.got.tgz:10685.got - 2010.04.14 03:06:53.
