data_PCOD8164022
_publ_section_title
;
Structure prediction by ZEFSAII (Michael W. Deem and Ramdas Pophale) SiO2 
 PCOD8164022
Probable space group: I 2 2 2
;
_chemical_formula_sum "Si O2"
_cell_formula_units_Z 64
_cell_length_a 14.513382
_cell_length_b 11.076509
_cell_length_c 16.553257
_cell_angle_alpha 90.000000
_cell_angle_beta 90.000000
_cell_angle_gamma 90.000000
_cell_volume 2661.061973
_symmetry_space_group_name_H-M "I 2 2 2"
_symmetry_group_IT_number 23
_symmetry_cell_setting 'orthorhombic'
loop_
_space_group_symop_operation_xyz
x,y,z
-x,-y,z
x,-y,-z
-x,y,-z
1/2+x,1/2+y,1/2+z
1/2-x,1/2-y,1/2+z
1/2+x,1/2-y,1/2-z
1/2-x,1/2+y,1/2-z
loop_
_atom_site_type_symbol
_atom_site_label
_atom_site_fract_x
_atom_site_fract_y
_atom_site_fract_z
Si Si1 0.592546 0.557000 0.202623
Si Si2 0.213665 0.385452 0.641696
Si Si3 0.117464 0.486645 0.085822
Si Si4 0.758189 0.859525 0.819342
Si Si5 0.449956 0.883260 0.738334
Si Si6 0.406094 0.283320 0.042128
Si Si7 0.203485 0.116319 0.398901
Si Si8 0.623468 0.773273 0.692156
O O1 0.500000 0.500000 0.238536
O O2 0.642173 0.628578 0.275885
O O3 0.574516 0.640482 0.123607
O O4 0.650356 0.436658 0.178729
O O5 0.229425 0.526489 0.624893
O O6 0.144216 0.352686 0.715464
O O7 0.167498 0.323301 0.563085
O O8 0.317174 0.343573 0.668030
O O9 0.069722 0.580679 0.146193
O O10 0.224408 0.515934 0.075892
O O11 0.108234 0.347681 0.110527
O O12 0.067764 0.500000 0.000000
O O13 0.753617 0.741124 0.874314
O O14 0.683341 0.860476 0.748663
O O15 0.521167 0.766013 0.736064
O O16 0.500000 0.000000 0.780348
O O17 0.500000 0.231378 0.000000
O O18 0.363237 0.369182 0.974861
#
# Coordination Sequence:
#
# PCOD8164022 Si02
#       8
#     8   8   8   8   8   8   8   8
#     4  12  24  45  77 109 145 187 250 313 371 440
#     4  12  24  45  67  99 151 192 242 292 371 452
#     4  11  21  41  69  99 133 174 235 301 364 417
#     4  12  25  44  67 102 143 200 235 293 366 443
#     4  10  22  40  66  99 135 182 236 295 350 436
#     4  12  27  43  73 108 147 191 240 309 377 446
#     4  12  25  44  67 103 144 189 241 298 373 431
#     4  11  22  40  66  99 131 186 229 302 356 411
#
# _framework density 24.050547999999999
#
# number of rings (size 3 to 8) (size 9 to 14) (size 15 to 20)
#    0.000    0.500    6.250    3.375    1.750    3.750 
#    0.000    0.625    0.000    0.000    0.000    0.875 
#    0.000    0.000    0.000    0.000    0.000    0.000 
#
# Total GULP energy -396527.054840 kJ/mol
# GULP energy per Si atom -12391.470464 kJ/mol
# Density = 2.399581 g / cm^3
# Si number density = 24.050548 Si / 1000 Ang^3
#
#
#
# Elastic Constant Matrix: (Units=GPa)
#
#
# Indices 1 2 3 4 5 6 
#
# 1 106.4616 -11.7540 0.1265 0.0000 0.0000 0.0000
# 2 -11.7540 57.6961 -12.7681 0.0000 0.0000 0.0000
# 3 0.1265 -12.7681 63.0099 0.0000 0.0000 0.0000
# 4 0.0000 0.0000 0.0000 27.9860 0.0000 0.0000
# 5 0.0000 0.0000 0.0000 0.0000 -63.5504 0.0000
# 6 0.0000 0.0000 0.0000 0.0000 0.0000 27.5651
#
#
#
# Elastic Compliance Matrix: (Units=1/GPa)
#
#
# Indices 1 2 3 4 5 6 
#
# 1 0.009619 0.002047 0.000395 0.000000 0.000000 0.000000
# 2 0.002047 0.018582 0.003761 0.000000 0.000000 0.000000
# 3 0.000395 0.003761 0.016632 0.000000 0.000000 0.000000
# 4 0.000000 0.000000 0.000000 0.035732 0.000000 0.000000
# 5 0.000000 0.000000 0.000000 0.000000 -0.015736 0.000000
# 6 0.000000 0.000000 0.000000 0.000000 0.000000 0.036278
#
#
# Mechanical properties :
#
#
# Convention : Reuss Voigt Hill
#
# Bulk Modulus (GPa) = 17.47047 19.81963 18.64505
# Shear Modulus (GPa) = 46.39130 15.17101 30.78115
#
# Velocity S-wave (km/s) = 4.39670 2.51429 3.58138
# Velocity P-wave (km/s) = 5.74930 4.08505 4.98709
#
# Compressibility (1/GPa) = 0.05723944
#
# Stress axis : x y z
#
# Youngs Moduli (GPa) = 103.96535 53.81674 60.12555
#
# Poissons Ratio (x) = -0.11016 -0.02378
# Poissons Ratio (y) = -0.21282 -0.22614
# Poissons Ratio (z) = -0.04112 -0.20241
#
# Static dielectric constant tensor:
#      x y z
#    x 4.809730 0.000000 0.000000 
#    y 0.000000 4.408800 0.000000 
#    z 0.000000 0.000000 4.182030 
# 
# 
# High freq. dielectric constant tensor:
#      x y z
#    x 1.978170 0.000000 0.000000 
#    y 0.000000 1.948620 0.000000 
#    z 0.000000 0.000000 1.929230 
# 
# From -- ./inp_files/24867.got.cif
#   From: 2010.03.12/outbox.cif.g09.slc.cpg/sg23_13_cif.got.tgz:24867.got - 2010.04.14 02:50:06.
