data_PCOD8164432
_publ_section_title
;
Structure prediction by ZEFSAII (Michael W. Deem and Ramdas Pophale) SiO2 
 PCOD8164432
Probable space group: I 2 2 2
;
_chemical_formula_sum "Si O2"
_cell_formula_units_Z 40
_cell_length_a 8.237842
_cell_length_b 16.804463
_cell_length_c 12.039425
_cell_angle_alpha 90.000000
_cell_angle_beta 90.000000
_cell_angle_gamma 90.000000
_cell_volume 1666.647835
_symmetry_space_group_name_H-M "I 2 2 2"
_symmetry_group_IT_number 23
_symmetry_cell_setting 'orthorhombic'
loop_
_space_group_symop_operation_xyz
x,y,z
-x,-y,z
x,-y,-z
-x,y,-z
1/2+x,1/2+y,1/2+z
1/2-x,1/2-y,1/2+z
1/2+x,1/2-y,1/2-z
1/2-x,1/2+y,1/2-z
loop_
_atom_site_type_symbol
_atom_site_label
_atom_site_fract_x
_atom_site_fract_y
_atom_site_fract_z
Si Si1 0.189124 0.409835 0.520393
Si Si2 0.818830 0.180466 0.770882
Si Si3 0.676980 0.395957 0.048301
Si Si4 0.174195 0.458753 0.147390
Si Si5 0.695985 0.340086 0.693835
O O1 0.259038 0.500000 0.500000
O O2 0.218871 0.376094 0.644979
O O3 0.268811 0.343883 0.437947
O O4 0.000000 0.410988 0.500000
O O5 0.769491 0.165565 0.642833
O O6 0.776454 0.273691 0.774280
O O7 0.005561 0.162956 0.790165
O O8 0.682218 0.481045 0.111290
O O9 0.500000 0.375987 0.000000
O O10 0.813966 0.392240 0.950798
O O11 0.223556 0.422881 0.265242
O O12 0.000000 0.500000 0.153734
#
# Coordination Sequence:
#
# PCOD8164432 Si02
#       5
#     8   8   8   8   8
#     4  11  27  51  78 108 152 207 260 314 384 465
#     4  12  28  48  76 111 156 201 256 315 383 461
#     4  11  23  45  73 108 145 190 240 311 381 452
#     4  11  25  44  75 113 144 190 248 314 380 454
#     4  12  28  47  78 106 153 200 254 316 383 452
#
# _framework density 24.000274000000001
#
# number of rings (size 3 to 8) (size 9 to 14) (size 15 to 20)
#    0.000    0.600    2.000    5.400   11.200    4.000 
#    3.600    0.000    0.000    0.000    0.000    0.000 
#    0.000    0.000    0.000    0.000    0.000    0.000 
#
# Total GULP energy -247855.858978 kJ/mol
# GULP energy per Si atom -12392.792949 kJ/mol
# Density = 2.394565 g / cm^3
# Si number density = 24.000274 Si / 1000 Ang^3
#
#
#
# Elastic Constant Matrix: (Units=GPa)
#
#
# Indices 1 2 3 4 5 6 
#
# 1 133.4814 30.4735 35.7511 0.0000 0.0000 0.0000
# 2 30.4735 86.4696 29.6616 -0.0002 0.0001 0.0000
# 3 35.7511 29.6616 102.2119 -0.0003 0.0001 0.0000
# 4 0.0000 -0.0002 -0.0003 47.3874 0.0001 0.0000
# 5 0.0000 0.0001 0.0001 0.0001 26.8414 0.0000
# 6 0.0000 0.0000 0.0000 0.0000 0.0000 25.1875
#
#
#
# Elastic Compliance Matrix: (Units=1/GPa)
#
#
# Indices 1 2 3 4 5 6 
#
# 1 0.008636 -0.002229 -0.002374 0.000000 0.000000 0.000000
# 2 -0.002229 0.013419 -0.003114 0.000000 0.000000 0.000000
# 3 -0.002374 -0.003114 0.011518 0.000000 0.000000 0.000000
# 4 0.000000 0.000000 0.000000 0.021103 0.000000 0.000000
# 5 0.000000 0.000000 0.000000 0.000000 0.037256 0.000000
# 6 0.000000 0.000000 0.000000 0.000000 0.000000 0.039702
#
#
# Mechanical properties :
#
#
# Convention : Reuss Voigt Hill
#
# Bulk Modulus (GPa) = 55.13341 57.10393 56.11867
# Shear Modulus (GPa) = 32.65532 34.96840 33.81186
#
# Velocity S-wave (km/s) = 3.69266 3.82121 3.75749
# Velocity P-wave (km/s) = 6.41895 6.58130 6.50063
#
# Compressibility (1/GPa) = 0.01813782
#
# Stress axis : x y z
#
# Youngs Moduli (GPa) = 115.78848 74.52274 86.82311
#
# Poissons Ratio (x) = 0.16614 0.20611
# Poissons Ratio (y) = 0.25813 0.27039
# Poissons Ratio (z) = 0.27487 0.23209
#
# Static dielectric constant tensor:
#      x y z
#    x 4.027210 0.000000 0.000000 
#    y 0.000000 4.631130 0.000000 
#    z 0.000000 0.000000 5.058220 
# 
# 
# High freq. dielectric constant tensor:
#      x y z
#    x 1.944990 0.000000 0.000000 
#    y 0.000000 1.945310 0.000000 
#    z 0.000000 0.000000 1.974530 
# 
# From -- ./inp_files/14446.got.cif
#   From: 2010.03.12/outbox.cif.g09.slc.cpg/sg23_8_cif.got.tgz:14446.got - 2010.04.14 02:50:06.
