data_PCOD8164178
_publ_section_title
;
Structure prediction by ZEFSAII (Michael W. Deem and Ramdas Pophale) SiO2 
 PCOD8164178
Probable space group: I 2 2 2
;
_chemical_formula_sum "Si O2"
_cell_formula_units_Z 64
_cell_length_a 11.770314
_cell_length_b 27.594428
_cell_length_c 8.977483
_cell_angle_alpha 90.000000
_cell_angle_beta 90.000000
_cell_angle_gamma 90.000000
_cell_volume 2915.842329
_symmetry_space_group_name_H-M "I 2 2 2"
_symmetry_group_IT_number 23
_symmetry_cell_setting 'orthorhombic'
loop_
_space_group_symop_operation_xyz
x,y,z
-x,-y,z
x,-y,-z
-x,y,-z
1/2+x,1/2+y,1/2+z
1/2-x,1/2-y,1/2+z
1/2+x,1/2-y,1/2-z
1/2-x,1/2+y,1/2-z
loop_
_atom_site_type_symbol
_atom_site_label
_atom_site_fract_x
_atom_site_fract_y
_atom_site_fract_z
Si Si1 0.211021 0.481710 0.160162
Si Si2 0.281885 0.085892 0.259265
Si Si3 0.370881 0.408866 0.041694
Si Si4 0.607139 0.238005 0.399541
Si Si5 0.740034 0.828372 0.046906
Si Si6 0.485648 0.057127 0.825597
Si Si7 0.208530 0.178194 0.717158
Si Si8 0.049408 0.258870 0.647189
O O1 0.239125 0.527994 0.267025
O O2 0.331633 0.457446 0.124539
O O3 0.137717 0.438798 0.244792
O O4 0.156914 0.500000 0.000000
O O5 0.216303 0.102831 0.406806
O O6 0.236942 0.119708 0.124972
O O7 0.420806 0.088481 0.266088
O O8 0.367300 0.364627 0.155132
O O9 0.500000 0.417454 0.000000
O O10 0.500000 0.225596 0.500000
O O11 0.655452 0.292098 0.420170
O O12 0.705779 0.197397 0.413094
O O13 0.565524 0.228671 0.232263
O O14 0.621383 0.806893 0.107442
O O15 0.731123 0.837434 0.870335
O O16 0.500000 0.000000 0.803585
O O17 0.500000 0.071971 0.000000
O O18 0.123857 0.223186 0.750421
O O19 0.000000 0.232760 0.500000
#
# Coordination Sequence:
#
# PCOD8164178 Si02
#       8
#     8   8   8   8   8   8   8   8
#     4   9  21  44  69  97 134 179 232 290 349 414
#     4  10  24  40  66 101 135 176 226 285 347 417
#     4  11  26  44  68  98 132 185 238 288 342 412
#     4  11  24  43  66  94 135 181 224 277 342 410
#     4  11  25  40  63 101 133 171 226 272 339 411
#     4   9  19  38  66  97 131 169 212 277 355 411
#     4  11  25  42  64  99 132 177 230 283 336 411
#     4  11  23  42  66  90 134 180 218 270 337 404
#
# _framework density 21.949061
#
# number of rings (size 3 to 8) (size 9 to 14) (size 15 to 20)
#    0.000    1.625    2.500    0.375    7.000    9.500 
#    0.000    0.000    0.000    0.000    6.500    0.000 
#    0.000    0.000    0.000    0.000    0.000    0.000 
#
# Total GULP energy -396421.662454 kJ/mol
# GULP energy per Si atom -12388.176952 kJ/mol
# Density = 2.189910 g / cm^3
# Si number density = 21.949061 Si / 1000 Ang^3
#
#
#
# Elastic Constant Matrix: (Units=GPa)
#
#
# Indices 1 2 3 4 5 6 
#
# 1 117.7850 45.1784 46.7286 -0.0016 -0.0004 -0.0005
# 2 45.1784 95.9453 47.0472 -0.0041 0.0021 -0.0001
# 3 46.7286 47.0472 94.4795 -0.0209 0.0140 0.0008
# 4 -0.0016 -0.0041 -0.0209 32.3734 0.0051 0.0005
# 5 -0.0004 0.0021 0.0140 0.0051 39.9892 -0.0007
# 6 -0.0005 -0.0001 0.0008 0.0005 -0.0007 16.6326
#
#
#
# Elastic Compliance Matrix: (Units=1/GPa)
#
#
# Indices 1 2 3 4 5 6 
#
# 1 0.011357 -0.003431 -0.003908 -0.000002 0.000002 0.000001
# 2 -0.003431 0.014826 -0.005686 -0.000002 0.000001 0.000000
# 3 -0.003908 -0.005686 0.015349 0.000009 -0.000005 -0.000001
# 4 -0.000002 -0.000002 0.000009 0.030890 -0.000004 -0.000001
# 5 0.000002 0.000001 -0.000005 -0.000004 0.025007 0.000001
# 6 0.000001 0.000000 -0.000001 -0.000001 0.000001 0.060123
#
#
# Mechanical properties :
#
#
# Convention : Reuss Voigt Hill
#
# Bulk Modulus (GPa) = 64.59561 65.12423 64.85992
# Shear Modulus (GPa) = 26.48839 29.08276 27.78557
#
# Velocity S-wave (km/s) = 3.47769 3.64402 3.56183
# Velocity P-wave (km/s) = 6.75422 6.88769 6.82128
#
# Compressibility (1/GPa) = 0.01548093
#
# Stress axis : x y z
#
# Youngs Moduli (GPa) = 88.05421 67.44736 65.15199
#
# Poissons Ratio (x) = 0.23142 0.25463
# Poissons Ratio (y) = 0.30212 0.37045
# Poissons Ratio (z) = 0.34414 0.38350
#
# Static dielectric constant tensor:
#      x y z
#    x 4.217850 0.000000 0.000050 
#    y 0.000000 3.826700 0.000000 
#    z 0.000050 0.000000 4.031900 
# 
# 
# High freq. dielectric constant tensor:
#      x y z
#    x 1.860950 0.000000 0.000000 
#    y 0.000000 1.853970 0.000000 
#    z 0.000000 0.000000 1.857360 
# 
# From -- ./inp_files/8950.got.cif
#   From: 2010.03.12/outbox.cif.g09.slc.cpg/sg23_5_cif.got.tgz:8950.got - 2010.04.14 02:50:06.
