data_PCOD8164195
_publ_section_title
;
Structure prediction by ZEFSAII (Michael W. Deem and Ramdas Pophale) SiO2 
 PCOD8164195
Probable space group: I 2 2 2
;
_chemical_formula_sum "Si O2"
_cell_formula_units_Z 48
_cell_length_a 8.312181
_cell_length_b 9.198309
_cell_length_c 30.138720
_cell_angle_alpha 90.000000
_cell_angle_beta 90.000000
_cell_angle_gamma 90.000000
_cell_volume 2304.346534
_symmetry_space_group_name_H-M "I 2 2 2"
_symmetry_group_IT_number 23
_symmetry_cell_setting 'orthorhombic'
loop_
_space_group_symop_operation_xyz
x,y,z
-x,-y,z
x,-y,-z
-x,y,-z
1/2+x,1/2+y,1/2+z
1/2-x,1/2-y,1/2+z
1/2+x,1/2-y,1/2-z
1/2-x,1/2+y,1/2-z
loop_
_atom_site_type_symbol
_atom_site_label
_atom_site_fract_x
_atom_site_fract_y
_atom_site_fract_z
Si Si1 0.500000 0.000000 0.577566
Si Si2 0.000000 0.500000 0.569462
Si Si3 0.808586 0.983026 0.129490
Si Si4 0.321620 0.308786 0.290655
Si Si5 0.598813 0.815131 0.654770
Si Si6 0.748843 0.000000 0.500000
Si Si7 0.500000 0.249404 0.000000
Si Si8 0.172212 0.010738 0.294862
O O1 0.503879 0.857733 0.609576
O O2 0.347046 0.995846 0.545874
O O3 0.828876 0.482891 0.594053
O O4 0.987937 0.648171 0.542561
O O5 0.763651 0.089943 0.169409
O O6 0.780545 0.816791 0.144293
O O7 0.000000 0.000000 0.114746
O O8 0.489452 0.235397 0.304255
O O9 0.337241 0.407452 0.247712
O O10 0.198906 0.177777 0.280863
O O11 0.694062 0.958784 0.670252
O O12 0.845392 0.148940 0.500673
O O13 0.000000 0.000000 0.319094
#
# Coordination Sequence:
#
# PCOD8164195 Si02
#       8
#     4   4   8   8   8   4   4   8
#     4  11  22  44  73 102 126 184 229 270 360 417
#     4  11  24  44  69 100 140 172 225 280 348 417
#     4  10  24  42  67  97 134 183 226 289 337 410
#     4  11  23  44  62  94 137 180 234 284 343 406
#     4  11  23  44  65  96 138 173 233 285 332 422
#     4  10  24  44  76  96 138 172 218 286 352 426
#     4  10  24  46  64 104 134 168 212 286 342 422
#     4  12  24  39  65  95 131 185 225 287 346 405
#
# _framework density 20.830200000000001
#
# number of rings (size 3 to 8) (size 9 to 14) (size 15 to 20)
#    0.000    1.167    1.667    4.500    7.000    0.000 
#    6.000    0.833    0.000    0.000    0.000    0.000 
#    0.000    0.000    0.000    0.000    0.000    0.000 
#
# Total GULP energy -297469.675924 kJ/mol
# GULP energy per Si atom -12394.569830 kJ/mol
# Density = 2.078279 g / cm^3
# Si number density = 20.830200 Si / 1000 Ang^3
#
#
#
# Elastic Constant Matrix: (Units=GPa)
#
#
# Indices 1 2 3 4 5 6 
#
# 1 89.4963 25.5708 49.2934 0.0000 0.0000 0.0000
# 2 25.5708 141.1414 37.8547 0.0000 0.0000 0.0000
# 3 49.2934 37.8547 102.4160 0.0000 0.0000 0.0000
# 4 0.0000 0.0000 0.0000 -11.3041 0.0000 0.0000
# 5 0.0000 0.0000 0.0000 0.0000 69.7642 0.0000
# 6 0.0000 0.0000 0.0000 0.0000 0.0000 49.4744
#
#
#
# Elastic Compliance Matrix: (Units=1/GPa)
#
#
# Indices 1 2 3 4 5 6 
#
# 1 0.015303 -0.000885 -0.007038 0.000000 0.000000 0.000000
# 2 -0.000885 0.007916 -0.002500 0.000000 0.000000 0.000000
# 3 -0.007038 -0.002500 0.014076 0.000000 0.000000 0.000000
# 4 0.000000 0.000000 0.000000 -0.088464 0.000000 0.000000
# 5 0.000000 0.000000 0.000000 0.000000 0.014334 0.000000
# 6 0.000000 0.000000 0.000000 0.000000 0.000000 0.020212
#
#
# Mechanical properties :
#
#
# Convention : Reuss Voigt Hill
#
# Bulk Modulus (GPa) = 60.79632 62.05463 61.42548
# Shear Modulus (GPa) = 515.09400 36.27587 275.68494
#
# Velocity S-wave (km/s) = 15.74227 4.17766 11.51677
# Velocity P-wave (km/s) = 18.96511 7.28875 14.36665
#
# Compressibility (1/GPa) = 0.01644836
#
# Stress axis : x y z
#
# Youngs Moduli (GPa) = 65.34611 126.32805 71.04390
#
# Poissons Ratio (x) = 0.11177 0.50004
# Poissons Ratio (y) = 0.05781 0.17761
# Poissons Ratio (z) = 0.45994 0.31582
#
# Static dielectric constant tensor:
#      x y z
#    x 3.923240 0.000000 0.000000 
#    y 0.000000 4.108280 0.000000 
#    z 0.000000 0.000000 3.665600 
# 
# 
# High freq. dielectric constant tensor:
#      x y z
#    x 1.814950 0.000000 0.000000 
#    y 0.000000 1.843220 0.000000 
#    z 0.000000 0.000000 1.808730 
# 
# From -- ./inp_files/13423.got.cif
#   From: 2010.03.12/outbox.cif.g09.slc.cpg/sg23_7_cif.got.tgz:13423.got - 2010.04.14 02:50:06.
