data_PCOD8164784
_publ_section_title
;
Structure prediction by ZEFSAII (Michael W. Deem and Ramdas Pophale) SiO2 
 PCOD8164784
Probable space group: I 21 21 21
;
_chemical_formula_sum "Si O2"
_cell_formula_units_Z 48
_cell_length_a 18.160358
_cell_length_b 8.769658
_cell_length_c 14.631064
_cell_angle_alpha 90.000000
_cell_angle_beta 90.000000
_cell_angle_gamma 90.000000
_cell_volume 2330.145137
_symmetry_space_group_name_H-M "I 21 21 21"
_symmetry_group_IT_number 24
_symmetry_cell_setting 'orthorhombic'
loop_
_space_group_symop_operation_xyz
x,y,z
-x,1/2-y,z
x,-y,1/2-z
1/2-x,y,-z
1/2+x,1/2+y,1/2+z
1/2-x,-y,1/2+z
1/2+x,1/2-y,-z
-x,1/2+y,1/2-z
loop_
_atom_site_type_symbol
_atom_site_label
_atom_site_fract_x
_atom_site_fract_y
_atom_site_fract_z
Si Si1 0.439146 0.125105 0.674839
Si Si2 0.289812 0.735318 0.406342
Si Si3 0.552713 0.107582 0.160705
Si Si4 0.288465 0.821034 0.764285
Si Si5 0.538541 0.593379 0.022409
Si Si6 0.695653 0.405099 0.419834
O O1 0.500000 0.250000 0.682030
O O2 0.364874 0.226729 0.688887
O O3 0.439127 0.031401 0.578391
O O4 0.453904 0.000000 0.750000
O O5 0.250000 0.674788 0.500000
O O6 0.366667 0.652262 0.380087
O O7 0.229709 0.718708 0.324752
O O8 0.305839 0.913377 0.412038
O O9 0.500000 0.250000 0.188370
O O10 0.561494 0.000000 0.250000
O O11 0.511018 0.023810 0.078199
O O12 0.219348 0.808487 0.831658
O O13 0.301613 0.000000 0.750000
O O14 0.500000 0.750000 0.003304
O O15 0.612004 0.643828 0.073640
O O16 0.750000 0.352623 0.500000
#
# Coordination Sequence:
#
# PCOD8164784 Si02
#       6
#     8   8   8   8   8   8
#     4  10  22  40  63  97 127 171 221 272 328 386
#     4  10  23  41  64  96 127 171 225 270 328 399
#     4  12  27  44  67  99 137 176 220 275 346 412
#     4   9  19  34  62  91 122 163 218 265 312 387
#     4  11  24  41  64  97 135 171 220 273 337 402
#     4  10  18  36  65  94 126 170 220 266 319 391
#
# _framework density 20.599575999999999
#
# number of rings (size 3 to 8) (size 9 to 14) (size 15 to 20)
#    0.000    1.667    3.333    0.500    7.000    2.000 
#    0.000    5.000    0.000    0.000    0.000    0.000 
#    0.000    0.000    0.000    0.000    0.000    0.000 
#
# Total GULP energy -297322.995195 kJ/mol
# GULP energy per Si atom -12388.458133 kJ/mol
# Density = 2.055269 g / cm^3
# Si number density = 20.599576 Si / 1000 Ang^3
#
#
#
# Elastic Constant Matrix: (Units=GPa)
#
#
# Indices 1 2 3 4 5 6 
#
# 1 176.3869 35.3854 84.7693 0.0000 0.0000 0.0000
# 2 35.3854 44.2897 42.4748 0.0000 0.0000 0.0000
# 3 84.7693 42.4748 175.7159 0.0000 0.0000 0.0000
# 4 0.0000 0.0000 0.0000 21.3975 0.0000 0.0000
# 5 0.0000 0.0000 0.0000 0.0000 39.8757 0.0000
# 6 0.0000 0.0000 0.0000 0.0000 0.0000 1.9427
#
#
#
# Elastic Compliance Matrix: (Units=1/GPa)
#
#
# Indices 1 2 3 4 5 6 
#
# 1 0.007754 -0.003394 -0.002920 0.000000 0.000000 0.000000
# 2 -0.003394 0.030878 -0.005827 0.000000 0.000000 0.000000
# 3 -0.002920 -0.005827 0.008508 0.000000 0.000000 0.000000
# 4 0.000000 0.000000 0.000000 0.046734 0.000000 0.000000
# 5 0.000000 0.000000 0.000000 0.000000 0.025078 0.000000
# 6 0.000000 0.000000 0.000000 0.000000 0.000000 0.514749
#
#
# Mechanical properties :
#
#
# Convention : Reuss Voigt Hill
#
# Bulk Modulus (GPa) = 43.74795 80.18348 61.96572
# Shear Modulus (GPa) = 7.51198 28.22739 17.86969
#
# Velocity S-wave (km/s) = 1.91170 3.70576 2.94849
# Velocity P-wave (km/s) = 5.11431 7.57097 6.46048
#
# Compressibility (1/GPa) = 0.02285821
#
# Stress axis : x y z
#
# Youngs Moduli (GPa) = 128.97163 32.38511 117.53521
#
# Poissons Ratio (x) = 0.10993 0.34320
# Poissons Ratio (y) = 0.43779 0.68482
# Poissons Ratio (z) = 0.37660 0.18869
#
# Static dielectric constant tensor:
#      x y z
#    x 4.119910 0.000000 0.000000 
#    y 0.000000 1.861550 0.000000 
#    z 0.000000 0.000000 4.392770 
# 
# 
# High freq. dielectric constant tensor:
#      x y z
#    x 1.829500 0.000000 0.000000 
#    y 0.000000 1.764000 0.000000 
#    z 0.000000 0.000000 1.825950 
# 
# From -- ./inp_files/14142.got.cif
#   From: 2010.03.12/outbox.cif.g09.slc.cpg/sg24_8_cif.got.tgz:14142.got - 2010.04.14 03:06:53.
