data_PCOD8164865
_publ_section_title
;
Structure prediction by ZEFSAII (Michael W. Deem and Ramdas Pophale) SiO2 
 PCOD8164865
Probable space group: I 21 21 21
;
_chemical_formula_sum "Si O2"
_cell_formula_units_Z 48
_cell_length_a 11.557968
_cell_length_b 25.553651
_cell_length_c 8.140245
_cell_angle_alpha 90.000000
_cell_angle_beta 90.000000
_cell_angle_gamma 90.000000
_cell_volume 2404.207364
_symmetry_space_group_name_H-M "I 21 21 21"
_symmetry_group_IT_number 24
_symmetry_cell_setting 'orthorhombic'
loop_
_space_group_symop_operation_xyz
x,y,z
-x,1/2-y,z
x,-y,1/2-z
1/2-x,y,-z
1/2+x,1/2+y,1/2+z
1/2-x,-y,1/2+z
1/2+x,1/2-y,-z
-x,1/2+y,1/2-z
loop_
_atom_site_type_symbol
_atom_site_label
_atom_site_fract_x
_atom_site_fract_y
_atom_site_fract_z
Si Si1 0.549783 0.117786 0.593637
Si Si2 0.103235 0.096190 0.844063
Si Si3 0.978783 0.189181 0.694847
Si Si4 0.618969 0.943741 0.202579
Si Si5 0.647279 0.561532 0.710594
Si Si6 0.251896 0.649105 0.316975
O O1 0.493663 0.163538 0.481958
O O2 0.630106 0.077096 0.486617
O O3 0.444546 0.085422 0.666016
O O4 0.626056 0.146240 0.733302
O O5 0.229875 0.090464 0.763740
O O6 0.055020 0.156558 0.830319
O O7 0.017267 0.059442 0.741822
O O8 0.102950 0.073955 0.028083
O O9 0.840239 0.185044 0.715668
O O10 0.000000 0.250000 0.703105
O O11 0.693501 0.908573 0.325657
O O12 0.667723 0.000000 0.250000
O O13 0.659762 0.500000 0.750000
O O14 0.250000 0.672293 0.500000
#
# Coordination Sequence:
#
# PCOD8164865 Si02
#       6
#     8   8   8   8   8   8
#     4  10  21  38  57  88 120 151 203 248 295 378
#     4   9  21  38  55  86 126 156 209 248 297 369
#     4  10  22  43  63  83 114 159 207 264 312 349
#     4  10  19  32  55  83 118 159 196 239 291 350
#     4  11  21  36  61  91 129 165 195 248 310 372
#     4  10  21  39  59  83 119 150 192 250 295 362
#
# _framework density 19.965001000000001
#
# number of rings (size 3 to 8) (size 9 to 14) (size 15 to 20)
#    0.000    2.333    0.000    5.500    0.000    8.667 
#    9.000    1.667    0.000    0.000    0.000    0.000 
#    0.000    0.000    0.000    0.000    0.000    0.000 
#
# Total GULP energy -297372.381859 kJ/mol
# GULP energy per Si atom -12390.515911 kJ/mol
# Density = 1.991956 g / cm^3
# Si number density = 19.965001 Si / 1000 Ang^3
#
#
#
# Elastic Constant Matrix: (Units=GPa)
#
#
# Indices 1 2 3 4 5 6 
#
# 1 77.4865 21.0884 21.3512 -0.0026 0.0005 0.0008
# 2 21.0884 153.2701 27.7856 0.0014 -0.0006 -0.0004
# 3 21.3512 27.7856 91.8680 0.0103 -0.0008 -0.0028
# 4 -0.0026 0.0014 0.0103 17.6874 -0.0021 -0.0020
# 5 0.0005 -0.0006 -0.0008 -0.0021 31.3475 0.0009
# 6 0.0008 -0.0004 -0.0028 -0.0020 0.0009 15.6006
#
#
#
# Elastic Compliance Matrix: (Units=1/GPa)
#
#
# Indices 1 2 3 4 5 6 
#
# 1 0.014075 -0.001422 -0.002841 0.000004 0.000000 -0.000001
# 2 -0.001422 0.007046 -0.001801 0.000000 0.000000 0.000000
# 3 -0.002841 -0.001801 0.012090 -0.000007 0.000000 0.000002
# 4 0.000004 0.000000 -0.000007 0.056537 0.000004 0.000007
# 5 0.000000 0.000000 0.000000 0.000004 0.031900 -0.000002
# 6 -0.000001 0.000000 0.000002 0.000007 -0.000002 0.064100
#
#
# Mechanical properties :
#
#
# Convention : Reuss Voigt Hill
#
# Bulk Modulus (GPa) = 47.42797 51.45277 49.44037
# Shear Modulus (GPa) = 24.40148 29.75373 27.07760
#
# Velocity S-wave (km/s) = 3.49981 3.86462 3.68673
# Velocity P-wave (km/s) = 6.33551 6.76322 6.55286
#
# Compressibility (1/GPa) = 0.02108460
#
# Stress axis : x y z
#
# Youngs Moduli (GPa) = 71.04658 141.91478 82.71156
#
# Poissons Ratio (x) = 0.20174 0.23501
# Poissons Ratio (y) = 0.10099 0.14895
# Poissons Ratio (z) = 0.20187 0.25557
#
# Static dielectric constant tensor:
#      x y z
#    x 3.766360 -0.000010 0.000000 
#    y -0.000010 3.506200 0.000000 
#    z 0.000000 0.000000 3.714530 
# 
# 
# High freq. dielectric constant tensor:
#      x y z
#    x 1.787810 0.000000 0.000000 
#    y 0.000000 1.753350 0.000000 
#    z 0.000000 0.000000 1.780370 
# 
# From -- ./inp_files/11403.got.cif
#   From: 2010.03.12/outbox.cif.g09.slc.cpg/sg24_6_cif.got.tgz:11403.got - 2010.04.14 03:06:53.
