data_PCOD8164768
_publ_section_title
;
Structure prediction by ZEFSAII (Michael W. Deem and Ramdas Pophale) SiO2 
 PCOD8164768
Probable space group: I 21 21 21
;
_chemical_formula_sum "Si O2"
_cell_formula_units_Z 60
_cell_length_a 13.197203
_cell_length_b 16.402977
_cell_length_c 14.428007
_cell_angle_alpha 90.000000
_cell_angle_beta 90.000000
_cell_angle_gamma 90.000000
_cell_volume 3123.279980
_symmetry_space_group_name_H-M "I 21 21 21"
_symmetry_group_IT_number 24
_symmetry_cell_setting 'orthorhombic'
loop_
_space_group_symop_operation_xyz
x,y,z
-x,1/2-y,z
x,-y,1/2-z
1/2-x,y,-z
1/2+x,1/2+y,1/2+z
1/2-x,-y,1/2+z
1/2+x,1/2-y,-z
-x,1/2+y,1/2-z
loop_
_atom_site_type_symbol
_atom_site_label
_atom_site_fract_x
_atom_site_fract_y
_atom_site_fract_z
Si Si1 0.045376 0.580481 0.697028
Si Si2 0.275957 0.421394 0.808198
Si Si3 0.029556 0.522837 0.969073
Si Si4 0.721724 0.677364 0.892624
Si Si5 0.750000 0.994732 0.500000
Si Si6 0.554487 0.669369 0.151938
Si Si7 0.555432 0.553251 0.843807
Si Si8 0.412441 0.306101 0.705752
O O1 0.010775 0.500000 0.750000
O O2 0.161833 0.599809 0.719467
O O3 0.022946 0.562361 0.588882
O O4 0.981813 0.653565 0.742190
O O5 0.314924 0.500000 0.750000
O O6 0.286400 0.437549 0.916558
O O7 0.342709 0.341916 0.786798
O O8 0.150147 0.547702 0.973657
O O9 0.971550 0.597404 0.920360
O O10 0.975682 0.499763 0.066402
O O11 0.826010 0.681788 0.836907
O O12 0.664178 0.595255 0.859958
O O13 0.653572 0.756272 0.869240
O O14 0.750000 0.675621 0.000000
O O15 0.500000 0.750000 0.112921
O O16 0.557849 0.500000 0.750000
O O17 0.466687 0.620067 0.846536
O O18 0.500000 0.250000 0.751702
#
# Coordination Sequence:
#
# PCOD8164768 Si02
#       8
#     8   8   8   8   4   8   8   8
#     4   8  18  34  54  81 112 148 188 239 293 348
#     4  10  18  36  55  88 117 148 196 245 299 349
#     4  10  20  35  55  86 117 147 196 242 298 351
#     4  11  24  40  57  90 122 157 198 244 305 361
#     4  10  20  32  62  86 110 148 194 250 296 340
#     4  11  22  36  58  84 117 156 189 240 301 356
#     4  11  23  40  62  88 120 161 204 246 297 360
#     4  10  22  37  58  83 122 157 195 242 302 360
#
# _framework density 19.210574000000001
#
# number of rings (size 3 to 8) (size 9 to 14) (size 15 to 20)
#    0.000    1.867    1.333    3.600    1.867    2.667 
#    1.200    0.000    0.000   18.400    0.000    0.000 
#    0.000    0.000    0.000    0.000    0.000    0.000 
#
# Total GULP energy -371842.677846 kJ/mol
# GULP energy per Si atom -12394.755928 kJ/mol
# Density = 1.916685 g / cm^3
# Si number density = 19.210574 Si / 1000 Ang^3
#
#
#
# Elastic Constant Matrix: (Units=GPa)
#
#
# Indices 1 2 3 4 5 6 
#
# 1 128.1017 54.1381 46.5593 0.0000 0.0000 0.0000
# 2 54.1381 76.8644 53.9092 0.0001 0.0000 0.0000
# 3 46.5593 53.9092 135.5232 0.0001 0.0000 0.0000
# 4 0.0000 0.0001 0.0001 22.8064 0.0000 0.0000
# 5 0.0000 0.0000 0.0000 0.0000 27.6921 0.0000
# 6 0.0000 0.0000 0.0000 0.0000 0.0000 34.5580
#
#
#
# Elastic Compliance Matrix: (Units=1/GPa)
#
#
# Indices 1 2 3 4 5 6 
#
# 1 0.011209 -0.007204 -0.000985 0.000000 0.000000 0.000000
# 2 -0.007204 0.022674 -0.006544 0.000000 0.000000 0.000000
# 3 -0.000985 -0.006544 0.010321 0.000000 0.000000 0.000000
# 4 0.000000 0.000000 0.000000 0.043847 0.000000 0.000000
# 5 0.000000 0.000000 0.000000 0.000000 0.036111 0.000000
# 6 0.000000 0.000000 0.000000 0.000000 0.000000 0.028937
#
#
# Mechanical properties :
#
#
# Convention : Reuss Voigt Hill
#
# Bulk Modulus (GPa) = 67.85979 72.18918 70.02449
# Shear Modulus (GPa) = 26.66984 29.40347 28.03666
#
# Velocity S-wave (km/s) = 3.73002 3.91652 3.82440
# Velocity P-wave (km/s) = 7.34517 7.62309 7.48542
#
# Compressibility (1/GPa) = 0.01473627
#
# Stress axis : x y z
#
# Youngs Moduli (GPa) = 89.21544 44.10398 96.89370
#
# Poissons Ratio (x) = 0.31771 0.09547
# Poissons Ratio (y) = 0.64268 0.63411
# Poissons Ratio (z) = 0.08790 0.28864
#
# Static dielectric constant tensor:
#      x y z
#    x 3.831290 0.000000 0.000000 
#    y 0.000000 3.424500 0.000000 
#    z 0.000000 0.000000 3.594450 
# 
# 
# High freq. dielectric constant tensor:
#      x y z
#    x 1.761910 0.000000 0.000000 
#    y 0.000000 1.717290 0.000000 
#    z 0.000000 0.000000 1.742710 
# 
# From -- ./inp_files/25982.got.cif
#   From: 2010.03.12/outbox.cif.g09.slc.cpg/sg24_13_cif.got.tgz:25982.got - 2010.04.14 03:06:53.
