data_PCOD8164591
_publ_section_title
;
Structure prediction by ZEFSAII (Michael W. Deem and Ramdas Pophale) SiO2 
 PCOD8164591
Probable space group: I 21 21 21
;
_chemical_formula_sum "Si O2"
_cell_formula_units_Z 44
_cell_length_a 8.064679
_cell_length_b 17.657376
_cell_length_c 13.605530
_cell_angle_alpha 90.000000
_cell_angle_beta 90.000000
_cell_angle_gamma 90.000000
_cell_volume 1937.442022
_symmetry_space_group_name_H-M "I 21 21 21"
_symmetry_group_IT_number 24
_symmetry_cell_setting 'orthorhombic'
loop_
_space_group_symop_operation_xyz
x,y,z
-x,1/2-y,z
x,-y,1/2-z
1/2-x,y,-z
1/2+x,1/2+y,1/2+z
1/2-x,-y,1/2+z
1/2+x,1/2-y,-z
-x,1/2+y,1/2-z
loop_
_atom_site_type_symbol
_atom_site_label
_atom_site_fract_x
_atom_site_fract_y
_atom_site_fract_z
Si Si1 0.512216 0.121938 0.454538
Si Si2 0.230942 0.000000 0.250000
Si Si3 0.342364 0.853596 0.855671
Si Si4 0.584501 0.537513 0.436887
Si Si5 0.621481 0.181312 0.083107
Si Si6 0.176308 0.288709 0.706618
O O1 0.491154 0.156044 0.564790
O O2 0.336435 0.132536 0.402210
O O3 0.665218 0.158668 0.392745
O O4 0.539223 0.031899 0.461668
O O5 0.118945 0.929519 0.209286
O O6 0.356681 0.961099 0.325310
O O7 0.325325 0.773402 0.798361
O O8 0.750000 0.532608 0.500000
O O9 0.478568 0.611046 0.460078
O O10 0.500000 0.250000 0.100293
O O11 0.704949 0.164810 0.191125
O O12 0.750000 0.205583 0.000000
O O13 0.000000 0.250000 0.710861
#
# Coordination Sequence:
#
# PCOD8164591 Si02
#       6
#     8   4   8   8   8   8
#     4   9  16  32  56  90 115 159 213 262 321 376
#     4  10  16  30  58  92 124 154 216 264 318 390
#     4   9  16  29  53  89 119 148 204 270 311 374
#     4  11  19  34  62  91 122 165 213 270 317 383
#     4  11  23  39  60  92 126 171 215 264 323 393
#     4   9  18  33  59  88 119 162 213 260 319 385
#
# _framework density 22.710356999999998
#
# number of rings (size 3 to 8) (size 9 to 14) (size 15 to 20)
#    0.000    2.182    3.636    4.909    0.000    0.000 
#    0.000    0.000   16.000   32.727    0.000    0.000 
#    0.000    0.000    0.000    0.000    0.000    0.000 
#
# Total GULP energy -272555.449962 kJ/mol
# GULP energy per Si atom -12388.884089 kJ/mol
# Density = 2.265867 g / cm^3
# Si number density = 22.710357 Si / 1000 Ang^3
#
#
#
# Elastic Constant Matrix: (Units=GPa)
#
#
# Indices 1 2 3 4 5 6 
#
# 1 47.1648 29.5388 31.6945 0.0000 0.0000 0.0000
# 2 29.5388 143.2036 47.0825 0.0000 0.0000 0.0000
# 3 31.6945 47.0825 132.1863 0.0002 0.0000 0.0000
# 4 0.0000 0.0000 0.0002 36.1298 0.0000 0.0000
# 5 0.0000 0.0000 0.0000 0.0000 -5.3408 0.0000
# 6 0.0000 0.0000 0.0000 0.0000 0.0000 4.2238
#
#
#
# Elastic Compliance Matrix: (Units=1/GPa)
#
#
# Indices 1 2 3 4 5 6 
#
# 1 0.027077 -0.003908 -0.005100 0.000000 0.000000 0.000000
# 2 -0.003908 0.008473 -0.002081 0.000000 0.000000 0.000000
# 3 -0.005100 -0.002081 0.009529 0.000000 0.000000 0.000000
# 4 0.000000 0.000000 0.000000 0.027678 0.000000 0.000000
# 5 0.000000 0.000000 0.000000 0.000000 -0.187237 0.000000
# 6 0.000000 0.000000 0.000000 0.000000 0.000000 0.236756
#
#
# Mechanical properties :
#
#
# Convention : Reuss Voigt Hill
#
# Bulk Modulus (GPa) = 43.66679 59.90961 51.78820
# Shear Modulus (GPa) = 32.87538 21.28513 27.08025
#
# Velocity S-wave (km/s) = 3.80885 3.06476 3.45689
# Velocity P-wave (km/s) = 6.21390 6.24186 6.22790
#
# Compressibility (1/GPa) = 0.02290070
#
# Stress axis : x y z
#
# Youngs Moduli (GPa) = 36.93115 118.01578 104.94078
#
# Poissons Ratio (x) = 0.46126 0.53523
# Poissons Ratio (y) = 0.14434 0.21838
# Poissons Ratio (z) = 0.18836 0.24559
#
# Static dielectric constant tensor:
#      x y z
#    x 3.576490 0.000000 0.000000 
#    y 0.000000 4.512990 0.000000 
#    z 0.000000 0.000000 4.527130 
# 
# 
# High freq. dielectric constant tensor:
#      x y z
#    x 1.848100 0.000000 0.000000 
#    y 0.000000 1.901650 0.000000 
#    z 0.000000 0.000000 1.904520 
# 
# From -- ./inp_files/24695.got.cif
#   From: 2010.03.12/outbox.cif.g09.slc.cpg/sg24_13_cif.got.tgz:24695.got - 2010.04.14 03:06:53.
