data_PCOD8164437
_publ_section_title
;
Structure prediction by ZEFSAII (Michael W. Deem and Ramdas Pophale) SiO2 
 PCOD8164437
Probable space group: I 2 2 2
;
_chemical_formula_sum "Si O2"
_cell_formula_units_Z 36
_cell_length_a 5.973350
_cell_length_b 12.820431
_cell_length_c 20.303934
_cell_angle_alpha 90.000000
_cell_angle_beta 90.000000
_cell_angle_gamma 90.000000
_cell_volume 1554.893976
_symmetry_space_group_name_H-M "I 2 2 2"
_symmetry_group_IT_number 23
_symmetry_cell_setting 'orthorhombic'
loop_
_space_group_symop_operation_xyz
x,y,z
-x,-y,z
x,-y,-z
-x,y,-z
1/2+x,1/2+y,1/2+z
1/2-x,1/2-y,1/2+z
1/2+x,1/2-y,1/2-z
1/2-x,1/2+y,1/2-z
loop_
_atom_site_type_symbol
_atom_site_label
_atom_site_fract_x
_atom_site_fract_y
_atom_site_fract_z
Si Si1 0.000000 0.000000 0.500000
Si Si2 0.108308 0.331993 0.600636
Si Si3 0.708110 0.209338 0.657784
Si Si4 0.141743 0.361180 0.062502
Si Si5 0.000000 0.500000 0.500000
Si Si6 0.405964 0.384426 0.717791
O O1 0.857994 0.065047 0.445577
O O2 0.287306 0.257701 0.566764
O O3 0.184856 0.370755 0.672712
O O4 0.871541 0.270074 0.605954
O O5 0.133394 0.427080 0.550151
O O6 0.531756 0.128194 0.623987
O O7 0.591818 0.300359 0.699020
O O8 0.848607 0.135338 0.706107
O O9 0.000000 0.388105 0.000000
O O10 0.500000 0.500000 0.708661
#
# Coordination Sequence:
#
# PCOD8164437 Si02
#       6
#     2   8   8   8   2   8
#     4  12  24  48  68 104 140 180 244 306 376 468
#     4  11  24  45  71 108 145 192 244 312 373 447
#     4  11  23  48  72 104 151 190 247 316 368 449
#     4  11  25  46  71  98 144 190 243 307 374 447
#     4  12  22  40  78 102 140 186 240 300 366 450
#     4  11  24  45  73 107 147 197 250 306 379 447
#
# _framework density 23.152704
#
# number of rings (size 3 to 8) (size 9 to 14) (size 15 to 20)
#    0.000    0.889    2.222    5.000    0.000    1.778 
#   12.000    6.667    0.000    0.000    0.000    0.000 
#    0.000    0.000    0.000    0.000    0.000    0.000 
#
# Total GULP energy -223008.622891 kJ/mol
# GULP energy per Si atom -12389.367938 kJ/mol
# Density = 2.310001 g / cm^3
# Si number density = 23.152704 Si / 1000 Ang^3
#
#
#
# Elastic Constant Matrix: (Units=GPa)
#
#
# Indices 1 2 3 4 5 6 
#
# 1 111.5026 40.8656 39.2859 0.0000 0.0000 0.0000
# 2 40.8656 98.8484 51.6875 0.0000 0.0000 0.0000
# 3 39.2859 51.6875 101.5772 0.0000 0.0000 0.0000
# 4 0.0000 0.0000 0.0000 37.5486 0.0000 0.0000
# 5 0.0000 0.0000 0.0000 0.0000 32.8287 0.0000
# 6 0.0000 0.0000 0.0000 0.0000 0.0000 -301.7518
#
#
#
# Elastic Compliance Matrix: (Units=1/GPa)
#
#
# Indices 1 2 3 4 5 6 
#
# 1 0.011074 -0.003186 -0.002662 0.000000 0.000000 0.000000
# 2 -0.003186 0.014701 -0.006248 0.000000 0.000000 0.000000
# 3 -0.002662 -0.006248 0.014053 0.000000 0.000000 0.000000
# 4 0.000000 0.000000 0.000000 0.026632 0.000000 0.000000
# 5 0.000000 0.000000 0.000000 0.000000 0.030461 0.000000
# 6 0.000000 0.000000 0.000000 0.000000 0.000000 -0.003314
#
#
# Mechanical properties :
#
#
# Convention : Reuss Voigt Hill
#
# Bulk Modulus (GPa) = 63.95466 63.95625 63.95546
# Shear Modulus (GPa) = 40.64638 -34.26896 3.18871
#
# Velocity S-wave (km/s) = 4.19451 -3.85142 1.17484
# Velocity P-wave (km/s) = 7.15133 2.81172 5.43356
#
# Compressibility (1/GPa) = 0.01563608
#
# Stress axis : x y z
#
# Youngs Moduli (GPa) = 90.30180 68.02259 71.15673
#
# Poissons Ratio (x) = 0.21675 0.18939
# Poissons Ratio (y) = 0.28774 0.44460
# Poissons Ratio (z) = 0.24034 0.42502
#
# Static dielectric constant tensor:
#      x y z
#    x 4.789310 0.000000 0.000000 
#    y 0.000000 4.295060 0.000000 
#    z 0.000000 0.000000 5.126730 
# 
# 
# High freq. dielectric constant tensor:
#      x y z
#    x 1.922320 0.000000 0.000000 
#    y 0.000000 1.923800 0.000000 
#    z 0.000000 0.000000 1.918990 
# 
# From -- ./inp_files/25614.got.cif
#   From: 2010.03.12/outbox.cif.g09.slc.cpg/sg23_13_cif.got.tgz:25614.got - 2010.04.14 02:50:06.
