data_PCOD8164595
_publ_section_title
;
Structure prediction by ZEFSAII (Michael W. Deem and Ramdas Pophale) SiO2 
 PCOD8164595
Probable space group: I 21 21 21
;
_chemical_formula_sum "Si O2"
_cell_formula_units_Z 52
_cell_length_a 15.068820
_cell_length_b 8.461433
_cell_length_c 20.361426
_cell_angle_alpha 90.000000
_cell_angle_beta 90.000000
_cell_angle_gamma 90.000000
_cell_volume 2596.159409
_symmetry_space_group_name_H-M "I 21 21 21"
_symmetry_group_IT_number 24
_symmetry_cell_setting 'orthorhombic'
loop_
_space_group_symop_operation_xyz
x,y,z
-x,1/2-y,z
x,-y,1/2-z
1/2-x,y,-z
1/2+x,1/2+y,1/2+z
1/2-x,-y,1/2+z
1/2+x,1/2-y,-z
-x,1/2+y,1/2-z
loop_
_atom_site_type_symbol
_atom_site_label
_atom_site_fract_x
_atom_site_fract_y
_atom_site_fract_z
Si Si1 0.750000 0.809005 0.500000
Si Si2 0.667761 0.044237 0.598693
Si Si3 0.326984 0.435217 0.179134
Si Si4 0.004723 0.936941 0.441297
Si Si5 0.487368 0.563406 0.412349
Si Si6 0.805843 0.404535 0.433993
Si Si7 0.326927 0.113327 0.118102
O O1 0.813044 0.707888 0.548524
O O2 0.684874 0.919234 0.540981
O O3 0.682958 0.220958 0.575769
O O4 0.730829 0.006228 0.660299
O O5 0.562380 0.018190 0.611967
O O6 0.352889 0.500000 0.250000
O O7 0.403569 0.497660 0.129580
O O8 0.324169 0.243082 0.176864
O O9 0.000000 0.750000 0.431854
O O10 0.973819 0.995183 0.513598
O O11 0.103037 0.000569 0.431617
O O12 0.500000 0.750000 0.408694
O O13 0.582561 0.508398 0.382958
O O14 0.750000 0.436603 0.500000
O O15 0.750648 0.483863 0.373943
#
# Coordination Sequence:
#
# PCOD8164595 Si02
#       7
#     4   8   8   8   8   8   8
#     4  10  16  32  58  84 116 158 190 242 302 366
#     4  11  22  35  55  86 123 151 195 252 304 353
#     4  10  22  40  60  80 112 165 220 254 284 336
#     4  11  20  36  63  91 122 154 192 239 307 382
#     4   9  17  31  56  84 114 150 194 243 292 354
#     4  12  22  35  56  94 129 153 181 240 323 382
#     4  10  18  36  59  85 121 159 203 240 296 378
#
# _framework density 20.029586999999999
#
# number of rings (size 3 to 8) (size 9 to 14) (size 15 to 20)
#    0.000    1.538    3.077    6.000    0.000    0.000 
#    0.000    6.154    0.000    5.538    0.000    0.000 
#    0.000    0.000    0.000    0.000    0.000    0.000 
#
# Total GULP energy -322173.988056 kJ/mol
# GULP energy per Si atom -12391.307233 kJ/mol
# Density = 1.998400 g / cm^3
# Si number density = 20.029587 Si / 1000 Ang^3
#
#
#
# Elastic Constant Matrix: (Units=GPa)
#
#
# Indices 1 2 3 4 5 6 
#
# 1 171.1619 36.0464 28.0892 0.0000 0.0000 0.0000
# 2 36.0464 87.6789 8.3496 0.0000 0.0000 0.0000
# 3 28.0892 8.3496 50.4160 0.0000 0.0000 0.0000
# 4 0.0000 0.0000 0.0000 12.4049 0.0000 0.0000
# 5 0.0000 0.0000 0.0000 0.0000 17.7489 0.0000
# 6 0.0000 0.0000 0.0000 0.0000 0.0000 27.2864
#
#
#
# Elastic Compliance Matrix: (Units=1/GPa)
#
#
# Indices 1 2 3 4 5 6 
#
# 1 0.006940 -0.002525 -0.003449 0.000000 0.000000 0.000000
# 2 -0.002525 0.012507 -0.000665 0.000000 0.000000 0.000000
# 3 -0.003449 -0.000665 0.021866 0.000000 0.000000 0.000000
# 4 0.000000 0.000000 0.000000 0.080613 0.000000 0.000000
# 5 0.000000 0.000000 0.000000 0.000000 0.056341 0.000000
# 6 0.000000 0.000000 0.000000 0.000000 0.000000 0.036648
#
#
# Mechanical properties :
#
#
# Convention : Reuss Voigt Hill
#
# Bulk Modulus (GPa) = 35.66690 50.46969 43.06830
# Shear Modulus (GPa) = 21.04934 27.27283 24.16109
#
# Velocity S-wave (km/s) = 3.24529 3.69403 3.47691
# Velocity P-wave (km/s) = 5.64698 6.59141 6.13739
#
# Compressibility (1/GPa) = 0.02803720
#
# Stress axis : x y z
#
# Youngs Moduli (GPa) = 144.09076 79.95821 45.73236
#
# Poissons Ratio (x) = 0.20188 0.15771
# Poissons Ratio (y) = 0.36380 0.03039
# Poissons Ratio (z) = 0.49690 0.05314
#
# Static dielectric constant tensor:
#      x y z
#    x 4.495320 0.000000 0.000000 
#    y 0.000000 3.621860 0.000000 
#    z 0.000000 0.000000 3.136550 
# 
# 
# High freq. dielectric constant tensor:
#      x y z
#    x 1.814330 0.000000 0.000000 
#    y 0.000000 1.775730 0.000000 
#    z 0.000000 0.000000 1.712770 
# 
# From -- ./inp_files/33722.got.cif
#   From: 2010.03.12/outbox.cif.g09.slc.cpg/sg24_17_cif.got.tgz:33722.got - 2010.04.14 03:06:53.
