data_PCOD8164105
_publ_section_title
;
Structure prediction by ZEFSAII (Michael W. Deem and Ramdas Pophale) SiO2 
 PCOD8164105
Probable space group: I 2 2 2
;
_chemical_formula_sum "Si O2"
_cell_formula_units_Z 52
_cell_length_a 8.266256
_cell_length_b 26.207766
_cell_length_c 10.540389
_cell_angle_alpha 90.000000
_cell_angle_beta 90.000000
_cell_angle_gamma 90.000000
_cell_volume 2283.470958
_symmetry_space_group_name_H-M "I 2 2 2"
_symmetry_group_IT_number 23
_symmetry_cell_setting 'orthorhombic'
loop_
_space_group_symop_operation_xyz
x,y,z
-x,-y,z
x,-y,-z
-x,y,-z
1/2+x,1/2+y,1/2+z
1/2-x,1/2-y,1/2+z
1/2+x,1/2-y,1/2-z
1/2-x,1/2+y,1/2-z
loop_
_atom_site_type_symbol
_atom_site_label
_atom_site_fract_x
_atom_site_fract_y
_atom_site_fract_z
Si Si1 0.303656 0.713064 0.207932
Si Si2 0.000000 0.424211 0.000000
Si Si3 0.600240 0.139609 0.882761
Si Si4 0.836282 0.913008 0.945918
Si Si5 0.351191 0.682174 0.719976
Si Si6 0.586153 0.049353 0.230222
Si Si7 0.182808 0.861876 0.487687
O O1 0.176757 0.684522 0.299772
O O2 0.477654 0.708888 0.269067
O O3 0.274054 0.772926 0.191117
O O4 0.311695 0.689882 0.067703
O O5 0.929432 0.457456 0.882564
O O6 0.835984 0.393922 0.041597
O O7 0.479886 0.106035 0.797758
O O8 0.500000 0.164483 0.000000
O O9 0.720934 0.095583 0.933292
O O10 0.867701 0.855971 0.896220
O O11 0.764879 0.949843 0.834608
O O12 0.000000 0.938191 0.000000
O O13 0.288009 0.650697 0.841344
O O14 0.500000 0.000000 0.167950
O O15 0.000000 0.887128 0.500000
#
# Coordination Sequence:
#
# PCOD8164105 Si02
#       7
#     8   4   8   8   8   8   8
#     4  11  24  40  63  94 139 184 236 288 347 419
#     4  12  21  44  82  98 144 182 226 296 373 420
#     4  10  23  40  65  91 136 176 221 286 347 413
#     4  11  23  44  69  97 140 187 230 294 355 433
#     4  11  25  39  63 100 138 183 242 290 345 426
#     4  11  25  46  74 106 135 174 239 295 372 444
#     4  10  24  42  64  97 140 188 231 289 352 425
#
# _framework density 22.772349999999999
#
# number of rings (size 3 to 8) (size 9 to 14) (size 15 to 20)
#    0.000    1.231    4.615    0.231    8.615    3.385 
#    0.000    1.538    0.000    0.923    0.000    0.000 
#    0.000    0.000    0.000    0.000    0.000    0.000 
#
# Total GULP energy -322177.085215 kJ/mol
# GULP energy per Si atom -12391.426354 kJ/mol
# Density = 2.272052 g / cm^3
# Si number density = 22.772350 Si / 1000 Ang^3
#
#
#
# Elastic Constant Matrix: (Units=GPa)
#
#
# Indices 1 2 3 4 5 6 
#
# 1 144.8702 20.9585 35.2353 0.0011 0.0006 -0.0002
# 2 20.9585 65.0227 11.9637 0.0015 -0.0003 -0.0004
# 3 35.2353 11.9637 98.4628 -0.0082 -0.0011 0.0003
# 4 0.0011 0.0015 -0.0082 8.5998 -0.0003 -0.0001
# 5 0.0006 -0.0003 -0.0011 -0.0003 40.4962 0.0003
# 6 -0.0002 -0.0004 0.0003 -0.0001 0.0003 22.7885
#
#
#
# Elastic Compliance Matrix: (Units=1/GPa)
#
#
# Indices 1 2 3 4 5 6 
#
# 1 0.007819 -0.002051 -0.002549 -0.000003 0.000000 0.000000
# 2 -0.002051 0.016269 -0.001243 -0.000004 0.000000 0.000000
# 3 -0.002549 -0.001243 0.011219 0.000011 0.000000 0.000000
# 4 -0.000003 -0.000004 0.000011 0.116281 0.000001 0.000001
# 5 0.000000 0.000000 0.000000 0.000001 0.024694 0.000000
# 6 0.000000 0.000000 0.000000 0.000001 0.000000 0.043882
#
#
# Mechanical properties :
#
#
# Convention : Reuss Voigt Hill
#
# Bulk Modulus (GPa) = 42.33390 49.40786 45.87088
# Shear Modulus (GPa) = 20.85728 30.39012 25.62370
#
# Velocity S-wave (km/s) = 3.02967 3.65707 3.35806
# Velocity P-wave (km/s) = 5.55598 6.29092 5.93484
#
# Compressibility (1/GPa) = 0.02362173
#
# Stress axis : x y z
#
# Youngs Moduli (GPa) = 127.88586 61.46614 89.13239
#
# Poissons Ratio (x) = 0.12609 0.22720
# Poissons Ratio (y) = 0.26235 0.11076
# Poissons Ratio (z) = 0.32598 0.07638
#
# Static dielectric constant tensor:
#      x y z
#    x 4.771290 -0.000060 -0.000110 
#    y -0.000060 3.686430 0.000000 
#    z -0.000110 0.000000 4.268190 
# 
# 
# High freq. dielectric constant tensor:
#      x y z
#    x 1.911730 0.000000 0.000000 
#    y 0.000000 1.870990 0.000000 
#    z 0.000000 0.000000 1.907590 
# 
# From -- ./inp_files/14852.got.cif
#   From: 2010.03.12/outbox.cif.g09.slc.cpg/sg23_8_cif.got.tgz:14852.got - 2010.04.14 02:50:06.
