data_PCOD8164457
_publ_section_title
;
Structure prediction by ZEFSAII (Michael W. Deem and Ramdas Pophale) SiO2 
 PCOD8164457
Probable space group: I 2 2 2
;
_chemical_formula_sum "Si O2"
_cell_formula_units_Z 32
_cell_length_a 5.051002
_cell_length_b 20.246200
_cell_length_c 12.620507
_cell_angle_alpha 90.000000
_cell_angle_beta 90.000000
_cell_angle_gamma 90.000000
_cell_volume 1290.618438
_symmetry_space_group_name_H-M "I 2 2 2"
_symmetry_group_IT_number 23
_symmetry_cell_setting 'orthorhombic'
loop_
_space_group_symop_operation_xyz
x,y,z
-x,-y,z
x,-y,-z
-x,y,-z
1/2+x,1/2+y,1/2+z
1/2-x,1/2-y,1/2+z
1/2+x,1/2-y,1/2-z
1/2-x,1/2+y,1/2-z
loop_
_atom_site_type_symbol
_atom_site_label
_atom_site_fract_x
_atom_site_fract_y
_atom_site_fract_z
Si Si1 0.653470 0.815043 0.107323
Si Si2 0.765622 0.042244 0.817783
Si Si3 0.050093 0.887113 0.615894
Si Si4 0.459428 0.803845 0.335571
O O1 0.742038 0.891012 0.114909
O O2 0.480265 0.794100 0.209009
O O3 0.906790 0.766573 0.108920
O O4 0.500000 0.802533 0.000000
O O5 0.846333 0.057136 0.696202
O O6 0.500000 0.000000 0.820390
O O7 0.000000 0.000000 0.871255
O O8 0.224075 0.856416 0.345649
O O9 0.273801 0.830236 0.609195
O O10 0.000000 0.918341 0.500000
#
# Coordination Sequence:
#
# PCOD8164457 Si02
#       4
#     8   8   8   8
#     4  11  25  48  75 103 140 186 225 284 356 410
#     4  11  25  47  69  99 143 188 241 286 322 402
#     4  11  24  45  73 104 142 182 224 289 359 410
#     4  11  24  44  72 109 141 170 228 292 349 424
#
# _framework density 24.794315000000001
#
# number of rings (size 3 to 8) (size 9 to 14) (size 15 to 20)
#    0.000    1.000    0.000    7.500    0.000    5.000 
#    0.000   33.750    0.000    1.500    0.000    0.000 
#    0.000    0.000    0.000    0.000    0.000    0.000 
#
# Total GULP energy -198440.920159 kJ/mol
# GULP energy per Si atom -12402.557510 kJ/mol
# Density = 2.473788 g / cm^3
# Si number density = 24.794315 Si / 1000 Ang^3
#
#
#
# Elastic Constant Matrix: (Units=GPa)
#
#
# Indices 1 2 3 4 5 6 
#
# 1 79.4446 -5.7380 56.9720 0.0000 0.0000 0.0000
# 2 -5.7380 101.2289 27.9000 0.0000 0.0000 0.0000
# 3 56.9720 27.9000 101.7078 0.0000 0.0000 0.0000
# 4 0.0000 0.0000 0.0000 12.8407 0.0000 0.0000
# 5 0.0000 0.0000 0.0000 0.0000 29.2499 0.0000
# 6 0.0000 0.0000 0.0000 0.0000 0.0000 42.1215
#
#
#
# Elastic Compliance Matrix: (Units=1/GPa)
#
#
# Indices 1 2 3 4 5 6 
#
# 1 0.023445 0.005353 -0.014601 0.000000 0.000000 0.000000
# 2 0.005353 0.011909 -0.006265 0.000000 0.000000 0.000000
# 3 -0.014601 -0.006265 0.019730 0.000000 0.000000 0.000000
# 4 0.000000 0.000000 0.000000 0.077877 0.000000 0.000000
# 5 0.000000 0.000000 0.000000 0.000000 0.034188 0.000000
# 6 0.000000 0.000000 0.000000 0.000000 0.000000 0.023741
#
#
# Mechanical properties :
#
#
# Convention : Reuss Voigt Hill
#
# Bulk Modulus (GPa) = 41.56842 48.96104 45.26473
# Shear Modulus (GPa) = 21.74519 30.39224 26.06871
#
# Velocity S-wave (km/s) = 2.96467 3.50490 3.24605
# Velocity P-wave (km/s) = 5.34048 6.01406 5.68725
#
# Compressibility (1/GPa) = 0.02405672
#
# Stress axis : x y z
#
# Youngs Moduli (GPa) = 42.65286 83.97102 50.68482
#
# Poissons Ratio (x) = -0.44952 0.74007
# Poissons Ratio (y) = -0.22833 0.31756
# Poissons Ratio (z) = 0.62279 0.52611
#
# Static dielectric constant tensor:
#      x y z
#    x 4.797580 0.000000 0.000000 
#    y 0.000000 4.577670 0.000000 
#    z 0.000000 0.000000 4.517740 
# 
# 
# High freq. dielectric constant tensor:
#      x y z
#    x 2.002490 0.000000 0.000000 
#    y 0.000000 1.991210 0.000000 
#    z 0.000000 0.000000 1.988980 
# 
# From -- ./inp_files/13757.got.cif
#   From: 2010.03.12/outbox.cif.g09.slc.cpg/sg23_7_cif.got.tgz:13757.got - 2010.04.14 02:50:06.
