data_PCOD8164101
_publ_section_title
;
Structure prediction by ZEFSAII (Michael W. Deem and Ramdas Pophale) SiO2 
 PCOD8164101
Probable space group: I 2 2 2
;
_chemical_formula_sum "Si O2"
_cell_formula_units_Z 40
_cell_length_a 7.042291
_cell_length_b 17.177425
_cell_length_c 14.325723
_cell_angle_alpha 90.000000
_cell_angle_beta 90.000000
_cell_angle_gamma 90.000000
_cell_volume 1732.960155
_symmetry_space_group_name_H-M "I 2 2 2"
_symmetry_group_IT_number 23
_symmetry_cell_setting 'orthorhombic'
loop_
_space_group_symop_operation_xyz
x,y,z
-x,-y,z
x,-y,-z
-x,y,-z
1/2+x,1/2+y,1/2+z
1/2-x,1/2-y,1/2+z
1/2+x,1/2-y,1/2-z
1/2-x,1/2+y,1/2-z
loop_
_atom_site_type_symbol
_atom_site_label
_atom_site_fract_x
_atom_site_fract_y
_atom_site_fract_z
Si Si1 0.682487 0.288312 0.629145
Si Si2 0.806213 0.815597 0.203174
Si Si3 0.476823 0.912994 0.109211
Si Si4 0.991357 0.910117 0.358126
Si Si5 0.220301 0.651965 0.998443
O O1 0.734066 0.251647 0.729194
O O2 0.450699 0.285273 0.621848
O O3 0.761090 0.238562 0.540931
O O4 0.769396 0.375398 0.627566
O O5 0.629427 0.856535 0.155452
O O6 0.941939 0.873752 0.259164
O O7 0.500000 0.000000 0.152580
O O8 0.500000 0.918791 0.000000
O O9 0.179296 0.864066 0.398101
O O10 0.818221 0.906890 0.430233
O O11 0.000000 0.000000 0.336930
O O12 0.000000 0.630496 0.000000
#
# Coordination Sequence:
#
# PCOD8164101 Si02
#       5
#     8   8   8   8   8
#     4  11  25  41  72 104 138 182 243 291 355 416
#     4  11  25  44  71 104 140 185 238 299 349 419
#     4  11  28  49  71 102 144 190 238 297 359 428
#     4  10  24  42  65 101 146 182 226 294 357 435
#     4  10  23  39  67 103 134 187 228 286 357 421
#
# _framework density 23.081893000000001
#
# number of rings (size 3 to 8) (size 9 to 14) (size 15 to 20)
#    0.000    1.400    2.000    1.200   14.000    1.600 
#    0.000    2.000    0.000    0.000    0.000    0.000 
#    0.000    0.000    0.000    0.000    0.000    0.000 
#
# Total GULP energy -247902.869677 kJ/mol
# GULP energy per Si atom -12395.143484 kJ/mol
# Density = 2.302936 g / cm^3
# Si number density = 23.081893 Si / 1000 Ang^3
#
#
#
# Elastic Constant Matrix: (Units=GPa)
#
#
# Indices 1 2 3 4 5 6 
#
# 1 127.8499 1.4763 2.7144 0.0000 0.0000 0.0000
# 2 1.4763 81.8674 1.7007 -0.0001 0.0000 0.0000
# 3 2.7144 1.7007 57.6207 -0.0002 0.0000 0.0000
# 4 0.0000 -0.0001 -0.0002 -3.1813 0.0000 0.0000
# 5 0.0000 0.0000 0.0000 0.0000 28.1608 0.0000
# 6 0.0000 0.0000 0.0000 0.0000 0.0000 15.2586
#
#
#
# Elastic Compliance Matrix: (Units=1/GPa)
#
#
# Indices 1 2 3 4 5 6 
#
# 1 0.007831 -0.000134 -0.000365 0.000000 0.000000 0.000000
# 2 -0.000134 0.012225 -0.000355 0.000000 0.000000 0.000000
# 3 -0.000365 -0.000355 0.017383 -0.000001 0.000000 0.000000
# 4 0.000000 0.000000 -0.000001 -0.314334 0.000000 0.000000
# 5 0.000000 0.000000 0.000000 0.000000 0.035510 0.000000
# 6 0.000000 0.000000 0.000000 0.000000 0.000000 0.065537
#
#
# Mechanical properties :
#
#
# Convention : Reuss Voigt Hill
#
# Bulk Modulus (GPa) = 27.98619 31.01343 29.49981
# Shear Modulus (GPa) = -30.82017 25.47739 -2.67139
#
# Velocity S-wave (km/s) = -3.65808 3.32593 -1.07697
# Velocity P-wave (km/s) = 2.38557 5.31173 3.35585
#
# Compressibility (1/GPa) = 0.03573190
#
# Stress axis : x y z
#
# Youngs Moduli (GPa) = 127.69823 81.80193 57.52905
#
# Poissons Ratio (x) = 0.01093 0.02100
# Poissons Ratio (y) = 0.01706 0.02040
# Poissons Ratio (z) = 0.04660 0.02900
#
# Static dielectric constant tensor:
#      x y z
#    x 4.400770 0.000000 0.000000 
#    y 0.000000 4.350780 0.000000 
#    z 0.000000 0.000000 4.165740 
# 
# 
# High freq. dielectric constant tensor:
#      x y z
#    x 1.920240 0.000000 0.000000 
#    y 0.000000 1.909300 0.000000 
#    z 0.000000 0.000000 1.917190 
# 
# From -- ./inp_files/23015.got.cif
#   From: 2010.03.12/outbox.cif.g09.slc.cpg/sg23_12_cif.got.tgz:23015.got - 2010.04.14 02:50:06.
