data_PCOD8164943
_publ_section_title
;
Structure prediction by ZEFSAII (Michael W. Deem and Ramdas Pophale) SiO2 
 PCOD8164943
Probable space group: I 21 21 21
;
_chemical_formula_sum "Si O2"
_cell_formula_units_Z 60
_cell_length_a 26.641152
_cell_length_b 14.440649
_cell_length_c 7.879169
_cell_angle_alpha 90.000000
_cell_angle_beta 90.000000
_cell_angle_gamma 90.000000
_cell_volume 3031.238638
_symmetry_space_group_name_H-M "I 21 21 21"
_symmetry_group_IT_number 24
_symmetry_cell_setting 'orthorhombic'
loop_
_space_group_symop_operation_xyz
x,y,z
-x,1/2-y,z
x,-y,1/2-z
1/2-x,y,-z
1/2+x,1/2+y,1/2+z
1/2-x,-y,1/2+z
1/2+x,1/2-y,-z
-x,1/2+y,1/2-z
loop_
_atom_site_type_symbol
_atom_site_label
_atom_site_fract_x
_atom_site_fract_y
_atom_site_fract_z
Si Si1 0.144537 0.192978 0.091464
Si Si2 0.135164 0.186161 0.485471
Si Si3 0.281713 0.088809 0.334045
Si Si4 0.549127 0.200690 0.929029
Si Si5 0.587189 0.491330 0.941716
Si Si6 0.750000 0.329590 0.000000
Si Si7 0.478806 0.509053 0.441935
Si Si8 0.453773 0.694475 0.963203
O O1 0.151776 0.206560 0.293068
O O2 0.101110 0.255273 0.005905
O O3 0.130423 0.086485 0.045861
O O4 0.196480 0.223975 0.998021
O O5 0.182578 0.175032 0.611764
O O6 0.098131 0.268901 0.549010
O O7 0.107920 0.088169 0.504660
O O8 0.250000 0.058137 0.500000
O O9 0.244798 0.116514 0.179492
O O10 0.310905 0.000000 0.250000
O O11 0.500000 0.250000 0.012718
O O12 0.548546 0.224713 0.731196
O O13 0.551108 0.092290 0.969662
O O14 0.567314 0.500000 0.750000
O O15 0.537891 0.467920 0.050471
O O16 0.461173 0.500000 0.250000
O O17 0.462063 0.414739 0.531947
O O18 0.500000 0.750000 0.050523
#
# Coordination Sequence:
#
# PCOD8164943 Si02
#       8
#     8   8   8   8   8   4   8   8
#     4  10  21  37  62  89 115 159 210 257 312 365
#     4  10  21  38  60  86 119 158 207 255 299 371
#     4  12  24  39  59  86 125 164 213 254 304 368
#     4  10  20  39  64  85 113 157 207 255 306 373
#     4  10  19  35  57  82 120 160 203 244 298 364
#     4  12  24  38  60  84 122 168 204 260 308 364
#     4  12  24  35  54  87 128 159 198 251 308 369
#     4  10  20  39  62  85 115 157 204 248 302 368
#
# _framework density 19.793887000000002
#
# number of rings (size 3 to 8) (size 9 to 14) (size 15 to 20)
#    0.000    1.333    4.667    2.000    0.000    3.200 
#    0.000    0.000    0.000    0.000    1.733    0.000 
#    0.000    0.000    0.000    0.000    0.000    0.000 
#
# Total GULP energy -371741.031333 kJ/mol
# GULP energy per Si atom -12391.367711 kJ/mol
# Density = 1.974884 g / cm^3
# Si number density = 19.793887 Si / 1000 Ang^3
#
#
#
# Elastic Constant Matrix: (Units=GPa)
#
#
# Indices 1 2 3 4 5 6 
#
# 1 140.7653 52.2275 32.2005 0.0000 0.0000 0.0000
# 2 52.2275 102.4539 9.7675 0.0000 0.0000 0.0000
# 3 32.2005 9.7675 67.5930 0.0000 0.0000 0.0000
# 4 0.0000 0.0000 0.0000 16.6896 0.0000 0.0000
# 5 0.0000 0.0000 0.0000 0.0000 23.8622 0.0000
# 6 0.0000 0.0000 0.0000 0.0000 0.0000 29.9643
#
#
#
# Elastic Compliance Matrix: (Units=1/GPa)
#
#
# Indices 1 2 3 4 5 6 
#
# 1 0.009706 -0.004570 -0.003964 0.000000 0.000000 0.000000
# 2 -0.004570 0.012049 0.000436 0.000000 0.000000 0.000000
# 3 -0.003964 0.000436 0.016620 0.000000 0.000000 0.000000
# 4 0.000000 0.000000 0.000000 0.059918 0.000000 0.000000
# 5 0.000000 0.000000 0.000000 0.000000 0.041907 0.000000
# 6 0.000000 0.000000 0.000000 0.000000 0.000000 0.033373
#
#
# Mechanical properties :
#
#
# Convention : Reuss Voigt Hill
#
# Bulk Modulus (GPa) = 45.08702 55.46701 50.27702
# Shear Modulus (GPa) = 25.36003 28.54434 26.95219
#
# Velocity S-wave (km/s) = 3.58328 3.80159 3.69405
# Velocity P-wave (km/s) = 6.32041 6.88132 6.60682
#
# Compressibility (1/GPa) = 0.02217933
#
# Stress axis : x y z
#
# Youngs Moduli (GPa) = 103.02562 82.99729 60.16984
#
# Poissons Ratio (x) = 0.37930 0.23849
# Poissons Ratio (y) = 0.47084 -0.02624
# Poissons Ratio (z) = 0.40835 -0.03619
#
# Static dielectric constant tensor:
#      x y z
#    x 3.712450 0.000000 0.000000 
#    y 0.000000 3.400920 0.000000 
#    z 0.000000 0.000000 3.612090 
# 
# 
# High freq. dielectric constant tensor:
#      x y z
#    x 1.766190 0.000000 0.000000 
#    y 0.000000 1.734660 0.000000 
#    z 0.000000 0.000000 1.771700 
# 
# From -- ./inp_files/16500.got.cif
#   From: 2010.03.12/outbox.cif.g09.slc.cpg/sg24_9_cif.got.tgz:16500.got - 2010.04.14 03:06:53.
