data_PCOD8164207
_publ_section_title
;
Structure prediction by ZEFSAII (Michael W. Deem and Ramdas Pophale) SiO2 
 PCOD8164207
Probable space group: I 2 2 2
;
_chemical_formula_sum "Si O2"
_cell_formula_units_Z 52
_cell_length_a 11.255049
_cell_length_b 24.689506
_cell_length_c 7.736908
_cell_angle_alpha 90.000000
_cell_angle_beta 90.000000
_cell_angle_gamma 90.000000
_cell_volume 2149.944373
_symmetry_space_group_name_H-M "I 2 2 2"
_symmetry_group_IT_number 23
_symmetry_cell_setting 'orthorhombic'
loop_
_space_group_symop_operation_xyz
x,y,z
-x,-y,z
x,-y,-z
-x,y,-z
1/2+x,1/2+y,1/2+z
1/2-x,1/2-y,1/2+z
1/2+x,1/2-y,1/2-z
1/2-x,1/2+y,1/2-z
loop_
_atom_site_type_symbol
_atom_site_label
_atom_site_fract_x
_atom_site_fract_y
_atom_site_fract_z
Si Si1 0.000000 0.142183 0.000000
Si Si2 0.354585 0.396770 0.190067
Si Si3 0.382612 0.152940 0.175075
Si Si4 0.358730 0.828452 0.212995
Si Si5 0.337292 0.286639 0.714268
Si Si6 0.280089 0.500000 0.000000
Si Si7 0.372044 0.972798 0.829519
Si Si8 0.500000 0.685419 0.000000
O O1 0.888796 0.180880 0.950778
O O2 0.048675 0.103503 0.846841
O O3 0.220471 0.382143 0.250991
O O4 0.360467 0.453616 0.088182
O O5 0.389849 0.351194 0.055471
O O6 0.505894 0.162178 0.277402
O O7 0.274558 0.178324 0.287672
O O8 0.377406 0.090129 0.129331
O O9 0.367651 0.183950 0.992052
O O10 0.301787 0.776373 0.314404
O O11 0.448319 0.279156 0.845132
O O12 0.200641 0.523015 0.153896
O O13 0.500000 0.000000 0.802736
O O14 0.310365 0.000000 0.000000
#
# Coordination Sequence:
#
# PCOD8164207 Si02
#       8
#     4   8   8   8   8   4   8   4
#     4  10  24  46  72 103 148 199 246 312 380 448
#     4  11  24  46  71 104 145 190 252 309 373 451
#     4  11  23  43  68 110 145 196 244 307 379 451
#     4  11  24  40  72 103 148 191 246 301 371 457
#     4  11  24  42  70 102 149 195 248 299 373 444
#     4  12  25  45  76 110 142 198 257 317 382 450
#     4  11  23  43  75 107 157 202 248 321 383 446
#     4  10  24  43  68  96 144 190 235 312 344 444
#
# _framework density 24.186671
#
# number of rings (size 3 to 8) (size 9 to 14) (size 15 to 20)
#    0.000    1.077    1.538    5.769    6.462    0.308 
#    2.769    0.000    3.385    0.000    0.000    0.000 
#    0.000    0.000    0.000    0.000    0.000    0.000 
#
# Total GULP energy -322257.027841 kJ/mol
# GULP energy per Si atom -12394.501071 kJ/mol
# Density = 2.413162 g / cm^3
# Si number density = 24.186671 Si / 1000 Ang^3
#
#
#
# Elastic Constant Matrix: (Units=GPa)
#
#
# Indices 1 2 3 4 5 6 
#
# 1 112.5816 42.7090 19.0533 -0.0016 0.0006 0.0008
# 2 42.7090 159.3961 32.9118 0.0011 0.0001 -0.0007
# 3 19.0533 32.9118 100.7575 0.0004 -0.0021 0.0025
# 4 -0.0016 0.0011 0.0004 32.9633 0.0000 -0.0010
# 5 0.0006 0.0001 -0.0021 0.0000 32.4022 -0.0014
# 6 0.0008 -0.0007 0.0025 -0.0010 -0.0014 38.5863
#
#
#
# Elastic Compliance Matrix: (Units=1/GPa)
#
#
# Indices 1 2 3 4 5 6 
#
# 1 0.009998 -0.002454 -0.001089 0.000001 0.000000 0.000000
# 2 -0.002454 0.007330 -0.001930 0.000000 0.000000 0.000000
# 3 -0.001089 -0.001930 0.010761 0.000000 0.000001 -0.000001
# 4 0.000001 0.000000 0.000000 0.030337 0.000000 0.000001
# 5 0.000000 0.000000 0.000001 0.000000 0.030862 0.000001
# 6 0.000000 0.000000 -0.000001 0.000001 0.000001 0.025916
#
#
# Mechanical properties :
#
#
# Convention : Reuss Voigt Hill
#
# Bulk Modulus (GPa) = 58.33488 62.45372 60.39430
# Shear Modulus (GPa) = 37.91789 39.32775 38.62282
#
# Velocity S-wave (km/s) = 3.96374 4.03675 4.00041
# Velocity P-wave (km/s) = 6.71709 6.89962 6.80897
#
# Compressibility (1/GPa) = 0.01714240
#
# Stress axis : x y z
#
# Youngs Moduli (GPa) = 100.02313 136.43059 92.92621
#
# Poissons Ratio (x) = 0.33479 0.10120
# Poissons Ratio (y) = 0.24545 0.17936
# Poissons Ratio (z) = 0.10893 0.26333
#
# Static dielectric constant tensor:
#      x y z
#    x 4.481930 -0.000010 0.000000 
#    y -0.000010 4.309030 -0.000010 
#    z 0.000000 -0.000010 4.315020 
# 
# 
# High freq. dielectric constant tensor:
#      x y z
#    x 1.964670 0.000000 0.000000 
#    y 0.000000 1.960730 0.000000 
#    z 0.000000 0.000000 1.951800 
# 
# From -- ./inp_files/8837.got.cif
#   From: 2010.03.12/outbox.cif.g09.slc.cpg/sg23_5_cif.got.tgz:8837.got - 2010.04.14 02:50:06.
