data_PCOD8164826
_publ_section_title
;
Structure prediction by ZEFSAII (Michael W. Deem and Ramdas Pophale) SiO2 
 PCOD8164826
Probable space group: I 21 21 21
;
_chemical_formula_sum "Si O2"
_cell_formula_units_Z 40
_cell_length_a 24.636179
_cell_length_b 15.946028
_cell_length_c 5.033460
_cell_angle_alpha 90.000000
_cell_angle_beta 90.000000
_cell_angle_gamma 90.000000
_cell_volume 1977.390735
_symmetry_space_group_name_H-M "I 21 21 21"
_symmetry_group_IT_number 24
_symmetry_cell_setting 'orthorhombic'
loop_
_space_group_symop_operation_xyz
x,y,z
-x,1/2-y,z
x,-y,1/2-z
1/2-x,y,-z
1/2+x,1/2+y,1/2+z
1/2-x,-y,1/2+z
1/2+x,1/2-y,-z
-x,1/2+y,1/2-z
loop_
_atom_site_type_symbol
_atom_site_label
_atom_site_fract_x
_atom_site_fract_y
_atom_site_fract_z
Si Si1 0.950920 0.313106 0.631333
Si Si2 0.663941 0.237036 0.388678
Si Si3 0.420867 0.091333 0.874599
Si Si4 0.314373 0.549737 0.000855
Si Si5 0.305515 0.830534 0.598308
O O1 0.897682 0.258675 0.670184
O O2 0.949684 0.346341 0.331554
O O3 0.000000 0.250000 0.679746
O O4 0.951058 0.390725 0.844146
O O5 0.664133 0.143449 0.495645
O O6 0.694609 0.296184 0.601892
O O7 0.692692 0.250752 0.104622
O O8 0.356583 0.106642 0.926155
O O9 0.429225 0.000000 0.750000
O O10 0.337849 0.500000 0.250000
O O11 0.337870 0.500000 0.750000
O O12 0.250000 0.551616 0.000000
O O13 0.250000 0.878101 0.500000
#
# Coordination Sequence:
#
# PCOD8164826 Si02
#       5
#     8   8   8   8   8
#     4  10  21  39  61  81 107 147 190 231 281 335
#     4  10  20  34  53  76 106 142 187 230 268 332
#     4  10  21  38  59  86 116 144 182 233 284 335
#     4  10  19  30  46  70 102 137 170 213 267 314
#     4  10  19  33  55  81 109 146 182 217 270 338
#
# _framework density 20.228677999999999
#
# number of rings (size 3 to 8) (size 9 to 14) (size 15 to 20)
#    0.000    2.000    0.000    4.200    0.000    1.600 
#    0.000    9.000    0.000    0.000    0.000    0.000 
#    0.000    0.000    0.000    0.000    0.000    0.000 
#
# Total GULP energy -247849.651885 kJ/mol
# GULP energy per Si atom -12392.482594 kJ/mol
# Density = 2.018264 g / cm^3
# Si number density = 20.228678 Si / 1000 Ang^3
#
#
#
# Elastic Constant Matrix: (Units=GPa)
#
#
# Indices 1 2 3 4 5 6 
#
# 1 84.6357 22.5741 35.8355 0.0000 0.0000 0.0000
# 2 22.5741 53.7861 8.4679 0.0000 0.0000 0.0000
# 3 35.8355 8.4679 115.3550 0.0000 0.0000 0.0000
# 4 0.0000 0.0000 0.0000 33.5527 0.0000 0.0000
# 5 0.0000 0.0000 0.0000 0.0000 15.9250 0.0000
# 6 0.0000 0.0000 0.0000 0.0000 0.0000 16.9893
#
#
#
# Elastic Compliance Matrix: (Units=1/GPa)
#
#
# Indices 1 2 3 4 5 6 
#
# 1 0.015146 -0.005682 -0.004288 0.000000 0.000000 0.000000
# 2 -0.005682 0.020941 0.000228 0.000000 0.000000 0.000000
# 3 -0.004288 0.000228 0.009984 0.000000 0.000000 0.000000
# 4 0.000000 0.000000 0.000000 0.029804 0.000000 0.000000
# 5 0.000000 0.000000 0.000000 0.000000 0.062794 0.000000
# 6 0.000000 0.000000 0.000000 0.000000 0.000000 0.058861
#
#
# Mechanical properties :
#
#
# Convention : Reuss Voigt Hill
#
# Bulk Modulus (GPa) = 37.61188 43.05908 40.33548
# Shear Modulus (GPa) = 22.13591 25.75336 23.94464
#
# Velocity S-wave (km/s) = 3.31158 3.57194 3.44422
# Velocity P-wave (km/s) = 5.76679 6.19226 5.98330
#
# Compressibility (1/GPa) = 0.02658735
#
# Stress axis : x y z
#
# Youngs Moduli (GPa) = 66.02192 47.75324 100.15700
#
# Poissons Ratio (x) = 0.27133 0.42950
# Poissons Ratio (y) = 0.37513 -0.02282
# Poissons Ratio (z) = 0.28312 -0.01088
#
# Static dielectric constant tensor:
#      x y z
#    x 3.560460 0.000000 0.000000 
#    y 0.000000 3.421180 0.000000 
#    z 0.000000 0.000000 4.121090 
# 
# 
# High freq. dielectric constant tensor:
#      x y z
#    x 1.769760 0.000000 0.000000 
#    y 0.000000 1.768850 0.000000 
#    z 0.000000 0.000000 1.816470 
# 
# From -- ./inp_files/6304.got.cif
#   From: 2010.03.12/outbox.cif.g09.slc.cpg/sg24_4_cif.got.tgz:6304.got - 2010.04.14 03:06:53.
