data_PCOD8164807
_publ_section_title
;
Structure prediction by ZEFSAII (Michael W. Deem and Ramdas Pophale) SiO2 
 PCOD8164807
Probable space group: I 21 21 21
;
_chemical_formula_sum "Si O2"
_cell_formula_units_Z 44
_cell_length_a 11.091772
_cell_length_b 13.685032
_cell_length_c 12.884113
_cell_angle_alpha 90.000000
_cell_angle_beta 90.000000
_cell_angle_gamma 90.000000
_cell_volume 1955.695679
_symmetry_space_group_name_H-M "I 21 21 21"
_symmetry_group_IT_number 24
_symmetry_cell_setting 'orthorhombic'
loop_
_space_group_symop_operation_xyz
x,y,z
-x,1/2-y,z
x,-y,1/2-z
1/2-x,y,-z
1/2+x,1/2+y,1/2+z
1/2-x,-y,1/2+z
1/2+x,1/2-y,-z
-x,1/2+y,1/2-z
loop_
_atom_site_type_symbol
_atom_site_label
_atom_site_fract_x
_atom_site_fract_y
_atom_site_fract_z
Si Si1 0.534312 0.138816 0.143175
Si Si2 0.656014 0.358857 0.775080
Si Si3 0.474582 0.560458 0.574928
Si Si4 0.458822 0.652036 0.899331
Si Si5 0.353850 0.000000 0.250000
Si Si6 0.787292 0.147028 0.225846
O O1 0.500000 0.250000 0.171756
O O2 0.650588 0.110470 0.211881
O O3 0.433639 0.055524 0.164324
O O4 0.557927 0.131268 0.020238
O O5 0.605902 0.417969 0.875431
O O6 0.544879 0.343037 0.700118
O O7 0.762134 0.414762 0.711835
O O8 0.703293 0.256335 0.820603
O O9 0.475089 0.447132 0.535523
O O10 0.371460 0.572478 0.662032
O O11 0.500000 0.750000 0.964751
O O12 0.323847 0.652841 0.848699
#
# Coordination Sequence:
#
# PCOD8164807 Si02
#       6
#     8   8   8   8   4   8
#     4  12  26  40  59  92 128 160 197 250 318 370
#     4  10  18  39  63  89 119 160 208 245 300 360
#     4  11  21  37  65  95 119 156 205 261 305 347
#     4   9  19  36  67  89 114 160 211 252 288 355
#     4  12  24  40  58  82 126 170 196 244 304 388
#     4  10  20  38  62  93 123 156 204 254 301 367
#
# _framework density 22.498387000000001
#
# number of rings (size 3 to 8) (size 9 to 14) (size 15 to 20)
#    0.000    1.455    3.636    4.909    2.545    0.727 
#    0.000    0.909    0.000    0.000    0.000    0.000 
#    0.000    0.000    0.000    0.000    0.000    0.000 
#
# Total GULP energy -272540.895301 kJ/mol
# GULP energy per Si atom -12388.222514 kJ/mol
# Density = 2.244718 g / cm^3
# Si number density = 22.498387 Si / 1000 Ang^3
#
#
#
# Elastic Constant Matrix: (Units=GPa)
#
#
# Indices 1 2 3 4 5 6 
#
# 1 110.7837 29.5828 10.9063 0.0000 0.0000 0.0000
# 2 29.5828 161.6837 2.1525 0.0000 0.0000 0.0000
# 3 10.9063 2.1525 23.8697 -0.0001 0.0000 0.0000
# 4 0.0000 0.0000 -0.0001 28.8570 0.0000 0.0000
# 5 0.0000 0.0000 0.0000 0.0000 12.2660 0.0000
# 6 0.0000 0.0000 0.0000 0.0000 0.0000 37.0829
#
#
#
# Elastic Compliance Matrix: (Units=1/GPa)
#
#
# Indices 1 2 3 4 5 6 
#
# 1 0.009927 -0.001758 -0.004377 0.000000 0.000000 0.000000
# 2 -0.001758 0.006504 0.000217 0.000000 0.000000 0.000000
# 3 -0.004377 0.000217 0.043875 0.000000 0.000000 0.000000
# 4 0.000000 0.000000 0.000000 0.034654 0.000000 0.000000
# 5 0.000000 0.000000 0.000000 0.000000 0.081526 0.000000
# 6 0.000000 0.000000 0.000000 0.000000 0.000000 0.026967
#
#
# Mechanical properties :
#
#
# Convention : Reuss Voigt Hill
#
# Bulk Modulus (GPa) = 20.63203 42.40226 31.51714
# Shear Modulus (GPa) = 21.60344 32.55420 27.07882
#
# Velocity S-wave (km/s) = 3.10211 3.80802 3.47304
# Velocity P-wave (km/s) = 4.69267 6.18242 5.48833
#
# Compressibility (1/GPa) = 0.04846833
#
# Stress axis : x y z
#
# Youngs Moduli (GPa) = 100.73565 153.75886 22.79224
#
# Poissons Ratio (x) = 0.27031 0.09977
# Poissons Ratio (y) = 0.17710 -0.00494
# Poissons Ratio (z) = 0.44094 -0.03333
#
# Static dielectric constant tensor:
#      x y z
#    x 4.181970 0.000000 0.000000 
#    y 0.000000 4.528920 0.000000 
#    z 0.000000 0.000000 3.245260 
# 
# 
# High freq. dielectric constant tensor:
#      x y z
#    x 1.887650 0.000000 0.000000 
#    y 0.000000 1.917500 0.000000 
#    z 0.000000 0.000000 1.813720 
# 
# From -- ./inp_files/25684.got.cif
#   From: 2010.03.12/outbox.cif.g09.slc.cpg/sg24_13_cif.got.tgz:25684.got - 2010.04.14 03:06:53.
