data_PCOD8164116
_publ_section_title
;
Structure prediction by ZEFSAII (Michael W. Deem and Ramdas Pophale) SiO2 
 PCOD8164116
Probable space group: I 2 2 2
;
_chemical_formula_sum "Si O2"
_cell_formula_units_Z 56
_cell_length_a 13.656853
_cell_length_b 21.604710
_cell_length_c 8.579198
_cell_angle_alpha 90.000000
_cell_angle_beta 90.000000
_cell_angle_gamma 90.000000
_cell_volume 2531.312519
_symmetry_space_group_name_H-M "I 2 2 2"
_symmetry_group_IT_number 23
_symmetry_cell_setting 'orthorhombic'
loop_
_space_group_symop_operation_xyz
x,y,z
-x,-y,z
x,-y,-z
-x,y,-z
1/2+x,1/2+y,1/2+z
1/2-x,1/2-y,1/2+z
1/2+x,1/2-y,1/2-z
1/2-x,1/2+y,1/2-z
loop_
_atom_site_type_symbol
_atom_site_label
_atom_site_fract_x
_atom_site_fract_y
_atom_site_fract_z
Si Si1 0.215595 0.550989 0.865608
Si Si2 0.766921 0.879922 0.139937
Si Si3 0.097957 0.741993 0.589012
Si Si4 0.603297 0.095037 0.078029
Si Si5 0.611679 0.508206 0.684548
Si Si6 0.899428 0.219835 0.936656
Si Si7 0.776245 0.677141 0.953836
O O1 0.126823 0.556979 0.737746
O O2 0.318088 0.537987 0.778929
O O3 0.189567 0.500000 0.000000
O O4 0.231955 0.617150 0.941034
O O5 0.848919 0.922982 0.221547
O O6 0.818624 0.832196 0.020929
O O7 0.713315 0.840929 0.273829
O O8 0.687211 0.921341 0.048758
O O9 0.109894 0.668457 0.607136
O O10 0.092171 0.775185 0.752975
O O11 0.188914 0.775009 0.501862
O O12 0.000000 0.759091 0.500000
O O13 0.500000 0.074942 0.000000
O O14 0.500000 0.500000 0.743351
O O15 0.619311 0.500000 0.500000
O O16 0.876431 0.286232 0.012306
O O17 0.000000 0.193336 0.000000
#
# Coordination Sequence:
#
# PCOD8164116 Si02
#       7
#     8   8   8   8   8   8   8
#     4  12  25  47  74 102 146 189 237 300 362 417
#     4  11  24  45  68  99 142 184 234 291 358 425
#     4  10  23  41  64 104 137 181 227 284 360 425
#     4  11  24  44  75 100 137 186 242 296 356 425
#     4  11  25  45  72 102 139 185 238 285 347 431
#     4  11  25  39  67 103 141 181 229 291 356 421
#     4  11  24  42  68 102 140 181 229 295 354 427
#
# _framework density 22.122907999999999
#
# number of rings (size 3 to 8) (size 9 to 14) (size 15 to 20)
#    0.000    1.000    5.714    0.000    6.000    3.714 
#    0.000    1.429    6.286    0.000    0.000    0.000 
#    0.000    0.000    0.000    0.000    0.000    0.000 
#
# Total GULP energy -347141.039235 kJ/mol
# GULP energy per Si atom -12397.894258 kJ/mol
# Density = 2.207256 g / cm^3
# Si number density = 22.122908 Si / 1000 Ang^3
#
#
#
# Elastic Constant Matrix: (Units=GPa)
#
#
# Indices 1 2 3 4 5 6 
#
# 1 143.4978 48.0493 67.0774 0.0003 0.0001 0.0001
# 2 48.0493 90.4871 32.3132 0.0002 0.0001 0.0000
# 3 67.0774 32.3132 97.8234 0.0014 0.0004 0.0005
# 4 0.0003 0.0002 0.0014 36.0085 0.0003 0.0003
# 5 0.0001 0.0001 0.0004 0.0003 33.4439 0.0000
# 6 0.0001 0.0000 0.0005 0.0003 0.0000 27.3574
#
#
#
# Elastic Compliance Matrix: (Units=1/GPa)
#
#
# Indices 1 2 3 4 5 6 
#
# 1 0.011223 -0.003641 -0.006493 0.000000 0.000000 0.000000
# 2 -0.003641 0.013710 -0.002032 0.000000 0.000000 0.000000
# 3 -0.006493 -0.002032 0.015346 -0.000001 0.000000 0.000000
# 4 0.000000 0.000000 -0.000001 0.027771 0.000000 0.000000
# 5 0.000000 0.000000 0.000000 0.000000 0.029901 0.000000
# 6 0.000000 0.000000 0.000000 0.000000 0.000000 0.036553
#
#
# Mechanical properties :
#
#
# Convention : Reuss Voigt Hill
#
# Bulk Modulus (GPa) = 62.70700 69.63202 66.16951
# Shear Modulus (GPa) = 30.45949 31.65317 31.05633
#
# Velocity S-wave (km/s) = 3.71459 3.78668 3.75081
# Velocity P-wave (km/s) = 6.84134 7.11772 6.98090
#
# Compressibility (1/GPa) = 0.01594718
#
# Stress axis : x y z
#
# Youngs Moduli (GPa) = 89.10323 72.93756 65.16351
#
# Poissons Ratio (x) = 0.26555 0.42310
# Poissons Ratio (y) = 0.32441 0.13243
# Poissons Ratio (z) = 0.57854 0.14823
#
# Static dielectric constant tensor:
#      x y z
#    x 4.167320 0.000000 0.000000 
#    y 0.000000 4.038250 0.000000 
#    z 0.000000 0.000000 4.047850 
# 
# 
# High freq. dielectric constant tensor:
#      x y z
#    x 1.869140 0.000000 0.000000 
#    y 0.000000 1.880630 0.000000 
#    z 0.000000 0.000000 1.869190 
# 
# From -- ./inp_files/10226.got.cif
#   From: 2010.03.12/outbox.cif.g09.slc.cpg/sg23_6_cif.got.tgz:10226.got - 2010.04.14 02:50:06.
