data_PCOD8164543
_publ_section_title
;
Structure prediction by ZEFSAII (Michael W. Deem and Ramdas Pophale) SiO2 
 PCOD8164543
Probable space group: I 2 2 2
;
_chemical_formula_sum "Si O2"
_cell_formula_units_Z 32
_cell_length_a 24.092726
_cell_length_b 11.500688
_cell_length_c 4.787194
_cell_angle_alpha 90.000000
_cell_angle_beta 90.000000
_cell_angle_gamma 90.000000
_cell_volume 1326.449715
_symmetry_space_group_name_H-M "I 2 2 2"
_symmetry_group_IT_number 23
_symmetry_cell_setting 'orthorhombic'
loop_
_space_group_symop_operation_xyz
x,y,z
-x,-y,z
x,-y,-z
-x,y,-z
1/2+x,1/2+y,1/2+z
1/2-x,1/2-y,1/2+z
1/2+x,1/2-y,1/2-z
1/2-x,1/2+y,1/2-z
loop_
_atom_site_type_symbol
_atom_site_label
_atom_site_fract_x
_atom_site_fract_y
_atom_site_fract_z
Si Si1 0.385749 0.500000 0.500000
Si Si2 0.764049 0.684148 0.674017
Si Si3 0.808832 0.000000 0.500000
Si Si4 0.437063 0.254226 0.584488
Si Si5 0.112130 0.629047 0.414518
O O1 0.348530 0.545992 0.755834
O O2 0.424166 0.390478 0.569573
O O3 0.727509 0.709557 0.394961
O O4 0.729903 0.597642 0.869031
O O5 0.821582 0.637135 0.551501
O O6 0.500000 0.232231 0.500000
O O7 0.400464 0.164345 0.403019
O O8 0.422764 0.219936 0.901251
O O9 0.092872 0.500000 0.500000
#
# Coordination Sequence:
#
# PCOD8164543 Si02
#       5
#     4   8   4   8   8
#     4  12  25  48  72 112 142 182 253 302 362 442
#     4  12  26  44  69 104 148 194 236 287 355 437
#     4  12  26  42  71 106 143 190 228 280 372 426
#     4  12  27  49  76 103 141 193 245 312 368 416
#     4  12  28  47  71 108 148 187 246 297 360 443
#
# _framework density 24.124548999999998
#
# number of rings (size 3 to 8) (size 9 to 14) (size 15 to 20)
#    0.000    0.000    0.000   10.875    8.750    3.000 
#    0.000    3.750    0.000    0.000    0.000    0.000 
#    0.000    0.000    0.000    0.000    0.000    0.000 
#
# Total GULP energy -198407.741522 kJ/mol
# GULP energy per Si atom -12400.483845 kJ/mol
# Density = 2.406964 g / cm^3
# Si number density = 24.124549 Si / 1000 Ang^3
#
#
#
# Elastic Constant Matrix: (Units=GPa)
#
#
# Indices 1 2 3 4 5 6 
#
# 1 110.7432 24.5757 26.2808 0.0000 0.0000 0.0000
# 2 24.5757 119.3829 12.1600 0.0000 -0.0002 0.0000
# 3 26.2808 12.1600 102.7010 0.0001 0.0005 0.0000
# 4 0.0000 0.0000 0.0001 45.5646 0.0002 0.0000
# 5 0.0000 -0.0002 0.0005 0.0002 -112.2315 0.0000
# 6 0.0000 0.0000 0.0000 0.0000 0.0000 62.0284
#
#
#
# Elastic Compliance Matrix: (Units=1/GPa)
#
#
# Indices 1 2 3 4 5 6 
#
# 1 0.009989 -0.001818 -0.002341 0.000000 0.000000 0.000000
# 2 -0.001818 0.008809 -0.000578 0.000000 0.000000 0.000000
# 3 -0.002341 -0.000578 0.010404 0.000000 0.000000 0.000000
# 4 0.000000 0.000000 0.000000 0.021947 0.000000 0.000000
# 5 0.000000 0.000000 0.000000 0.000000 -0.008910 0.000000
# 6 0.000000 0.000000 0.000000 0.000000 0.000000 0.016122
#
#
# Mechanical properties :
#
#
# Convention : Reuss Voigt Hill
#
# Bulk Modulus (GPa) = 50.68527 50.98443 50.83485
# Shear Modulus (GPa) = 67.19454 17.05967 42.12711
#
# Velocity S-wave (km/s) = 5.28334 2.66211 4.18333
# Velocity P-wave (km/s) = 7.63372 5.53433 6.66718
#
# Compressibility (1/GPa) = 0.01972960
#
# Stress axis : x y z
#
# Youngs Moduli (GPa) = 100.11185 113.51404 96.11273
#
# Poissons Ratio (x) = 0.20635 0.22499
# Poissons Ratio (y) = 0.18199 0.05554
# Poissons Ratio (z) = 0.23435 0.06560
#
# Static dielectric constant tensor:
#      x y z
#    x 4.159920 0.000000 0.000000 
#    y 0.000000 4.900640 0.000000 
#    z 0.000000 0.000000 4.311610 
# 
# 
# High freq. dielectric constant tensor:
#      x y z
#    x 1.952610 0.000000 0.000000 
#    y 0.000000 1.967130 0.000000 
#    z 0.000000 0.000000 1.982720 
# 
# From -- ./inp_files/4253.got.cif
#   From: 2010.03.12/outbox.cif.g09.slc.cpg/sg23_3_cif.got.tgz:4253.got - 2010.04.14 02:50:06.
