data_PCOD8164421
_publ_section_title
;
Structure prediction by ZEFSAII (Michael W. Deem and Ramdas Pophale) SiO2 
 PCOD8164421
Probable space group: I 2 2 2
;
_chemical_formula_sum "Si O2"
_cell_formula_units_Z 32
_cell_length_a 13.826829
_cell_length_b 14.947567
_cell_length_c 7.607450
_cell_angle_alpha 90.000000
_cell_angle_beta 90.000000
_cell_angle_gamma 90.000000
_cell_volume 1572.288389
_symmetry_space_group_name_H-M "I 2 2 2"
_symmetry_group_IT_number 23
_symmetry_cell_setting 'orthorhombic'
loop_
_space_group_symop_operation_xyz
x,y,z
-x,-y,z
x,-y,-z
-x,y,-z
1/2+x,1/2+y,1/2+z
1/2-x,1/2-y,1/2+z
1/2+x,1/2-y,1/2-z
1/2-x,1/2+y,1/2-z
loop_
_atom_site_type_symbol
_atom_site_label
_atom_site_fract_x
_atom_site_fract_y
_atom_site_fract_z
Si Si1 0.753977 0.341120 0.223584
Si Si2 0.101501 0.399725 0.476675
Si Si3 0.111489 0.007237 0.207567
Si Si4 0.765522 0.362136 0.824778
O O1 0.823229 0.373394 0.375680
O O2 0.652356 0.394782 0.238967
O O3 0.749084 0.235543 0.243645
O O4 0.794346 0.360455 0.028938
O O5 0.073031 0.500000 0.500000
O O6 0.141553 0.395655 0.279457
O O7 0.000000 0.344507 0.500000
O O8 0.172841 0.926688 0.295341
O O9 0.000000 0.000000 0.270761
O O10 0.119895 0.000000 0.000000
#
# Coordination Sequence:
#
# PCOD8164421 Si02
#       4
#     8   8   8   8
#     4  12  23  42  69  95 133 172 214 266 328 388
#     4  11  24  44  66  93 131 170 217 268 320 384
#     4  11  23  43  69  99 133 170 217 272 330 390
#     4  12  23  42  69  95 133 172 214 266 328 388
#
# _framework density 20.352499999999999
#
# number of rings (size 3 to 8) (size 9 to 14) (size 15 to 20)
#    0.000    0.500    7.500    0.750    0.000    5.000 
#    0.000    2.500    0.000    0.000    0.000    0.000 
#    0.000    0.000    0.000    0.000    0.000    0.000 
#
# Total GULP energy -198249.581346 kJ/mol
# GULP energy per Si atom -12390.598834 kJ/mol
# Density = 2.030618 g / cm^3
# Si number density = 20.352500 Si / 1000 Ang^3
#
#
#
# Elastic Constant Matrix: (Units=GPa)
#
#
# Indices 1 2 3 4 5 6 
#
# 1 110.2001 18.2170 3.7023 0.0000 0.0000 0.0000
# 2 18.2170 101.1267 -19.6695 0.0000 0.0000 0.0000
# 3 3.7023 -19.6695 103.5121 0.0000 0.0000 0.0000
# 4 0.0000 0.0000 0.0000 30.7618 0.0000 0.0000
# 5 0.0000 0.0000 0.0000 0.0000 -74.1134 0.0000
# 6 0.0000 0.0000 0.0000 0.0000 0.0000 2.9914
#
#
#
# Elastic Compliance Matrix: (Units=1/GPa)
#
#
# Indices 1 2 3 4 5 6 
#
# 1 0.009399 -0.001826 -0.000683 0.000000 0.000000 0.000000
# 2 -0.001826 0.010623 0.002084 0.000000 0.000000 0.000000
# 3 -0.000683 0.002084 0.010081 0.000000 0.000000 0.000000
# 4 0.000000 0.000000 0.000000 0.032508 0.000000 0.000000
# 5 0.000000 0.000000 0.000000 0.000000 -0.013493 0.000000
# 6 0.000000 0.000000 0.000000 0.000000 0.000000 0.334290
#
#
# Mechanical properties :
#
#
# Convention : Reuss Voigt Hill
#
# Bulk Modulus (GPa) = 34.18512 35.48206 34.83359
# Shear Modulus (GPa) = 12.69004 12.76723 12.72864
#
# Velocity S-wave (km/s) = 2.49973 2.50732 2.50353
# Velocity P-wave (km/s) = 5.01643 5.08467 5.05066
#
# Compressibility (1/GPa) = 0.02925250
#
# Stress axis : x y z
#
# Youngs Moduli (GPa) = 106.39180 94.13669 99.19528
#
# Poissons Ratio (x) = 0.17190 0.06777
# Poissons Ratio (y) = 0.19428 -0.20671
# Poissons Ratio (z) = 0.07268 -0.19617
#
# Static dielectric constant tensor:
#      x y z
#    x 3.213830 0.000000 0.000000 
#    y 0.000000 4.334360 0.000000 
#    z 0.000000 0.000000 3.827010 
# 
# 
# High freq. dielectric constant tensor:
#      x y z
#    x 1.790910 0.000000 0.000000 
#    y 0.000000 1.803500 0.000000 
#    z 0.000000 0.000000 1.816260 
# 
# From -- ./inp_files/9397.got.cif
#   From: 2010.03.12/outbox.cif.g09.slc.cpg/sg23_5_cif.got.tgz:9397.got - 2010.04.14 02:50:06.
