data_PCOD8164837
_publ_section_title
;
Structure prediction by ZEFSAII (Michael W. Deem and Ramdas Pophale) SiO2 
 PCOD8164837
Probable space group: I 21 21 21
;
_chemical_formula_sum "Si O2"
_cell_formula_units_Z 40
_cell_length_a 5.129101
_cell_length_b 28.534734
_cell_length_c 14.392209
_cell_angle_alpha 90.000000
_cell_angle_beta 90.000000
_cell_angle_gamma 90.000000
_cell_volume 2106.408199
_symmetry_space_group_name_H-M "I 21 21 21"
_symmetry_group_IT_number 24
_symmetry_cell_setting 'orthorhombic'
loop_
_space_group_symop_operation_xyz
x,y,z
-x,1/2-y,z
x,-y,1/2-z
1/2-x,y,-z
1/2+x,1/2+y,1/2+z
1/2-x,-y,1/2+z
1/2+x,1/2-y,-z
-x,1/2+y,1/2-z
loop_
_atom_site_type_symbol
_atom_site_label
_atom_site_fract_x
_atom_site_fract_y
_atom_site_fract_z
Si Si1 0.335493 0.588517 0.905997
Si Si2 0.822925 0.466123 0.623712
Si Si3 0.300532 0.933772 0.327831
Si Si4 0.249270 0.280877 0.106704
Si Si5 0.684936 0.122493 0.796759
O O1 0.606083 0.562519 0.935070
O O2 0.351675 0.621945 0.815816
O O3 0.121127 0.548367 0.889514
O O4 0.250000 0.617085 0.000000
O O5 0.734929 0.454638 0.727867
O O6 0.799448 0.521815 0.602180
O O7 0.578979 0.909214 0.331707
O O8 0.073256 0.896091 0.350064
O O9 0.500000 0.250000 0.130020
O O10 0.243638 0.324638 0.175376
O O11 0.000000 0.250000 0.128628
O O12 0.250000 0.298289 0.000000
#
# Coordination Sequence:
#
# PCOD8164837 Si02
#       5
#     8   8   8   8   8
#     4  10  19  31  48  72 103 138 172 198 230 283
#     4   9  17  30  47  68 100 140 173 202 234 267
#     4   9  17  30  49  72  99 132 169 206 239 275
#     4  10  21  38  58  77  97 121 155 203 259 313
#     4  10  19  33  54  75  98 129 164 205 248 292
#
# _framework density 18.989671000000001
#
# number of rings (size 3 to 8) (size 9 to 14) (size 15 to 20)
#    0.000    2.400    0.000    3.000    0.000    4.800 
#    0.000    6.000    0.000    1.200    0.000    0.000 
#    0.000    0.000    0.000    0.000    0.000    0.000 
#
# Total GULP energy -247886.524272 kJ/mol
# GULP energy per Si atom -12394.326214 kJ/mol
# Density = 1.894645 g / cm^3
# Si number density = 18.989671 Si / 1000 Ang^3
#
#
#
# Elastic Constant Matrix: (Units=GPa)
#
#
# Indices 1 2 3 4 5 6 
#
# 1 129.0487 34.2374 21.1734 0.0000 0.0000 0.0000
# 2 34.2374 103.2368 43.9648 0.0000 0.0000 0.0000
# 3 21.1734 43.9648 63.8041 0.0000 0.0000 0.0000
# 4 0.0000 0.0000 0.0000 8.4684 0.0000 0.0000
# 5 0.0000 0.0000 0.0000 0.0000 20.3706 0.0000
# 6 0.0000 0.0000 0.0000 0.0000 0.0000 14.5841
#
#
#
# Elastic Compliance Matrix: (Units=1/GPa)
#
#
# Indices 1 2 3 4 5 6 
#
# 1 0.008567 -0.002308 -0.001253 0.000000 0.000000 0.000000
# 2 -0.002308 0.014331 -0.009109 0.000000 0.000000 0.000000
# 3 -0.001253 -0.009109 0.022365 0.000000 0.000000 0.000000
# 4 0.000000 0.000000 0.000000 0.118086 0.000000 0.000000
# 5 0.000000 0.000000 0.000000 0.000000 0.049090 0.000000
# 6 0.000000 0.000000 0.000000 0.000000 0.000000 0.068568
#
#
# Mechanical properties :
#
#
# Convention : Reuss Voigt Hill
#
# Bulk Modulus (GPa) = 50.19031 54.98232 52.58632
# Shear Modulus (GPa) = 15.97505 21.79888 18.88697
#
# Velocity S-wave (km/s) = 2.90358 3.39179 3.15714
# Velocity P-wave (km/s) = 6.14237 6.66000 6.40642
#
# Compressibility (1/GPa) = 0.01992416
#
# Stress axis : x y z
#
# Youngs Moduli (GPa) = 116.72997 69.77887 44.71180
#
# Poissons Ratio (x) = 0.16102 0.05602
# Poissons Ratio (y) = 0.26936 0.40729
# Poissons Ratio (z) = 0.14625 0.63562
#
# Static dielectric constant tensor:
#      x y z
#    x 3.666590 0.000000 0.000000 
#    y 0.000000 3.194350 0.000000 
#    z 0.000000 0.000000 3.617450 
# 
# 
# High freq. dielectric constant tensor:
#      x y z
#    x 1.765060 0.000000 0.000000 
#    y 0.000000 1.700150 0.000000 
#    z 0.000000 0.000000 1.731880 
# 
# From -- ./inp_files/3503.got.cif
#   From: 2010.03.12/outbox.cif.g09.slc.cpg/sg24_2_cif.got.tgz:3503.got - 2010.04.14 03:06:53.
