data_PCOD8164687
_publ_section_title
;
Structure prediction by ZEFSAII (Michael W. Deem and Ramdas Pophale) SiO2 
 PCOD8164687
Probable space group: I 21 21 21
;
_chemical_formula_sum "Si O2"
_cell_formula_units_Z 52
_cell_length_a 8.802584
_cell_length_b 28.905264
_cell_length_c 10.762361
_cell_angle_alpha 90.000000
_cell_angle_beta 90.000000
_cell_angle_gamma 90.000000
_cell_volume 2738.386050
_symmetry_space_group_name_H-M "I 21 21 21"
_symmetry_group_IT_number 24
_symmetry_cell_setting 'orthorhombic'
loop_
_space_group_symop_operation_xyz
x,y,z
-x,1/2-y,z
x,-y,1/2-z
1/2-x,y,-z
1/2+x,1/2+y,1/2+z
1/2-x,-y,1/2+z
1/2+x,1/2-y,-z
-x,1/2+y,1/2-z
loop_
_atom_site_type_symbol
_atom_site_label
_atom_site_fract_x
_atom_site_fract_y
_atom_site_fract_z
Si Si1 0.215059 0.121137 0.138960
Si Si2 0.786970 0.861983 0.138017
Si Si3 0.250000 0.177240 0.500000
Si Si4 0.847205 0.520672 0.375395
Si Si5 0.045341 0.799656 0.218118
Si Si6 0.086153 0.547906 0.037962
Si Si7 0.538458 0.611807 0.162364
O O1 0.111055 0.074943 0.141397
O O2 0.139842 0.167097 0.192430
O O3 0.366340 0.104462 0.212195
O O4 0.250000 0.135738 0.000000
O O5 0.888512 0.908675 0.130878
O O6 0.625174 0.868471 0.206637
O O7 0.881565 0.822501 0.202980
O O8 0.750000 0.845319 0.000000
O O9 0.146134 0.207971 0.407068
O O10 0.131188 0.146190 0.574285
O O11 0.767061 0.500000 0.250000
O O12 0.750000 0.513054 0.500000
O O13 0.003105 0.492707 0.389864
O O14 0.000000 0.750000 0.276102
O O15 0.250000 0.528025 0.000000
O O16 0.990386 0.564803 0.916597
#
# Coordination Sequence:
#
# PCOD8164687 Si02
#       7
#     8   8   4   8   8   8   8
#     4  10  23  42  55  80 116 157 209 244 278 343
#     4   9  17  34  55  89 125 144 181 233 304 364
#     4  10  18  30  58  90 116 144 176 234 296 350
#     4  11  22  35  59  87 116 154 203 250 290 354
#     4  11  22  36  60  88 118 151 188 240 297 356
#     4   9  18  34  57  88 121 150 186 238 306 358
#     4   9  18  34  61  83 116 156 182 239 300 346
#
# _framework density 18.989287000000001
#
# number of rings (size 3 to 8) (size 9 to 14) (size 15 to 20)
#    0.000    2.462    3.077    1.846    4.308    0.000 
#    0.000   14.615    0.000    0.000    0.000    0.000 
#    0.000    0.000    0.000    0.000    0.000    0.000 
#
# Total GULP energy -322130.305411 kJ/mol
# GULP energy per Si atom -12389.627131 kJ/mol
# Density = 1.894607 g / cm^3
# Si number density = 18.989287 Si / 1000 Ang^3
#
#
#
# Elastic Constant Matrix: (Units=GPa)
#
#
# Indices 1 2 3 4 5 6 
#
# 1 107.3101 66.6215 37.9350 0.0003 0.0001 0.0000
# 2 66.6215 114.2264 59.0544 -0.0001 -0.0003 -0.0004
# 3 37.9350 59.0544 96.4703 0.0130 0.0017 0.0013
# 4 0.0003 -0.0001 0.0130 19.5947 0.0016 0.0014
# 5 0.0001 -0.0003 0.0017 0.0016 10.0013 0.0000
# 6 0.0000 -0.0004 0.0013 0.0014 0.0000 18.5013
#
#
#
# Elastic Compliance Matrix: (Units=1/GPa)
#
#
# Indices 1 2 3 4 5 6 
#
# 1 0.014648 -0.008142 -0.000776 0.000000 0.000000 0.000000
# 2 -0.008142 0.017334 -0.007409 0.000005 0.000002 0.000001
# 3 -0.000776 -0.007409 0.015207 -0.000010 -0.000003 -0.000001
# 4 0.000000 0.000005 -0.000010 0.051034 -0.000008 -0.000004
# 5 0.000000 0.000002 -0.000003 -0.000008 0.099987 0.000000
# 6 0.000000 0.000001 -0.000001 -0.000004 0.000000 0.054050
#
#
# Mechanical properties :
#
#
# Convention : Reuss Voigt Hill
#
# Bulk Modulus (GPa) = 68.80413 71.69207 70.24810
# Shear Modulus (GPa) = 17.25573 19.91251 18.58412
#
# Velocity S-wave (km/s) = 3.01775 3.24175 3.13175
# Velocity P-wave (km/s) = 6.96091 7.20054 7.08174
#
# Compressibility (1/GPa) = 0.01453401
#
# Stress axis : x y z
#
# Youngs Moduli (GPa) = 68.26876 57.69011 65.76126
#
# Poissons Ratio (x) = 0.46973 0.05101
# Poissons Ratio (y) = 0.55586 0.48724
# Poissons Ratio (z) = 0.05296 0.42744
#
# Static dielectric constant tensor:
#      x y z
#    x 3.915740 0.000000 0.000000 
#    y 0.000000 3.292650 0.000000 
#    z 0.000000 0.000000 3.425360 
# 
# 
# High freq. dielectric constant tensor:
#      x y z
#    x 1.743970 0.000000 0.000000 
#    y 0.000000 1.723330 0.000000 
#    z 0.000000 0.000000 1.716960 
# 
# From -- ./inp_files/18844.got.cif
#   From: 2010.03.12/outbox.cif.g09.slc.cpg/sg24_10_cif.got.tgz:18844.got - 2010.04.14 03:06:53.
