data_PCOD8164697
_publ_section_title
;
Structure prediction by ZEFSAII (Michael W. Deem and Ramdas Pophale) SiO2 
 PCOD8164697
Probable space group: I 21 21 21
;
_chemical_formula_sum "Si O2"
_cell_formula_units_Z 56
_cell_length_a 19.208299
_cell_length_b 13.977785
_cell_length_c 12.216622
_cell_angle_alpha 90.000000
_cell_angle_beta 90.000000
_cell_angle_gamma 90.000000
_cell_volume 3280.034410
_symmetry_space_group_name_H-M "I 21 21 21"
_symmetry_group_IT_number 24
_symmetry_cell_setting 'orthorhombic'
loop_
_space_group_symop_operation_xyz
x,y,z
-x,1/2-y,z
x,-y,1/2-z
1/2-x,y,-z
1/2+x,1/2+y,1/2+z
1/2-x,-y,1/2+z
1/2+x,1/2-y,-z
-x,1/2+y,1/2-z
loop_
_atom_site_type_symbol
_atom_site_label
_atom_site_fract_x
_atom_site_fract_y
_atom_site_fract_z
Si Si1 0.379993 0.966585 0.008908
Si Si2 0.703576 0.308276 0.593224
Si Si3 0.315420 0.103500 0.274139
Si Si4 0.928112 0.203081 0.328635
Si Si5 0.670087 0.672716 0.461600
Si Si6 0.932590 0.195426 0.078133
Si Si7 0.986341 0.010680 0.373251
O O1 0.456341 0.950202 0.958329
O O2 0.320513 0.913843 0.941088
O O3 0.364556 0.078169 0.987809
O O4 0.374579 0.921164 0.132712
O O5 0.750000 0.258198 0.500000
O O6 0.753849 0.323586 0.695549
O O7 0.637528 0.242824 0.608741
O O8 0.344919 0.157844 0.167839
O O9 0.281621 0.000000 0.250000
O O10 0.916859 0.227625 0.201629
O O11 0.000000 0.250000 0.370067
O O12 0.927553 0.091192 0.357609
O O13 0.750000 0.679957 0.500000
O O14 0.631748 0.769871 0.502621
O O15 0.947455 0.081828 0.076826
O O16 0.000000 0.250000 0.032566
O O17 0.019471 0.000000 0.250000
#
# Coordination Sequence:
#
# PCOD8164697 Si02
#       7
#     8   8   8   8   8   8   8
#     4  10  18  31  52  78 112 137 167 220 273 323
#     4  10  19  32  52  76 107 136 172 217 265 319
#     4   9  19  32  48  78 111 141 174 213 274 323
#     4  10  19  32  52  79 106 136 176 217 267 317
#     4  11  20  32  53  78 108 141 179 220 266 323
#     4  10  20  34  52  78 105 140 175 221 266 311
#     4  10  20  33  53  81 112 135 175 224 271 317
#
# _framework density 17.072990999999998
#
# number of rings (size 3 to 8) (size 9 to 14) (size 15 to 20)
#    0.000    2.000    2.857    3.000    0.000    1.714 
#    0.000    0.714    6.286    0.000    0.000    0.000 
#    0.000    0.000    0.000    0.000    0.000    0.000 
#
# Total GULP energy -346871.152236 kJ/mol
# GULP energy per Si atom -12388.255437 kJ/mol
# Density = 1.703413 g / cm^3
# Si number density = 17.072991 Si / 1000 Ang^3
#
#
#
# Elastic Constant Matrix: (Units=GPa)
#
#
# Indices 1 2 3 4 5 6 
#
# 1 101.7585 41.9452 57.2795 0.0000 0.0000 0.0000
# 2 41.9452 85.4080 42.9384 0.0000 0.0000 0.0000
# 3 57.2795 42.9384 90.5544 0.0000 0.0000 0.0000
# 4 0.0000 0.0000 0.0000 16.9544 0.0000 0.0000
# 5 0.0000 0.0000 0.0000 0.0000 23.3588 0.0000
# 6 0.0000 0.0000 0.0000 0.0000 0.0000 29.2037
#
#
#
# Elastic Compliance Matrix: (Units=1/GPa)
#
#
# Indices 1 2 3 4 5 6 
#
# 1 0.016086 -0.003656 -0.008441 0.000000 0.000000 0.000000
# 2 -0.003656 0.016204 -0.005371 0.000000 0.000000 0.000000
# 3 -0.008441 -0.005371 0.018929 0.000000 0.000000 0.000000
# 4 0.000000 0.000000 0.000000 0.058982 0.000000 0.000000
# 5 0.000000 0.000000 0.000000 0.000000 0.042810 0.000000
# 6 0.000000 0.000000 0.000000 0.000000 0.000000 0.034242
#
#
# Mechanical properties :
#
#
# Convention : Reuss Voigt Hill
#
# Bulk Modulus (GPa) = 61.41525 62.44968 61.93246
# Shear Modulus (GPa) = 21.96658 22.94056 22.45357
#
# Velocity S-wave (km/s) = 3.59085 3.66959 3.63044
# Velocity P-wave (km/s) = 7.29675 7.39000 7.34352
#
# Compressibility (1/GPa) = 0.01628260
#
# Stress axis : x y z
#
# Youngs Moduli (GPa) = 62.16628 61.71188 52.82794
#
# Poissons Ratio (x) = 0.22563 0.44594
# Poissons Ratio (y) = 0.22729 0.28374
# Poissons Ratio (z) = 0.52477 0.33145
#
# Static dielectric constant tensor:
#      x y z
#    x 3.040390 0.000000 0.000000 
#    y 0.000000 3.131080 0.000000 
#    z 0.000000 0.000000 3.379640 
# 
# 
# High freq. dielectric constant tensor:
#      x y z
#    x 1.642560 0.000000 0.000000 
#    y 0.000000 1.647230 0.000000 
#    z 0.000000 0.000000 1.655380 
# 
# From -- ./inp_files/20839.got.cif
#   From: 2010.03.12/outbox.cif.g09.slc.cpg/sg24_11_cif.got.tgz:20839.got - 2010.04.14 03:06:53.
