data_PCOD8164363
_publ_section_title
;
Structure prediction by ZEFSAII (Michael W. Deem and Ramdas Pophale) SiO2 
 PCOD8164363
Probable space group: I 2 2 2
;
_chemical_formula_sum "Si O2"
_cell_formula_units_Z 60
_cell_length_a 22.201386
_cell_length_b 5.008713
_cell_length_c 26.245266
_cell_angle_alpha 90.000000
_cell_angle_beta 90.000000
_cell_angle_gamma 90.000000
_cell_volume 2918.483308
_symmetry_space_group_name_H-M "I 2 2 2"
_symmetry_group_IT_number 23
_symmetry_cell_setting 'orthorhombic'
loop_
_space_group_symop_operation_xyz
x,y,z
-x,-y,z
x,-y,-z
-x,y,-z
1/2+x,1/2+y,1/2+z
1/2-x,1/2-y,1/2+z
1/2+x,1/2-y,1/2-z
1/2-x,1/2+y,1/2-z
loop_
_atom_site_type_symbol
_atom_site_label
_atom_site_fract_x
_atom_site_fract_y
_atom_site_fract_z
Si Si1 0.609126 0.697534 0.046690
Si Si2 0.067109 0.069579 0.752499
Si Si3 0.809162 0.557687 0.328081
Si Si4 0.919280 0.137576 0.641104
Si Si5 0.238021 0.439518 0.140059
Si Si6 0.241515 0.738860 0.467321
Si Si7 0.640898 0.083968 0.277777
Si Si8 0.500000 0.000000 0.083425
O O1 0.613935 0.538079 0.099173
O O2 0.672682 0.853534 0.044075
O O3 0.556070 0.917282 0.047864
O O4 0.595877 0.500000 0.000000
O O5 0.071267 0.034479 0.691692
O O6 0.110525 0.871137 0.782517
O O7 0.088440 0.366697 0.767164
O O8 0.000000 0.000000 0.771075
O O9 0.877364 0.602630 0.347903
O O10 0.787264 0.255873 0.335025
O O11 0.809218 0.597706 0.267065
O O12 0.765636 0.762904 0.358252
O O13 0.982831 0.249578 0.619594
O O14 0.223147 0.322118 0.083877
O O15 0.174919 0.460026 0.169247
O O16 0.273044 0.500000 0.500000
O O17 0.237764 0.000000 0.500000
#
# Coordination Sequence:
#
# PCOD8164363 Si02
#       8
#     8   8   8   8   8   8   8   4
#     4  11  26  42  54  79 108 158 219 281 335 373
#     4  11  24  41  61  89 129 162 198 243 301 371
#     4  11  22  37  62  86 121 156 198 259 314 369
#     4  11  25  39  58  84 110 164 216 262 330 371
#     4  12  22  41  64  89 122 153 197 260 306 368
#     4  11  25  43  62  84 114 159 201 251 319 377
#     4  11  24  38  63  94 120 158 205 239 306 369
#     4  12  26  39  58  76 110 158 224 286 327 368
#
# _framework density 20.558626
#
# number of rings (size 3 to 8) (size 9 to 14) (size 15 to 20)
#    0.000    0.800    1.333    6.400   13.067    1.600 
#    0.000    0.000    0.000    0.000    0.000    0.000 
#    0.000    8.000    0.000    0.000    0.000    0.000 
#
# Total GULP energy -372052.677438 kJ/mol
# GULP energy per Si atom -12401.755915 kJ/mol
# Density = 2.051183 g / cm^3
# Si number density = 20.558626 Si / 1000 Ang^3
#
#
#
# Elastic Constant Matrix: (Units=GPa)
#
#
# Indices 1 2 3 4 5 6 
#
# 1 43.1635 2.9223 40.1256 0.0000 0.0000 0.0000
# 2 2.9223 70.6039 12.6222 0.0000 0.0000 0.0000
# 3 40.1256 12.6222 99.2228 0.0000 0.0000 0.0000
# 4 0.0000 0.0000 0.0000 22.9194 0.0000 0.0000
# 5 0.0000 0.0000 0.0000 0.0000 41.6143 0.0000
# 6 0.0000 0.0000 0.0000 0.0000 0.0000 25.7408
#
#
#
# Elastic Compliance Matrix: (Units=1/GPa)
#
#
# Indices 1 2 3 4 5 6 
#
# 1 0.037219 0.001177 -0.015201 0.000000 0.000000 0.000000
# 2 0.001177 0.014530 -0.002324 0.000000 0.000000 0.000000
# 3 -0.015201 -0.002324 0.016521 0.000000 0.000000 0.000000
# 4 0.000000 0.000000 0.000000 0.043631 0.000000 0.000000
# 5 0.000000 0.000000 0.000000 0.000000 0.024030 0.000000
# 6 0.000000 0.000000 0.000000 0.000000 0.000000 0.038849
#
#
# Mechanical properties :
#
#
# Convention : Reuss Voigt Hill
#
# Bulk Modulus (GPa) = 28.11042 36.03671 32.07357
# Shear Modulus (GPa) = 22.79601 28.54289 25.66945
#
# Velocity S-wave (km/s) = 3.33352 3.73012 3.53738
# Velocity P-wave (km/s) = 5.34036 6.00987 5.68498
#
# Compressibility (1/GPa) = 0.03557400
#
# Stress axis : x y z
#
# Youngs Moduli (GPa) = 26.86769 68.82141 60.52762
#
# Poissons Ratio (x) = -0.08101 0.92009
# Poissons Ratio (y) = -0.03163 0.14069
# Poissons Ratio (z) = 0.40842 0.15997
#
# Static dielectric constant tensor:
#      x y z
#    x 3.483300 0.000000 0.000000 
#    y 0.000000 3.795160 0.000000 
#    z 0.000000 0.000000 3.386680 
# 
# 
# High freq. dielectric constant tensor:
#      x y z
#    x 1.762870 0.000000 0.000000 
#    y 0.000000 1.826210 0.000000 
#    z 0.000000 0.000000 1.791110 
# 
# From -- ./inp_files/28707.got.cif
#   From: 2010.03.12/outbox.cif.g09.slc.cpg/sg23_15_cif.got.tgz:28707.got - 2010.04.14 02:50:06.
