data_PCOD8164589
_publ_section_title
;
Structure prediction by ZEFSAII (Michael W. Deem and Ramdas Pophale) SiO2 
 PCOD8164589
Probable space group: I 21 21 21
;
_chemical_formula_sum "Si O2"
_cell_formula_units_Z 44
_cell_length_a 28.505423
_cell_length_b 5.242261
_cell_length_c 15.324087
_cell_angle_alpha 90.000000
_cell_angle_beta 90.000000
_cell_angle_gamma 90.000000
_cell_volume 2289.922259
_symmetry_space_group_name_H-M "I 21 21 21"
_symmetry_group_IT_number 24
_symmetry_cell_setting 'orthorhombic'
loop_
_space_group_symop_operation_xyz
x,y,z
-x,1/2-y,z
x,-y,1/2-z
1/2-x,y,-z
1/2+x,1/2+y,1/2+z
1/2-x,-y,1/2+z
1/2+x,1/2-y,-z
-x,1/2+y,1/2-z
loop_
_atom_site_type_symbol
_atom_site_label
_atom_site_fract_x
_atom_site_fract_y
_atom_site_fract_z
Si Si1 0.351696 0.529997 0.848812
Si Si2 0.969291 0.500000 0.750000
Si Si3 0.745902 0.952681 0.103530
Si Si4 0.031724 0.000031 0.939153
Si Si5 0.877449 0.530027 0.450204
Si Si6 0.209571 0.952649 0.571939
O O1 0.369025 0.500000 0.750000
O O2 0.295691 0.506416 0.851694
O O3 0.374374 0.306202 0.905887
O O4 0.367931 0.806343 0.881350
O O5 0.000000 0.250000 0.748979
O O6 0.942042 0.498262 0.843178
O O7 0.721333 0.690333 0.135909
O O8 0.711829 0.189915 0.127680
O O9 0.750000 0.909161 0.000000
O O10 0.000000 0.750000 0.950633
O O11 0.000000 0.250000 0.950805
O O12 0.070667 0.996470 0.013310
O O13 0.840718 0.507937 0.528773
O O14 0.250000 0.909529 0.500000
#
# Coordination Sequence:
#
# PCOD8164589 Si02
#       6
#     8   4   8   8   8   8
#     4  12  23  35  55  84 114 157 205 236 272 340
#     4   8  16  34  60  86 114 138 170 226 284 346
#     4  10  16  32  53  73 108 137 186 224 282 322
#     4  10  21  38  62  90 113 146 189 235 289 356
#     4  12  21  36  60  83 114 155 189 243 282 342
#     4  10  16  30  55  79 102 140 182 223 280 331
#
# _framework density 19.214628999999999
#
# number of rings (size 3 to 8) (size 9 to 14) (size 15 to 20)
#    0.000    1.455    7.273    1.636    0.000    0.000 
#    0.000    0.000    4.000   10.909    0.000    0.000 
#    0.000    0.000    0.000    0.000    0.000    0.000 
#
# Total GULP energy -272612.149073 kJ/mol
# GULP energy per Si atom -12391.461322 kJ/mol
# Density = 1.917090 g / cm^3
# Si number density = 19.214629 Si / 1000 Ang^3
#
#
#
# Elastic Constant Matrix: (Units=GPa)
#
#
# Indices 1 2 3 4 5 6 
#
# 1 78.3689 17.0294 27.6280 0.0000 0.0000 0.0000
# 2 17.0294 145.2457 8.5882 0.0000 0.0000 0.0000
# 3 27.6280 8.5882 53.0169 0.0000 0.0000 0.0000
# 4 0.0000 0.0000 0.0000 5.4580 0.0000 0.0000
# 5 0.0000 0.0000 0.0000 0.0000 13.9015 0.0000
# 6 0.0000 0.0000 0.0000 0.0000 0.0000 17.8909
#
#
#
# Elastic Compliance Matrix: (Units=1/GPa)
#
#
# Indices 1 2 3 4 5 6 
#
# 1 0.015904 -0.001388 -0.008063 0.000000 0.000000 0.000000
# 2 -0.001388 0.007073 -0.000422 0.000000 0.000000 0.000000
# 3 -0.008063 -0.000422 0.023132 0.000000 0.000000 0.000000
# 4 0.000000 0.000000 0.000000 0.183219 0.000000 0.000000
# 5 0.000000 0.000000 0.000000 0.000000 0.071935 0.000000
# 6 0.000000 0.000000 0.000000 0.000000 0.000000 0.055894
#
#
# Mechanical properties :
#
#
# Convention : Reuss Voigt Hill
#
# Bulk Modulus (GPa) = 37.93334 42.56922 40.25128
# Shear Modulus (GPa) = 12.96373 22.34246 17.65309
#
# Velocity S-wave (km/s) = 2.60028 3.41366 3.03435
# Velocity P-wave (km/s) = 5.36657 6.14330 5.76802
#
# Compressibility (1/GPa) = 0.02636203
#
# Stress axis : x y z
#
# Youngs Moduli (GPa) = 62.87590 141.39091 43.22978
#
# Poissons Ratio (x) = 0.19624 0.34857
# Poissons Ratio (y) = 0.08727 0.01826
# Poissons Ratio (z) = 0.50698 0.05973
#
# Static dielectric constant tensor:
#      x y z
#    x 3.154160 0.000000 0.000000 
#    y 0.000000 4.674100 0.000000 
#    z 0.000000 0.000000 3.483350 
# 
# 
# High freq. dielectric constant tensor:
#      x y z
#    x 1.706560 0.000000 0.000000 
#    y 0.000000 1.790120 0.000000 
#    z 0.000000 0.000000 1.719610 
# 
# From -- ./inp_files/27977.got.cif
#   From: 2010.03.12/outbox.cif.g09.slc.cpg/sg24_14_cif.got.tgz:27977.got - 2010.04.14 03:06:53.
