data_PCOD8164231
_publ_section_title
;
Structure prediction by ZEFSAII (Michael W. Deem and Ramdas Pophale) SiO2 
 PCOD8164231
Probable space group: I 2 2 2
;
_chemical_formula_sum "Si O2"
_cell_formula_units_Z 64
_cell_length_a 11.930331
_cell_length_b 14.921979
_cell_length_c 17.884207
_cell_angle_alpha 90.000000
_cell_angle_beta 90.000000
_cell_angle_gamma 90.000000
_cell_volume 3183.820725
_symmetry_space_group_name_H-M "I 2 2 2"
_symmetry_group_IT_number 23
_symmetry_cell_setting 'orthorhombic'
loop_
_space_group_symop_operation_xyz
x,y,z
-x,-y,z
x,-y,-z
-x,y,-z
1/2+x,1/2+y,1/2+z
1/2-x,1/2-y,1/2+z
1/2+x,1/2-y,1/2-z
1/2-x,1/2+y,1/2-z
loop_
_atom_site_type_symbol
_atom_site_label
_atom_site_fract_x
_atom_site_fract_y
_atom_site_fract_z
Si Si1 0.724745 0.836555 0.165225
Si Si2 0.378298 0.766724 0.683409
Si Si3 0.979824 0.602920 0.083416
Si Si4 0.185796 0.771317 0.567582
Si Si5 0.752632 0.162514 0.417852
Si Si6 0.463954 0.596719 0.290935
Si Si7 0.372102 0.905617 0.979425
Si Si8 0.005730 0.099407 0.619238
O O1 0.648640 0.799460 0.232946
O O2 0.776104 0.758279 0.115770
O O3 0.833810 0.891780 0.188878
O O4 0.643775 0.892354 0.109806
O O5 0.447909 0.843895 0.643350
O O6 0.258744 0.755975 0.641921
O O7 0.450946 0.674941 0.681562
O O8 0.850039 0.602161 0.107034
O O9 0.000000 0.500000 0.087970
O O10 0.000000 0.642572 0.000000
O O11 0.247472 0.835508 0.508213
O O12 0.173775 0.675070 0.529503
O O13 0.067145 0.822029 0.580526
O O14 0.865977 0.127216 0.382101
O O15 0.500000 0.500000 0.324760
O O16 0.462342 0.591975 0.202445
O O17 0.500000 0.914370 0.000000
O O18 0.311572 0.000000 0.000000
O O19 0.000000 0.000000 0.581134
#
# Coordination Sequence:
#
# PCOD8164231 Si02
#       8
#     8   8   8   8   8   8   8   8
#     4  11  23  44  70  96 139 174 229 288 347 399
#     4  12  24  44  70 100 132 185 225 287 348 414
#     4  11  25  42  65  98 137 174 224 274 345 422
#     4  11  23  40  67  96 133 177 225 275 353 408
#     4  11  22  41  65  91 132 179 218 281 332 416
#     4  11  25  42  67 103 139 175 228 285 344 412
#     4  10  24  46  70  99 133 178 233 288 339 410
#     4  11  24  40  65 102 133 173 224 279 344 415
#
# _framework density 20.101634000000001
#
# number of rings (size 3 to 8) (size 9 to 14) (size 15 to 20)
#    0.000    1.000    5.000    1.875    3.500    1.000 
#    2.250    0.000    0.000    0.000    0.000    0.000 
#    0.000    0.000    0.000    0.000    0.000    0.000 
#
# Total GULP energy -396589.554187 kJ/mol
# GULP energy per Si atom -12393.423568 kJ/mol
# Density = 2.005588 g / cm^3
# Si number density = 20.101634 Si / 1000 Ang^3
#
#
#
# Elastic Constant Matrix: (Units=GPa)
#
#
# Indices 1 2 3 4 5 6 
#
# 1 127.3021 35.8259 41.0404 0.0000 0.0000 0.0000
# 2 35.8259 90.5882 33.6858 0.0000 0.0000 0.0000
# 3 41.0404 33.6858 116.0179 0.0000 0.0000 0.0000
# 4 0.0000 0.0000 0.0000 26.1043 0.0000 0.0000
# 5 0.0000 0.0000 0.0000 0.0000 28.9134 0.0000
# 6 0.0000 0.0000 0.0000 0.0000 0.0000 23.9457
#
#
#
# Elastic Compliance Matrix: (Units=1/GPa)
#
#
# Indices 1 2 3 4 5 6 
#
# 1 0.009460 -0.002799 -0.002534 0.000000 0.000000 0.000000
# 2 -0.002799 0.013203 -0.002843 0.000000 0.000000 0.000000
# 3 -0.002534 -0.002843 0.010341 0.000000 0.000000 0.000000
# 4 0.000000 0.000000 0.000000 0.038308 0.000000 0.000000
# 5 0.000000 0.000000 0.000000 0.000000 0.034586 0.000000
# 6 0.000000 0.000000 0.000000 0.000000 0.000000 0.041761
#
#
# Mechanical properties :
#
#
# Convention : Reuss Voigt Hill
#
# Bulk Modulus (GPa) = 60.05249 61.66806 60.86027
# Shear Modulus (GPa) = 29.48769 30.68309 30.08539
#
# Velocity S-wave (km/s) = 3.83421 3.91115 3.87287
# Velocity P-wave (km/s) = 7.03852 7.15129 7.09513
#
# Compressibility (1/GPa) = 0.01665210
#
# Stress axis : x y z
#
# Youngs Moduli (GPa) = 105.70977 75.73870 96.70045
#
# Poissons Ratio (x) = 0.21200 0.24501
# Poissons Ratio (y) = 0.29589 0.27496
# Poissons Ratio (z) = 0.26783 0.21536
#
# Static dielectric constant tensor:
#      x y z
#    x 3.421530 0.000000 0.000000 
#    y 0.000000 4.135020 0.000000 
#    z 0.000000 0.000000 3.904930 
# 
# 
# High freq. dielectric constant tensor:
#      x y z
#    x 1.792990 0.000000 0.000000 
#    y 0.000000 1.792730 0.000000 
#    z 0.000000 0.000000 1.787370 
# 
# From -- ./inp_files/24447.got.cif
#   From: 2010.03.12/outbox.cif.g09.slc.cpg/sg23_13_cif.got.tgz:24447.got - 2010.04.14 02:50:06.
