data_PCOD8164295
_publ_section_title
;
Structure prediction by ZEFSAII (Michael W. Deem and Ramdas Pophale) SiO2 
 PCOD8164295
Probable space group: I 2 2 2
;
_chemical_formula_sum "Si O2"
_cell_formula_units_Z 48
_cell_length_a 5.101018
_cell_length_b 15.795341
_cell_length_c 27.437994
_cell_angle_alpha 90.000000
_cell_angle_beta 90.000000
_cell_angle_gamma 90.000000
_cell_volume 2210.742799
_symmetry_space_group_name_H-M "I 2 2 2"
_symmetry_group_IT_number 23
_symmetry_cell_setting 'orthorhombic'
loop_
_space_group_symop_operation_xyz
x,y,z
-x,-y,z
x,-y,-z
-x,y,-z
1/2+x,1/2+y,1/2+z
1/2-x,1/2-y,1/2+z
1/2+x,1/2-y,1/2-z
1/2-x,1/2+y,1/2-z
loop_
_atom_site_type_symbol
_atom_site_label
_atom_site_fract_x
_atom_site_fract_y
_atom_site_fract_z
Si Si1 0.455617 0.906121 0.929684
Si Si2 0.009360 0.098539 0.679481
Si Si3 0.988934 0.680353 0.854160
Si Si4 0.546347 0.300857 0.552543
Si Si5 0.930495 0.172229 0.217313
Si Si6 0.431197 0.090176 0.182817
O O1 0.664644 0.840765 0.951705
O O2 0.514687 0.907580 0.872739
O O3 0.161436 0.876643 0.940707
O O4 0.500000 0.000000 0.951579
O O5 0.260432 0.119220 0.646360
O O6 0.761983 0.119856 0.645872
O O7 0.000852 0.161059 0.726085
O O8 0.000000 0.000000 0.695152
O O9 0.984807 0.735415 0.903252
O O10 0.998652 0.736033 0.804515
O O11 0.500000 0.255497 0.500000
O O12 0.123147 0.107761 0.188665
O O13 0.621341 0.156572 0.209660
O O14 0.500000 0.000000 0.206705
#
# Coordination Sequence:
#
# PCOD8164295 Si02
#       6
#     8   8   8   8   8   8
#     4  11  22  39  61  92 134 176 211 257 313 368
#     4  12  26  43  67  96 129 168 209 260 322 383
#     4  12  24  45  66  93 131 163 214 268 317 373
#     4  12  25  43  67  92 125 173 222 268 323 379
#     4  12  22  40  65  94 129 172 210 249 304 382
#     4  11  20  34  58  90 132 173 210 247 293 361
#
# _framework density 21.712160999999998
#
# number of rings (size 3 to 8) (size 9 to 14) (size 15 to 20)
#    0.000    0.333    3.333    7.000    0.000    4.667 
#    0.000    0.000    0.000    3.000    0.000    0.000 
#    0.000    0.000    0.000    0.000    0.000    0.000 
#
# Total GULP energy -297597.823613 kJ/mol
# GULP energy per Si atom -12399.909317 kJ/mol
# Density = 2.166274 g / cm^3
# Si number density = 21.712161 Si / 1000 Ang^3
#
#
#
# Elastic Constant Matrix: (Units=GPa)
#
#
# Indices 1 2 3 4 5 6 
#
# 1 126.7804 29.2104 24.5798 0.0000 0.0000 0.0000
# 2 29.2104 80.7549 33.2004 0.0000 0.0000 0.0000
# 3 24.5798 33.2004 103.2896 0.0000 0.0000 0.0000
# 4 0.0000 0.0000 0.0000 -4.4218 0.0000 0.0000
# 5 0.0000 0.0000 0.0000 0.0000 24.8363 0.0000
# 6 0.0000 0.0000 0.0000 0.0000 0.0000 39.5417
#
#
#
# Elastic Compliance Matrix: (Units=1/GPa)
#
#
# Indices 1 2 3 4 5 6 
#
# 1 0.008737 -0.002657 -0.001225 0.000000 0.000000 0.000000
# 2 -0.002657 0.015077 -0.004214 0.000000 0.000000 0.000000
# 3 -0.001225 -0.004214 0.011328 0.000000 0.000000 0.000000
# 4 0.000000 0.000000 0.000000 -0.226153 0.000000 0.000000
# 5 0.000000 0.000000 0.000000 0.000000 0.040264 0.000000
# 6 0.000000 0.000000 0.000000 0.000000 0.000000 0.025290
#
#
# Mechanical properties :
#
#
# Convention : Reuss Voigt Hill
#
# Bulk Modulus (GPa) = 52.77104 53.86733 53.31919
# Shear Modulus (GPa) = -48.56712 26.91352 -10.82680
#
# Velocity S-wave (km/s) = -4.73468 3.52456 -2.23547
# Velocity P-wave (km/s) = 2.35202 6.43638 4.23645
#
# Compressibility (1/GPa) = 0.01894979
#
# Stress axis : x y z
#
# Youngs Moduli (GPa) = 114.45164 66.32820 88.28038
#
# Poissons Ratio (x) = 0.17621 0.10817
# Poissons Ratio (y) = 0.30406 0.37200
# Poissons Ratio (z) = 0.14023 0.27950
#
# Static dielectric constant tensor:
#      x y z
#    x 4.210930 0.000000 0.000000 
#    y 0.000000 3.779820 0.000000 
#    z 0.000000 0.000000 3.848600 
# 
# 
# High freq. dielectric constant tensor:
#      x y z
#    x 1.879000 0.000000 0.000000 
#    y 0.000000 1.831850 0.000000 
#    z 0.000000 0.000000 1.841030 
# 
# From -- ./inp_files/28943.got.cif
#   From: 2010.03.12/outbox.cif.g09.slc.cpg/sg23_15_cif.got.tgz:28943.got - 2010.04.14 02:50:06.
