data_PCOD8164347
_publ_section_title
;
Structure prediction by ZEFSAII (Michael W. Deem and Ramdas Pophale) SiO2 
 PCOD8164347
Probable space group: I 2 2 2
;
_chemical_formula_sum "Si O2"
_cell_formula_units_Z 48
_cell_length_a 16.015675
_cell_length_b 14.798433
_cell_length_c 9.276092
_cell_angle_alpha 90.000000
_cell_angle_beta 90.000000
_cell_angle_gamma 90.000000
_cell_volume 2198.497748
_symmetry_space_group_name_H-M "I 2 2 2"
_symmetry_group_IT_number 23
_symmetry_cell_setting 'orthorhombic'
loop_
_space_group_symop_operation_xyz
x,y,z
-x,-y,z
x,-y,-z
-x,y,-z
1/2+x,1/2+y,1/2+z
1/2-x,1/2-y,1/2+z
1/2+x,1/2-y,1/2-z
1/2-x,1/2+y,1/2-z
loop_
_atom_site_type_symbol
_atom_site_label
_atom_site_fract_x
_atom_site_fract_y
_atom_site_fract_z
Si Si1 0.645253 0.500000 0.500000
Si Si2 0.589224 0.696231 0.547603
Si Si3 0.085328 0.220329 0.590062
Si Si4 0.812004 0.761944 0.314930
Si Si5 0.208438 0.906662 0.267133
Si Si6 0.354782 0.834627 0.669169
Si Si7 0.317249 0.000000 0.500000
O O1 0.589918 0.589054 0.523632
O O2 0.699177 0.482955 0.644109
O O3 0.500000 0.735251 0.500000
O O4 0.607609 0.719464 0.713743
O O5 0.652321 0.751682 0.446023
O O6 0.159803 0.235067 0.479256
O O7 0.116608 0.134997 0.687883
O O8 0.082332 0.308273 0.698418
O O9 0.000000 0.204285 0.500000
O O10 0.774033 0.664509 0.291673
O O11 0.741873 0.838263 0.277389
O O12 0.253063 0.945903 0.404515
O O13 0.376549 0.930799 0.592788
#
# Coordination Sequence:
#
# PCOD8164347 Si02
#       7
#     4   8   8   8   8   8   4
#     4  12  25  42  68 106 143 176 238 286 363 434
#     4  12  24  43  66  99 141 181 229 293 362 425
#     4  11  23  43  69 102 145 185 228 288 371 423
#     4  11  21  42  69  94 138 185 234 285 344 429
#     4  11  25  41  71 104 132 191 234 295 346 423
#     4  11  22  43  69  99 134 187 237 289 348 419
#     4  12  22  44  70 104 132 178 256 288 338 420
#
# _framework density 21.833089999999999
#
# number of rings (size 3 to 8) (size 9 to 14) (size 15 to 20)
#    0.000    0.667    6.667    3.250    2.333    0.000 
#    0.000    0.833    0.000    1.000    0.000    0.000 
#    0.000    0.000    0.000    0.000    0.000    0.000 
#
# Total GULP energy -297394.295251 kJ/mol
# GULP energy per Si atom -12391.428969 kJ/mol
# Density = 2.178340 g / cm^3
# Si number density = 21.833090 Si / 1000 Ang^3
#
#
#
# Elastic Constant Matrix: (Units=GPa)
#
#
# Indices 1 2 3 4 5 6 
#
# 1 65.4356 34.5136 25.6601 0.0000 0.0000 0.0000
# 2 34.5136 110.3894 35.4420 0.0000 0.0000 0.0000
# 3 25.6601 35.4420 109.3194 0.0000 0.0000 0.0000
# 4 0.0000 0.0000 0.0000 50.3732 0.0000 0.0000
# 5 0.0000 0.0000 0.0000 0.0000 42.2330 0.0000
# 6 0.0000 0.0000 0.0000 0.0000 0.0000 29.6599
#
#
#
# Elastic Compliance Matrix: (Units=1/GPa)
#
#
# Indices 1 2 3 4 5 6 
#
# 1 0.019057 -0.005047 -0.002837 0.000000 0.000000 0.000000
# 2 -0.005047 0.011448 -0.002527 0.000000 0.000000 0.000000
# 3 -0.002837 -0.002527 0.010633 0.000000 0.000000 0.000000
# 4 0.000000 0.000000 0.000000 0.019852 0.000000 0.000000
# 5 0.000000 0.000000 0.000000 0.000000 0.023678 0.000000
# 6 0.000000 0.000000 0.000000 0.000000 0.000000 0.033716
#
#
# Mechanical properties :
#
#
# Convention : Reuss Voigt Hill
#
# Bulk Modulus (GPa) = 49.22305 52.93065 51.07685
# Shear Modulus (GPa) = 34.25196 37.08846 35.67021
#
# Velocity S-wave (km/s) = 3.96512 4.12603 4.04637
# Velocity P-wave (km/s) = 6.59977 6.85528 6.72874
#
# Compressibility (1/GPa) = 0.02031568
#
# Stress axis : x y z
#
# Youngs Moduli (GPa) = 52.47456 87.34994 94.05064
#
# Poissons Ratio (x) = 0.44089 0.26680
# Poissons Ratio (y) = 0.26486 0.23765
# Poissons Ratio (z) = 0.14886 0.22072
#
# Static dielectric constant tensor:
#      x y z
#    x 3.666580 0.000000 0.000000 
#    y 0.000000 3.109980 0.000000 
#    z 0.000000 0.000000 4.124930 
# 
# 
# High freq. dielectric constant tensor:
#      x y z
#    x 1.833850 0.000000 0.000000 
#    y 0.000000 1.845450 0.000000 
#    z 0.000000 0.000000 1.886540 
# 
# From -- ./inp_files/11084.got.cif
#   From: 2010.03.12/outbox.cif.g09.slc.cpg/sg23_6_cif.got.tgz:11084.got - 2010.04.14 02:50:06.
