data_PCOD8164924
_publ_section_title
;
Structure prediction by ZEFSAII (Michael W. Deem and Ramdas Pophale) SiO2 
 PCOD8164924
Probable space group: I 21 21 21
;
_chemical_formula_sum "Si O2"
_cell_formula_units_Z 40
_cell_length_a 12.360351
_cell_length_b 10.760532
_cell_length_c 15.087963
_cell_angle_alpha 90.000000
_cell_angle_beta 90.000000
_cell_angle_gamma 90.000000
_cell_volume 2006.758714
_symmetry_space_group_name_H-M "I 21 21 21"
_symmetry_group_IT_number 24
_symmetry_cell_setting 'orthorhombic'
loop_
_space_group_symop_operation_xyz
x,y,z
-x,1/2-y,z
x,-y,1/2-z
1/2-x,y,-z
1/2+x,1/2+y,1/2+z
1/2-x,-y,1/2+z
1/2+x,1/2-y,-z
-x,1/2+y,1/2-z
loop_
_atom_site_type_symbol
_atom_site_label
_atom_site_fract_x
_atom_site_fract_y
_atom_site_fract_z
Si Si1 0.527556 0.118591 0.850355
Si Si2 0.733774 0.264896 0.402073
Si Si3 0.558321 0.368020 0.652510
Si Si4 0.000000 0.250000 0.679757
Si Si5 0.579520 0.000000 0.250000
Si Si6 0.254044 0.516616 0.602350
O O1 0.500000 0.250000 0.898959
O O2 0.486802 0.125229 0.750818
O O3 0.656117 0.099408 0.849169
O O4 0.471045 0.998431 0.897512
O O5 0.750000 0.318346 0.500000
O O6 0.811422 0.351084 0.341714
O O7 0.607742 0.267772 0.378335
O O8 0.784977 0.127808 0.395735
O O9 0.500000 0.250000 0.603609
O O10 0.992000 0.123964 0.737165
O O11 0.646147 0.032763 0.160750
O O12 0.250000 0.562439 0.500000
#
# Coordination Sequence:
#
# PCOD8164924 Si02
#       6
#     8   8   8   4   4   8
#     4  10  21  34  58  94 122 157 208 251 309 362
#     4  10  22  38  65  93 123 156 214 270 307 359
#     4  10  19  34  61  90 119 155 206 258 301 356
#     4  10  24  40  62  90 122 172 204 246 320 378
#     4  10  22  42  66  82 128 168 208 252 304 384
#     4  10  21  40  64  90 123 172 209 250 310 375
#
# _framework density 19.932641
#
# number of rings (size 3 to 8) (size 9 to 14) (size 15 to 20)
#    0.000    2.000    2.000    1.200    9.800    3.200 
#    1.800    1.000    0.000    0.000    0.000    0.000 
#    0.000    0.000    0.000    0.000    0.000    0.000 
#
# Total GULP energy -247782.849871 kJ/mol
# GULP energy per Si atom -12389.142494 kJ/mol
# Density = 1.988727 g / cm^3
# Si number density = 19.932641 Si / 1000 Ang^3
#
#
#
# Elastic Constant Matrix: (Units=GPa)
#
#
# Indices 1 2 3 4 5 6 
#
# 1 135.2124 71.9339 39.1861 0.0000 0.0000 0.0000
# 2 71.9339 170.5857 28.1664 0.0000 0.0000 0.0000
# 3 39.1861 28.1664 93.4061 0.0000 0.0000 0.0000
# 4 0.0000 0.0000 0.0000 19.8592 0.0000 0.0000
# 5 0.0000 0.0000 0.0000 0.0000 18.6879 0.0000
# 6 0.0000 0.0000 0.0000 0.0000 0.0000 44.1504
#
#
#
# Elastic Compliance Matrix: (Units=1/GPa)
#
#
# Indices 1 2 3 4 5 6 
#
# 1 0.010365 -0.003844 -0.003189 0.000000 0.000000 0.000000
# 2 -0.003844 0.007595 -0.000678 0.000000 0.000000 0.000000
# 3 -0.003189 -0.000678 0.012248 0.000000 0.000000 0.000000
# 4 0.000000 0.000000 0.000000 0.050354 0.000000 0.000000
# 5 0.000000 0.000000 0.000000 0.000000 0.053511 0.000000
# 6 0.000000 0.000000 0.000000 0.000000 0.000000 0.022650
#
#
# Mechanical properties :
#
#
# Convention : Reuss Voigt Hill
#
# Bulk Modulus (GPa) = 67.62939 75.30856 71.46898
# Shear Modulus (GPa) = 28.23675 33.86738 31.05206
#
# Velocity S-wave (km/s) = 3.76787 4.12648 3.95124
# Velocity P-wave (km/s) = 7.27542 7.78250 7.53323
#
# Compressibility (1/GPa) = 0.01478647
#
# Stress axis : x y z
#
# Youngs Moduli (GPa) = 96.47635 131.66352 81.64466
#
# Poissons Ratio (x) = 0.50615 0.26038
# Poissons Ratio (y) = 0.37088 0.05532
# Poissons Ratio (z) = 0.30768 0.08920
#
# Static dielectric constant tensor:
#      x y z
#    x 3.654780 0.000000 0.000000 
#    y 0.000000 6.318210 0.000000 
#    z 0.000000 0.000000 3.350900 
# 
# 
# High freq. dielectric constant tensor:
#      x y z
#    x 1.778740 0.000000 0.000000 
#    y 0.000000 1.783910 0.000000 
#    z 0.000000 0.000000 1.743130 
# 
# From -- ./inp_files/20530.got.cif
#   From: 2010.03.12/outbox.cif.g09.slc.cpg/sg24_11_cif.got.tgz:20530.got - 2010.04.14 03:06:53.
