data_PCOD8164299
_publ_section_title
;
Structure prediction by ZEFSAII (Michael W. Deem and Ramdas Pophale) SiO2 
 PCOD8164299
Probable space group: I 2 2 2
;
_chemical_formula_sum "Si O2"
_cell_formula_units_Z 48
_cell_length_a 6.346296
_cell_length_b 25.549376
_cell_length_c 14.425532
_cell_angle_alpha 90.000000
_cell_angle_beta 90.000000
_cell_angle_gamma 90.000000
_cell_volume 2339.012057
_symmetry_space_group_name_H-M "I 2 2 2"
_symmetry_group_IT_number 23
_symmetry_cell_setting 'orthorhombic'
loop_
_space_group_symop_operation_xyz
x,y,z
-x,-y,z
x,-y,-z
-x,y,-z
1/2+x,1/2+y,1/2+z
1/2-x,1/2-y,1/2+z
1/2+x,1/2-y,1/2-z
1/2-x,1/2+y,1/2-z
loop_
_atom_site_type_symbol
_atom_site_label
_atom_site_fract_x
_atom_site_fract_y
_atom_site_fract_z
Si Si1 0.114416 0.198440 0.805087
Si Si2 0.245943 0.130511 0.271063
Si Si3 0.260319 0.756829 0.374881
Si Si4 0.110583 0.365983 0.092968
Si Si5 0.504689 0.156662 0.898114
Si Si6 0.478754 0.438283 0.105849
O O1 0.240257 0.237009 0.736995
O O2 0.270791 0.157633 0.855120
O O3 0.952789 0.168570 0.736353
O O4 0.990678 0.229685 0.885979
O O5 0.439054 0.152957 0.331694
O O6 0.339025 0.122173 0.166995
O O7 0.165045 0.079033 0.324666
O O8 0.252830 0.813017 0.427270
O O9 0.082607 0.716988 0.410625
O O10 0.253196 0.413202 0.135401
O O11 0.000000 0.386746 0.000000
O O12 0.500000 0.130344 0.000000
O O13 0.500000 0.500000 0.109745
O O14 0.500000 0.417773 0.000000
#
# Coordination Sequence:
#
# PCOD8164299 Si02
#       6
#     8   8   8   8   8   8
#     4  11  20  37  57  84 124 167 218 264 314 377
#     4  11  22  41  62  86 126 170 209 272 327 385
#     4  11  21  33  57  83 126 170 213 260 309 380
#     4  12  24  38  61  94 130 172 214 260 327 393
#     4  11  25  38  58  91 130 177 224 267 318 388
#     4  11  24  43  65  95 128 163 216 272 337 406
#
# _framework density 20.521485999999999
#
# number of rings (size 3 to 8) (size 9 to 14) (size 15 to 20)
#    0.000    0.833    6.667    1.000    2.333    3.333 
#    0.000    0.000    0.000    0.000    0.000   16.333 
#    0.000    0.000    0.000    0.000    0.000    0.000 
#
# Total GULP energy -297431.580159 kJ/mol
# GULP energy per Si atom -12392.982507 kJ/mol
# Density = 2.047478 g / cm^3
# Si number density = 20.521486 Si / 1000 Ang^3
#
#
#
# Elastic Constant Matrix: (Units=GPa)
#
#
# Indices 1 2 3 4 5 6 
#
# 1 109.3228 38.7957 40.0669 0.0000 0.0000 0.0000
# 2 38.7957 88.2461 25.9823 0.0000 0.0000 0.0000
# 3 40.0669 25.9823 120.5272 0.0001 0.0000 0.0000
# 4 0.0000 0.0000 0.0001 23.2990 0.0000 0.0000
# 5 0.0000 0.0000 0.0000 0.0000 35.2249 0.0000
# 6 0.0000 0.0000 0.0000 0.0000 0.0000 21.5677
#
#
#
# Elastic Compliance Matrix: (Units=1/GPa)
#
#
# Indices 1 2 3 4 5 6 
#
# 1 0.011765 -0.004293 -0.002986 0.000000 0.000000 0.000000
# 2 -0.004293 0.013667 -0.001519 0.000000 0.000000 0.000000
# 3 -0.002986 -0.001519 0.009617 0.000000 0.000000 0.000000
# 4 0.000000 0.000000 0.000000 0.042920 0.000000 0.000000
# 5 0.000000 0.000000 0.000000 0.000000 0.028389 0.000000
# 6 0.000000 0.000000 0.000000 0.000000 0.000000 0.046366
#
#
# Mechanical properties :
#
#
# Convention : Reuss Voigt Hill
#
# Bulk Modulus (GPa) = 57.29678 58.64288 57.96983
# Shear Modulus (GPa) = 28.38709 30.23505 29.31107
#
# Velocity S-wave (km/s) = 3.72329 3.84257 3.78340
# Velocity P-wave (km/s) = 6.81651 6.95165 6.88442
#
# Compressibility (1/GPa) = 0.01745299
#
# Stress axis : x y z
#
# Youngs Moduli (GPa) = 84.99810 73.17114 103.98459
#
# Poissons Ratio (x) = 0.31414 0.31045
# Poissons Ratio (y) = 0.36491 0.15795
# Poissons Ratio (z) = 0.25377 0.11114
#
# Static dielectric constant tensor:
#      x y z
#    x 4.012570 0.000000 0.000000 
#    y 0.000000 3.197550 0.000000 
#    z 0.000000 0.000000 3.677060 
# 
# 
# High freq. dielectric constant tensor:
#      x y z
#    x 1.824530 0.000000 0.000000 
#    y 0.000000 1.745930 0.000000 
#    z 0.000000 0.000000 1.793130 
# 
# From -- ./inp_files/19222.got.cif
#   From: 2010.03.12/outbox.cif.g09.slc.cpg/sg23_10_cif.got.tgz:19222.got - 2010.04.14 02:50:06.
