data_PCOD8164002
_publ_section_title
;
Structure prediction by ZEFSAII (Michael W. Deem and Ramdas Pophale) SiO2 
 PCOD8164002
Probable space group: I 2 2 2
;
_chemical_formula_sum "Si O2"
_cell_formula_units_Z 48
_cell_length_a 15.130247
_cell_length_b 11.163695
_cell_length_c 13.196491
_cell_angle_alpha 90.000000
_cell_angle_beta 90.000000
_cell_angle_gamma 90.000000
_cell_volume 2229.012205
_symmetry_space_group_name_H-M "I 2 2 2"
_symmetry_group_IT_number 23
_symmetry_cell_setting 'orthorhombic'
loop_
_space_group_symop_operation_xyz
x,y,z
-x,-y,z
x,-y,-z
-x,y,-z
1/2+x,1/2+y,1/2+z
1/2-x,1/2-y,1/2+z
1/2+x,1/2-y,1/2-z
1/2-x,1/2+y,1/2-z
loop_
_atom_site_type_symbol
_atom_site_label
_atom_site_fract_x
_atom_site_fract_y
_atom_site_fract_z
Si Si1 0.376505 0.837160 0.175594
Si Si2 0.698280 0.000000 0.500000
Si Si3 0.831708 0.136245 0.821013
Si Si4 0.215266 0.745899 0.483116
Si Si5 0.500000 0.500000 0.267062
Si Si6 0.060921 0.760420 0.329578
Si Si7 0.158523 0.430768 0.783998
O O1 0.358452 0.766091 0.279261
O O2 0.471163 0.800370 0.132655
O O3 0.379543 0.976547 0.202029
O O4 0.299607 0.808289 0.094527
O O5 0.757474 0.883395 0.513865
O O6 0.640461 0.976321 0.398665
O O7 0.787483 0.159291 0.930215
O O8 0.763504 0.079285 0.739450
O O9 0.919746 0.054725 0.834244
O O10 0.124459 0.744974 0.423643
O O11 0.543197 0.601404 0.196558
O O12 0.105681 0.693663 0.232495
#
# Coordination Sequence:
#
# PCOD8164002 Si02
#       7
#     8   4   8   8   4   8   8
#     4  11  22  42  65  97 138 172 224 287 340 405
#     4  12  22  38  72 100 130 178 238 284 316 430
#     4  10  22  39  65 100 132 178 217 280 337 402
#     4  11  23  40  68 105 130 176 234 278 356 401
#     4  10  22  42  69  93 146 180 226 277 345 408
#     4  10  24  41  66 103 135 180 219 291 347 408
#     4  11  23  42  69  97 139 179 232 276 350 408
#
# _framework density 21.534202000000001
#
# number of rings (size 3 to 8) (size 9 to 14) (size 15 to 20)
#    0.000    1.333    3.333    2.000    4.667    2.667 
#    0.000    5.000    0.000    7.000    0.000    0.000 
#    0.000    0.000    0.000    0.000    0.000    0.000 
#
# Total GULP energy -297584.583583 kJ/mol
# GULP energy per Si atom -12399.357649 kJ/mol
# Density = 2.148519 g / cm^3
# Si number density = 21.534202 Si / 1000 Ang^3
#
#
#
# Elastic Constant Matrix: (Units=GPa)
#
#
# Indices 1 2 3 4 5 6 
#
# 1 103.7333 38.1193 28.7299 0.0000 0.0000 0.0000
# 2 38.1193 120.0821 38.9804 0.0000 0.0000 0.0000
# 3 28.7299 38.9804 99.4027 0.0000 0.0000 0.0000
# 4 0.0000 0.0000 0.0000 28.7810 0.0000 0.0000
# 5 0.0000 0.0000 0.0000 0.0000 20.8137 0.0000
# 6 0.0000 0.0000 0.0000 0.0000 0.0000 44.6635
#
#
#
# Elastic Compliance Matrix: (Units=1/GPa)
#
#
# Indices 1 2 3 4 5 6 
#
# 1 0.011293 -0.002894 -0.002129 0.000000 0.000000 0.000000
# 2 -0.002894 0.010284 -0.003196 0.000000 0.000000 0.000000
# 3 -0.002129 -0.003196 0.011929 0.000000 0.000000 0.000000
# 4 0.000000 0.000000 0.000000 0.034745 0.000000 0.000000
# 5 0.000000 0.000000 0.000000 0.000000 0.048045 0.000000
# 6 0.000000 0.000000 0.000000 0.000000 0.000000 0.022390
#
#
# Mechanical properties :
#
#
# Convention : Reuss Voigt Hill
#
# Bulk Modulus (GPa) = 58.59200 59.43081 59.01140
# Shear Modulus (GPa) = 31.09182 33.34421 32.21802
#
# Velocity S-wave (km/s) = 3.80390 3.93928 3.87218
# Velocity P-wave (km/s) = 6.82355 6.95333 6.88874
#
# Compressibility (1/GPa) = 0.01706718
#
# Stress axis : x y z
#
# Youngs Moduli (GPa) = 88.54878 97.23990 83.82967
#
# Poissons Ratio (x) = 0.28139 0.17849
# Poissons Ratio (y) = 0.25624 0.26795
# Poissons Ratio (z) = 0.18854 0.31082
#
# Static dielectric constant tensor:
#      x y z
#    x 3.968590 0.000000 0.000000 
#    y 0.000000 4.005110 0.000000 
#    z 0.000000 0.000000 3.760300 
# 
# 
# High freq. dielectric constant tensor:
#      x y z
#    x 1.845600 0.000000 0.000000 
#    y 0.000000 1.859040 0.000000 
#    z 0.000000 0.000000 1.827740 
# 
# From -- ./inp_files/17426.got.cif
#   From: 2010.03.12/outbox.cif.g09.slc.cpg/sg23_9_cif.got.tgz:17426.got - 2010.04.14 02:50:06.
