data_PCOD8164856
_publ_section_title
;
Structure prediction by ZEFSAII (Michael W. Deem and Ramdas Pophale) SiO2 
 PCOD8164856
Probable space group: I 21 21 21
;
_chemical_formula_sum "Si O2"
_cell_formula_units_Z 48
_cell_length_a 14.436271
_cell_length_b 17.688362
_cell_length_c 10.525964
_cell_angle_alpha 90.000000
_cell_angle_beta 90.000000
_cell_angle_gamma 90.000000
_cell_volume 2687.846878
_symmetry_space_group_name_H-M "I 21 21 21"
_symmetry_group_IT_number 24
_symmetry_cell_setting 'orthorhombic'
loop_
_space_group_symop_operation_xyz
x,y,z
-x,1/2-y,z
x,-y,1/2-z
1/2-x,y,-z
1/2+x,1/2+y,1/2+z
1/2-x,-y,1/2+z
1/2+x,1/2-y,-z
-x,1/2+y,1/2-z
loop_
_atom_site_type_symbol
_atom_site_label
_atom_site_fract_x
_atom_site_fract_y
_atom_site_fract_z
Si Si1 0.995698 0.646125 0.657170
Si Si2 0.098489 0.494756 0.886397
Si Si3 0.827924 0.200592 0.221179
Si Si4 0.250000 0.601663 0.500000
Si Si5 0.636869 0.751417 0.209669
Si Si6 0.000000 0.750000 0.430925
Si Si7 0.643034 0.856638 0.987507
O O1 0.914676 0.672188 0.756171
O O2 0.005137 0.554959 0.646523
O O3 0.093409 0.683170 0.700534
O O4 0.978289 0.676541 0.515505
O O5 0.150679 0.500000 0.750000
O O6 0.159830 0.449126 0.984493
O O7 0.078938 0.576706 0.950391
O O8 0.772263 0.148682 0.124514
O O9 0.747503 0.257619 0.270682
O O10 0.875436 0.155008 0.338122
O O11 0.909412 0.245338 0.154855
O O12 0.621386 0.778668 0.063744
O O13 0.750000 0.881950 0.000000
#
# Coordination Sequence:
#
# PCOD8164856 Si02
#       7
#     8   8   8   4   8   4   8
#     4  10  19  32  53  73 106 142 183 219 253 332
#     4  12  20  32  50  80 107 143 178 217 277 343
#     4  11  20  35  51  77 108 144 176 225 277 329
#     4  12  20  32  50  72 118 142 166 214 280 342
#     4   9  18  34  51  73 104 140 180 220 263 316
#     4  10  20  32  48  76 102 136 184 216 270 328
#     4  10  20  32  52  80 112 143 173 221 286 343
#
# _framework density 17.858160999999999
#
# number of rings (size 3 to 8) (size 9 to 14) (size 15 to 20)
#    0.000    1.667    5.833    2.000    0.000    1.333 
#    0.000    0.000    0.000    0.000    0.000    4.667 
#    0.000    0.000    0.000    0.000    0.000    0.000 
#
# Total GULP energy -297321.760032 kJ/mol
# GULP energy per Si atom -12388.406668 kJ/mol
# Density = 1.781752 g / cm^3
# Si number density = 17.858161 Si / 1000 Ang^3
#
#
#
# Elastic Constant Matrix: (Units=GPa)
#
#
# Indices 1 2 3 4 5 6 
#
# 1 70.4793 35.4046 26.8036 0.0000 0.0000 0.0000
# 2 35.4046 75.4193 37.4893 0.0000 0.0000 0.0000
# 3 26.8036 37.4893 122.1143 0.0000 0.0000 0.0000
# 4 0.0000 0.0000 0.0000 27.4228 0.0000 0.0000
# 5 0.0000 0.0000 0.0000 0.0000 24.1670 0.0000
# 6 0.0000 0.0000 0.0000 0.0000 0.0000 26.0740
#
#
#
# Elastic Compliance Matrix: (Units=1/GPa)
#
#
# Indices 1 2 3 4 5 6 
#
# 1 0.018854 -0.008017 -0.001677 0.000000 0.000000 0.000000
# 2 -0.008017 0.019056 -0.004091 0.000000 0.000000 0.000000
# 3 -0.001677 -0.004091 0.009813 0.000000 0.000000 0.000000
# 4 0.000000 0.000000 0.000000 0.036466 0.000000 0.000000
# 5 0.000000 0.000000 0.000000 0.000000 0.041379 0.000000
# 6 0.000000 0.000000 0.000000 0.000000 0.000000 0.038352
#
#
# Mechanical properties :
#
#
# Convention : Reuss Voigt Hill
#
# Bulk Modulus (GPa) = 49.61934 51.93423 50.77678
# Shear Modulus (GPa) = 25.22620 26.75378 25.98999
#
# Velocity S-wave (km/s) = 3.76252 3.87476 3.81905
# Velocity P-wave (km/s) = 6.83527 7.01163 6.92401
#
# Compressibility (1/GPa) = 0.02015343
#
# Stress axis : x y z
#
# Youngs Moduli (GPa) = 53.04026 52.47698 101.90608
#
# Poissons Ratio (x) = 0.42071 0.17090
# Poissons Ratio (y) = 0.42522 0.41685
# Poissons Ratio (z) = 0.08895 0.21466
#
# Static dielectric constant tensor:
#      x y z
#    x 3.164970 0.000000 0.000000 
#    y 0.000000 3.176820 0.000000 
#    z 0.000000 0.000000 3.563330 
# 
# 
# High freq. dielectric constant tensor:
#      x y z
#    x 1.659630 0.000000 0.000000 
#    y 0.000000 1.657700 0.000000 
#    z 0.000000 0.000000 1.708200 
# 
# From -- ./inp_files/13013.got.cif
#   From: 2010.03.12/outbox.cif.g09.slc.cpg/sg24_7_cif.got.tgz:13013.got - 2010.04.14 03:06:53.
