data_PCOD8164661
_publ_section_title
;
Structure prediction by ZEFSAII (Michael W. Deem and Ramdas Pophale) SiO2 
 PCOD8164661
Probable space group: I 21 21 21
;
_chemical_formula_sum "Si O2"
_cell_formula_units_Z 36
_cell_length_a 19.712491
_cell_length_b 5.120852
_cell_length_c 20.076391
_cell_angle_alpha 90.000000
_cell_angle_beta 90.000000
_cell_angle_gamma 90.000000
_cell_volume 2026.606250
_symmetry_space_group_name_H-M "I 21 21 21"
_symmetry_group_IT_number 24
_symmetry_cell_setting 'orthorhombic'
loop_
_space_group_symop_operation_xyz
x,y,z
-x,1/2-y,z
x,-y,1/2-z
1/2-x,y,-z
1/2+x,1/2+y,1/2+z
1/2-x,-y,1/2+z
1/2+x,1/2-y,-z
-x,1/2+y,1/2-z
loop_
_atom_site_type_symbol
_atom_site_label
_atom_site_fract_x
_atom_site_fract_y
_atom_site_fract_z
Si Si1 0.852949 0.061455 0.460350
Si Si2 0.883304 0.568039 0.385250
Si Si3 0.233880 0.935283 0.673067
Si Si4 0.703569 0.931331 0.098387
Si Si5 0.500000 0.250000 0.790177
O O1 0.892999 0.303631 0.427618
O O2 0.776424 0.058084 0.435475
O O3 0.853640 0.060336 0.540809
O O4 0.890016 0.799597 0.438104
O O5 0.812845 0.568590 0.345598
O O6 0.941898 0.606192 0.331790
O O7 0.197726 0.664618 0.652220
O O8 0.226301 0.000000 0.750000
O O9 0.193105 0.158018 0.634573
O O10 0.468720 0.500000 0.750000
#
# Coordination Sequence:
#
# PCOD8164661 Si02
#       5
#     8   8   8   8   4
#     4   9  17  31  47  64  83 113 158 197 234 270
#     4  10  20  32  47  63  87 124 162 199 228 259
#     4  10  18  28  43  66  94 123 151 182 226 280
#     4   9  17  28  45  65  87 115 150 191 230 277
#     4  12  24  36  48  66  94 128 166 202 232 260
#
# _framework density 17.763687999999998
#
# number of rings (size 3 to 8) (size 9 to 14) (size 15 to 20)
#    0.000    2.222    0.000    4.000    0.000    8.889 
#    0.000    0.000    0.000    0.000    0.000    0.000 
#    0.000    0.000    0.000   56.000    0.000    0.000 
#
# Total GULP energy -223123.958470 kJ/mol
# GULP energy per Si atom -12395.775471 kJ/mol
# Density = 1.772326 g / cm^3
# Si number density = 17.763688 Si / 1000 Ang^3
#
#
#
# Elastic Constant Matrix: (Units=GPa)
#
#
# Indices 1 2 3 4 5 6 
#
# 1 24.8500 24.0320 34.2981 0.0000 0.0000 0.0000
# 2 24.0320 138.5557 53.9187 0.0000 0.0000 0.0000
# 3 34.2981 53.9187 121.1155 0.0000 0.0000 0.0000
# 4 0.0000 0.0000 0.0000 33.5917 0.0000 0.0000
# 5 0.0000 0.0000 0.0000 0.0000 15.6330 0.0000
# 6 0.0000 0.0000 0.0000 0.0000 0.0000 13.6625
#
#
#
# Elastic Compliance Matrix: (Units=1/GPa)
#
#
# Indices 1 2 3 4 5 6 
#
# 1 0.069123 -0.005288 -0.017220 0.000000 0.000000 0.000000
# 2 -0.005288 0.009134 -0.002569 0.000000 0.000000 0.000000
# 3 -0.017220 -0.002569 0.014277 0.000000 0.000000 0.000000
# 4 0.000000 0.000000 0.000000 0.029769 0.000000 0.000000
# 5 0.000000 0.000000 0.000000 0.000000 0.063967 0.000000
# 6 0.000000 0.000000 0.000000 0.000000 0.000000 0.073193
#
#
# Mechanical properties :
#
#
# Convention : Reuss Voigt Hill
#
# Bulk Modulus (GPa) = 23.59639 56.55766 40.07702
# Shear Modulus (GPa) = 15.44428 24.06227 19.75328
#
# Velocity S-wave (km/s) = 2.95181 3.68445 3.33829
# Velocity P-wave (km/s) = 4.99299 7.07165 6.12120
#
# Compressibility (1/GPa) = 0.04237936
#
# Stress axis : x y z
#
# Youngs Moduli (GPa) = 14.46699 109.47902 70.04360
#
# Poissons Ratio (x) = 0.57890 1.20619
# Poissons Ratio (y) = 0.07650 0.17994
# Poissons Ratio (z) = 0.24913 0.28125
#
# Static dielectric constant tensor:
#      x y z
#    x 2.815900 0.000000 0.000000 
#    y 0.000000 3.687340 0.000000 
#    z 0.000000 0.000000 3.450450 
# 
# 
# High freq. dielectric constant tensor:
#      x y z
#    x 1.615520 0.000000 0.000000 
#    y 0.000000 1.714430 0.000000 
#    z 0.000000 0.000000 1.692960 
# 
# From -- ./inp_files/4641.got.cif
#   From: 2010.03.12/outbox.cif.g09.slc.cpg/sg24_3_cif.got.tgz:4641.got - 2010.04.14 03:06:53.
