data_PCOD8164242
_publ_section_title
;
Structure prediction by ZEFSAII (Michael W. Deem and Ramdas Pophale) SiO2 
 PCOD8164242
Probable space group: I 2 2 2
;
_chemical_formula_sum "Si O2"
_cell_formula_units_Z 40
_cell_length_a 15.486846
_cell_length_b 7.941324
_cell_length_c 15.391701
_cell_angle_alpha 90.000000
_cell_angle_beta 90.000000
_cell_angle_gamma 90.000000
_cell_volume 1892.964691
_symmetry_space_group_name_H-M "I 2 2 2"
_symmetry_group_IT_number 23
_symmetry_cell_setting 'orthorhombic'
loop_
_space_group_symop_operation_xyz
x,y,z
-x,-y,z
x,-y,-z
-x,y,-z
1/2+x,1/2+y,1/2+z
1/2-x,1/2-y,1/2+z
1/2+x,1/2-y,1/2-z
1/2-x,1/2+y,1/2-z
loop_
_atom_site_type_symbol
_atom_site_label
_atom_site_fract_x
_atom_site_fract_y
_atom_site_fract_z
Si Si1 0.185353 0.199837 0.692478
Si Si2 0.247937 0.313671 0.999863
Si Si3 0.164461 0.182208 0.322074
Si Si4 0.500000 0.500000 0.635778
Si Si5 0.636499 0.500000 0.500000
Si Si6 0.011013 0.685231 0.252342
O O1 0.220774 0.230427 0.596046
O O2 0.257687 0.239116 0.765324
O O3 0.101290 0.320365 0.694865
O O4 0.154054 0.009537 0.709020
O O5 0.203321 0.500000 0.000000
O O6 0.321715 0.315851 0.926007
O O7 0.187155 0.163992 0.968567
O O8 0.073827 0.276835 0.309183
O O9 0.580469 0.562935 0.580240
O O10 0.526926 0.332151 0.684522
O O11 0.000000 0.500000 0.209440
#
# Coordination Sequence:
#
# PCOD8164242 Si02
#       6
#     8   8   8   4   4   8
#     4  11  23  43  67  97 136 177 225 279 335 401
#     4  10  25  42  64  99 133 173 222 276 338 401
#     4  11  23  43  67  97 136 177 225 279 335 401
#     4  11  24  44  62  99 130 178 224 287 336 403
#     4  11  24  40  70  91 134 174 228 279 338 407
#     4  12  25  42  66  99 135 177 226 276 337 401
#
# _framework density 21.130876000000001
#
# number of rings (size 3 to 8) (size 9 to 14) (size 15 to 20)
#    0.000    1.000    2.000    3.600    5.600    5.600 
#    0.000    6.000    0.000    0.000    0.000    0.000 
#    0.000    0.000    0.000    0.000    0.000    0.000 
#
# Total GULP energy -247872.519742 kJ/mol
# GULP energy per Si atom -12393.625987 kJ/mol
# Density = 2.108278 g / cm^3
# Si number density = 21.130876 Si / 1000 Ang^3
#
#
#
# Elastic Constant Matrix: (Units=GPa)
#
#
# Indices 1 2 3 4 5 6 
#
# 1 104.5071 22.8055 14.2835 0.0000 0.0000 0.0000
# 2 22.8055 113.8469 21.8380 0.0000 0.0000 0.0000
# 3 14.2835 21.8380 93.4075 0.0000 0.0000 0.0000
# 4 0.0000 0.0000 0.0000 25.2949 0.0000 0.0000
# 5 0.0000 0.0000 0.0000 0.0000 -46.9692 0.0000
# 6 0.0000 0.0000 0.0000 0.0000 0.0000 29.9848
#
#
#
# Elastic Compliance Matrix: (Units=1/GPa)
#
#
# Indices 1 2 3 4 5 6 
#
# 1 0.010118 -0.001811 -0.001124 0.000000 0.000000 0.000000
# 2 -0.001811 0.009520 -0.001949 0.000000 0.000000 0.000000
# 3 -0.001124 -0.001949 0.011333 0.000000 0.000000 0.000000
# 4 0.000000 0.000000 0.000000 0.039534 0.000000 0.000000
# 5 0.000000 0.000000 0.000000 0.000000 -0.021291 0.000000
# 6 0.000000 0.000000 0.000000 0.000000 0.000000 0.033350
#
#
# Mechanical properties :
#
#
# Convention : Reuss Voigt Hill
#
# Bulk Modulus (GPa) = 47.16149 47.73503 47.44826
# Shear Modulus (GPa) = 50.30196 18.51774 34.40985
#
# Velocity S-wave (km/s) = 4.88433 2.96351 4.03974
# Velocity P-wave (km/s) = 7.36044 5.86081 6.65301
#
# Compressibility (1/GPa) = 0.02120374
#
# Stress axis : x y z
#
# Youngs Moduli (GPa) = 98.83821 105.03804 88.23615
#
# Poissons Ratio (x) = 0.19024 0.09915
# Poissons Ratio (y) = 0.17901 0.17196
# Poissons Ratio (z) = 0.11106 0.20470
#
# Static dielectric constant tensor:
#      x y z
#    x 3.864130 0.000000 0.000000 
#    y 0.000000 4.397420 0.000000 
#    z 0.000000 0.000000 3.795420 
# 
# 
# High freq. dielectric constant tensor:
#      x y z
#    x 1.828810 0.000000 0.000000 
#    y 0.000000 1.847400 0.000000 
#    z 0.000000 0.000000 1.828730 
# 
# From -- ./inp_files/9623.got.cif
#   From: 2010.03.12/outbox.cif.g09.slc.cpg/sg23_5_cif.got.tgz:9623.got - 2010.04.14 02:50:06.
