data_PCOD8164967
_publ_section_title
;
Structure prediction by ZEFSAII (Michael W. Deem and Ramdas Pophale) SiO2 
 PCOD8164967
Probable space group: I 21 21 21
;
_chemical_formula_sum "Si O2"
_cell_formula_units_Z 56
_cell_length_a 22.486709
_cell_length_b 8.933770
_cell_length_c 14.378989
_cell_angle_alpha 90.000000
_cell_angle_beta 90.000000
_cell_angle_gamma 90.000000
_cell_volume 2888.610720
_symmetry_space_group_name_H-M "I 21 21 21"
_symmetry_group_IT_number 24
_symmetry_cell_setting 'orthorhombic'
loop_
_space_group_symop_operation_xyz
x,y,z
-x,1/2-y,z
x,-y,1/2-z
1/2-x,y,-z
1/2+x,1/2+y,1/2+z
1/2-x,-y,1/2+z
1/2+x,1/2-y,-z
-x,1/2+y,1/2-z
loop_
_atom_site_type_symbol
_atom_site_label
_atom_site_fract_x
_atom_site_fract_y
_atom_site_fract_z
Si Si1 0.769772 0.888255 0.601069
Si Si2 0.353196 0.572817 0.656885
Si Si3 0.781683 0.429589 0.843881
Si Si4 0.107361 0.925970 0.539612
Si Si5 0.605621 0.927355 0.457807
Si Si6 0.001564 0.927015 0.850933
Si Si7 0.648031 0.574106 0.656792
O O1 0.750000 0.821501 0.500000
O O2 0.714941 0.987743 0.640369
O O3 0.781295 0.749500 0.669372
O O4 0.831392 0.978700 0.588488
O O5 0.380441 0.500000 0.750000
O O6 0.393937 0.532669 0.567945
O O7 0.349712 0.749210 0.670647
O O8 0.807802 0.500000 0.750000
O O9 0.826840 0.472179 0.926241
O O10 0.714690 0.488827 0.862625
O O11 0.094999 0.749892 0.556666
O O12 0.105386 0.965566 0.429934
O O13 0.059512 0.024356 0.592834
O O14 0.555318 0.021843 0.408840
O O15 0.000000 0.750000 0.839159
O O16 0.001331 0.000000 0.750000
O O17 0.621147 0.500000 0.750000
#
# Coordination Sequence:
#
# PCOD8164967 Si02
#       7
#     8   8   8   8   8   8   8
#     4   8  15  30  51  76 108 144 177 213 262 316
#     4   9  17  31  55  83 112 143 175 216 266 319
#     4   9  15  26  50  81 109 140 177 215 263 318
#     4  10  19  36  58  78 107 144 183 222 264 313
#     4   9  19  37  58  79 106 143 183 222 265 314
#     4  12  26  42  59  79 105 138 178 223 267 313
#     4   9  18  32  53  82 113 144 175 215 266 319
#
# _framework density 19.386481
#
# number of rings (size 3 to 8) (size 9 to 14) (size 15 to 20)
#    0.000    2.571    0.000    4.714    0.000    2.857 
#    0.000    5.000    0.000    6.857    0.000    0.000 
#    0.000    0.000    0.000    0.000    0.000    0.000 
#
# Total GULP energy -347027.199074 kJ/mol
# GULP energy per Si atom -12393.828538 kJ/mol
# Density = 1.934236 g / cm^3
# Si number density = 19.386481 Si / 1000 Ang^3
#
#
#
# Elastic Constant Matrix: (Units=GPa)
#
#
# Indices 1 2 3 4 5 6 
#
# 1 88.1599 40.7078 55.5012 0.0000 0.0000 0.0000
# 2 40.7078 73.5494 62.1497 0.0000 0.0000 0.0000
# 3 55.5012 62.1497 152.7963 0.0000 0.0000 0.0000
# 4 0.0000 0.0000 0.0000 35.7547 0.0000 0.0000
# 5 0.0000 0.0000 0.0000 0.0000 27.5452 0.0000
# 6 0.0000 0.0000 0.0000 0.0000 0.0000 19.7616
#
#
#
# Elastic Compliance Matrix: (Units=1/GPa)
#
#
# Indices 1 2 3 4 5 6 
#
# 1 0.016343 -0.006139 -0.003439 0.000000 0.000000 0.000000
# 2 -0.006139 0.023023 -0.007135 0.000000 0.000000 0.000000
# 3 -0.003439 -0.007135 0.010696 0.000000 0.000000 0.000000
# 4 0.000000 0.000000 0.000000 0.027968 0.000000 0.000000
# 5 0.000000 0.000000 0.000000 0.000000 0.036304 0.000000
# 6 0.000000 0.000000 0.000000 0.000000 0.000000 0.050603
#
#
# Mechanical properties :
#
#
# Convention : Reuss Voigt Hill
#
# Bulk Modulus (GPa) = 60.11151 70.13587 65.12369
# Shear Modulus (GPa) = 24.52075 27.02208 25.77141
#
# Velocity S-wave (km/s) = 3.56031 3.73750 3.64998
# Velocity P-wave (km/s) = 6.92642 7.40820 7.17136
#
# Compressibility (1/GPa) = 0.01663575
#
# Stress axis : x y z
#
# Youngs Moduli (GPa) = 61.18818 43.43482 93.49383
#
# Poissons Ratio (x) = 0.26666 0.32155
# Poissons Ratio (y) = 0.37565 0.66704
# Poissons Ratio (z) = 0.21044 0.30989
#
# Static dielectric constant tensor:
#      x y z
#    x 3.537200 0.000000 0.000000 
#    y 0.000000 3.195140 0.000000 
#    z 0.000000 0.000000 3.736430 
# 
# 
# High freq. dielectric constant tensor:
#      x y z
#    x 1.744060 0.000000 0.000000 
#    y 0.000000 1.717800 0.000000 
#    z 0.000000 0.000000 1.765180 
# 
# From -- ./inp_files/27547.got.cif
#   From: 2010.03.12/outbox.cif.g09.slc.cpg/sg24_14_cif.got.tgz:27547.got - 2010.04.14 03:06:53.
