data_PCOD8164480
_publ_section_title
;
Structure prediction by ZEFSAII (Michael W. Deem and Ramdas Pophale) SiO2 
 PCOD8164480
Probable space group: I 2 2 2
;
_chemical_formula_sum "Si O2"
_cell_formula_units_Z 24
_cell_length_a 7.571152
_cell_length_b 9.253907
_cell_length_c 13.935262
_cell_angle_alpha 90.000000
_cell_angle_beta 90.000000
_cell_angle_gamma 90.000000
_cell_volume 976.342589
_symmetry_space_group_name_H-M "I 2 2 2"
_symmetry_group_IT_number 23
_symmetry_cell_setting 'orthorhombic'
loop_
_space_group_symop_operation_xyz
x,y,z
-x,-y,z
x,-y,-z
-x,y,-z
1/2+x,1/2+y,1/2+z
1/2-x,1/2-y,1/2+z
1/2+x,1/2-y,1/2-z
1/2-x,1/2+y,1/2-z
loop_
_atom_site_type_symbol
_atom_site_label
_atom_site_fract_x
_atom_site_fract_y
_atom_site_fract_z
Si Si1 0.119981 0.364423 0.634910
Si Si2 0.887226 0.135062 0.708152
Si Si3 0.199808 0.667355 0.019414
O O1 0.299604 0.409347 0.690218
O O2 0.167817 0.268891 0.541682
O O3 0.000000 0.500000 0.602924
O O4 0.017564 0.271673 0.716017
O O5 0.741589 0.186452 0.630989
O O6 0.000000 0.000000 0.670058
O O7 0.231380 0.500000 0.000000
O O8 0.000000 0.716403 0.000000
#
# Coordination Sequence:
#
# PCOD8164480 Si02
#       3
#     8   8   8
#     4  12  27  46  75 117 151 192 251 312 369 439
#     4  12  25  47  76 111 151 199 244 301 379 445
#     4  11  25  47  78 109 149 202 251 300 372 449
#
# _framework density 24.581536
#
# number of rings (size 3 to 8) (size 9 to 14) (size 15 to 20)
#    0.000    0.333    3.333    5.000    4.667    2.667 
#    0.000    1.667    0.000    0.000    0.000    0.000 
#    0.000    0.000    0.000    0.000    0.000    0.000 
#
# Total GULP energy -148780.384926 kJ/mol
# GULP energy per Si atom -12398.365410 kJ/mol
# Density = 2.452559 g / cm^3
# Si number density = 24.581536 Si / 1000 Ang^3
#
#
#
# Elastic Constant Matrix: (Units=GPa)
#
#
# Indices 1 2 3 4 5 6 
#
# 1 117.4572 66.9952 31.3123 0.0000 0.0000 0.0000
# 2 66.9952 150.6951 33.6247 0.0000 0.0000 0.0000
# 3 31.3123 33.6247 100.4366 0.0000 0.0000 0.0000
# 4 0.0000 0.0000 0.0000 27.0220 0.0000 0.0000
# 5 0.0000 0.0000 0.0000 0.0000 24.3668 0.0000
# 6 0.0000 0.0000 0.0000 0.0000 0.0000 42.6421
#
#
#
# Elastic Compliance Matrix: (Units=1/GPa)
#
#
# Indices 1 2 3 4 5 6 
#
# 1 0.011794 -0.004780 -0.002077 0.000000 0.000000 0.000000
# 2 -0.004780 0.009109 -0.001559 0.000000 0.000000 0.000000
# 3 -0.002077 -0.001559 0.011126 0.000000 0.000000 0.000000
# 4 0.000000 0.000000 0.000000 0.037007 0.000000 0.000000
# 5 0.000000 0.000000 0.000000 0.000000 0.041039 0.000000
# 6 0.000000 0.000000 0.000000 0.000000 0.000000 0.023451
#
#
# Mechanical properties :
#
#
# Convention : Reuss Voigt Hill
#
# Bulk Modulus (GPa) = 65.80263 70.27258 68.03760
# Shear Modulus (GPa) = 32.17030 34.58330 33.37680
#
# Velocity S-wave (km/s) = 3.62155 3.75491 3.68883
# Velocity P-wave (km/s) = 6.65693 6.88831 6.77360
#
# Compressibility (1/GPa) = 0.01519696
#
# Stress axis : x y z
#
# Youngs Moduli (GPa) = 84.79161 109.78361 89.87979
#
# Poissons Ratio (x) = 0.52474 0.18664
# Poissons Ratio (y) = 0.40529 0.14015
# Poissons Ratio (z) = 0.17608 0.17119
#
# Static dielectric constant tensor:
#      x y z
#    x 4.664760 0.000000 0.000000 
#    y 0.000000 4.336960 0.000000 
#    z 0.000000 0.000000 4.107900 
# 
# 
# High freq. dielectric constant tensor:
#      x y z
#    x 1.994450 0.000000 0.000000 
#    y 0.000000 1.975800 0.000000 
#    z 0.000000 0.000000 1.972440 
# 
# From -- ./inp_files/6102.got.cif
#   From: 2010.03.12/outbox.cif.g09.slc.cpg/sg23_4_cif.got.tgz:6102.got - 2010.04.14 02:50:06.
