data_PCOD8164083
_publ_section_title
;
Structure prediction by ZEFSAII (Michael W. Deem and Ramdas Pophale) SiO2 
 PCOD8164083
Probable space group: I 2 2 2
;
_chemical_formula_sum "Si O2"
_cell_formula_units_Z 22
_cell_length_a 8.961745
_cell_length_b 7.972939
_cell_length_c 12.914355
_cell_angle_alpha 90.000000
_cell_angle_beta 90.000000
_cell_angle_gamma 90.000000
_cell_volume 922.749342
_symmetry_space_group_name_H-M "I 2 2 2"
_symmetry_group_IT_number 23
_symmetry_cell_setting 'orthorhombic'
loop_
_space_group_symop_operation_xyz
x,y,z
-x,-y,z
x,-y,-z
-x,y,-z
1/2+x,1/2+y,1/2+z
1/2-x,1/2-y,1/2+z
1/2+x,1/2-y,1/2-z
1/2-x,1/2+y,1/2-z
loop_
_atom_site_type_symbol
_atom_site_label
_atom_site_fract_x
_atom_site_fract_y
_atom_site_fract_z
Si Si1 0.157993 0.447346 0.840318
Si Si2 0.000000 0.217042 0.000000
Si Si3 0.757826 0.690284 0.629978
Si Si4 0.500000 0.000000 0.000000
O O1 0.250274 0.353319 0.751360
O O2 0.251386 0.608054 0.879292
O O3 0.000000 0.500000 0.789718
O O4 0.121259 0.328954 0.937650
O O5 0.106121 0.110783 0.077704
O O6 0.902387 0.620242 0.572597
#
# Coordination Sequence:
#
# PCOD8164083 Si02
#       4
#     8   4   8   2
#     4  10  22  47  70 104 140 184 237 289 355 422
#     4  10  25  49  76 101 144 195 232 291 360 423
#     4  11  24  46  72 102 145 182 240 291 353 425
#     4  12  28  46  66 106 144 182 242 292 352 420
#
# _framework density 23.841795000000001
#
# number of rings (size 3 to 8) (size 9 to 14) (size 15 to 20)
#    0.000    1.455    1.818    4.909    5.091    0.727 
#    6.545   18.182    0.000    0.000    0.000    0.000 
#    0.000    0.000    0.000    0.000    0.000    0.000 
#
# Total GULP energy -136322.839279 kJ/mol
# GULP energy per Si atom -12392.985389 kJ/mol
# Density = 2.378753 g / cm^3
# Si number density = 23.841795 Si / 1000 Ang^3
#
#
#
# Elastic Constant Matrix: (Units=GPa)
#
#
# Indices 1 2 3 4 5 6 
#
# 1 124.3765 61.5217 68.8051 0.0000 0.0000 0.0000
# 2 61.5217 100.4339 46.1901 0.0000 0.0000 0.0000
# 3 68.8051 46.1901 162.6573 0.0000 0.0000 0.0000
# 4 0.0000 0.0000 0.0000 33.0655 0.0000 0.0000
# 5 0.0000 0.0000 0.0000 0.0000 59.9501 0.0000
# 6 0.0000 0.0000 0.0000 0.0000 0.0000 52.2299
#
#
#
# Elastic Compliance Matrix: (Units=1/GPa)
#
#
# Indices 1 2 3 4 5 6 
#
# 1 0.013318 -0.006403 -0.003815 0.000000 0.000000 0.000000
# 2 -0.006403 0.014531 -0.001418 0.000000 0.000000 0.000000
# 3 -0.003815 -0.001418 0.008164 0.000000 0.000000 0.000000
# 4 0.000000 0.000000 0.000000 0.030243 0.000000 0.000000
# 5 0.000000 0.000000 0.000000 0.000000 0.016681 0.000000
# 6 0.000000 0.000000 0.000000 0.000000 0.000000 0.019146
#
#
# Mechanical properties :
#
#
# Convention : Reuss Voigt Hill
#
# Bulk Modulus (GPa) = 78.48776 82.27795 80.38285
# Shear Modulus (GPa) = 38.57920 43.11247 40.84584
#
# Velocity S-wave (km/s) = 4.02697 4.25699 4.14358
# Velocity P-wave (km/s) = 7.39011 7.66469 7.52865
#
# Compressibility (1/GPa) = 0.01274084
#
# Stress axis : x y z
#
# Youngs Moduli (GPa) = 75.08568 68.81670 122.48333
#
# Poissons Ratio (x) = 0.44067 0.46730
# Poissons Ratio (y) = 0.48081 0.17365
# Poissons Ratio (z) = 0.28647 0.09757
#
# Static dielectric constant tensor:
#      x y z
#    x 4.359530 0.000000 0.000000 
#    y 0.000000 4.180020 0.000000 
#    z 0.000000 0.000000 4.505930 
# 
# 
# High freq. dielectric constant tensor:
#      x y z
#    x 1.932600 0.000000 0.000000 
#    y 0.000000 1.941080 0.000000 
#    z 0.000000 0.000000 1.970390 
# 
# From -- ./inp_files/6138.got.cif
#   From: 2010.03.12/outbox.cif.g09.slc.cpg/sg23_4_cif.got.tgz:6138.got - 2010.04.14 02:50:06.
