data_PCOD8164149
_publ_section_title
;
Structure prediction by ZEFSAII (Michael W. Deem and Ramdas Pophale) SiO2 
 PCOD8164149
Probable space group: I 2 2 2
;
_chemical_formula_sum "Si O2"
_cell_formula_units_Z 52
_cell_length_a 11.028224
_cell_length_b 15.350830
_cell_length_c 13.620513
_cell_angle_alpha 90.000000
_cell_angle_beta 90.000000
_cell_angle_gamma 90.000000
_cell_volume 2305.849224
_symmetry_space_group_name_H-M "I 2 2 2"
_symmetry_group_IT_number 23
_symmetry_cell_setting 'orthorhombic'
loop_
_space_group_symop_operation_xyz
x,y,z
-x,-y,z
x,-y,-z
-x,y,-z
1/2+x,1/2+y,1/2+z
1/2-x,1/2-y,1/2+z
1/2+x,1/2-y,1/2-z
1/2-x,1/2+y,1/2-z
loop_
_atom_site_type_symbol
_atom_site_label
_atom_site_fract_x
_atom_site_fract_y
_atom_site_fract_z
Si Si1 0.227208 0.302736 0.078375
Si Si2 0.607638 0.368677 0.075603
Si Si3 0.000000 0.000000 0.714229
Si Si4 0.076494 0.579319 0.770906
Si Si5 0.022110 0.706361 0.387988
Si Si6 0.701274 0.529649 0.346775
Si Si7 0.133347 0.875532 0.972341
O O1 0.148610 0.360670 0.152368
O O2 0.346866 0.254756 0.122438
O O3 0.136985 0.227314 0.043062
O O4 0.266165 0.363640 0.985361
O O5 0.601220 0.447451 0.152014
O O6 0.583619 0.277589 0.131765
O O7 0.500000 0.385041 0.000000
O O8 0.912902 0.938205 0.779648
O O9 0.173330 0.527586 0.707906
O O10 0.000000 0.500000 0.821271
O O11 0.990448 0.634574 0.697024
O O12 0.000000 0.669793 0.500000
O O13 0.676334 0.429427 0.377530
O O14 0.718101 0.596310 0.436743
O O15 0.000000 0.906906 0.000000
#
# Coordination Sequence:
#
# PCOD8164149 Si02
#       7
#     8   8   4   8   8   8   8
#     4  10  23  44  67  96 140 191 230 281 349 426
#     4   9  20  39  64  97 126 171 229 282 336 401
#     4  12  21  37  74 104 126 178 234 293 337 414
#     4  12  26  42  67 107 143 184 235 289 352 426
#     4   9  20  43  68  99 133 180 243 291 350 400
#     4  11  22  41  68 106 138 172 236 295 356 409
#     4  11  22  43  66  99 143 183 226 287 360 418
#
# _framework density 22.551344
#
# number of rings (size 3 to 8) (size 9 to 14) (size 15 to 20)
#    0.000    1.846    1.538    5.308    2.154    2.769 
#    2.769    0.000    0.000    0.000    0.000    0.000 
#    0.000    0.000    0.000    0.000    0.000    0.000 
#
# Total GULP energy -322162.962617 kJ/mol
# GULP energy per Si atom -12390.883178 kJ/mol
# Density = 2.250002 g / cm^3
# Si number density = 22.551344 Si / 1000 Ang^3
#
#
#
# Elastic Constant Matrix: (Units=GPa)
#
#
# Indices 1 2 3 4 5 6 
#
# 1 100.5976 49.0759 42.2095 0.0000 0.0000 0.0000
# 2 49.0759 120.4032 72.6858 0.0002 0.0000 0.0000
# 3 42.2095 72.6858 90.9083 0.0003 -0.0001 0.0000
# 4 0.0000 0.0002 0.0003 21.3831 -0.0001 0.0000
# 5 0.0000 0.0000 -0.0001 -0.0001 32.6924 0.0000
# 6 0.0000 0.0000 0.0000 0.0000 0.0000 31.6539
#
#
#
# Elastic Compliance Matrix: (Units=1/GPa)
#
#
# Indices 1 2 3 4 5 6 
#
# 1 0.012949 -0.003186 -0.003465 0.000000 0.000000 0.000000
# 2 -0.003186 0.016839 -0.011984 0.000000 0.000000 0.000000
# 3 -0.003465 -0.011984 0.022191 0.000000 0.000000 0.000000
# 4 0.000000 0.000000 0.000000 0.046766 0.000000 0.000000
# 5 0.000000 0.000000 0.000000 0.000000 0.030588 0.000000
# 6 0.000000 0.000000 0.000000 0.000000 0.000000 0.031592
#
#
# Mechanical properties :
#
#
# Convention : Reuss Voigt Hill
#
# Bulk Modulus (GPa) = 67.98924 71.09463 69.54193
# Shear Modulus (GPa) = 24.61889 27.00841 25.81365
#
# Velocity S-wave (km/s) = 3.30765 3.46445 3.38695
# Velocity P-wave (km/s) = 6.69339 6.89908 6.79701
#
# Compressibility (1/GPa) = 0.01470821
#
# Stress axis : x y z
#
# Youngs Moduli (GPa) = 77.22773 59.38693 45.06432
#
# Poissons Ratio (x) = 0.18923 0.15613
# Poissons Ratio (y) = 0.24607 0.54005
# Poissons Ratio (z) = 0.26756 0.71169
#
# Static dielectric constant tensor:
#      x y z
#    x 3.985380 0.000000 0.000000 
#    y 0.000000 4.040090 0.000000 
#    z 0.000000 0.000000 4.194930 
# 
# 
# High freq. dielectric constant tensor:
#      x y z
#    x 1.883150 0.000000 0.000000 
#    y 0.000000 1.881380 0.000000 
#    z 0.000000 0.000000 1.878510 
# 
# From -- ./inp_files/20904.got.cif
#   From: 2010.03.12/outbox.cif.g09.slc.cpg/sg23_11_cif.got.tgz:20904.got - 2010.04.14 02:50:06.
