data_PCOD8164479
_publ_section_title
;
Structure prediction by ZEFSAII (Michael W. Deem and Ramdas Pophale) SiO2 
 PCOD8164479
Probable space group: I 2 2 2
;
_chemical_formula_sum "Si O2"
_cell_formula_units_Z 24
_cell_length_a 12.165140
_cell_length_b 10.985462
_cell_length_c 7.804726
_cell_angle_alpha 90.000000
_cell_angle_beta 90.000000
_cell_angle_gamma 90.000000
_cell_volume 1043.021110
_symmetry_space_group_name_H-M "I 2 2 2"
_symmetry_group_IT_number 23
_symmetry_cell_setting 'orthorhombic'
loop_
_space_group_symop_operation_xyz
x,y,z
-x,-y,z
x,-y,-z
-x,y,-z
1/2+x,1/2+y,1/2+z
1/2-x,1/2-y,1/2+z
1/2+x,1/2-y,1/2-z
1/2-x,1/2+y,1/2-z
loop_
_atom_site_type_symbol
_atom_site_label
_atom_site_fract_x
_atom_site_fract_y
_atom_site_fract_z
Si Si1 0.522952 0.194091 0.691056
Si Si2 0.345042 0.973269 0.193037
Si Si3 0.395030 0.561204 0.813707
O O1 0.500000 0.244043 0.500000
O O2 0.403707 0.154267 0.762360
O O3 0.578507 0.294856 0.814555
O O4 0.606942 0.079763 0.685267
O O5 0.214813 0.963221 0.208820
O O6 0.377991 0.000000 0.000000
O O7 0.500000 0.500000 0.719694
O O8 0.382297 0.500000 0.000000
#
# Coordination Sequence:
#
# PCOD8164479 Si02
#       3
#     8   8   8
#     4  11  25  47  77 102 148 188 240 293 361 433
#     4  11  26  45  76 108 142 193 238 288 367 427
#     4  11  28  45  74 103 144 183 246 295 358 414
#
# _framework density 23.010082000000001
#
# number of rings (size 3 to 8) (size 9 to 14) (size 15 to 20)
#    0.000    1.000    0.000    6.000   18.667    0.000 
#    0.000    0.000    0.000    0.000    0.000    0.000 
#    0.000    0.000    0.000    0.000    0.000    0.000 
#
# Total GULP energy -148783.009916 kJ/mol
# GULP energy per Si atom -12398.584160 kJ/mol
# Density = 2.295771 g / cm^3
# Si number density = 23.010082 Si / 1000 Ang^3
#
#
#
# Elastic Constant Matrix: (Units=GPa)
#
#
# Indices 1 2 3 4 5 6 
#
# 1 191.9971 43.3850 23.0572 0.0000 0.0000 0.0000
# 2 43.3850 121.7818 42.6286 0.0000 0.0000 0.0000
# 3 23.0572 42.6286 118.2270 0.0000 0.0000 0.0000
# 4 0.0000 0.0000 0.0000 33.3855 0.0000 0.0000
# 5 0.0000 0.0000 0.0000 0.0000 25.3346 0.0000
# 6 0.0000 0.0000 0.0000 0.0000 0.0000 31.8224
#
#
#
# Elastic Compliance Matrix: (Units=1/GPa)
#
#
# Indices 1 2 3 4 5 6 
#
# 1 0.005684 -0.001873 -0.000433 0.000000 0.000000 0.000000
# 2 -0.001873 0.010015 -0.003246 0.000000 0.000000 0.000000
# 3 -0.000433 -0.003246 0.009713 0.000000 0.000000 0.000000
# 4 0.000000 0.000000 0.000000 0.029953 0.000000 0.000000
# 5 0.000000 0.000000 0.000000 0.000000 0.039472 0.000000
# 6 0.000000 0.000000 0.000000 0.000000 0.000000 0.031424
#
#
# Mechanical properties :
#
#
# Convention : Reuss Voigt Hill
#
# Bulk Modulus (GPa) = 69.89256 72.23862 71.06559
# Shear Modulus (GPa) = 35.17806 39.63751 37.40779
#
# Velocity S-wave (km/s) = 3.91424 4.15494 4.03639
# Velocity P-wave (km/s) = 7.13226 7.38109 7.25774
#
# Compressibility (1/GPa) = 0.01430768
#
# Stress axis : x y z
#
# Youngs Moduli (GPa) = 175.94139 99.85139 102.95432
#
# Poissons Ratio (x) = 0.18705 0.04458
# Poissons Ratio (y) = 0.32958 0.33416
# Poissons Ratio (z) = 0.07619 0.32409
#
# Static dielectric constant tensor:
#      x y z
#    x 4.452480 0.000000 0.000000 
#    y 0.000000 4.138000 0.000000 
#    z 0.000000 0.000000 3.857300 
# 
# 
# High freq. dielectric constant tensor:
#      x y z
#    x 1.924900 0.000000 0.000000 
#    y 0.000000 1.906260 0.000000 
#    z 0.000000 0.000000 1.902930 
# 
# From -- ./inp_files/7598.got.cif
#   From: 2010.03.12/outbox.cif.g09.slc.cpg/sg23_4_cif.got.tgz:7598.got - 2010.04.14 02:50:06.
