data_PCOD8164012
_publ_section_title
;
Structure prediction by ZEFSAII (Michael W. Deem and Ramdas Pophale) SiO2 
 PCOD8164012
Probable space group: I 2 2 2
;
_chemical_formula_sum "Si O2"
_cell_formula_units_Z 64
_cell_length_a 15.370237
_cell_length_b 12.035355
_cell_length_c 16.960431
_cell_angle_alpha 90.000000
_cell_angle_beta 90.000000
_cell_angle_gamma 90.000000
_cell_volume 3137.446677
_symmetry_space_group_name_H-M "I 2 2 2"
_symmetry_group_IT_number 23
_symmetry_cell_setting 'orthorhombic'
loop_
_space_group_symop_operation_xyz
x,y,z
-x,-y,z
x,-y,-z
-x,y,-z
1/2+x,1/2+y,1/2+z
1/2-x,1/2-y,1/2+z
1/2+x,1/2-y,1/2-z
1/2-x,1/2+y,1/2-z
loop_
_atom_site_type_symbol
_atom_site_label
_atom_site_fract_x
_atom_site_fract_y
_atom_site_fract_z
Si Si1 0.686383 0.268116 0.834131
Si Si2 0.792651 0.117635 0.082434
Si Si3 0.954738 0.647723 0.585658
Si Si4 0.542669 0.811845 0.583999
Si Si5 0.819825 0.548629 0.166781
Si Si6 0.126977 0.311414 0.832965
Si Si7 0.383182 0.924825 0.158064
Si Si8 0.829053 0.123484 0.906373
O O1 0.612328 0.250941 0.902116
O O2 0.724039 0.393946 0.832813
O O3 0.640649 0.239618 0.752531
O O4 0.767926 0.184833 0.843271
O O5 0.853741 0.220684 0.100881
O O6 0.700179 0.136887 0.123202
O O7 0.839642 0.006087 0.116428
O O8 0.778448 0.120543 0.989271
O O9 0.899471 0.536757 0.606678
O O10 0.000000 0.645141 0.500000
O O11 0.033644 0.655695 0.648439
O O12 0.500000 0.838355 0.500000
O O13 0.624160 0.893488 0.597883
O O14 0.474611 0.838594 0.653902
O O15 0.577462 0.684220 0.588305
O O16 0.811535 0.417800 0.149438
O O17 0.869308 0.554321 0.250157
#
# Coordination Sequence:
#
# PCOD8164012 Si02
#       8
#     8   8   8   8   8   8   8   8
#     4  11  22  42  62  93 135 165 216 273 335 394
#     4  11  21  38  67  93 134 165 210 264 330 404
#     4  11  22  35  64  97 132 165 214 283 339 387
#     4  11  24  43  60  94 127 171 218 267 318 390
#     4  11  24  39  65  88 132 176 218 271 319 400
#     4  12  23  40  63  93 126 176 216 263 330 392
#     4  11  20  36  60 101 126 166 209 279 326 388
#     4  10  22  40  63  94 131 165 206 271 331 393
#
# _framework density 20.398752999999999
#
# number of rings (size 3 to 8) (size 9 to 14) (size 15 to 20)
#    0.000    1.000    5.000    2.625    3.500    1.500 
#    0.000    0.000    0.000    0.750    0.000    1.750 
#    0.000    0.000    0.000    0.000    0.000    0.000 
#
# Total GULP energy -396719.010935 kJ/mol
# GULP energy per Si atom -12397.469092 kJ/mol
# Density = 2.035232 g / cm^3
# Si number density = 20.398753 Si / 1000 Ang^3
#
#
#
# Elastic Constant Matrix: (Units=GPa)
#
#
# Indices 1 2 3 4 5 6 
#
# 1 76.8344 32.7969 33.7777 0.0000 0.0000 0.0000
# 2 32.7969 107.0841 23.9226 0.0000 0.0000 0.0000
# 3 33.7777 23.9226 87.6862 0.0000 0.0000 0.0000
# 4 0.0000 0.0000 0.0000 23.1305 0.0000 0.0000
# 5 0.0000 0.0000 0.0000 0.0000 38.9347 0.0000
# 6 0.0000 0.0000 0.0000 0.0000 0.0000 29.1137
#
#
#
# Elastic Compliance Matrix: (Units=1/GPa)
#
#
# Indices 1 2 3 4 5 6 
#
# 1 0.017155 -0.004023 -0.005511 0.000000 0.000000 0.000000
# 2 -0.004023 0.010888 -0.001421 0.000000 0.000000 0.000000
# 3 -0.005511 -0.001421 0.013915 0.000000 0.000000 0.000000
# 4 0.000000 0.000000 0.000000 0.043233 0.000000 0.000000
# 5 0.000000 0.000000 0.000000 0.000000 0.025684 0.000000
# 6 0.000000 0.000000 0.000000 0.000000 0.000000 0.034348
#
#
# Mechanical properties :
#
#
# Convention : Reuss Voigt Hill
#
# Bulk Modulus (GPa) = 49.87868 50.28881 50.08374
# Shear Modulus (GPa) = 28.76633 30.30960 29.53797
#
# Velocity S-wave (km/s) = 3.75934 3.85886 3.80942
# Velocity P-wave (km/s) = 6.58395 6.67539 6.62983
#
# Compressibility (1/GPa) = 0.02004865
#
# Stress axis : x y z
#
# Youngs Moduli (GPa) = 58.29274 91.84445 71.86645
#
# Poissons Ratio (x) = 0.36949 0.39603
# Poissons Ratio (y) = 0.23451 0.10211
# Poissons Ratio (z) = 0.32123 0.13049
#
# Static dielectric constant tensor:
#      x y z
#    x 3.923280 0.000000 0.000000 
#    y 0.000000 3.800930 0.000000 
#    z 0.000000 0.000000 3.672450 
# 
# 
# High freq. dielectric constant tensor:
#      x y z
#    x 1.796620 0.000000 0.000000 
#    y 0.000000 1.776190 0.000000 
#    z 0.000000 0.000000 1.800090 
# 
# From -- ./inp_files/24866.got.cif
#   From: 2010.03.12/outbox.cif.g09.slc.cpg/sg23_13_cif.got.tgz:24866.got - 2010.04.14 02:50:06.
