data_PCOD8164794
_publ_section_title
;
Structure prediction by ZEFSAII (Michael W. Deem and Ramdas Pophale) SiO2 
 PCOD8164794
Probable space group: I 21 21 21
;
_chemical_formula_sum "Si O2"
_cell_formula_units_Z 64
_cell_length_a 11.902559
_cell_length_b 9.670378
_cell_length_c 27.519104
_cell_angle_alpha 90.000000
_cell_angle_beta 90.000000
_cell_angle_gamma 90.000000
_cell_volume 3167.510642
_symmetry_space_group_name_H-M "I 21 21 21"
_symmetry_group_IT_number 24
_symmetry_cell_setting 'orthorhombic'
loop_
_space_group_symop_operation_xyz
x,y,z
-x,1/2-y,z
x,-y,1/2-z
1/2-x,y,-z
1/2+x,1/2+y,1/2+z
1/2-x,-y,1/2+z
1/2+x,1/2-y,-z
-x,1/2+y,1/2-z
loop_
_atom_site_type_symbol
_atom_site_label
_atom_site_fract_x
_atom_site_fract_y
_atom_site_fract_z
Si Si1 0.283066 0.283467 0.808137
Si Si2 0.906677 0.996892 0.695732
Si Si3 0.711354 0.577766 0.052055
Si Si4 0.585889 0.006026 0.635290
Si Si5 0.709079 0.213349 0.697060
Si Si6 0.823325 0.499143 0.354612
Si Si7 0.749154 0.900040 0.055367
Si Si8 0.485978 0.591245 0.101361
O O1 0.160450 0.353608 0.810906
O O2 0.370016 0.363077 0.842427
O O3 0.326450 0.285688 0.752995
O O4 0.278029 0.125316 0.823149
O O5 0.961346 0.000000 0.750000
O O6 0.824005 0.128394 0.688622
O O7 0.000191 0.008587 0.652947
O O8 0.767210 0.485909 0.093139
O O9 0.754843 0.734450 0.057776
O O10 0.577643 0.557980 0.059804
O O11 0.750000 0.519229 0.000000
O O12 0.609159 0.134407 0.670357
O O13 0.643553 0.034815 0.582890
O O14 0.453487 0.995987 0.632405
O O15 0.719964 0.364705 0.674166
O O16 0.634941 0.951516 0.080404
O O17 0.750000 0.952369 0.000000
O O18 0.500000 0.750000 0.115037
#
# Coordination Sequence:
#
# PCOD8164794 Si02
#       8
#     8   8   8   8   8   8   8   8
#     4  10  22  37  58  85 126 164 200 242 305 365
#     4   9  18  38  64  86 121 164 209 252 301 364
#     4  10  23  39  58  87 122 153 192 251 317 353
#     4  11  21  37  60  87 122 156 202 250 299 364
#     4  10  19  36  59  89 118 161 203 252 294 353
#     4  12  23  36  56  89 127 157 198 251 297 366
#     4  10  20  36  63  93 113 150 206 252 303 361
#     4  10  18  37  64  87 119 151 197 256 302 359
#
# _framework density 20.205141000000001
#
# number of rings (size 3 to 8) (size 9 to 14) (size 15 to 20)
#    0.000    1.750    3.750    3.000    1.750    3.000 
#    0.000    5.000    0.000    0.000    0.000    0.000 
#    0.000    0.000    0.000    0.000    0.000    0.000 
#
# Total GULP energy -396734.312388 kJ/mol
# GULP energy per Si atom -12397.947262 kJ/mol
# Density = 2.015915 g / cm^3
# Si number density = 20.205141 Si / 1000 Ang^3
#
#
#
# Elastic Constant Matrix: (Units=GPa)
#
#
# Indices 1 2 3 4 5 6 
#
# 1 46.5153 13.1053 42.1204 0.0000 0.0000 0.0000
# 2 13.1053 93.1402 33.0962 0.0000 0.0000 0.0000
# 3 42.1204 33.0962 156.1664 0.0000 0.0000 0.0000
# 4 0.0000 0.0000 0.0000 5.6007 0.0000 0.0000
# 5 0.0000 0.0000 0.0000 0.0000 28.6977 0.0000
# 6 0.0000 0.0000 0.0000 0.0000 0.0000 10.6496
#
#
#
# Elastic Compliance Matrix: (Units=1/GPa)
#
#
# Indices 1 2 3 4 5 6 
#
# 1 0.028611 -0.001388 -0.007423 0.000000 0.000000 0.000000
# 2 -0.001388 0.011678 -0.002101 0.000000 0.000000 0.000000
# 3 -0.007423 -0.002101 0.008851 0.000000 0.000000 0.000000
# 4 0.000000 0.000000 0.000000 0.178549 0.000000 0.000000
# 5 0.000000 0.000000 0.000000 0.000000 0.034846 0.000000
# 6 0.000000 0.000000 0.000000 0.000000 0.000000 0.093900
#
#
# Mechanical properties :
#
#
# Convention : Reuss Voigt Hill
#
# Bulk Modulus (GPa) = 36.60733 52.49620 44.55176
# Shear Modulus (GPa) = 12.90780 22.82294 17.86537
#
# Velocity S-wave (km/s) = 2.53027 3.36454 2.97677
# Velocity P-wave (km/s) = 5.16657 6.41339 5.82344
#
# Compressibility (1/GPa) = 0.02731693
#
# Stress axis : x y z
#
# Youngs Moduli (GPa) = 34.95205 85.62943 112.98726
#
# Poissons Ratio (x) = 0.11887 0.83865
# Poissons Ratio (y) = 0.04852 0.23733
# Poissons Ratio (z) = 0.25943 0.17987
#
# Static dielectric constant tensor:
#      x y z
#    x 3.562350 0.000000 0.000000 
#    y 0.000000 3.502660 0.000000 
#    z 0.000000 0.000000 3.951670 
# 
# 
# High freq. dielectric constant tensor:
#      x y z
#    x 1.777470 0.000000 0.000000 
#    y 0.000000 1.766360 0.000000 
#    z 0.000000 0.000000 1.802830 
# 
# From -- ./inp_files/38639.got.cif
#   From: 2010.03.12/outbox.cif.g09.slc.cpg/sg24_20_cif.got.tgz:38639.got - 2010.04.14 03:06:53.
