data_PCOD8164503
_publ_section_title
;
Structure prediction by ZEFSAII (Michael W. Deem and Ramdas Pophale) SiO2 
 PCOD8164503
Probable space group: I 2 2 2
;
_chemical_formula_sum "Si O2"
_cell_formula_units_Z 48
_cell_length_a 5.030096
_cell_length_b 27.478807
_cell_length_c 16.784750
_cell_angle_alpha 90.000000
_cell_angle_beta 90.000000
_cell_angle_gamma 90.000000
_cell_volume 2320.005554
_symmetry_space_group_name_H-M "I 2 2 2"
_symmetry_group_IT_number 23
_symmetry_cell_setting 'orthorhombic'
loop_
_space_group_symop_operation_xyz
x,y,z
-x,-y,z
x,-y,-z
-x,y,-z
1/2+x,1/2+y,1/2+z
1/2-x,1/2-y,1/2+z
1/2+x,1/2-y,1/2-z
1/2-x,1/2+y,1/2-z
loop_
_atom_site_type_symbol
_atom_site_label
_atom_site_fract_x
_atom_site_fract_y
_atom_site_fract_z
Si Si1 0.427086 0.600593 0.410059
Si Si2 0.441711 0.749673 0.196693
Si Si3 0.928495 0.644037 0.337276
Si Si4 0.500000 0.500000 0.331703
Si Si5 0.031552 0.605438 0.838576
Si Si6 0.000000 0.500000 0.780228
Si Si7 0.533437 0.345880 0.092488
O O1 0.500000 0.611789 0.500000
O O2 0.621311 0.631457 0.353158
O O3 0.456563 0.544303 0.390856
O O4 0.121616 0.615035 0.396445
O O5 0.642043 0.749957 0.270945
O O6 0.479558 0.799111 0.146872
O O7 0.498950 0.704432 0.139777
O O8 0.001677 0.629508 0.247642
O O9 0.749213 0.509347 0.275554
O O10 0.321149 0.615125 0.874989
O O11 0.971867 0.547668 0.835336
O O12 0.821052 0.630538 0.896652
O O13 0.500000 0.334166 0.000000
#
# Coordination Sequence:
#
# PCOD8164503 Si02
#       7
#     8   8   8   4   8   4   8
#     4  12  25  40  60  95 139 172 212 271 327 380
#     4  12  23  41  71  98 125 171 219 261 318 394
#     4  12  23  42  68  95 129 175 223 261 320 389
#     4  12  21  40  62  94 127 176 220 266 321 386
#     4  12  23  45  69  97 131 170 220 274 321 392
#     4  12  24  38  72  98 120 168 236 272 308 390
#     4  12  26  45  69 100 135 169 211 273 337 385
#
# _framework density 20.689606000000001
#
# number of rings (size 3 to 8) (size 9 to 14) (size 15 to 20)
#    0.000    0.000    6.667    4.250    0.000    1.333 
#    0.000    5.000    0.000    0.000    0.000    0.000 
#    0.000    0.000    0.000    0.000    0.000    0.000 
#
# Total GULP energy -297792.461657 kJ/mol
# GULP energy per Si atom -12408.019236 kJ/mol
# Density = 2.064252 g / cm^3
# Si number density = 20.689606 Si / 1000 Ang^3
#
#
#
# Elastic Constant Matrix: (Units=GPa)
#
#
# Indices 1 2 3 4 5 6 
#
# 1 78.8710 7.5758 0.8796 0.0000 0.0000 0.0000
# 2 7.5758 136.6707 20.0715 0.0000 0.0000 0.0000
# 3 0.8796 20.0715 80.5407 0.0000 0.0000 0.0000
# 4 0.0000 0.0000 0.0000 22.4470 0.0000 0.0000
# 5 0.0000 0.0000 0.0000 0.0000 29.9282 0.0000
# 6 0.0000 0.0000 0.0000 0.0000 0.0000 32.2780
#
#
#
# Elastic Compliance Matrix: (Units=1/GPa)
#
#
# Indices 1 2 3 4 5 6 
#
# 1 0.012747 -0.000712 0.000038 0.000000 0.000000 0.000000
# 2 -0.000712 0.007635 -0.001895 0.000000 0.000000 0.000000
# 3 0.000038 -0.001895 0.012888 0.000000 0.000000 0.000000
# 4 0.000000 0.000000 0.000000 0.044549 0.000000 0.000000
# 5 0.000000 0.000000 0.000000 0.000000 0.033413 0.000000
# 6 0.000000 0.000000 0.000000 0.000000 0.000000 0.030981
#
#
# Mechanical properties :
#
#
# Convention : Reuss Voigt Hill
#
# Bulk Modulus (GPa) = 35.54687 39.23736 37.39212
# Shear Modulus (GPa) = 31.90244 34.76767 33.33506
#
# Velocity S-wave (km/s) = 3.93103 4.10377 4.01833
# Velocity P-wave (km/s) = 6.14999 6.43898 6.29614
#
# Compressibility (1/GPa) = 0.02813187
#
# Stress axis : x y z
#
# Youngs Moduli (GPa) = 78.45039 130.98246 77.59226
#
# Poissons Ratio (x) = 0.09329 -0.00297
# Poissons Ratio (y) = 0.05587 0.14702
# Poissons Ratio (z) = -0.00300 0.24819
#
# Static dielectric constant tensor:
#      x y z
#    x 3.957720 0.000000 0.000000 
#    y 0.000000 3.994610 0.000000 
#    z 0.000000 0.000000 3.534370 
# 
# 
# High freq. dielectric constant tensor:
#      x y z
#    x 1.829390 0.000000 0.000000 
#    y 0.000000 1.825290 0.000000 
#    z 0.000000 0.000000 1.792800 
# 
# From -- ./inp_files/19243.got.cif
#   From: 2010.03.12/outbox.cif.g09.slc.cpg/sg23_10_cif.got.tgz:19243.got - 2010.04.14 02:50:06.
