data_PCOD8164983
_publ_section_title
;
Structure prediction by ZEFSAII (Michael W. Deem and Ramdas Pophale) SiO2 
 PCOD8164983
Probable space group: I 21 21 21
;
_chemical_formula_sum "Si O2"
_cell_formula_units_Z 56
_cell_length_a 8.239392
_cell_length_b 15.857828
_cell_length_c 20.143896
_cell_angle_alpha 90.000000
_cell_angle_beta 90.000000
_cell_angle_gamma 90.000000
_cell_volume 2631.978511
_symmetry_space_group_name_H-M "I 21 21 21"
_symmetry_group_IT_number 24
_symmetry_cell_setting 'orthorhombic'
loop_
_space_group_symop_operation_xyz
x,y,z
-x,1/2-y,z
x,-y,1/2-z
1/2-x,y,-z
1/2+x,1/2+y,1/2+z
1/2-x,-y,1/2+z
1/2+x,1/2-y,-z
-x,1/2+y,1/2-z
loop_
_atom_site_type_symbol
_atom_site_label
_atom_site_fract_x
_atom_site_fract_y
_atom_site_fract_z
Si Si1 0.172048 0.719488 0.113432
Si Si2 0.690458 0.531773 0.572487
Si Si3 0.101267 0.436076 0.466095
Si Si4 0.177824 0.148266 0.194001
Si Si5 0.902254 0.628703 0.912096
Si Si6 0.669338 0.827919 0.735905
Si Si7 0.002912 0.150955 0.730801
O O1 0.308662 0.782190 0.084964
O O2 0.173250 0.718964 0.192909
O O3 0.000000 0.750000 0.086926
O O4 0.194002 0.626411 0.084124
O O5 0.750000 0.561240 0.500000
O O6 0.501517 0.506525 0.571425
O O7 0.709400 0.609316 0.622026
O O8 0.781611 0.449241 0.598806
O O9 0.250000 0.486166 0.500000
O O10 0.993815 0.383531 0.518829
O O11 0.178164 0.249409 0.184536
O O12 0.327235 0.114417 0.240383
O O13 0.999275 0.120462 0.224011
O O14 0.018496 0.630539 0.847439
O O15 0.836542 0.884031 0.732519
O O16 0.000000 0.250000 0.743905
#
# Coordination Sequence:
#
# PCOD8164983 Si02
#       7
#     8   8   8   8   8   8   8
#     4  12  20  34  58  91 125 159 207 251 287 354
#     4  10  24  44  61  81 125 167 203 245 314 371
#     4  11  26  36  57  87 127 168 210 245 291 364
#     4  10  20  40  67  85 120 159 197 259 316 354
#     4  11  22  40  57  88 128 171 201 242 302 354
#     4  10  20  39  64  96 118 148 206 260 306 362
#     4  10  19  36  63  91 120 154 198 253 302 359
#
# _framework density 21.276769000000002
#
# number of rings (size 3 to 8) (size 9 to 14) (size 15 to 20)
#    0.000    1.429    5.714    0.857    2.000    0.571 
#    5.143    0.000   12.571    0.000    0.000    0.000 
#    0.000    0.000    0.000    0.000    0.000    0.000 
#
# Total GULP energy -346963.319501 kJ/mol
# GULP energy per Si atom -12391.547125 kJ/mol
# Density = 2.122834 g / cm^3
# Si number density = 21.276769 Si / 1000 Ang^3
#
#
#
# Elastic Constant Matrix: (Units=GPa)
#
#
# Indices 1 2 3 4 5 6 
#
# 1 148.7897 14.9110 28.9164 0.0000 0.0000 0.0000
# 2 14.9110 46.2993 39.8956 0.0000 0.0000 0.0000
# 3 28.9164 39.8956 94.8610 0.0000 0.0000 0.0000
# 4 0.0000 0.0000 0.0000 29.9032 0.0000 0.0000
# 5 0.0000 0.0000 0.0000 0.0000 20.9178 0.0000
# 6 0.0000 0.0000 0.0000 0.0000 0.0000 0.6085
#
#
#
# Elastic Compliance Matrix: (Units=1/GPa)
#
#
# Indices 1 2 3 4 5 6 
#
# 1 0.007157 -0.000667 -0.001901 0.000000 0.000000 0.000000
# 2 -0.000667 0.033937 -0.014070 0.000000 0.000000 0.000000
# 3 -0.001901 -0.014070 0.017039 0.000000 0.000000 0.000000
# 4 0.000000 0.000000 0.000000 0.033441 0.000000 0.000000
# 5 0.000000 0.000000 0.000000 0.000000 0.047806 0.000000
# 6 0.000000 0.000000 0.000000 0.000000 0.000000 1.643263
#
#
# Mechanical properties :
#
#
# Convention : Reuss Voigt Hill
#
# Bulk Modulus (GPa) = 40.22931 50.82177 45.52554
# Shear Modulus (GPa) = 2.74092 24.03439 13.38765
#
# Velocity S-wave (km/s) = 1.13623 3.36461 2.51114
# Velocity P-wave (km/s) = 4.54643 6.24756 5.46361
#
# Compressibility (1/GPa) = 0.02485750
#
# Stress axis : x y z
#
# Youngs Moduli (GPa) = 139.71907 29.46641 58.69037
#
# Poissons Ratio (x) = 0.01964 0.11159
# Poissons Ratio (y) = 0.09314 0.82575
# Poissons Ratio (z) = 0.26566 0.41458
#
# Static dielectric constant tensor:
#      x y z
#    x 4.835530 0.000000 0.000000 
#    y 0.000000 3.275240 0.000000 
#    z 0.000000 0.000000 3.643810 
# 
# 
# High freq. dielectric constant tensor:
#      x y z
#    x 1.873510 0.000000 0.000000 
#    y 0.000000 1.775300 0.000000 
#    z 0.000000 0.000000 1.817130 
# 
# From -- ./inp_files/32819.got.cif
#   From: 2010.03.12/outbox.cif.g09.slc.cpg/sg24_17_cif.got.tgz:32819.got - 2010.04.14 03:06:53.
