data_PCOD8164064
_publ_section_title
;
Structure prediction by ZEFSAII (Michael W. Deem and Ramdas Pophale) SiO2 
 PCOD8164064
Probable space group: I 2 2 2
;
_chemical_formula_sum "Si O2"
_cell_formula_units_Z 38
_cell_length_a 23.416542
_cell_length_b 5.370523
_cell_length_c 12.786213
_cell_angle_alpha 90.000000
_cell_angle_beta 90.000000
_cell_angle_gamma 90.000000
_cell_volume 1607.982350
_symmetry_space_group_name_H-M "I 2 2 2"
_symmetry_group_IT_number 23
_symmetry_cell_setting 'orthorhombic'
loop_
_space_group_symop_operation_xyz
x,y,z
-x,-y,z
x,-y,-z
-x,y,-z
1/2+x,1/2+y,1/2+z
1/2-x,1/2-y,1/2+z
1/2+x,1/2-y,1/2-z
1/2-x,1/2+y,1/2-z
loop_
_atom_site_type_symbol
_atom_site_label
_atom_site_fract_x
_atom_site_fract_y
_atom_site_fract_z
Si Si1 0.373288 0.000000 0.500000
Si Si2 0.000000 0.000000 0.500000
Si Si3 0.225692 0.179522 0.091216
Si Si4 0.582480 0.158602 0.709458
Si Si5 0.318133 0.433709 0.206668
Si Si6 0.567203 0.656843 0.811868
O O1 0.334717 0.803329 0.437333
O O2 0.413156 0.853677 0.583084
O O3 0.960952 0.173487 0.573610
O O4 0.275624 0.381562 0.110173
O O5 0.219700 0.021660 0.196223
O O6 0.246868 0.000000 0.000000
O O7 0.646664 0.186204 0.757096
O O8 0.546414 0.402856 0.749017
O O9 0.551919 0.906729 0.748787
O O10 0.364071 0.643588 0.172676
#
# Coordination Sequence:
#
# PCOD8164064 Si02
#       6
#     4   2   8   8   8   8
#     4  12  20  39  66  93 130 193 225 272 356 432
#     4  12  28  52  84 100 140 194 242 290 408 418
#     4  12  23  37  63  96 139 199 234 279 359 429
#     4  10  22  43  67  95 138 173 233 290 354 411
#     4  10  24  40  60 101 147 177 238 302 335 427
#     4  10  25  45  69 101 133 183 232 301 349 432
#
# _framework density 23.632100000000001
#
# number of rings (size 3 to 8) (size 9 to 14) (size 15 to 20)
#    1.263    0.000    4.211    1.263    0.000    5.053 
#    0.000    0.000    0.000    3.789    0.000    0.000 
#    0.000    0.000    0.000    0.000    0.000    0.000 
#
# Total GULP energy -235543.365146 kJ/mol
# GULP energy per Si atom -12397.019218 kJ/mol
# Density = 2.357831 g / cm^3
# Si number density = 23.632100 Si / 1000 Ang^3
#
#
#
# Elastic Constant Matrix: (Units=GPa)
#
#
# Indices 1 2 3 4 5 6 
#
# 1 46.3898 36.4398 56.4169 0.0000 0.0000 0.0000
# 2 36.4398 139.4247 47.7848 0.0000 0.0000 0.0000
# 3 56.4169 47.7848 152.4581 0.0000 0.0000 0.0000
# 4 0.0000 0.0000 0.0000 37.3414 0.0000 0.0000
# 5 0.0000 0.0000 0.0000 0.0000 44.7067 0.0000
# 6 0.0000 0.0000 0.0000 0.0000 0.0000 32.9565
#
#
#
# Elastic Compliance Matrix: (Units=1/GPa)
#
#
# Indices 1 2 3 4 5 6 
#
# 1 0.044081 -0.006644 -0.014230 0.000000 0.000000 0.000000
# 2 -0.006644 0.009037 -0.000374 0.000000 0.000000 0.000000
# 3 -0.014230 -0.000374 0.011942 0.000000 0.000000 0.000000
# 4 0.000000 0.000000 0.000000 0.026780 0.000000 0.000000
# 5 0.000000 0.000000 0.000000 0.000000 0.022368 0.000000
# 6 0.000000 0.000000 0.000000 0.000000 0.000000 0.030343
#
#
# Mechanical properties :
#
#
# Convention : Reuss Voigt Hill
#
# Bulk Modulus (GPa) = 44.31683 68.83949 56.57816
# Shear Modulus (GPa) = 25.69813 36.17633 30.93723
#
# Velocity S-wave (km/s) = 3.30119 3.91681 3.62210
# Velocity P-wave (km/s) = 5.77269 7.04614 6.44096
#
# Compressibility (1/GPa) = 0.02256479
#
# Stress axis : x y z
#
# Youngs Moduli (GPa) = 22.68573 110.65732 83.73827
#
# Poissons Ratio (x) = 0.73520 1.19156
# Poissons Ratio (y) = 0.15072 0.03131
# Poissons Ratio (z) = 0.32281 0.04137
#
# Static dielectric constant tensor:
#      x y z
#    x 4.091950 0.000000 0.000000 
#    y 0.000000 4.042200 0.000000 
#    z 0.000000 0.000000 4.109940 
# 
# 
# High freq. dielectric constant tensor:
#      x y z
#    x 1.935860 0.000000 0.000000 
#    y 0.000000 1.928220 0.000000 
#    z 0.000000 0.000000 1.927130 
# 
# From -- ./inp_files/18717.got.cif
#   From: 2010.03.12/outbox.cif.g09.slc.cpg/sg23_10_cif.got.tgz:18717.got - 2010.04.14 02:50:06.
