data_PCOD8164554
_publ_section_title
;
Structure prediction by ZEFSAII (Michael W. Deem and Ramdas Pophale) SiO2 
 PCOD8164554
Probable space group: I 2 2 2
;
_chemical_formula_sum "Si O2"
_cell_formula_units_Z 18
_cell_length_a 10.608920
_cell_length_b 13.616847
_cell_length_c 4.982928
_cell_angle_alpha 90.000000
_cell_angle_beta 90.000000
_cell_angle_gamma 90.000000
_cell_volume 719.833981
_symmetry_space_group_name_H-M "I 2 2 2"
_symmetry_group_IT_number 23
_symmetry_cell_setting 'orthorhombic'
loop_
_space_group_symop_operation_xyz
x,y,z
-x,-y,z
x,-y,-z
-x,y,-z
1/2+x,1/2+y,1/2+z
1/2-x,1/2-y,1/2+z
1/2+x,1/2-y,1/2-z
1/2-x,1/2+y,1/2-z
loop_
_atom_site_type_symbol
_atom_site_label
_atom_site_fract_x
_atom_site_fract_y
_atom_site_fract_z
Si Si1 0.806968 0.400690 0.606883
Si Si2 0.500000 0.000000 0.500000
Si Si3 0.084393 0.237544 0.736061
O O1 0.741020 0.500000 0.500000
O O2 0.869347 0.346018 0.351191
O O3 0.705384 0.331483 0.744467
O O4 0.915472 0.427554 0.818069
O O5 0.000000 0.191102 0.500000
O O6 0.000000 0.242422 0.000000
#
# Coordination Sequence:
#
# PCOD8164554 Si02
#       3
#     8   2   8
#     4  12  31  53  88 121 168 217 285 335 417 487
#     4  12  30  56  80 128 156 232 274 350 386 524
#     4  12  30  55  85 124 171 218 273 345 417 487
#
# _framework density 25.005763999999999
#
# number of rings (size 3 to 8) (size 9 to 14) (size 15 to 20)
#    0.000    0.000    0.000    6.000   31.111    0.889 
#    0.000    0.000    0.000    0.000    0.000    0.000 
#    0.000    0.000    0.000    0.000    0.000    0.000 
#
# Total GULP energy -111624.611257 kJ/mol
# GULP energy per Si atom -12402.734584 kJ/mol
# Density = 2.494885 g / cm^3
# Si number density = 25.005764 Si / 1000 Ang^3
#
#
#
# Elastic Constant Matrix: (Units=GPa)
#
#
# Indices 1 2 3 4 5 6 
#
# 1 172.3872 102.6353 90.3235 0.0000 0.0000 0.0000
# 2 102.6353 189.2682 87.2607 0.0000 0.0000 0.0000
# 3 90.3235 87.2607 202.0574 0.0000 0.0000 0.0000
# 4 0.0000 0.0000 0.0000 75.7053 0.0000 0.0000
# 5 0.0000 0.0000 0.0000 0.0000 62.2877 0.0000
# 6 0.0000 0.0000 0.0000 0.0000 0.0000 22.8601
#
#
#
# Elastic Compliance Matrix: (Units=1/GPa)
#
#
# Indices 1 2 3 4 5 6 
#
# 1 0.009496 -0.003986 -0.002524 0.000000 0.000000 0.000000
# 2 -0.003986 0.008270 -0.001790 0.000000 0.000000 0.000000
# 3 -0.002524 -0.001790 0.006850 0.000000 0.000000 0.000000
# 4 0.000000 0.000000 0.000000 0.013209 0.000000 0.000000
# 5 0.000000 0.000000 0.000000 0.000000 0.016055 0.000000
# 6 0.000000 0.000000 0.000000 0.000000 0.000000 0.043744
#
#
# Mechanical properties :
#
#
# Convention : Reuss Voigt Hill
#
# Bulk Modulus (GPa) = 124.72266 124.90577 124.81422
# Shear Modulus (GPa) = 42.77292 51.07017 46.92154
#
# Velocity S-wave (km/s) = 4.14033 4.52412 4.33648
# Velocity P-wave (km/s) = 8.53477 8.79486 8.66579
#
# Compressibility (1/GPa) = 0.00801779
#
# Stress axis : x y z
#
# Youngs Moduli (GPa) = 105.30258 120.91545 145.98345
#
# Poissons Ratio (x) = 0.48199 0.36841
# Poissons Ratio (y) = 0.41976 0.26127
# Poissons Ratio (z) = 0.26574 0.21640
#
# Static dielectric constant tensor:
#      x y z
#    x 4.593960 0.000000 0.000000 
#    y 0.000000 5.008130 0.000000 
#    z 0.000000 0.000000 4.825300 
# 
# 
# High freq. dielectric constant tensor:
#      x y z
#    x 2.005700 0.000000 0.000000 
#    y 0.000000 2.007840 0.000000 
#    z 0.000000 0.000000 2.025220 
# 
# From -- ./inp_files/982.got.cif
#   From: 2010.03.12/outbox.cif.g09.slc.cpg/sg23_1_cif.got.tgz:982.got - 2010.04.14 02:50:06.
