data_PCOD8164749
_publ_section_title
;
Structure prediction by ZEFSAII (Michael W. Deem and Ramdas Pophale) SiO2 
 PCOD8164749
Probable space group: I 21 21 21
;
_chemical_formula_sum "Si O2"
_cell_formula_units_Z 44
_cell_length_a 17.566733
_cell_length_b 10.378749
_cell_length_c 13.402642
_cell_angle_alpha 90.000000
_cell_angle_beta 90.000000
_cell_angle_gamma 90.000000
_cell_volume 2443.579240
_symmetry_space_group_name_H-M "I 21 21 21"
_symmetry_group_IT_number 24
_symmetry_cell_setting 'orthorhombic'
loop_
_space_group_symop_operation_xyz
x,y,z
-x,1/2-y,z
x,-y,1/2-z
1/2-x,y,-z
1/2+x,1/2+y,1/2+z
1/2-x,-y,1/2+z
1/2+x,1/2-y,-z
-x,1/2+y,1/2-z
loop_
_atom_site_type_symbol
_atom_site_label
_atom_site_fract_x
_atom_site_fract_y
_atom_site_fract_z
Si Si1 0.313530 0.614006 0.571843
Si Si2 0.115284 0.907986 0.120066
Si Si3 0.750000 0.666488 0.000000
Si Si4 0.080825 0.187164 0.170203
Si Si5 0.723337 0.000000 0.250000
Si Si6 0.500000 0.250000 0.488114
Si Si7 0.140204 0.381324 0.572181
O O1 0.250000 0.677362 0.500000
O O2 0.378170 0.718927 0.591557
O O3 0.278609 0.583125 0.679942
O O4 0.344774 0.485920 0.515911
O O5 0.201004 0.922014 0.076026
O O6 0.125402 0.836458 0.226391
O O7 0.073703 0.046099 0.121643
O O8 0.061563 0.819951 0.054948
O O9 0.689014 0.753912 0.055592
O O10 0.000000 0.250000 0.194712
O O11 0.665302 0.922414 0.181417
O O12 0.450197 0.349746 0.422155
#
# Coordination Sequence:
#
# PCOD8164749 Si02
#       7
#     8   8   4   8   4   4   8
#     4  10  21  34  58  86 112 146 191 240 288 336
#     4  10  22  35  56  82 114 156 183 238 286 342
#     4  10  18  36  54  82 112 146 192 224 284 346
#     4  11  22  35  54  86 119 147 189 234 299 346
#     4  10  18  34  60  82 108 140 198 234 272 344
#     4  10  20  36  56  78 118 144 192 232 280 344
#     4  10  19  35  58  85 107 151 188 238 284 331
#
# _framework density 18.006374000000001
#
# number of rings (size 3 to 8) (size 9 to 14) (size 15 to 20)
#    0.000    1.818    3.636    2.182    3.818    1.455 
#    0.000    0.000   16.000    4.364    0.000    0.000 
#    0.000    0.000    0.000    0.000    0.000    0.000 
#
# Total GULP energy -272625.670122 kJ/mol
# GULP energy per Si atom -12392.075915 kJ/mol
# Density = 1.796539 g / cm^3
# Si number density = 18.006374 Si / 1000 Ang^3
#
#
#
# Elastic Constant Matrix: (Units=GPa)
#
#
# Indices 1 2 3 4 5 6 
#
# 1 100.9602 34.3993 36.9611 0.0000 0.0000 0.0000
# 2 34.3993 78.3962 32.8654 0.0000 0.0000 0.0000
# 3 36.9611 32.8654 92.6750 0.0000 0.0000 0.0000
# 4 0.0000 0.0000 0.0000 15.7743 0.0000 0.0000
# 5 0.0000 0.0000 0.0000 0.0000 33.2855 0.0000
# 6 0.0000 0.0000 0.0000 0.0000 0.0000 37.9287
#
#
#
# Elastic Compliance Matrix: (Units=1/GPa)
#
#
# Indices 1 2 3 4 5 6 
#
# 1 0.012590 -0.004017 -0.003597 0.000000 0.000000 0.000000
# 2 -0.004017 0.016265 -0.004166 0.000000 0.000000 0.000000
# 3 -0.003597 -0.004166 0.013702 0.000000 0.000000 0.000000
# 4 0.000000 0.000000 0.000000 0.063394 0.000000 0.000000
# 5 0.000000 0.000000 0.000000 0.000000 0.030043 0.000000
# 6 0.000000 0.000000 0.000000 0.000000 0.000000 0.026365
#
#
# Mechanical properties :
#
#
# Convention : Reuss Voigt Hill
#
# Bulk Modulus (GPa) = 52.63653 53.38702 53.01177
# Shear Modulus (GPa) = 26.00759 28.58473 27.29616
#
# Velocity S-wave (km/s) = 3.80459 3.98864 3.89770
# Velocity P-wave (km/s) = 6.97105 7.13622 7.05412
#
# Compressibility (1/GPa) = 0.01899821
#
# Stress axis : x y z
#
# Youngs Moduli (GPa) = 79.42668 61.48307 72.98020
#
# Poissons Ratio (x) = 0.24695 0.26250
# Poissons Ratio (y) = 0.31902 0.30404
# Poissons Ratio (z) = 0.28569 0.25614
#
# Static dielectric constant tensor:
#      x y z
#    x 3.689850 0.000000 0.000000 
#    y 0.000000 3.418000 0.000000 
#    z 0.000000 0.000000 3.465270 
# 
# 
# High freq. dielectric constant tensor:
#      x y z
#    x 1.701910 0.000000 0.000000 
#    y 0.000000 1.691510 0.000000 
#    z 0.000000 0.000000 1.691220 
# 
# From -- ./inp_files/12726.got.cif
#   From: 2010.03.12/outbox.cif.g09.slc.cpg/sg24_7_cif.got.tgz:12726.got - 2010.04.14 03:06:53.
