data_PCOD8164425
_publ_section_title
;
Structure prediction by ZEFSAII (Michael W. Deem and Ramdas Pophale) SiO2 
 PCOD8164425
Probable space group: I 2 2 2
;
_chemical_formula_sum "Si O2"
_cell_formula_units_Z 34
_cell_length_a 7.134766
_cell_length_b 18.909924
_cell_length_c 12.018463
_cell_angle_alpha 90.000000
_cell_angle_beta 90.000000
_cell_angle_gamma 90.000000
_cell_volume 1621.505583
_symmetry_space_group_name_H-M "I 2 2 2"
_symmetry_group_IT_number 23
_symmetry_cell_setting 'orthorhombic'
loop_
_space_group_symop_operation_xyz
x,y,z
-x,-y,z
x,-y,-z
-x,y,-z
1/2+x,1/2+y,1/2+z
1/2-x,1/2-y,1/2+z
1/2+x,1/2-y,1/2-z
1/2-x,1/2+y,1/2-z
loop_
_atom_site_type_symbol
_atom_site_label
_atom_site_fract_x
_atom_site_fract_y
_atom_site_fract_z
Si Si1 0.333032 0.659633 0.278794
Si Si2 0.000000 0.000000 0.500000
Si Si3 0.783605 0.018624 0.881984
Si Si4 0.010208 0.698815 0.870616
Si Si5 0.695426 0.583404 0.188434
O O1 0.237784 0.601282 0.359207
O O2 0.410099 0.722943 0.353498
O O3 0.501279 0.619280 0.220518
O O4 0.192128 0.690252 0.186409
O O5 0.146552 0.044683 0.573464
O O6 0.715237 0.970906 0.778339
O O7 0.000000 0.000000 0.894108
O O8 0.683866 0.000000 0.000000
O O9 0.149538 0.642607 0.819431
O O10 0.000000 0.683777 0.000000
#
# Coordination Sequence:
#
# PCOD8164425 Si02
#       5
#     8   2   8   8   8
#     4  11  23  46  65 100 131 176 226 273 336 403
#     4  12  20  44  72  96 140 178 218 286 338 396
#     4   9  20  40  69  93 127 173 224 275 328 389
#     4  12  27  42  70  99 138 176 224 280 339 406
#     4  11  23  44  67  99 137 176 224 273 340 400
#
# _framework density 20.968167000000001
#
# number of rings (size 3 to 8) (size 9 to 14) (size 15 to 20)
#    0.000    1.176    5.882    1.412    6.588    0.941 
#    0.000    4.706    0.000    0.000    0.000    0.000 
#    0.000    0.000    0.000    0.000    0.000    0.000 
#
# Total GULP energy -210744.655494 kJ/mol
# GULP energy per Si atom -12396.744441 kJ/mol
# Density = 2.092044 g / cm^3
# Si number density = 20.968167 Si / 1000 Ang^3
#
#
#
# Elastic Constant Matrix: (Units=GPa)
#
#
# Indices 1 2 3 4 5 6 
#
# 1 54.6904 28.1268 13.5318 0.0000 0.0000 0.0000
# 2 28.1268 164.2510 61.9018 0.0001 0.0000 0.0000
# 3 13.5318 61.9018 140.2583 0.0001 0.0000 0.0000
# 4 0.0000 0.0001 0.0001 36.8877 0.0000 0.0000
# 5 0.0000 0.0000 0.0000 0.0000 -6.3023 0.0000
# 6 0.0000 0.0000 0.0000 0.0000 0.0000 24.5918
#
#
#
# Elastic Compliance Matrix: (Units=1/GPa)
#
#
# Indices 1 2 3 4 5 6 
#
# 1 0.020080 -0.003249 -0.000503 0.000000 0.000000 0.000000
# 2 -0.003249 0.007829 -0.003142 0.000000 0.000000 0.000000
# 3 -0.000503 -0.003142 0.008565 0.000000 0.000000 0.000000
# 4 0.000000 0.000000 0.000000 0.027109 0.000000 0.000000
# 5 0.000000 0.000000 0.000000 0.000000 -0.158672 0.000000
# 6 0.000000 0.000000 0.000000 0.000000 0.000000 0.040664
#
#
# Mechanical properties :
#
#
# Convention : Reuss Voigt Hill
#
# Bulk Modulus (GPa) = 44.08062 62.92447 53.50255
# Shear Modulus (GPa) = -151.16932 28.07807 -61.54562
#
# Velocity S-wave (km/s) = -8.50007 3.66332 -5.42362
# Velocity P-wave (km/s) = 8.67563 6.92588 3.69451
#
# Compressibility (1/GPa) = 0.02268571
#
# Stress axis : x y z
#
# Youngs Moduli (GPa) = 49.80046 127.73703 116.75687
#
# Poissons Ratio (x) = 0.41500 0.05878
# Poissons Ratio (y) = 0.16179 0.36681
# Poissons Ratio (z) = 0.02507 0.40130
#
# Static dielectric constant tensor:
#      x y z
#    x 3.506310 0.000000 0.000000 
#    y 0.000000 4.303240 0.000000 
#    z 0.000000 0.000000 4.259670 
# 
# 
# High freq. dielectric constant tensor:
#      x y z
#    x 1.810580 0.000000 0.000000 
#    y 0.000000 1.839710 0.000000 
#    z 0.000000 0.000000 1.829880 
# 
# From -- ./inp_files/8149.got.cif
#   From: 2010.03.12/outbox.cif.g09.slc.cpg/sg23_5_cif.got.tgz:8149.got - 2010.04.14 02:50:06.
