data_PCOD8164713
_publ_section_title
;
Structure prediction by ZEFSAII (Michael W. Deem and Ramdas Pophale) SiO2 
 PCOD8164713
Probable space group: I 21 21 21
;
_chemical_formula_sum "Si O2"
_cell_formula_units_Z 60
_cell_length_a 10.525903
_cell_length_b 24.456527
_cell_length_c 12.786506
_cell_angle_alpha 90.000000
_cell_angle_beta 90.000000
_cell_angle_gamma 90.000000
_cell_volume 3291.592275
_symmetry_space_group_name_H-M "I 21 21 21"
_symmetry_group_IT_number 24
_symmetry_cell_setting 'orthorhombic'
loop_
_space_group_symop_operation_xyz
x,y,z
-x,1/2-y,z
x,-y,1/2-z
1/2-x,y,-z
1/2+x,1/2+y,1/2+z
1/2-x,-y,1/2+z
1/2+x,1/2-y,-z
-x,1/2+y,1/2-z
loop_
_atom_site_type_symbol
_atom_site_label
_atom_site_fract_x
_atom_site_fract_y
_atom_site_fract_z
Si Si1 0.932406 0.000000 0.250000
Si Si2 0.074357 0.674090 0.335550
Si Si3 0.368425 0.567812 0.564537
Si Si4 0.185935 0.123204 0.762359
Si Si5 0.381209 0.961689 0.439302
Si Si6 0.041033 0.895308 0.164038
Si Si7 0.885747 0.412388 0.553734
Si Si8 0.804196 0.283525 0.115094
O O1 0.848058 0.965167 0.328734
O O2 0.016894 0.959076 0.182620
O O3 0.145702 0.631785 0.410524
O O4 0.053143 0.647829 0.220184
O O5 0.166222 0.726552 0.325176
O O6 0.938691 0.685494 0.390755
O O7 0.250000 0.546908 0.500000
O O8 0.504282 0.558909 0.511520
O O9 0.130078 0.075899 0.836518
O O10 0.321879 0.109967 0.714791
O O11 0.096664 0.124930 0.658124
O O12 0.197610 0.181450 0.821983
O O13 0.250000 0.953867 0.500000
O O14 0.409488 0.024754 0.411381
O O15 0.023832 0.888373 0.038366
O O16 0.750000 0.408055 0.500000
O O17 0.750000 0.272418 0.000000
#
# Coordination Sequence:
#
# PCOD8164713 Si02
#       8
#     4   8   8   8   8   8   8   8
#     4  10  18  34  52  68 104 148 178 210 262 334
#     4   9  19  32  54  76 101 144 186 224 274 334
#     4  11  22  36  52  77 110 147 186 221 271 334
#     4  10  19  28  48  82 115 138 173 234 290 332
#     4  11  19  32  53  81 114 145 183 225 284 340
#     4   9  17  31  51  77 106 144 186 222 265 342
#     4   9  18  28  47  78 111 145 174 223 279 337
#     4  10  18  32  51  80 109 136 180 237 288 331
#
# _framework density 18.228259999999999
#
# number of rings (size 3 to 8) (size 9 to 14) (size 15 to 20)
#    0.000    2.133    1.333    4.400    3.733    0.000 
#    2.400    0.000    0.000    0.000    0.000   84.000 
#    0.000    0.000    0.000    0.000    0.000    0.000 
#
# Total GULP energy -371654.083171 kJ/mol
# GULP energy per Si atom -12388.469439 kJ/mol
# Density = 1.818677 g / cm^3
# Si number density = 18.228260 Si / 1000 Ang^3
#
#
#
# Elastic Constant Matrix: (Units=GPa)
#
#
# Indices 1 2 3 4 5 6 
#
# 1 50.5801 26.0290 35.3856 -0.0002 0.0000 0.0000
# 2 26.0290 105.6454 63.1021 -0.0002 0.0000 0.0000
# 3 35.3856 63.1021 136.0625 -0.0063 -0.0001 -0.0010
# 4 -0.0002 -0.0002 -0.0063 -21.2439 -0.0003 -0.0028
# 5 0.0000 0.0000 -0.0001 -0.0003 16.7556 0.0000
# 6 0.0000 0.0000 -0.0010 -0.0028 0.0000 16.9743
#
#
#
# Elastic Compliance Matrix: (Units=1/GPa)
#
#
# Indices 1 2 3 4 5 6 
#
# 1 0.024897 -0.003135 -0.005021 0.000001 0.000000 0.000000
# 2 -0.003135 0.013487 -0.005440 0.000002 0.000000 0.000000
# 3 -0.005021 -0.005440 0.011178 -0.000003 0.000000 0.000001
# 4 0.000001 0.000002 -0.000003 -0.047072 -0.000001 -0.000008
# 5 0.000000 0.000000 0.000000 -0.000001 0.059682 0.000000
# 6 0.000000 0.000000 0.000001 -0.000008 0.000000 0.058913
#
#
# Mechanical properties :
#
#
# Convention : Reuss Voigt Hill
#
# Bulk Modulus (GPa) = 44.70141 60.14682 52.42411
# Shear Modulus (GPa) = 32.10654 13.68196 22.89425
#
# Velocity S-wave (km/s) = 4.20141 2.74266 3.54782
# Velocity P-wave (km/s) = 6.93629 6.56488 6.75314
#
# Compressibility (1/GPa) = 0.02237066
#
# Stress axis : x y z
#
# Youngs Moduli (GPa) = 40.16620 74.14468 89.46079
#
# Poissons Ratio (x) = 0.23245 0.44917
# Poissons Ratio (y) = 0.12592 0.48663
# Poissons Ratio (z) = 0.20167 0.40332
#
# Static dielectric constant tensor:
#      x y z
#    x 3.076070 0.000000 0.000000 
#    y 0.000000 3.505260 0.000000 
#    z 0.000000 0.000000 3.933870 
# 
# 
# High freq. dielectric constant tensor:
#      x y z
#    x 1.665430 0.000000 0.000000 
#    y 0.000000 1.703190 0.000000 
#    z 0.000000 0.000000 1.714770 
# 
# From -- ./inp_files/25192.got.cif
#   From: 2010.03.12/outbox.cif.g09.slc.cpg/sg24_13_cif.got.tgz:25192.got - 2010.04.14 03:06:53.
