data_PCOD8164429
_publ_section_title
;
Structure prediction by ZEFSAII (Michael W. Deem and Ramdas Pophale) SiO2 
 PCOD8164429
Probable space group: I 2 2 2
;
_chemical_formula_sum "Si O2"
_cell_formula_units_Z 36
_cell_length_a 19.591297
_cell_length_b 9.395258
_cell_length_c 8.214286
_cell_angle_alpha 90.000000
_cell_angle_beta 90.000000
_cell_angle_gamma 90.000000
_cell_volume 1511.964934
_symmetry_space_group_name_H-M "I 2 2 2"
_symmetry_group_IT_number 23
_symmetry_cell_setting 'orthorhombic'
loop_
_space_group_symop_operation_xyz
x,y,z
-x,-y,z
x,-y,-z
-x,y,-z
1/2+x,1/2+y,1/2+z
1/2-x,1/2-y,1/2+z
1/2+x,1/2-y,1/2-z
1/2-x,1/2+y,1/2-z
loop_
_atom_site_type_symbol
_atom_site_label
_atom_site_fract_x
_atom_site_fract_y
_atom_site_fract_z
Si Si1 0.360278 0.500000 0.500000
Si Si2 0.541397 0.373539 0.770041
Si Si3 0.337215 0.667039 0.969597
Si Si4 0.380255 0.000000 0.500000
Si Si5 0.298929 0.766595 0.319286
Si Si6 0.500000 0.197437 0.500000
O O1 0.405467 0.564994 0.641231
O O2 0.315418 0.628913 0.428008
O O3 0.500000 0.500000 0.857684
O O4 0.586182 0.290743 0.906640
O O5 0.483925 0.286403 0.665183
O O6 0.282568 0.710553 0.831100
O O7 0.334068 0.500000 0.000000
O O8 0.320497 0.750226 0.133460
O O9 0.333168 0.083644 0.626688
O O10 0.433803 0.115397 0.430134
#
# Coordination Sequence:
#
# PCOD8164429 Si02
#       6
#     4   8   8   4   8   4
#     4  12  21  44  80 110 144 211 258 314 390 473
#     4  12  22  45  75 113 151 200 260 312 386 466
#     4  12  28  46  74 119 156 203 260 332 389 465
#     4  11  24  46  76 108 153 200 254 318 383 466
#     4  12  26  48  75 113 157 201 263 323 396 464
#     4  11  23  44  76 107 144 209 256 303 382 463
#
# _framework density 23.810075000000001
#
# number of rings (size 3 to 8) (size 9 to 14) (size 15 to 20)
#    0.000    0.222    7.778    1.333    0.000    0.444 
#    0.000    0.000    0.000    2.667    0.000    0.000 
#    0.000    0.000    0.000    0.000    0.000    0.000 
#
# Total GULP energy -222997.190731 kJ/mol
# GULP energy per Si atom -12388.732818 kJ/mol
# Density = 2.375588 g / cm^3
# Si number density = 23.810075 Si / 1000 Ang^3
#
#
#
# Elastic Constant Matrix: (Units=GPa)
#
#
# Indices 1 2 3 4 5 6 
#
# 1 114.7621 35.7284 52.3693 0.0000 0.0000 0.0000
# 2 35.7284 100.1601 45.7378 0.0000 0.0000 0.0000
# 3 52.3693 45.7378 141.0812 0.0000 0.0000 0.0000
# 4 0.0000 0.0000 0.0000 27.7571 0.0000 0.0000
# 5 0.0000 0.0000 0.0000 0.0000 49.0645 0.0000
# 6 0.0000 0.0000 0.0000 0.0000 0.0000 8.6590
#
#
#
# Elastic Compliance Matrix: (Units=1/GPa)
#
#
# Indices 1 2 3 4 5 6 
#
# 1 0.010965 -0.002409 -0.003289 0.000000 0.000000 0.000000
# 2 -0.002409 0.012248 -0.003077 0.000000 0.000000 0.000000
# 3 -0.003289 -0.003077 0.009306 0.000000 0.000000 0.000000
# 4 0.000000 0.000000 0.000000 0.036027 0.000000 0.000000
# 5 0.000000 0.000000 0.000000 0.000000 0.020381 0.000000
# 6 0.000000 0.000000 0.000000 0.000000 0.000000 0.115487
#
#
# Mechanical properties :
#
#
# Convention : Reuss Voigt Hill
#
# Bulk Modulus (GPa) = 66.80153 69.29715 68.04934
# Shear Modulus (GPa) = 22.03093 31.90732 26.96912
#
# Velocity S-wave (km/s) = 3.04514 3.66468 3.36918
# Velocity P-wave (km/s) = 6.36245 6.86103 6.61644
#
# Compressibility (1/GPa) = 0.01496972
#
# Stress axis : x y z
#
# Youngs Moduli (GPa) = 91.20252 81.64379 107.45328
#
# Poissons Ratio (x) = 0.19671 0.35341
# Poissons Ratio (y) = 0.21974 0.33058
# Poissons Ratio (z) = 0.29996 0.25118
#
# Static dielectric constant tensor:
#      x y z
#    x 4.639450 0.000000 0.000000 
#    y 0.000000 4.808140 0.000000 
#    z 0.000000 0.000000 5.768070 
# 
# 
# High freq. dielectric constant tensor:
#      x y z
#    x 1.960030 0.000000 0.000000 
#    y 0.000000 1.941900 0.000000 
#    z 0.000000 0.000000 1.935790 
# 
# From -- ./inp_files/11702.got.cif
#   From: 2010.03.12/outbox.cif.g09.slc.cpg/sg23_6_cif.got.tgz:11702.got - 2010.04.14 02:50:06.
