data_PCOD8164618
_publ_section_title
;
Structure prediction by ZEFSAII (Michael W. Deem and Ramdas Pophale) SiO2 
 PCOD8164618
Probable space group: I 21 21 21
;
_chemical_formula_sum "Si O2"
_cell_formula_units_Z 40
_cell_length_a 7.207035
_cell_length_b 17.165309
_cell_length_c 20.121805
_cell_angle_alpha 90.000000
_cell_angle_beta 90.000000
_cell_angle_gamma 90.000000
_cell_volume 2489.288271
_symmetry_space_group_name_H-M "I 21 21 21"
_symmetry_group_IT_number 24
_symmetry_cell_setting 'orthorhombic'
loop_
_space_group_symop_operation_xyz
x,y,z
-x,1/2-y,z
x,-y,1/2-z
1/2-x,y,-z
1/2+x,1/2+y,1/2+z
1/2-x,-y,1/2+z
1/2+x,1/2-y,-z
-x,1/2+y,1/2-z
loop_
_atom_site_type_symbol
_atom_site_label
_atom_site_fract_x
_atom_site_fract_y
_atom_site_fract_z
Si Si1 0.714545 0.250000 0.077590
Si Si2 0.708226 0.388062 0.831647
Si Si3 0.500000 0.508967 0.170892
Si Si4 0.500000 0.837231 0.225388
Si Si5 0.291775 0.388062 0.831647
O O1 0.500000 0.250000 0.096453
O O2 0.805563 0.327215 0.108057
O O3 0.805563 0.172785 0.108057
O O4 0.750000 0.250000 0.000000
O O5 0.815792 0.466055 0.857116
O O6 0.816022 0.349550 0.769839
O O7 0.500000 0.410892 0.809614
O O8 0.500000 0.500000 0.250000
O O9 0.500000 0.603027 0.161563
O O10 0.315792 0.466054 0.142884
O O11 0.500000 0.750000 0.196420
O O12 0.316021 0.650450 0.269838
#
# Coordination Sequence:
#
# PCOD8164618 Si02
#       5
#     8   8   8   8   8
#     4  12  20  30  44  67  93 128 157 179 216 266
#     4  10  17  30  43  59  90 122 149 187 218 261
#     4   8  18  29  44  60  83 120 152 192 221 264
#     4  10  18  30  45  63  88 116 154 192 228 265
#     4  10  17  30  43  59  90 122 149 187 218 261
#
# _framework density 16.068849
#
# number of rings (size 3 to 8) (size 9 to 14) (size 15 to 20)
#    0.000    2.400    6.000    1.800    0.000    7.200 
#    0.000    0.000    0.000    0.000    0.000    0.000 
#    0.000    1.600    0.000    0.000    0.000    0.000 
#
# Total GULP energy -247819.882644 kJ/mol
# GULP energy per Si atom -12390.994132 kJ/mol
# Density = 1.603228 g / cm^3
# Si number density = 16.068849 Si / 1000 Ang^3
#
#
#
# Elastic Constant Matrix: (Units=GPa)
#
#
# Indices 1 2 3 4 5 6 
#
# 1 147.6887 41.9130 10.1188 0.0000 0.0000 0.0000
# 2 41.9130 161.8478 32.1702 0.0000 0.0000 0.0000
# 3 10.1188 32.1702 36.4752 0.0000 0.0000 0.0000
# 4 0.0000 0.0000 0.0000 11.7319 0.0000 0.0000
# 5 0.0000 0.0000 0.0000 0.0000 13.0322 0.0000
# 6 0.0000 0.0000 0.0000 0.0000 0.0000 6.1280
#
#
#
# Elastic Compliance Matrix: (Units=1/GPa)
#
#
# Indices 1 2 3 4 5 6 
#
# 1 0.007314 -0.001808 -0.000435 0.000000 0.000000 0.000000
# 2 -0.001808 0.007939 -0.006500 0.000000 0.000000 0.000000
# 3 -0.000435 -0.006500 0.033270 0.000000 0.000000 0.000000
# 4 0.000000 0.000000 0.000000 0.085238 0.000000 0.000000
# 5 0.000000 0.000000 0.000000 0.000000 0.076733 0.000000
# 6 0.000000 0.000000 0.000000 0.000000 0.000000 0.163184
#
#
# Mechanical properties :
#
#
# Convention : Reuss Voigt Hill
#
# Bulk Modulus (GPa) = 32.21974 57.15730 44.68852
# Shear Modulus (GPa) = 12.45305 23.63242 18.04273
#
# Velocity S-wave (km/s) = 2.78687 3.83913 3.35451
# Velocity P-wave (km/s) = 5.51816 7.43635 6.54788
#
# Compressibility (1/GPa) = 0.03103687
#
# Stress axis : x y z
#
# Youngs Moduli (GPa) = 136.72845 125.96337 30.05746
#
# Poissons Ratio (x) = 0.22769 0.01307
# Poissons Ratio (y) = 0.24715 0.19538
# Poissons Ratio (z) = 0.05943 0.81881
#
# Static dielectric constant tensor:
#      x y z
#    x 3.238960 0.000000 0.000000 
#    y 0.000000 4.000140 0.000000 
#    z 0.000000 0.000000 2.568320 
# 
# 
# High freq. dielectric constant tensor:
#      x y z
#    x 1.633290 0.000000 0.000000 
#    y 0.000000 1.622930 0.000000 
#    z 0.000000 0.000000 1.543610 
# 
# From -- ./inp_files/32677.got.cif
#   From: 2010.03.12/outbox.cif.g09.slc.cpg/sg24_17_cif.got.tgz:32677.got - 2010.04.14 03:06:53.
