data_PCOD8164692
_publ_section_title
;
Structure prediction by ZEFSAII (Michael W. Deem and Ramdas Pophale) SiO2 
 PCOD8164692
Probable space group: I 21 21 21
;
_chemical_formula_sum "Si O2"
_cell_formula_units_Z 64
_cell_length_a 16.466117
_cell_length_b 13.269888
_cell_length_c 18.056447
_cell_angle_alpha 90.000000
_cell_angle_beta 90.000000
_cell_angle_gamma 90.000000
_cell_volume 3945.397380
_symmetry_space_group_name_H-M "I 21 21 21"
_symmetry_group_IT_number 24
_symmetry_cell_setting 'orthorhombic'
loop_
_space_group_symop_operation_xyz
x,y,z
-x,1/2-y,z
x,-y,1/2-z
1/2-x,y,-z
1/2+x,1/2+y,1/2+z
1/2-x,-y,1/2+z
1/2+x,1/2-y,-z
-x,1/2+y,1/2-z
loop_
_atom_site_type_symbol
_atom_site_label
_atom_site_fract_x
_atom_site_fract_y
_atom_site_fract_z
Si Si1 0.088845 0.213409 0.098348
Si Si2 0.654847 0.897485 0.284049
Si Si3 0.626231 0.367748 0.059701
Si Si4 0.718769 0.562439 0.078702
Si Si5 0.323536 0.822074 0.220501
Si Si6 0.183961 0.070954 0.187853
Si Si7 0.976847 0.641550 0.700889
Si Si8 0.747944 0.810604 0.418391
O O1 0.107221 0.133617 0.161961
O O2 0.158218 0.299367 0.105924
O O3 0.000000 0.250000 0.117320
O O4 0.089410 0.163252 0.018182
O O5 0.667700 0.798881 0.231901
O O6 0.559047 0.923790 0.296418
O O7 0.698089 0.881481 0.363053
O O8 0.692971 0.000000 0.250000
O O9 0.644982 0.486720 0.060358
O O10 0.555274 0.347628 0.117786
O O11 0.706592 0.301035 0.078169
O O12 0.693273 0.653589 0.133959
O O13 0.785931 0.494587 0.118545
O O14 0.750000 0.607673 0.000000
O O15 0.254302 0.859761 0.276428
O O16 0.403161 0.889022 0.243698
O O17 0.147127 0.000000 0.250000
O O18 0.000000 0.750000 0.731135
O O19 0.750000 0.860688 0.500000
#
# Coordination Sequence:
#
# PCOD8164692 Si02
#       8
#     8   8   8   8   8   8   8   8
#     4  11  20  30  51  79 107 136 172 222 269 313
#     4  11  22  35  53  75 108 146 183 214 254 319
#     4  11  17  30  51  80 117 133 162 208 274 333
#     4  11  18  30  52  78 108 143 167 204 262 331
#     4  10  20  33  51  77 107 139 173 219 263 307
#     4  10  18  32  52  74 106 135 171 216 270 315
#     4  10  18  31  48  80 111 136 165 209 267 315
#     4  10  19  35  50  74 108 139 168 215 270 316
#
# _framework density 16.221433000000001
#
# number of rings (size 3 to 8) (size 9 to 14) (size 15 to 20)
#    0.000    1.500    7.500    0.750    3.500    0.000 
#    0.000    1.250    0.000    0.000    0.000   10.500 
#    0.000    0.000    0.000    0.000    0.000    0.000 
#
# Total GULP energy -396500.788947 kJ/mol
# GULP energy per Si atom -12390.649655 kJ/mol
# Density = 1.618451 g / cm^3
# Si number density = 16.221433 Si / 1000 Ang^3
#
#
#
# Elastic Constant Matrix: (Units=GPa)
#
#
# Indices 1 2 3 4 5 6 
#
# 1 107.2659 40.5842 51.2876 0.0000 0.0000 0.0000
# 2 40.5842 70.3226 49.6153 0.0000 0.0000 0.0000
# 3 51.2876 49.6153 125.1421 0.0000 0.0000 0.0000
# 4 0.0000 0.0000 0.0000 23.4129 0.0000 0.0000
# 5 0.0000 0.0000 0.0000 0.0000 19.7665 0.0000
# 6 0.0000 0.0000 0.0000 0.0000 0.0000 16.6041
#
#
#
# Elastic Compliance Matrix: (Units=1/GPa)
#
#
# Indices 1 2 3 4 5 6 
#
# 1 0.012796 -0.005116 -0.003216 0.000000 0.000000 0.000000
# 2 -0.005116 0.021788 -0.006542 0.000000 0.000000 0.000000
# 3 -0.003216 -0.006542 0.011903 0.000000 0.000000 0.000000
# 4 0.000000 0.000000 0.000000 0.042712 0.000000 0.000000
# 5 0.000000 0.000000 0.000000 0.000000 0.050591 0.000000
# 6 0.000000 0.000000 0.000000 0.000000 0.000000 0.060226
#
#
# Mechanical properties :
#
#
# Convention : Reuss Voigt Hill
#
# Bulk Modulus (GPa) = 59.73863 65.07835 62.40849
# Shear Modulus (GPa) = 21.24577 22.70627 21.97602
#
# Velocity S-wave (km/s) = 3.62295 3.74541 3.68469
# Velocity P-wave (km/s) = 7.37618 7.67528 7.52721
#
# Compressibility (1/GPa) = 0.01673959
#
# Stress axis : x y z
#
# Youngs Moduli (GPa) = 78.15060 45.89693 84.01569
#
# Poissons Ratio (x) = 0.23479 0.27019
# Poissons Ratio (y) = 0.39979 0.54961
# Poissons Ratio (z) = 0.25133 0.30025
#
# Static dielectric constant tensor:
#      x y z
#    x 3.092870 0.000000 0.000000 
#    y 0.000000 2.846180 0.000000 
#    z 0.000000 0.000000 3.208790 
# 
# 
# High freq. dielectric constant tensor:
#      x y z
#    x 1.613010 0.000000 0.000000 
#    y 0.000000 1.592470 0.000000 
#    z 0.000000 0.000000 1.628220 
# 
# From -- ./inp_files/27279.got.cif
#   From: 2010.03.12/outbox.cif.g09.slc.cpg/sg24_14_cif.got.tgz:27279.got - 2010.04.14 03:06:53.
