data_PCOD8164036
_publ_section_title
;
Structure prediction by ZEFSAII (Michael W. Deem and Ramdas Pophale) SiO2 
 PCOD8164036
Probable space group: I 2 2 2
;
_chemical_formula_sum "Si O2"
_cell_formula_units_Z 48
_cell_length_a 14.636882
_cell_length_b 26.034293
_cell_length_c 5.757326
_cell_angle_alpha 90.000000
_cell_angle_beta 90.000000
_cell_angle_gamma 90.000000
_cell_volume 2193.891681
_symmetry_space_group_name_H-M "I 2 2 2"
_symmetry_group_IT_number 23
_symmetry_cell_setting 'orthorhombic'
loop_
_space_group_symop_operation_xyz
x,y,z
-x,-y,z
x,-y,-z
-x,y,-z
1/2+x,1/2+y,1/2+z
1/2-x,1/2-y,1/2+z
1/2+x,1/2-y,1/2-z
1/2-x,1/2+y,1/2-z
loop_
_atom_site_type_symbol
_atom_site_label
_atom_site_fract_x
_atom_site_fract_y
_atom_site_fract_z
Si Si1 0.000000 0.923661 0.500000
Si Si2 0.908468 0.858505 0.117436
Si Si3 0.648890 0.453691 0.673945
Si Si4 0.000000 0.576327 0.000000
Si Si5 0.351101 0.953689 0.173908
Si Si6 0.249996 0.279412 0.663161
Si Si7 0.908459 0.641486 0.617453
O O1 0.934358 0.887588 0.351078
O O2 0.931387 0.960345 0.640324
O O3 0.841375 0.812616 0.178616
O O4 0.859239 0.898516 0.947100
O O5 0.000000 0.835654 0.000000
O O6 0.632838 0.500000 0.500000
O O7 0.749998 0.457292 0.787385
O O8 0.931434 0.539646 0.140540
O O9 0.065680 0.612397 0.148860
O O10 0.359197 0.898512 0.052876
O O11 0.367114 0.000000 0.000000
O O12 0.250012 0.252835 0.405998
O O13 0.158594 0.312601 0.678545
O O14 0.000000 0.664314 0.500000
#
# Coordination Sequence:
#
# PCOD8164036 Si02
#       7
#     4   8   8   4   8   8   8
#     4  10  24  41  72  96 148 184 234 292 359 432
#     4  10  24  44  70 105 142 185 235 297 361 438
#     4  10  22  41  70 106 144 187 237 285 354 435
#     4  10  24  41  72  96 148 184 234 292 359 432
#     4  10  22  41  70 106 144 187 237 285 354 435
#     4  12  30  48  77 105 143 187 246 314 376 440
#     4  10  24  44  70 105 142 185 235 297 361 438
#
# _framework density 21.878927999999998
#
# number of rings (size 3 to 8) (size 9 to 14) (size 15 to 20)
#    0.000    1.667    1.667    0.000   11.667   10.000 
#    0.000    3.333    0.000    1.000    0.000    0.000 
#    0.000    0.000    0.000    0.000    0.000    0.000 
#
# Total GULP energy -297531.352916 kJ/mol
# GULP energy per Si atom -12397.139705 kJ/mol
# Density = 2.182913 g / cm^3
# Si number density = 21.878928 Si / 1000 Ang^3
#
#
#
# Elastic Constant Matrix: (Units=GPa)
#
#
# Indices 1 2 3 4 5 6 
#
# 1 216.4231 81.7248 83.0490 0.0137 0.0033 0.0189
# 2 81.7248 81.1137 35.3096 -0.0406 -0.0194 0.0076
# 3 83.0490 35.3096 117.4807 -0.1866 0.2741 0.0958
# 4 0.0137 -0.0406 -0.1866 24.7508 -0.0614 0.0337
# 5 0.0033 -0.0194 0.2741 -0.0614 -3.7637 -0.0114
# 6 0.0189 0.0076 0.0958 0.0337 -0.0114 25.4930
#
#
#
# Elastic Compliance Matrix: (Units=1/GPa)
#
#
# Indices 1 2 3 4 5 6 
#
# 1 0.008927 -0.007188 -0.004150 -0.000049 -0.000257 0.000011
# 2 -0.007188 0.019972 -0.000921 0.000029 -0.000177 0.000003
# 3 -0.004150 -0.000921 0.011721 0.000091 0.000853 -0.000040
# 4 -0.000049 0.000029 0.000091 0.040402 -0.000653 -0.000054
# 5 -0.000257 -0.000177 0.000853 -0.000653 -0.265621 -0.000121
# 6 0.000011 0.000003 -0.000040 -0.000054 -0.000121 0.039227
#
#
# Mechanical properties :
#
#
# Convention : Reuss Voigt Hill
#
# Bulk Modulus (GPa) = 62.10457 90.57604 76.34030
# Shear Modulus (GPa) = -43.29469 23.62496 -9.83486
#
# Velocity S-wave (km/s) = -4.45323 3.28960 -2.12247
# Velocity P-wave (km/s) = 1.41616 7.47779 5.38158
#
# Compressibility (1/GPa) = 0.01610187
#
# Stress axis : x y z
#
# Youngs Moduli (GPa) = 112.01346 50.07120 85.31982
#
# Poissons Ratio (x) = 0.35993 0.35408
# Poissons Ratio (y) = 0.80519 0.07855
# Poissons Ratio (z) = 0.46485 0.04610
#
# Static dielectric constant tensor:
#      x y z
#    x 4.298490 0.000040 0.000040 
#    y 0.000040 3.777320 -0.000330 
#    z 0.000040 -0.000330 4.127340 
# 
# 
# High freq. dielectric constant tensor:
#      x y z
#    x 1.888220 0.000000 0.000000 
#    y 0.000000 1.851040 -0.000010 
#    z 0.000000 -0.000010 1.865950 
# 
# From -- ./inp_files/2598.got.cif
#   From: 2010.03.12/outbox.cif.g09.slc.cpg/sg23_2_cif.got.tgz:2598.got - 2010.04.14 02:50:06.
