data_PCOD8164942
_publ_section_title
;
Structure prediction by ZEFSAII (Michael W. Deem and Ramdas Pophale) SiO2 
 PCOD8164942
Probable space group: I 21 21 21
;
_chemical_formula_sum "Si O2"
_cell_formula_units_Z 64
_cell_length_a 9.146029
_cell_length_b 21.598010
_cell_length_c 17.405385
_cell_angle_alpha 90.000000
_cell_angle_beta 90.000000
_cell_angle_gamma 90.000000
_cell_volume 3438.190580
_symmetry_space_group_name_H-M "I 21 21 21"
_symmetry_group_IT_number 24
_symmetry_cell_setting 'orthorhombic'
loop_
_space_group_symop_operation_xyz
x,y,z
-x,1/2-y,z
x,-y,1/2-z
1/2-x,y,-z
1/2+x,1/2+y,1/2+z
1/2-x,-y,1/2+z
1/2+x,1/2-y,-z
-x,1/2+y,1/2-z
loop_
_atom_site_type_symbol
_atom_site_label
_atom_site_fract_x
_atom_site_fract_y
_atom_site_fract_z
Si Si1 0.168213 0.444491 0.578959
Si Si2 0.671231 0.614349 0.782820
Si Si3 0.160446 0.087631 0.864855
Si Si4 0.139877 0.550137 0.686731
Si Si5 0.831922 0.450879 0.577236
Si Si6 0.664983 0.876913 0.790984
Si Si7 0.834417 0.252284 0.224483
Si Si8 0.661244 0.722568 0.424854
O O1 0.250000 0.438183 0.500000
O O2 0.188786 0.514507 0.609705
O O3 0.240022 0.395548 0.636216
O O4 0.998228 0.428504 0.569439
O O5 0.715931 0.584684 0.701121
O O6 0.764400 0.584863 0.850760
O O7 0.501683 0.601399 0.800320
O O8 0.700691 0.687626 0.775818
O O9 0.172749 0.147887 0.918720
O O10 0.000574 0.092985 0.826505
O O11 0.177463 0.025081 0.913776
O O12 0.091116 0.500000 0.750000
O O13 0.276360 0.590590 0.713656
O O14 0.750000 0.430870 0.500000
O O15 0.687622 0.804003 0.782844
O O16 0.729755 0.246818 0.151155
O O17 0.000000 0.250000 0.192648
O O18 0.500000 0.750000 0.433807
O O19 0.750000 0.743490 0.500000
#
# Coordination Sequence:
#
# PCOD8164942 Si02
#       8
#     8   8   8   8   8   8   8   8
#     4  10  21  36  53  77 109 140 175 220 269 319
#     4  10  20  34  57  81 105 138 177 221 267 320
#     4  10  20  36  55  78 107 142 180 218 265 318
#     4   9  18  33  53  78 108 139 175 217 263 318
#     4  11  22  36  54  78 110 140 175 221 270 320
#     4  10  19  35  57  80 106 139 179 219 265 319
#     4   9  20  38  57  79 106 139 180 221 262 318
#     4  11  22  36  55  79 110 145 181 221 267 314
#
# _framework density 18.614442
#
# number of rings (size 3 to 8) (size 9 to 14) (size 15 to 20)
#    0.000    2.000    0.000    4.875    0.000    5.000 
#    0.000   10.000    0.000    0.000    0.000    0.000 
#    0.000    0.000    0.000    0.000    0.000    0.000 
#
# Total GULP energy -396830.310827 kJ/mol
# GULP energy per Si atom -12400.947213 kJ/mol
# Density = 1.857207 g / cm^3
# Si number density = 18.614442 Si / 1000 Ang^3
#
#
#
# Elastic Constant Matrix: (Units=GPa)
#
#
# Indices 1 2 3 4 5 6 
#
# 1 142.6991 47.5039 67.1459 0.0000 0.0000 0.0000
# 2 47.5039 67.8115 37.1658 0.0000 0.0000 0.0000
# 3 67.1459 37.1658 92.4007 0.0000 0.0000 0.0000
# 4 0.0000 0.0000 0.0000 16.9561 0.0000 0.0000
# 5 0.0000 0.0000 0.0000 0.0000 36.2596 0.0000
# 6 0.0000 0.0000 0.0000 0.0000 0.0000 27.8905
#
#
#
# Elastic Compliance Matrix: (Units=1/GPa)
#
#
# Indices 1 2 3 4 5 6 
#
# 1 0.011634 -0.004511 -0.006640 0.000000 0.000000 0.000000
# 2 -0.004511 0.020666 -0.005035 0.000000 0.000000 0.000000
# 3 -0.006640 -0.005035 0.017672 0.000000 0.000000 0.000000
# 4 0.000000 0.000000 0.000000 0.058976 0.000000 0.000000
# 5 0.000000 0.000000 0.000000 0.000000 0.027579 0.000000
# 6 0.000000 0.000000 0.000000 0.000000 0.000000 0.035854
#
#
# Mechanical properties :
#
#
# Convention : Reuss Voigt Hill
#
# Bulk Modulus (GPa) = 56.81097 67.39362 62.10229
# Shear Modulus (GPa) = 23.73970 26.29430 25.01700
#
# Velocity S-wave (km/s) = 3.57506 3.76250 3.66998
# Velocity P-wave (km/s) = 6.90127 7.42690 7.16890
#
# Compressibility (1/GPa) = 0.01760223
#
# Stress axis : x y z
#
# Youngs Moduli (GPa) = 85.95843 48.38889 56.58576
#
# Poissons Ratio (x) = 0.21826 0.37571
# Poissons Ratio (y) = 0.38773 0.28488
# Poissons Ratio (z) = 0.57073 0.24361
#
# Static dielectric constant tensor:
#      x y z
#    x 3.561970 0.000000 0.000000 
#    y 0.000000 3.471930 0.000000 
#    z 0.000000 0.000000 3.355710 
# 
# 
# High freq. dielectric constant tensor:
#      x y z
#    x 1.736290 0.000000 0.000000 
#    y 0.000000 1.719140 0.000000 
#    z 0.000000 0.000000 1.715950 
# 
# From -- ./inp_files/29818.got.cif
#   From: 2010.03.12/outbox.cif.g09.slc.cpg/sg24_15_cif.got.tgz:29818.got - 2010.04.14 03:06:53.
