data_PCOD8164632
_publ_section_title
;
Structure prediction by ZEFSAII (Michael W. Deem and Ramdas Pophale) SiO2 
 PCOD8164632
Probable space group: I 21 21 21
;
_chemical_formula_sum "Si O2"
_cell_formula_units_Z 52
_cell_length_a 8.932555
_cell_length_b 22.877866
_cell_length_c 14.639132
_cell_angle_alpha 90.000000
_cell_angle_beta 90.000000
_cell_angle_gamma 90.000000
_cell_volume 2991.620756
_symmetry_space_group_name_H-M "I 21 21 21"
_symmetry_group_IT_number 24
_symmetry_cell_setting 'orthorhombic'
loop_
_space_group_symop_operation_xyz
x,y,z
-x,1/2-y,z
x,-y,1/2-z
1/2-x,y,-z
1/2+x,1/2+y,1/2+z
1/2-x,-y,1/2+z
1/2+x,1/2-y,-z
-x,1/2+y,1/2-z
loop_
_atom_site_type_symbol
_atom_site_label
_atom_site_fract_x
_atom_site_fract_y
_atom_site_fract_z
Si Si1 0.750000 0.387616 0.000000
Si Si2 0.539627 0.905967 0.763580
Si Si3 0.422867 0.008727 0.093484
Si Si4 0.731373 0.042628 0.145103
Si Si5 0.199886 0.000000 0.250000
Si Si6 0.989184 0.317414 0.108948
Si Si7 0.602580 0.941165 0.952740
Si Si8 0.750000 0.862202 0.500000
O O1 0.873445 0.430212 0.953424
O O2 0.668228 0.344743 0.926681
O O3 0.694771 0.941396 0.742602
O O4 0.398993 0.943447 0.729402
O O5 0.534744 0.846990 0.705552
O O6 0.541326 0.897433 0.873610
O O7 0.568080 0.015552 0.158192
O O8 0.293374 0.985374 0.159236
O O9 0.464863 0.957915 0.019919
O O10 0.847757 0.003167 0.088755
O O11 0.705466 0.100859 0.087815
O O12 0.000000 0.250000 0.134491
O O13 0.107699 0.323608 0.027074
O O14 0.750000 0.912152 0.000000
#
# Coordination Sequence:
#
# PCOD8164632 Si02
#       8
#     4   8   8   8   4   8   8   4
#     4  12  19  36  54  78 116 140 179 224 278 326
#     4  11  21  36  52  75 110 145 185 221 269 332
#     4  11  21  31  51  83 115 146 167 217 279 337
#     4  10  17  32  52  72 110 148 175 211 265 336
#     4  12  22  30  52  86 116 146 164 218 290 334
#     4  11  23  37  55  77 107 152 188 230 271 324
#     4  10  19  32  52  80 108 143 185 217 262 338
#     4  10  17  34  52  78 104 142 189 210 268 334
#
# _framework density 17.381882000000001
#
# number of rings (size 3 to 8) (size 9 to 14) (size 15 to 20)
#    0.000    1.231    6.923    2.308    4.308    0.000 
#    0.000    0.000    0.000    0.000    4.000    0.000 
#    0.000    0.000    0.000    0.000    0.000    0.000 
#
# Total GULP energy -322188.566020 kJ/mol
# GULP energy per Si atom -12391.867924 kJ/mol
# Density = 1.734232 g / cm^3
# Si number density = 17.381882 Si / 1000 Ang^3
#
#
#
# Elastic Constant Matrix: (Units=GPa)
#
#
# Indices 1 2 3 4 5 6 
#
# 1 85.2983 19.7430 44.1367 0.0000 0.0000 0.0000
# 2 19.7430 63.0662 31.8524 0.0000 0.0000 0.0000
# 3 44.1367 31.8524 109.4498 0.0001 -0.0001 0.0000
# 4 0.0000 0.0000 0.0001 19.2916 0.0000 0.0000
# 5 0.0000 0.0000 -0.0001 0.0000 36.4162 0.0000
# 6 0.0000 0.0000 0.0000 0.0000 0.0000 16.1038
#
#
#
# Elastic Compliance Matrix: (Units=1/GPa)
#
#
# Indices 1 2 3 4 5 6 
#
# 1 0.015012 -0.001925 -0.005493 0.000000 0.000000 0.000000
# 2 -0.001925 0.018835 -0.004705 0.000000 0.000000 0.000000
# 3 -0.005493 -0.004705 0.012721 0.000000 0.000000 0.000000
# 4 0.000000 0.000000 0.000000 0.051836 0.000000 0.000000
# 5 0.000000 0.000000 0.000000 0.000000 0.027460 0.000000
# 6 0.000000 0.000000 0.000000 0.000000 0.000000 0.062097
#
#
# Mechanical properties :
#
#
# Convention : Reuss Voigt Hill
#
# Bulk Modulus (GPa) = 44.80076 49.91983 47.36030
# Shear Modulus (GPa) = 22.76356 25.16779 23.96568
#
# Velocity S-wave (km/s) = 3.62279 3.80930 3.71721
# Velocity P-wave (km/s) = 6.58254 6.93754 6.76237
#
# Compressibility (1/GPa) = 0.02232105
#
# Stress axis : x y z
#
# Youngs Moduli (GPa) = 66.61524 53.09147 78.60882
#
# Poissons Ratio (x) = 0.10220 0.43183
# Poissons Ratio (y) = 0.12823 0.36988
# Poissons Ratio (z) = 0.36594 0.24981
#
# Static dielectric constant tensor:
#      x y z
#    x 3.512270 0.000000 0.000000 
#    y 0.000000 2.786570 0.000000 
#    z 0.000000 0.000000 3.458830 
# 
# 
# High freq. dielectric constant tensor:
#      x y z
#    x 1.686940 0.000000 0.000000 
#    y 0.000000 1.612800 0.000000 
#    z 0.000000 0.000000 1.678500 
# 
# From -- ./inp_files/25170.got.cif
#   From: 2010.03.12/outbox.cif.g09.slc.cpg/sg24_13_cif.got.tgz:25170.got - 2010.04.14 03:06:53.
