data_PCOD8164742
_publ_section_title
;
Structure prediction by ZEFSAII (Michael W. Deem and Ramdas Pophale) SiO2 
 PCOD8164742
Probable space group: I 21 21 21
;
_chemical_formula_sum "Si O2"
_cell_formula_units_Z 40
_cell_length_a 10.819649
_cell_length_b 14.465416
_cell_length_c 15.243240
_cell_angle_alpha 90.000000
_cell_angle_beta 90.000000
_cell_angle_gamma 90.000000
_cell_volume 2385.730525
_symmetry_space_group_name_H-M "I 21 21 21"
_symmetry_group_IT_number 24
_symmetry_cell_setting 'orthorhombic'
loop_
_space_group_symop_operation_xyz
x,y,z
-x,1/2-y,z
x,-y,1/2-z
1/2-x,y,-z
1/2+x,1/2+y,1/2+z
1/2-x,-y,1/2+z
1/2+x,1/2-y,-z
-x,1/2+y,1/2-z
loop_
_atom_site_type_symbol
_atom_site_label
_atom_site_fract_x
_atom_site_fract_y
_atom_site_fract_z
Si Si1 0.331854 0.976758 0.343397
Si Si2 0.011730 0.068791 0.012904
Si Si3 0.321141 0.200228 0.872314
Si Si4 0.000000 0.750000 0.228227
Si Si5 0.422447 0.058177 0.661946
Si Si6 0.750000 0.845013 0.500000
O O1 0.426031 0.969683 0.423789
O O2 0.263098 0.879003 0.331227
O O3 0.399023 0.000000 0.250000
O O4 0.225021 0.054294 0.360159
O O5 0.871264 0.093328 0.993750
O O6 0.085195 0.155747 0.055145
O O7 0.004490 0.986073 0.081614
O O8 0.383456 0.254829 0.792641
O O9 0.240075 0.279249 0.915874
O O10 0.019164 0.839946 0.168192
O O11 0.449354 0.000000 0.750000
#
# Coordination Sequence:
#
# PCOD8164742 Si02
#       6
#     8   8   8   4   8   4
#     4  10  19  35  55  80 115 146 183 230 278 332
#     4  11  21  34  54  81 119 147 182 232 289 327
#     4  11  18  31  55  89 111 135 186 239 283 327
#     4  12  18  32  60  90 108 140 190 236 288 332
#     4  10  18  34  56  85 115 141 183 236 278 333
#     4  12  20  32  56  84 114 142 184 242 288 330
#
# _framework density 16.766352000000001
#
# number of rings (size 3 to 8) (size 9 to 14) (size 15 to 20)
#    0.000    1.200   10.000    1.800    0.000    0.000 
#    0.000    3.000    4.400    2.400    0.000    0.000 
#    0.000    0.000    0.000    0.000    0.000    0.000 
#
# Total GULP energy -247827.020709 kJ/mol
# GULP energy per Si atom -12391.351035 kJ/mol
# Density = 1.672819 g / cm^3
# Si number density = 16.766352 Si / 1000 Ang^3
#
#
#
# Elastic Constant Matrix: (Units=GPa)
#
#
# Indices 1 2 3 4 5 6 
#
# 1 88.0324 52.5010 63.5944 0.0000 0.0000 0.0000
# 2 52.5010 102.1553 58.5262 0.0000 0.0000 0.0000
# 3 63.5944 58.5262 117.6242 0.0000 0.0000 0.0000
# 4 0.0000 0.0000 0.0000 27.1112 0.0000 0.0000
# 5 0.0000 0.0000 0.0000 0.0000 23.1313 0.0000
# 6 0.0000 0.0000 0.0000 0.0000 0.0000 11.4741
#
#
#
# Elastic Compliance Matrix: (Units=1/GPa)
#
#
# Indices 1 2 3 4 5 6 
#
# 1 0.020968 -0.005988 -0.008357 0.000000 0.000000 0.000000
# 2 -0.005988 0.015402 -0.004426 0.000000 0.000000 0.000000
# 3 -0.008357 -0.004426 0.015222 0.000000 0.000000 0.000000
# 4 0.000000 0.000000 0.000000 0.036885 0.000000 0.000000
# 5 0.000000 0.000000 0.000000 0.000000 0.043232 0.000000
# 6 0.000000 0.000000 0.000000 0.000000 0.000000 0.087153
#
#
# Mechanical properties :
#
#
# Convention : Reuss Voigt Hill
#
# Bulk Modulus (GPa) = 71.17530 73.00611 72.09070
# Shear Modulus (GPa) = 19.15068 21.22266 20.18667
#
# Velocity S-wave (km/s) = 3.38333 3.56165 3.47363
# Velocity P-wave (km/s) = 7.60302 7.78149 7.69277
#
# Compressibility (1/GPa) = 0.01404982
#
# Stress axis : x y z
#
# Youngs Moduli (GPa) = 47.69250 64.92489 65.69401
#
# Poissons Ratio (x) = 0.38879 0.54899
# Poissons Ratio (y) = 0.28560 0.29077
# Poissons Ratio (z) = 0.39855 0.28737
#
# Static dielectric constant tensor:
#      x y z
#    x 3.248200 0.000000 0.000000 
#    y 0.000000 3.190270 0.000000 
#    z 0.000000 0.000000 3.314770 
# 
# 
# High freq. dielectric constant tensor:
#      x y z
#    x 1.621840 0.000000 0.000000 
#    y 0.000000 1.633160 0.000000 
#    z 0.000000 0.000000 1.650240 
# 
# From -- ./inp_files/20641.got.cif
#   From: 2010.03.12/outbox.cif.g09.slc.cpg/sg24_11_cif.got.tgz:20641.got - 2010.04.14 03:06:53.
