data_PCOD8164411
_publ_section_title
;
Structure prediction by ZEFSAII (Michael W. Deem and Ramdas Pophale) SiO2 
 PCOD8164411
Probable space group: I 2 2 2
;
_chemical_formula_sum "Si O2"
_cell_formula_units_Z 40
_cell_length_a 4.899680
_cell_length_b 12.656033
_cell_length_c 29.090439
_cell_angle_alpha 90.000000
_cell_angle_beta 90.000000
_cell_angle_gamma 90.000000
_cell_volume 1803.913010
_symmetry_space_group_name_H-M "I 2 2 2"
_symmetry_group_IT_number 23
_symmetry_cell_setting 'orthorhombic'
loop_
_space_group_symop_operation_xyz
x,y,z
-x,-y,z
x,-y,-z
-x,y,-z
1/2+x,1/2+y,1/2+z
1/2-x,1/2-y,1/2+z
1/2+x,1/2-y,1/2-z
1/2-x,1/2+y,1/2-z
loop_
_atom_site_type_symbol
_atom_site_label
_atom_site_fract_x
_atom_site_fract_y
_atom_site_fract_z
Si Si1 0.983441 0.623166 0.551044
Si Si2 0.198723 0.397095 0.297077
Si Si3 0.941974 0.837978 0.284867
Si Si4 0.537149 0.677620 0.389270
Si Si5 0.058960 0.612756 0.840337
O O1 0.740076 0.640238 0.587217
O O2 0.000000 0.500000 0.545060
O O3 0.000000 0.674106 0.500000
O O4 0.246754 0.676047 0.571187
O O5 0.450884 0.395459 0.261130
O O6 0.356220 0.392922 0.346147
O O7 0.000000 0.500000 0.294943
O O8 0.022198 0.290403 0.285973
O O9 0.126022 0.880679 0.326500
O O10 0.629216 0.872607 0.294196
O O11 0.513042 0.799337 0.376688
O O12 0.000000 0.500000 0.863348
#
# Coordination Sequence:
#
# PCOD8164411 Si02
#       5
#     8   8   8   8   8
#     4  11  24  43  67  94 127 162 197 250 327 402
#     4  11  24  43  64  93 133 172 217 273 315 361
#     4  11  24  41  61  90 126 174 218 250 304 367
#     4  11  23  41  66  96 123 159 211 262 313 376
#     4  11  24  43  64  88 125 171 214 255 303 363
#
# _framework density 22.174019999999999
#
# number of rings (size 3 to 8) (size 9 to 14) (size 15 to 20)
#    0.000    1.000    0.000    7.800    0.000    6.400 
#    0.000   20.000    0.000    3.600    0.000    0.000 
#    0.000    0.000    0.000    0.000    0.000    0.000 
#
# Total GULP energy -247845.608040 kJ/mol
# GULP energy per Si atom -12392.280402 kJ/mol
# Density = 2.212355 g / cm^3
# Si number density = 22.174020 Si / 1000 Ang^3
#
#
#
# Elastic Constant Matrix: (Units=GPa)
#
#
# Indices 1 2 3 4 5 6 
#
# 1 117.2723 19.5179 60.5027 0.0000 0.0000 0.0000
# 2 19.5179 120.2214 30.4594 0.0000 0.0000 0.0000
# 3 60.5027 30.4594 171.5600 0.0000 0.0000 0.0000
# 4 0.0000 0.0000 0.0000 20.4026 0.0000 0.0000
# 5 0.0000 0.0000 0.0000 0.0000 27.3915 0.0000
# 6 0.0000 0.0000 0.0000 0.0000 0.0000 37.1468
#
#
#
# Elastic Compliance Matrix: (Units=1/GPa)
#
#
# Indices 1 2 3 4 5 6 
#
# 1 0.010497 -0.000802 -0.003559 0.000000 0.000000 0.000000
# 2 -0.000802 0.008771 -0.001274 0.000000 0.000000 0.000000
# 3 -0.003559 -0.001274 0.007310 0.000000 0.000000 0.000000
# 4 0.000000 0.000000 0.000000 0.049013 0.000000 0.000000
# 5 0.000000 0.000000 0.000000 0.000000 0.036508 0.000000
# 6 0.000000 0.000000 0.000000 0.000000 0.000000 0.026920
#
#
# Mechanical properties :
#
#
# Convention : Reuss Voigt Hill
#
# Bulk Modulus (GPa) = 65.33242 70.00153 67.66697
# Shear Modulus (GPa) = 32.17624 36.89310 34.53467
#
# Velocity S-wave (km/s) = 3.81343 4.08339 3.95072
# Velocity P-wave (km/s) = 6.99408 7.33961 7.16893
#
# Compressibility (1/GPa) = 0.01530634
#
# Stress axis : x y z
#
# Youngs Moduli (GPa) = 95.26454 114.01074 136.79151
#
# Poissons Ratio (x) = 0.09148 0.48690
# Poissons Ratio (y) = 0.07644 0.17431
# Poissons Ratio (z) = 0.33909 0.14528
#
# Static dielectric constant tensor:
#      x y z
#    x 4.312530 0.000000 0.000000 
#    y 0.000000 4.191980 0.000000 
#    z 0.000000 0.000000 4.229600 
# 
# 
# High freq. dielectric constant tensor:
#      x y z
#    x 1.896980 0.000000 0.000000 
#    y 0.000000 1.876090 0.000000 
#    z 0.000000 0.000000 1.855290 
# 
# From -- ./inp_files/28863.got.cif
#   From: 2010.03.12/outbox.cif.g09.slc.cpg/sg23_15_cif.got.tgz:28863.got - 2010.04.14 02:50:06.
