data_PCOD8164385
_publ_section_title
;
Structure prediction by ZEFSAII (Michael W. Deem and Ramdas Pophale) SiO2 
 PCOD8164385
Probable space group: I 2 2 2
;
_chemical_formula_sum "Si O2"
_cell_formula_units_Z 64
_cell_length_a 14.459479
_cell_length_b 17.263153
_cell_length_c 11.723848
_cell_angle_alpha 90.000000
_cell_angle_beta 90.000000
_cell_angle_gamma 90.000000
_cell_volume 2926.462367
_symmetry_space_group_name_H-M "I 2 2 2"
_symmetry_group_IT_number 23
_symmetry_cell_setting 'orthorhombic'
loop_
_space_group_symop_operation_xyz
x,y,z
-x,-y,z
x,-y,-z
-x,y,-z
1/2+x,1/2+y,1/2+z
1/2-x,1/2-y,1/2+z
1/2+x,1/2-y,1/2-z
1/2-x,1/2+y,1/2-z
loop_
_atom_site_type_symbol
_atom_site_label
_atom_site_fract_x
_atom_site_fract_y
_atom_site_fract_z
Si Si1 0.794291 0.925676 0.421380
Si Si2 0.579407 0.940440 0.737660
Si Si3 0.575668 0.191487 0.095686
Si Si4 0.473077 0.354895 0.867637
Si Si5 0.352571 0.616768 0.709595
Si Si6 0.776137 0.830430 0.014560
Si Si7 0.288976 0.831832 0.388993
Si Si8 0.257222 0.033004 0.191381
O O1 0.893494 0.919173 0.359304
O O2 0.769709 0.852484 0.498690
O O3 0.791166 0.000000 0.500000
O O4 0.723075 0.930043 0.316532
O O5 0.539764 0.873582 0.817654
O O6 0.627792 0.894524 0.630300
O O7 0.648790 0.984573 0.825563
O O8 0.500000 0.000000 0.693789
O O9 0.569995 0.271820 0.165756
O O10 0.677604 0.182871 0.044476
O O11 0.500000 0.192458 0.000000
O O12 0.551918 0.375600 0.777182
O O13 0.500000 0.354416 0.000000
O O14 0.353808 0.652252 0.581866
O O15 0.274348 0.664647 0.777342
O O16 0.328748 0.526140 0.700510
O O17 0.763734 0.094767 0.905513
O O18 0.815085 0.758145 0.089185
#
# Coordination Sequence:
#
# PCOD8164385 Si02
#       8
#     8   8   8   8   8   8   8   8
#     4  12  22  43  70 101 135 182 239 296 360 436
#     4  11  24  44  68 104 147 189 242 298 352 448
#     4  11  22  40  70 107 138 178 243 302 358 419
#     4  11  22  41  69 105 134 169 234 307 355 416
#     4  11  23  44  67 106 146 178 243 302 368 442
#     4  12  24  42  75 103 147 195 234 305 373 447
#     4  11  23  44  68 103 138 189 237 292 361 431
#     4  11  25  41  72 104 140 192 238 291 377 440
#
# _framework density 21.869409999999998
#
# number of rings (size 3 to 8) (size 9 to 14) (size 15 to 20)
#    0.000    0.750    7.500    1.875    3.500    3.000 
#    0.000    1.875    0.000    1.500    0.000    0.000 
#    0.000    0.000    0.000    0.000    0.000    0.000 
#
# Total GULP energy -396542.855670 kJ/mol
# GULP energy per Si atom -12391.964240 kJ/mol
# Density = 2.181963 g / cm^3
# Si number density = 21.869410 Si / 1000 Ang^3
#
#
#
# Elastic Constant Matrix: (Units=GPa)
#
#
# Indices 1 2 3 4 5 6 
#
# 1 77.6746 21.7788 37.4295 0.0000 0.0000 0.0000
# 2 21.7788 89.4804 47.3514 0.0000 0.0000 0.0000
# 3 37.4295 47.3514 113.5574 0.0000 0.0000 0.0000
# 4 0.0000 0.0000 0.0000 35.5159 0.0000 0.0000
# 5 0.0000 0.0000 0.0000 0.0000 27.6104 0.0000
# 6 0.0000 0.0000 0.0000 0.0000 0.0000 34.6238
#
#
#
# Elastic Compliance Matrix: (Units=1/GPa)
#
#
# Indices 1 2 3 4 5 6 
#
# 1 0.015434 -0.001366 -0.004518 0.000000 0.000000 0.000000
# 2 -0.001366 0.014461 -0.005580 0.000000 0.000000 0.000000
# 3 -0.004518 -0.005580 0.012622 0.000000 0.000000 0.000000
# 4 0.000000 0.000000 0.000000 0.028156 0.000000 0.000000
# 5 0.000000 0.000000 0.000000 0.000000 0.036218 0.000000
# 6 0.000000 0.000000 0.000000 0.000000 0.000000 0.028882
#
#
# Mechanical properties :
#
#
# Convention : Reuss Voigt Hill
#
# Bulk Modulus (GPa) = 51.04580 54.87021 52.95800
# Shear Modulus (GPa) = 30.26090 31.16020 30.71055
#
# Velocity S-wave (km/s) = 3.72386 3.77879 3.75142
# Velocity P-wave (km/s) = 6.47158 6.64706 6.55991
#
# Compressibility (1/GPa) = 0.01959025
#
# Stress axis : x y z
#
# Youngs Moduli (GPa) = 64.79138 69.15278 79.22796
#
# Poissons Ratio (x) = 0.09445 0.35793
# Poissons Ratio (y) = 0.08850 0.44207
# Poissons Ratio (z) = 0.29271 0.38585
#
# Static dielectric constant tensor:
#      x y z
#    x 3.915770 0.000000 0.000000 
#    y 0.000000 4.822900 0.000000 
#    z 0.000000 0.000000 3.972550 
# 
# 
# High freq. dielectric constant tensor:
#      x y z
#    x 1.836290 0.000000 0.000000 
#    y 0.000000 1.878970 0.000000 
#    z 0.000000 0.000000 1.859250 
# 
# From -- ./inp_files/16984.got.cif
#   From: 2010.03.12/outbox.cif.g09.slc.cpg/sg23_9_cif.got.tgz:16984.got - 2010.04.14 02:50:06.
