data_PCOD8164239
_publ_section_title
;
Structure prediction by ZEFSAII (Michael W. Deem and Ramdas Pophale) SiO2 
 PCOD8164239
Probable space group: I 2 2 2
;
_chemical_formula_sum "Si O2"
_cell_formula_units_Z 34
_cell_length_a 11.538286
_cell_length_b 7.197984
_cell_length_c 18.608507
_cell_angle_alpha 90.000000
_cell_angle_beta 90.000000
_cell_angle_gamma 90.000000
_cell_volume 1545.481130
_symmetry_space_group_name_H-M "I 2 2 2"
_symmetry_group_IT_number 23
_symmetry_cell_setting 'orthorhombic'
loop_
_space_group_symop_operation_xyz
x,y,z
-x,-y,z
x,-y,-z
-x,y,-z
1/2+x,1/2+y,1/2+z
1/2-x,1/2-y,1/2+z
1/2+x,1/2-y,1/2-z
1/2-x,1/2+y,1/2-z
loop_
_atom_site_type_symbol
_atom_site_label
_atom_site_fract_x
_atom_site_fract_y
_atom_site_fract_z
Si Si1 0.528414 0.296152 0.605000
Si Si2 0.785731 0.269289 0.828558
Si Si3 0.765224 0.643064 0.333088
Si Si4 0.500000 0.000000 0.500000
Si Si5 0.365386 0.543806 0.081264
O O1 0.500000 0.500000 0.571783
O O2 0.411726 0.210256 0.636696
O O3 0.627747 0.311625 0.664634
O O4 0.576868 0.145871 0.546743
O O5 0.809036 0.293860 0.744297
O O6 0.704627 0.427097 0.860217
O O7 0.720816 0.076397 0.845213
O O8 0.838712 0.742371 0.396719
O O9 0.500000 0.500000 0.089800
O O10 0.324244 0.500000 0.000000
#
# Coordination Sequence:
#
# PCOD8164239 Si02
#       5
#     8   8   8   2   8
#     4  10  25  41  65 104 139 170 223 279 344 402
#     4  11  24  43  71 102 137 179 226 284 339 405
#     4  11  24  43  71 102 137 179 226 284 339 405
#     4  12  22  40  68  98 142 176 212 276 348 416
#     4  11  27  48  69  99 140 184 231 281 340 409
#
# _framework density 21.999621999999999
#
# number of rings (size 3 to 8) (size 9 to 14) (size 15 to 20)
#    0.000    1.176    2.353    1.765    9.882    1.882 
#    0.000    2.353    0.000    0.000    0.000    0.000 
#    0.000    0.000    0.000    0.000    0.000    0.000 
#
# Total GULP energy -210768.575838 kJ/mol
# GULP energy per Si atom -12398.151520 kJ/mol
# Density = 2.194955 g / cm^3
# Si number density = 21.999622 Si / 1000 Ang^3
#
#
#
# Elastic Constant Matrix: (Units=GPa)
#
#
# Indices 1 2 3 4 5 6 
#
# 1 71.1089 17.1343 14.3907 0.0000 0.0000 0.0000
# 2 17.1343 95.1365 21.1805 0.0000 0.0000 0.0000
# 3 14.3907 21.1805 109.1912 0.0000 0.0000 0.0000
# 4 0.0000 0.0000 0.0000 35.3092 0.0000 0.0000
# 5 0.0000 0.0000 0.0000 0.0000 18.6935 0.0000
# 6 0.0000 0.0000 0.0000 0.0000 0.0000 23.1411
#
#
#
# Elastic Compliance Matrix: (Units=1/GPa)
#
#
# Indices 1 2 3 4 5 6 
#
# 1 0.014936 -0.002353 -0.001512 0.000000 0.000000 0.000000
# 2 -0.002353 0.011356 -0.001893 0.000000 0.000000 0.000000
# 3 -0.001512 -0.001893 0.009725 0.000000 0.000000 0.000000
# 4 0.000000 0.000000 0.000000 0.028321 0.000000 0.000000
# 5 0.000000 0.000000 0.000000 0.000000 0.053495 0.000000
# 6 0.000000 0.000000 0.000000 0.000000 0.000000 0.043213
#
#
# Mechanical properties :
#
#
# Convention : Reuss Voigt Hill
#
# Bulk Modulus (GPa) = 40.81475 42.31639 41.56557
# Shear Modulus (GPa) = 27.66572 30.27751 28.97161
#
# Velocity S-wave (km/s) = 3.55005 3.71384 3.63287
# Velocity P-wave (km/s) = 5.94950 6.13734 6.04415
#
# Compressibility (1/GPa) = 0.02450095
#
# Stress axis : x y z
#
# Youngs Moduli (GPa) = 66.95233 88.05570 102.83137
#
# Poissons Ratio (x) = 0.20723 0.15548
# Poissons Ratio (y) = 0.15757 0.19463
# Poissons Ratio (z) = 0.10123 0.16666
#
# Static dielectric constant tensor:
#      x y z
#    x 3.861310 0.000000 0.000000 
#    y 0.000000 4.337960 0.000000 
#    z 0.000000 0.000000 3.975600 
# 
# 
# High freq. dielectric constant tensor:
#      x y z
#    x 1.854320 0.000000 0.000000 
#    y 0.000000 1.888600 0.000000 
#    z 0.000000 0.000000 1.863330 
# 
# From -- ./inp_files/24135.got.cif
#   From: 2010.03.12/outbox.cif.g09.slc.cpg/sg23_13_cif.got.tgz:24135.got - 2010.04.14 02:50:06.
