data_PCOD8164852
_publ_section_title
;
Structure prediction by ZEFSAII (Michael W. Deem and Ramdas Pophale) SiO2 
 PCOD8164852
Probable space group: I 21 21 21
;
_chemical_formula_sum "Si O2"
_cell_formula_units_Z 64
_cell_length_a 22.306018
_cell_length_b 17.699310
_cell_length_c 8.826485
_cell_angle_alpha 90.000000
_cell_angle_beta 90.000000
_cell_angle_gamma 90.000000
_cell_volume 3484.706229
_symmetry_space_group_name_H-M "I 21 21 21"
_symmetry_group_IT_number 24
_symmetry_cell_setting 'orthorhombic'
loop_
_space_group_symop_operation_xyz
x,y,z
-x,1/2-y,z
x,-y,1/2-z
1/2-x,y,-z
1/2+x,1/2+y,1/2+z
1/2-x,-y,1/2+z
1/2+x,1/2-y,-z
-x,1/2+y,1/2-z
loop_
_atom_site_type_symbol
_atom_site_label
_atom_site_fract_x
_atom_site_fract_y
_atom_site_fract_z
Si Si1 0.874702 0.715945 0.314932
Si Si2 0.858981 0.709844 0.673802
Si Si3 0.457429 0.076689 0.823454
Si Si4 0.042643 0.683907 0.652747
Si Si5 0.085248 0.375759 0.150308
Si Si6 0.257751 0.267212 0.677741
Si Si7 0.943444 0.418993 0.819353
Si Si8 0.218465 0.424674 0.163323
O O1 0.856529 0.718232 0.492033
O O2 0.916145 0.645836 0.266513
O O3 0.908423 0.793562 0.273282
O O4 0.814997 0.715252 0.213883
O O5 0.904396 0.773732 0.743978
O O6 0.795580 0.719654 0.749311
O O7 0.882658 0.626503 0.716188
O O8 0.527031 0.086007 0.771369
O O9 0.432011 0.000000 0.750000
O O10 0.453439 0.072840 0.002968
O O11 0.072725 0.632414 0.526773
O O12 0.000000 0.750000 0.578685
O O13 0.000235 0.627965 0.751629
O O14 0.145881 0.425035 0.160548
O O15 0.250000 0.276253 0.500000
O O16 0.259509 0.350395 0.749330
O O17 0.937598 0.500000 0.750000
O O18 0.239931 0.500000 0.250000
O O19 0.250000 0.424349 0.000000
#
# Coordination Sequence:
#
# PCOD8164852 Si02
#       8
#     8   8   8   8   8   8   8   8
#     4   9  18  34  56  76  99 137 178 214 259 317
#     4   9  17  34  56  74  99 138 179 213 255 315
#     4  10  19  32  52  78 107 134 169 217 267 317
#     4   8  14  28  52  77 100 132 175 213 253 312
#     4   9  16  31  54  77 101 135 178 216 256 308
#     4  11  22  36  55  79 104 133 175 221 265 314
#     4   9  18  32  51  77 106 136 169 213 265 315
#     4  11  22  37  55  78 111 147 180 215 257 306
#
# _framework density 18.365967000000001
#
# number of rings (size 3 to 8) (size 9 to 14) (size 15 to 20)
#    0.000    2.500    0.000    6.000    0.000    1.000 
#    0.000   11.250    0.000    4.500    0.000    0.000 
#    0.000    0.000    0.000    0.000    0.000    0.000 
#
# Total GULP energy -396536.271076 kJ/mol
# GULP energy per Si atom -12391.758471 kJ/mol
# Density = 1.832416 g / cm^3
# Si number density = 18.365967 Si / 1000 Ang^3
#
#
#
# Elastic Constant Matrix: (Units=GPa)
#
#
# Indices 1 2 3 4 5 6 
#
# 1 131.2439 65.9823 45.5354 0.0000 0.0000 0.0000
# 2 65.9823 129.8808 38.5446 0.0000 0.0000 0.0000
# 3 45.5354 38.5446 59.9812 0.0000 0.0000 0.0000
# 4 0.0000 0.0000 0.0000 31.2700 0.0000 0.0000
# 5 0.0000 0.0000 0.0000 0.0000 12.2238 0.0000
# 6 0.0000 0.0000 0.0000 0.0000 0.0000 22.2213
#
#
#
# Elastic Compliance Matrix: (Units=1/GPa)
#
#
# Indices 1 2 3 4 5 6 
#
# 1 0.011927 -0.004167 -0.006377 0.000000 0.000000 0.000000
# 2 -0.004167 0.010969 -0.003886 0.000000 0.000000 0.000000
# 3 -0.006377 -0.003886 0.024010 0.000000 0.000000 0.000000
# 4 0.000000 0.000000 0.000000 0.031980 0.000000 0.000000
# 5 0.000000 0.000000 0.000000 0.000000 0.081807 0.000000
# 6 0.000000 0.000000 0.000000 0.000000 0.000000 0.045002
#
#
# Mechanical properties :
#
#
# Convention : Reuss Voigt Hill
#
# Bulk Modulus (GPa) = 55.40939 69.02562 62.21750
# Shear Modulus (GPa) = 20.78408 24.54592 22.66500
#
# Velocity S-wave (km/s) = 3.36767 3.65977 3.51675
# Velocity P-wave (km/s) = 6.73474 7.45141 7.10212
#
# Compressibility (1/GPa) = 0.01804748
#
# Stress axis : x y z
#
# Youngs Moduli (GPa) = 83.84677 91.16377 41.64936
#
# Poissons Ratio (x) = 0.37984 0.26559
# Poissons Ratio (y) = 0.34935 0.16185
# Poissons Ratio (z) = 0.53467 0.35425
#
# Static dielectric constant tensor:
#      x y z
#    x 3.626130 0.000000 0.000000 
#    y 0.000000 3.557980 0.000000 
#    z 0.000000 0.000000 3.050630 
# 
# 
# High freq. dielectric constant tensor:
#      x y z
#    x 1.722810 0.000000 0.000000 
#    y 0.000000 1.715430 0.000000 
#    z 0.000000 0.000000 1.670670 
# 
# From -- ./inp_files/15421.got.cif
#   From: 2010.03.12/outbox.cif.g09.slc.cpg/sg24_8_cif.got.tgz:15421.got - 2010.04.14 03:06:53.
