data_PCOD8164963
_publ_section_title
;
Structure prediction by ZEFSAII (Michael W. Deem and Ramdas Pophale) SiO2 
 PCOD8164963
Probable space group: I 21 21 21
;
_chemical_formula_sum "Si O2"
_cell_formula_units_Z 64
_cell_length_a 8.529922
_cell_length_b 21.901095
_cell_length_c 17.566291
_cell_angle_alpha 90.000000
_cell_angle_beta 90.000000
_cell_angle_gamma 90.000000
_cell_volume 3281.640190
_symmetry_space_group_name_H-M "I 21 21 21"
_symmetry_group_IT_number 24
_symmetry_cell_setting 'orthorhombic'
loop_
_space_group_symop_operation_xyz
x,y,z
-x,1/2-y,z
x,-y,1/2-z
1/2-x,y,-z
1/2+x,1/2+y,1/2+z
1/2-x,-y,1/2+z
1/2+x,1/2-y,-z
-x,1/2+y,1/2-z
loop_
_atom_site_type_symbol
_atom_site_label
_atom_site_fract_x
_atom_site_fract_y
_atom_site_fract_z
Si Si1 0.777401 0.100486 0.804018
Si Si2 0.844834 0.989100 0.427625
Si Si3 0.843436 0.574512 0.423941
Si Si4 0.618138 0.565393 0.284328
Si Si5 0.815152 0.755435 0.082767
Si Si6 0.333425 0.846279 0.804350
Si Si7 0.489178 0.682783 0.653114
Si Si8 0.155345 0.386031 0.360935
O O1 0.709867 0.043455 0.850482
O O2 0.692250 0.162546 0.833481
O O3 0.736038 0.091489 0.716209
O O4 0.965219 0.102454 0.813084
O O5 0.750000 0.962963 0.500000
O O6 0.029939 0.978396 0.438539
O O7 0.812972 0.061294 0.422350
O O8 0.750000 0.586117 0.500000
O O9 0.732147 0.554080 0.355172
O O10 0.931062 0.637440 0.406017
O O11 0.568829 0.500000 0.250000
O O12 0.701972 0.605227 0.219351
O O13 0.751162 0.706040 0.143979
O O14 0.765865 0.823306 0.109334
O O15 0.000000 0.750000 0.080509
O O16 0.750000 0.739763 0.000000
O O17 0.415281 0.814940 0.731942
O O18 0.468026 0.880769 0.851530
O O19 0.500000 0.750000 0.616971
#
# Coordination Sequence:
#
# PCOD8164963 Si02
#       8
#     8   8   8   8   8   8   8   8
#     4  10  21  35  58  84 110 140 184 238 279 333
#     4  11  21  35  56  80 110 147 188 233 289 344
#     4  10  22  38  55  80 116 148 180 234 295 347
#     4  11  21  36  57  85 116 147 188 233 282 345
#     4  10  21  37  55  79 114 147 185 232 277 330
#     4   9  19  35  56  79 111 151 186 227 284 335
#     4   9  18  38  62  80 105 146 189 230 282 343
#     4  10  19  36  57  79 106 148 193 231 279 337
#
# _framework density 19.502443
#
# number of rings (size 3 to 8) (size 9 to 14) (size 15 to 20)
#    0.000    2.000    0.000    5.625    0.000    1.000 
#    0.000   16.875    0.000    0.000    0.000    0.000 
#    0.000    0.000    0.000    0.000    0.000    0.000 
#
# Total GULP energy -396839.349043 kJ/mol
# GULP energy per Si atom -12401.229658 kJ/mol
# Density = 1.945805 g / cm^3
# Si number density = 19.502443 Si / 1000 Ang^3
#
#
#
# Elastic Constant Matrix: (Units=GPa)
#
#
# Indices 1 2 3 4 5 6 
#
# 1 105.6811 35.1151 32.8623 0.0000 0.0000 0.0000
# 2 35.1151 112.2979 41.8096 0.0000 0.0000 0.0000
# 3 32.8623 41.8096 110.4700 0.0000 0.0000 0.0000
# 4 0.0000 0.0000 0.0000 22.4238 0.0000 0.0000
# 5 0.0000 0.0000 0.0000 0.0000 32.4151 0.0000
# 6 0.0000 0.0000 0.0000 0.0000 0.0000 16.6236
#
#
#
# Elastic Compliance Matrix: (Units=1/GPa)
#
#
# Indices 1 2 3 4 5 6 
#
# 1 0.011041 -0.002595 -0.002302 0.000000 0.000000 0.000000
# 2 -0.002595 0.010976 -0.003382 0.000000 0.000000 0.000000
# 3 -0.002302 -0.003382 0.011017 0.000000 0.000000 0.000000
# 4 0.000000 0.000000 0.000000 0.044595 0.000000 0.000000
# 5 0.000000 0.000000 0.000000 0.000000 0.030850 0.000000
# 6 0.000000 0.000000 0.000000 0.000000 0.000000 0.060155
#
#
# Mechanical properties :
#
#
# Convention : Reuss Voigt Hill
#
# Bulk Modulus (GPa) = 60.69931 60.89145 60.79538
# Shear Modulus (GPa) = 26.22140 28.86997 27.54569
#
# Velocity S-wave (km/s) = 3.67075 3.85167 3.76230
# Velocity P-wave (km/s) = 7.01123 7.14638 7.07913
#
# Compressibility (1/GPa) = 0.01647465
#
# Stress axis : x y z
#
# Youngs Moduli (GPa) = 90.57464 91.11190 90.76882
#
# Poissons Ratio (x) = 0.23646 0.20896
# Poissons Ratio (y) = 0.23506 0.30697
# Poissons Ratio (z) = 0.20851 0.30813
#
# Static dielectric constant tensor:
#      x y z
#    x 3.539840 0.000000 0.000000 
#    y 0.000000 3.558850 0.000000 
#    z 0.000000 0.000000 3.893170 
# 
# 
# High freq. dielectric constant tensor:
#      x y z
#    x 1.751900 0.000000 0.000000 
#    y 0.000000 1.758690 0.000000 
#    z 0.000000 0.000000 1.756840 
# 
# From -- ./inp_files/29795.got.cif
#   From: 2010.03.12/outbox.cif.g09.slc.cpg/sg24_15_cif.got.tgz:29795.got - 2010.04.14 03:06:53.
