data_PCOD8164154
_publ_section_title
;
Structure prediction by ZEFSAII (Michael W. Deem and Ramdas Pophale) SiO2 
 PCOD8164154
Probable space group: I 2 2 2
;
_chemical_formula_sum "Si O2"
_cell_formula_units_Z 46
_cell_length_a 8.451434
_cell_length_b 10.763697
_cell_length_c 23.121926
_cell_angle_alpha 90.000000
_cell_angle_beta 90.000000
_cell_angle_gamma 90.000000
_cell_volume 2103.370967
_symmetry_space_group_name_H-M "I 2 2 2"
_symmetry_group_IT_number 23
_symmetry_cell_setting 'orthorhombic'
loop_
_space_group_symop_operation_xyz
x,y,z
-x,-y,z
x,-y,-z
-x,y,-z
1/2+x,1/2+y,1/2+z
1/2-x,1/2-y,1/2+z
1/2+x,1/2-y,1/2-z
1/2-x,1/2+y,1/2-z
loop_
_atom_site_type_symbol
_atom_site_label
_atom_site_fract_x
_atom_site_fract_y
_atom_site_fract_z
Si Si1 0.793591 0.814487 0.677485
Si Si2 0.452781 0.722209 0.705734
Si Si3 0.235512 0.661725 0.431010
Si Si4 0.667702 0.062841 0.631421
Si Si5 0.000000 0.500000 0.500000
Si Si6 0.000000 0.000000 0.126608
Si Si7 0.185928 0.863713 0.515944
O O1 0.634674 0.758052 0.703235
O O2 0.922864 0.807892 0.727459
O O3 0.843598 0.728959 0.623833
O O4 0.781324 0.955316 0.655118
O O5 0.355629 0.840730 0.683502
O O6 0.411929 0.600861 0.667079
O O7 0.099132 0.581643 0.457331
O O8 0.381406 0.573734 0.415157
O O9 0.288191 0.765332 0.478421
O O10 0.761420 0.143996 0.582938
O O11 0.500000 0.000000 0.611102
O O12 0.000000 0.843567 0.500000
O O13 0.243082 0.000000 0.500000
#
# Coordination Sequence:
#
# PCOD8164154 Si02
#       7
#     8   8   8   8   2   4   8
#     4  10  23  46  69  99 133 174 231 281 341 409
#     4  10  24  44  70 100 132 179 221 280 346 409
#     4  11  25  48  66 103 136 183 232 279 349 412
#     4  10  23  45  68 100 137 179 228 285 346 406
#     4  12  28  46  66  96 144 186 224 278 346 418
#     4  10  26  47  66 100 142 179 230 274 344 426
#     4  11  23  44  69 102 138 173 230 291 343 399
#
# _framework density 21.869657
#
# number of rings (size 3 to 8) (size 9 to 14) (size 15 to 20)
#    0.000    1.565    2.609    0.000    7.304    3.478 
#    7.826    0.000    0.000    0.000    0.000    0.000 
#    0.000    0.000    0.000    0.000    0.000    0.000 
#
# Total GULP energy -285129.106643 kJ/mol
# GULP energy per Si atom -12396.917680 kJ/mol
# Density = 2.181988 g / cm^3
# Si number density = 21.869657 Si / 1000 Ang^3
#
#
#
# Elastic Constant Matrix: (Units=GPa)
#
#
# Indices 1 2 3 4 5 6 
#
# 1 54.1947 46.0720 61.7940 0.0000 0.0000 0.0000
# 2 46.0720 164.7681 81.8226 0.0000 0.0000 0.0000
# 3 61.7940 81.8226 173.8084 0.0000 0.0000 0.0000
# 4 0.0000 0.0000 0.0000 37.4723 0.0000 0.0000
# 5 0.0000 0.0000 0.0000 0.0000 41.2236 0.0000
# 6 0.0000 0.0000 0.0000 0.0000 0.0000 11.1672
#
#
#
# Elastic Compliance Matrix: (Units=1/GPa)
#
#
# Indices 1 2 3 4 5 6 
#
# 1 0.033399 -0.004492 -0.009759 0.000000 0.000000 0.000000
# 2 -0.004492 0.008525 -0.002416 0.000000 0.000000 0.000000
# 3 -0.009759 -0.002416 0.010361 0.000000 0.000000 0.000000
# 4 0.000000 0.000000 0.000000 0.026686 0.000000 0.000000
# 5 0.000000 0.000000 0.000000 0.000000 0.024258 0.000000
# 6 0.000000 0.000000 0.000000 0.000000 0.000000 0.089548
#
#
# Mechanical properties :
#
#
# Convention : Reuss Voigt Hill
#
# Bulk Modulus (GPa) = 52.77390 85.79427 69.28409
# Shear Modulus (GPa) = 21.51190 31.51146 26.51168
#
# Velocity S-wave (km/s) = 3.13971 3.80001 3.48553
# Velocity P-wave (km/s) = 6.10960 7.65300 6.92443
#
# Compressibility (1/GPa) = 0.01894876
#
# Stress axis : x y z
#
# Youngs Moduli (GPa) = 29.94094 117.30017 96.51896
#
# Poissons Ratio (x) = 0.52697 0.94197
# Poissons Ratio (y) = 0.13451 0.23320
# Poissons Ratio (z) = 0.29221 0.28341
#
# Static dielectric constant tensor:
#      x y z
#    x 3.747490 0.000000 0.000000 
#    y 0.000000 4.292560 0.000000 
#    z 0.000000 0.000000 4.139880 
# 
# 
# High freq. dielectric constant tensor:
#      x y z
#    x 1.838560 0.000000 0.000000 
#    y 0.000000 1.882630 0.000000 
#    z 0.000000 0.000000 1.868320 
# 
# From -- ./inp_files/27998.got.cif
#   From: 2010.03.12/outbox.cif.g09.slc.cpg/sg23_14_cif.got.tgz:27998.got - 2010.04.14 02:50:06.
