data_PCOD8164264
_publ_section_title
;
Structure prediction by ZEFSAII (Michael W. Deem and Ramdas Pophale) SiO2 
 PCOD8164264
Probable space group: I 2 2 2
;
_chemical_formula_sum "Si O2"
_cell_formula_units_Z 40
_cell_length_a 8.152382
_cell_length_b 10.629561
_cell_length_c 19.195594
_cell_angle_alpha 90.000000
_cell_angle_beta 90.000000
_cell_angle_gamma 90.000000
_cell_volume 1663.418034
_symmetry_space_group_name_H-M "I 2 2 2"
_symmetry_group_IT_number 23
_symmetry_cell_setting 'orthorhombic'
loop_
_space_group_symop_operation_xyz
x,y,z
-x,-y,z
x,-y,-z
-x,y,-z
1/2+x,1/2+y,1/2+z
1/2-x,1/2-y,1/2+z
1/2+x,1/2-y,1/2-z
1/2-x,1/2+y,1/2-z
loop_
_atom_site_type_symbol
_atom_site_label
_atom_site_fract_x
_atom_site_fract_y
_atom_site_fract_z
Si Si1 0.818196 0.770925 0.122267
Si Si2 0.316252 0.766349 0.026619
Si Si3 0.884309 0.606216 0.878604
Si Si4 0.687215 0.963833 0.852683
Si Si5 0.822540 0.061553 0.287693
O O1 0.683654 0.677043 0.157157
O O2 0.002628 0.726448 0.140976
O O3 0.797806 0.911273 0.149403
O O4 0.801790 0.776542 0.039173
O O5 0.262406 0.643089 0.069318
O O6 0.295609 0.888973 0.075148
O O7 0.500000 0.751302 0.000000
O O8 0.804566 0.548384 0.809342
O O9 0.000000 0.500000 0.914541
O O10 0.757455 0.885300 0.786831
O O11 0.500000 0.000000 0.841857
O O12 0.000000 0.000000 0.284861
#
# Coordination Sequence:
#
# PCOD8164264 Si02
#       5
#     8   8   8   8   8
#     4  11  25  46  76 108 154 202 250 320 379 458
#     4  12  25  46  78 112 154 203 252 316 383 462
#     4  10  25  50  76 112 153 201 257 316 387 454
#     4  12  27  46  77 109 159 198 257 314 386 464
#     4  11  27  47  77 114 150 205 257 321 390 456
#
# _framework density 24.046873000000001
#
# number of rings (size 3 to 8) (size 9 to 14) (size 15 to 20)
#    0.000    0.800    2.000    4.200    5.600    5.600 
#    0.000    7.000    0.000    0.000    0.000    0.000 
#    0.000    0.000    0.000    0.000    0.000    0.000 
#
# Total GULP energy -248024.488710 kJ/mol
# GULP energy per Si atom -12401.224436 kJ/mol
# Density = 2.399214 g / cm^3
# Si number density = 24.046873 Si / 1000 Ang^3
#
#
#
# Elastic Constant Matrix: (Units=GPa)
#
#
# Indices 1 2 3 4 5 6 
#
# 1 121.1268 60.6250 50.0233 0.0000 0.0000 0.0000
# 2 60.6250 111.8751 45.1957 0.0000 0.0000 0.0000
# 3 50.0233 45.1957 145.5926 0.0000 0.0000 0.0000
# 4 0.0000 0.0000 0.0000 41.5910 0.0000 0.0000
# 5 0.0000 0.0000 0.0000 0.0000 42.6175 0.0000
# 6 0.0000 0.0000 0.0000 0.0000 0.0000 32.8690
#
#
#
# Elastic Compliance Matrix: (Units=1/GPa)
#
#
# Indices 1 2 3 4 5 6 
#
# 1 0.012026 -0.005543 -0.002411 0.000000 0.000000 0.000000
# 2 -0.005543 0.012775 -0.002061 0.000000 0.000000 0.000000
# 3 -0.002411 -0.002061 0.008337 0.000000 0.000000 0.000000
# 4 0.000000 0.000000 0.000000 0.024044 0.000000 0.000000
# 5 0.000000 0.000000 0.000000 0.000000 0.023465 0.000000
# 6 0.000000 0.000000 0.000000 0.000000 0.000000 0.030424
#
#
# Mechanical properties :
#
#
# Convention : Reuss Voigt Hill
#
# Bulk Modulus (GPa) = 76.29494 76.69806 76.49650
# Shear Modulus (GPa) = 36.90886 38.26552 37.58719
#
# Velocity S-wave (km/s) = 3.92199 3.99342 3.95787
# Velocity P-wave (km/s) = 7.23228 7.29573 7.26408
#
# Compressibility (1/GPa) = 0.01310703
#
# Stress axis : x y z
#
# Youngs Moduli (GPa) = 83.15479 78.27905 119.94961
#
# Poissons Ratio (x) = 0.43387 0.28923
# Poissons Ratio (y) = 0.46090 0.24725
# Poissons Ratio (z) = 0.20051 0.16135
#
# Static dielectric constant tensor:
#      x y z
#    x 4.484120 0.000000 0.000000 
#    y 0.000000 4.542470 0.000000 
#    z 0.000000 0.000000 4.514080 
# 
# 
# High freq. dielectric constant tensor:
#      x y z
#    x 1.964770 0.000000 0.000000 
#    y 0.000000 1.951660 0.000000 
#    z 0.000000 0.000000 1.961830 
# 
# From -- ./inp_files/26090.got.cif
#   From: 2010.03.12/outbox.cif.g09.slc.cpg/sg23_14_cif.got.tgz:26090.got - 2010.04.14 02:50:06.
