data_PCOD8164892
_publ_section_title
;
Structure prediction by ZEFSAII (Michael W. Deem and Ramdas Pophale) SiO2 
 PCOD8164892
Probable space group: I 21 21 21
;
_chemical_formula_sum "Si O2"
_cell_formula_units_Z 56
_cell_length_a 15.092499
_cell_length_b 14.821202
_cell_length_c 11.800502
_cell_angle_alpha 90.000000
_cell_angle_beta 90.000000
_cell_angle_gamma 90.000000
_cell_volume 2639.642213
_symmetry_space_group_name_H-M "I 21 21 21"
_symmetry_group_IT_number 24
_symmetry_cell_setting 'orthorhombic'
loop_
_space_group_symop_operation_xyz
x,y,z
-x,1/2-y,z
x,-y,1/2-z
1/2-x,y,-z
1/2+x,1/2+y,1/2+z
1/2-x,-y,1/2+z
1/2+x,1/2-y,-z
-x,1/2+y,1/2-z
loop_
_atom_site_type_symbol
_atom_site_label
_atom_site_fract_x
_atom_site_fract_y
_atom_site_fract_z
Si Si1 0.572610 0.825638 0.585594
Si Si2 0.354582 0.010514 0.628327
Si Si3 0.983419 0.003592 0.508276
Si Si4 0.191226 0.118565 0.822790
Si Si5 0.464266 0.000000 0.250000
Si Si6 0.750000 0.748692 0.500000
Si Si7 0.710375 0.702763 0.881543
Si Si8 0.938340 0.168048 0.342928
O O1 0.500000 0.750000 0.547798
O O2 0.676940 0.798538 0.577974
O O3 0.543876 0.857677 0.711986
O O4 0.572729 0.912784 0.504525
O O5 0.259134 0.961432 0.638063
O O6 0.403138 0.000000 0.750000
O O7 0.416387 0.972231 0.528515
O O8 0.352168 0.116258 0.599482
O O9 0.947793 0.083273 0.427191
O O10 0.978224 0.032971 0.641180
O O11 0.094631 0.081062 0.797931
O O12 0.185119 0.189656 0.922609
O O13 0.218486 0.171790 0.710324
O O14 0.660671 0.792368 0.841450
O O15 0.750000 0.731380 0.000000
O O16 0.000000 0.250000 0.385354
#
# Coordination Sequence:
#
# PCOD8164892 Si02
#       8
#     8   8   8   8   4   4   8   8
#     4  11  24  45  70 100 132 175 239 287 336 405
#     4  10  19  33  63  98 126 171 215 273 342 397
#     4  12  25  42  65  93 135 185 220 273 343 406
#     4  11  21  36  63 100 138 166 215 285 355 409
#     4  12  24  40  62 104 140 176 220 282 366 420
#     4  12  24  42  70 100 132 184 228 288 350 406
#     4  11  21  37  58  96 131 165 214 276 338 404
#     4  11  23  41  67  97 127 171 230 276 328 408
#
# _framework density 21.214995999999999
#
# number of rings (size 3 to 8) (size 9 to 14) (size 15 to 20)
#    0.000    0.857    5.000    4.714    5.000    0.000 
#    3.857    0.714    0.000    0.000    0.000    0.000 
#    0.000    0.000    0.000    0.000    0.000    0.000 
#
# Total GULP energy -346961.553709 kJ/mol
# GULP energy per Si atom -12391.484061 kJ/mol
# Density = 2.116671 g / cm^3
# Si number density = 21.214996 Si / 1000 Ang^3
#
#
#
# Elastic Constant Matrix: (Units=GPa)
#
#
# Indices 1 2 3 4 5 6 
#
# 1 49.8020 31.0843 16.2502 0.0000 0.0000 0.0000
# 2 31.0843 104.9831 40.0424 0.0000 0.0000 0.0000
# 3 16.2502 40.0424 122.0690 0.0000 0.0000 0.0000
# 4 0.0000 0.0000 0.0000 28.5359 0.0000 0.0000
# 5 0.0000 0.0000 0.0000 0.0000 43.3868 0.0000
# 6 0.0000 0.0000 0.0000 0.0000 0.0000 -73.0117
#
#
#
# Elastic Compliance Matrix: (Units=1/GPa)
#
#
# Indices 1 2 3 4 5 6 
#
# 1 0.024742 -0.006937 -0.001018 0.000000 0.000000 0.000000
# 2 -0.006937 0.012833 -0.003286 0.000000 0.000000 0.000000
# 3 -0.001018 -0.003286 0.009406 0.000000 0.000000 0.000000
# 4 0.000000 0.000000 0.000000 0.035044 0.000000 0.000000
# 5 0.000000 0.000000 0.000000 0.000000 0.023048 0.000000
# 6 0.000000 0.000000 0.000000 0.000000 0.000000 -0.013696
#
#
# Mechanical properties :
#
#
# Convention : Reuss Voigt Hill
#
# Bulk Modulus (GPa) = 40.82113 50.17864 45.49989
# Shear Modulus (GPa) = 40.97543 12.41401 26.69472
#
# Velocity S-wave (km/s) = 4.39958 2.42162 3.55109
# Velocity P-wave (km/s) = 6.71504 5.61451 6.18929
#
# Compressibility (1/GPa) = 0.02449712
#
# Stress axis : x y z
#
# Youngs Moduli (GPa) = 40.41750 77.92541 106.32052
#
# Poissons Ratio (x) = 0.54060 0.10824
# Poissons Ratio (y) = 0.28039 0.34937
# Poissons Ratio (z) = 0.04115 0.25606
#
# Static dielectric constant tensor:
#      x y z
#    x 3.503780 0.000000 0.000000 
#    y 0.000000 3.711120 0.000000 
#    z 0.000000 0.000000 4.564350 
# 
# 
# High freq. dielectric constant tensor:
#      x y z
#    x 1.800030 0.000000 0.000000 
#    y 0.000000 1.818740 0.000000 
#    z 0.000000 0.000000 1.846080 
# 
# From -- ./inp_files/20880.got.cif
#   From: 2010.03.12/outbox.cif.g09.slc.cpg/sg24_11_cif.got.tgz:20880.got - 2010.04.14 03:06:53.
