data_PCOD8164850
_publ_section_title
;
Structure prediction by ZEFSAII (Michael W. Deem and Ramdas Pophale) SiO2 
 PCOD8164850
Probable space group: I 21 21 21
;
_chemical_formula_sum "Si O2"
_cell_formula_units_Z 64
_cell_length_a 9.209680
_cell_length_b 18.451801
_cell_length_c 20.741286
_cell_angle_alpha 90.000000
_cell_angle_beta 90.000000
_cell_angle_gamma 90.000000
_cell_volume 3524.674224
_symmetry_space_group_name_H-M "I 21 21 21"
_symmetry_group_IT_number 24
_symmetry_cell_setting 'orthorhombic'
loop_
_space_group_symop_operation_xyz
x,y,z
-x,1/2-y,z
x,-y,1/2-z
1/2-x,y,-z
1/2+x,1/2+y,1/2+z
1/2-x,-y,1/2+z
1/2+x,1/2-y,-z
-x,1/2+y,1/2-z
loop_
_atom_site_type_symbol
_atom_site_label
_atom_site_fract_x
_atom_site_fract_y
_atom_site_fract_z
Si Si1 0.074074 0.921589 0.379014
Si Si2 0.580504 0.325392 0.000239
Si Si3 0.579933 0.175151 0.500475
Si Si4 0.583924 0.427041 0.118851
Si Si5 0.413780 0.427714 0.615990
Si Si6 0.092183 0.413924 0.244222
Si Si7 0.427708 0.422016 0.382160
Si Si8 0.913001 0.085780 0.757944
O O1 0.032577 0.865110 0.434673
O O2 0.244491 0.935478 0.375069
O O3 0.020509 0.888350 0.310527
O O4 0.994504 0.996556 0.394035
O O5 0.500000 0.250000 0.006584
O O6 0.537357 0.375312 0.060593
O O7 0.750000 0.309072 0.000000
O O8 0.500000 0.250000 0.508535
O O9 0.750000 0.190112 0.500000
O O10 0.533774 0.124785 0.559798
O O11 0.528008 0.136892 0.434979
O O12 0.518837 0.505726 0.105059
O O13 0.522819 0.391913 0.185248
O O14 0.454252 0.387993 0.683955
O O15 0.241735 0.443525 0.613549
O O16 0.095710 0.500000 0.250000
O O17 0.252177 0.384385 0.225224
O O18 0.464323 0.385651 0.312427
O O19 0.907131 0.000000 0.750000
#
# Coordination Sequence:
#
# PCOD8164850 Si02
#       8
#     8   8   8   8   8   8   8   8
#     4  10  19  32  52  78 102 124 160 208 250 289
#     4  10  23  38  50  70 100 132 167 206 246 292
#     4  10  21  36  52  72 100 134 171 206 242 288
#     4  10  19  32  52  78 102 124 160 208 250 289
#     4   9  18  33  53  76 101 131 166 200 240 296
#     4   8  15  29  49  74 102 129 159 197 242 293
#     4   9  18  33  53  76 101 131 166 200 240 296
#     4   8  15  29  49  74 102 129 159 197 242 293
#
# _framework density 18.157705
#
# number of rings (size 3 to 8) (size 9 to 14) (size 15 to 20)
#    0.000    2.750    0.000    3.000    0.000    7.500 
#    0.000    1.250    0.000    6.000    0.000    0.000 
#    0.000    0.000    0.000    0.000    0.000    0.000 
#
# Total GULP energy -396694.322042 kJ/mol
# GULP energy per Si atom -12396.697564 kJ/mol
# Density = 1.811638 g / cm^3
# Si number density = 18.157705 Si / 1000 Ang^3
#
#
#
# Elastic Constant Matrix: (Units=GPa)
#
#
# Indices 1 2 3 4 5 6 
#
# 1 58.6031 23.3041 28.6773 0.0000 0.0000 0.0000
# 2 23.3041 37.6787 11.7826 0.0000 0.0000 -0.0005
# 3 28.6773 11.7826 110.6617 0.0000 0.0000 -0.0002
# 4 0.0000 0.0000 0.0000 2.2899 0.0000 -0.0004
# 5 0.0000 0.0000 0.0000 0.0000 31.2871 0.0000
# 6 0.0000 -0.0005 -0.0002 -0.0004 0.0000 388.7391
#
#
#
# Elastic Compliance Matrix: (Units=1/GPa)
#
#
# Indices 1 2 3 4 5 6 
#
# 1 0.025055 -0.013930 -0.005010 0.000000 0.000000 0.000000
# 2 -0.013930 0.035199 -0.000138 0.000000 0.000000 0.000000
# 3 -0.005010 -0.000138 0.010349 0.000000 0.000000 0.000000
# 4 0.000000 0.000000 0.000000 0.436706 0.000000 0.000000
# 5 0.000000 0.000000 0.000000 0.000000 0.031962 0.000000
# 6 0.000000 0.000000 0.000000 0.000000 0.000000 0.002572
#
#
# Mechanical properties :
#
#
# Convention : Reuss Voigt Hill
#
# Bulk Modulus (GPa) = 30.81811 37.16349 33.99080
# Shear Modulus (GPa) = 8.46290 94.00852 51.23571
#
# Velocity S-wave (km/s) = 2.16122 7.20318 5.31774
# Velocity P-wave (km/s) = 4.82049 9.47061 7.51431
#
# Compressibility (1/GPa) = 0.03244846
#
# Stress axis : x y z
#
# Youngs Moduli (GPa) = 39.91286 28.41012 96.62345
#
# Poissons Ratio (x) = 0.39574 0.48405
# Poissons Ratio (y) = 0.55597 0.01333
# Poissons Ratio (z) = 0.19995 0.00392
#
# Static dielectric constant tensor:
#      x y z
#    x 3.304750 0.000000 0.000000 
#    y 0.000000 2.943970 0.000000 
#    z 0.000000 0.000000 3.757880 
# 
# 
# High freq. dielectric constant tensor:
#      x y z
#    x 1.699750 0.000000 0.000000 
#    y 0.000000 1.662580 0.000000 
#    z 0.000000 0.000000 1.729570 
# 
# From -- ./inp_files/32944.got.cif
#   From: 2010.03.12/outbox.cif.g09.slc.cpg/sg24_17_cif.got.tgz:32944.got - 2010.04.14 03:06:53.
