data_PCOD8164614
_publ_section_title
;
Structure prediction by ZEFSAII (Michael W. Deem and Ramdas Pophale) SiO2 
 PCOD8164614
Probable space group: I 21 21 21
;
_chemical_formula_sum "Si O2"
_cell_formula_units_Z 44
_cell_length_a 8.360557
_cell_length_b 12.651530
_cell_length_c 24.513933
_cell_angle_alpha 90.000000
_cell_angle_beta 90.000000
_cell_angle_gamma 90.000000
_cell_volume 2592.932771
_symmetry_space_group_name_H-M "I 21 21 21"
_symmetry_group_IT_number 24
_symmetry_cell_setting 'orthorhombic'
loop_
_space_group_symop_operation_xyz
x,y,z
-x,1/2-y,z
x,-y,1/2-z
1/2-x,y,-z
1/2+x,1/2+y,1/2+z
1/2-x,-y,1/2+z
1/2+x,1/2-y,-z
-x,1/2+y,1/2-z
loop_
_atom_site_type_symbol
_atom_site_label
_atom_site_fract_x
_atom_site_fract_y
_atom_site_fract_z
Si Si1 0.957157 0.126008 0.332326
Si Si2 0.465829 0.867086 0.276653
Si Si3 0.678881 0.500000 0.750000
Si Si4 0.439881 0.131562 0.436450
Si Si5 0.066830 0.866475 0.055641
Si Si6 0.900327 0.939639 0.829251
O O1 0.773514 0.107917 0.319091
O O2 0.000000 0.250000 0.330121
O O3 0.068133 0.063333 0.291186
O O4 0.978728 0.078283 0.393590
O O5 0.500000 0.750000 0.298990
O O6 0.488826 0.870728 0.211115
O O7 0.287043 0.915553 0.284716
O O8 0.593742 0.938666 0.309446
O O9 0.500000 0.250000 0.432385
O O10 0.251371 0.134244 0.426929
O O11 0.468918 0.079323 0.496745
O O12 0.533425 0.064577 0.390932
O O13 0.000000 0.750000 0.048534
#
# Coordination Sequence:
#
# PCOD8164614 Si02
#       6
#     8   8   4   8   8   8
#     4  11  20  32  48  74 105 129 158 199 239 292
#     4  10  20  35  50  69  95 127 166 207 243 286
#     4  10  20  32  52  72  96 132 166 196 246 292
#     4  10  17  29  46  69  99 129 159 195 240 297
#     4   9  18  28  44  69  98 129 159 194 242 290
#     4  10  20  31  49  72  97 128 163 194 246 297
#
# _framework density 16.969204000000001
#
# number of rings (size 3 to 8) (size 9 to 14) (size 15 to 20)
#    0.000    2.182    0.000    7.091    0.000    2.182 
#    0.000    0.000    0.000    0.000    0.000   11.455 
#    0.000    0.000    0.000    0.000    0.000    0.000 
#
# Total GULP energy -272550.950704 kJ/mol
# GULP energy per Si atom -12388.679577 kJ/mol
# Density = 1.693058 g / cm^3
# Si number density = 16.969204 Si / 1000 Ang^3
#
#
#
# Elastic Constant Matrix: (Units=GPa)
#
#
# Indices 1 2 3 4 5 6 
#
# 1 97.8092 34.5761 38.7509 0.0000 0.0000 0.0000
# 2 34.5761 89.0893 40.1844 0.0000 0.0000 0.0000
# 3 38.7509 40.1844 112.3118 0.0000 0.0000 0.0000
# 4 0.0000 0.0000 0.0000 19.5184 0.0000 0.0000
# 5 0.0000 0.0000 0.0000 0.0000 26.5653 0.0000
# 6 0.0000 0.0000 0.0000 0.0000 0.0000 24.0274
#
#
#
# Elastic Compliance Matrix: (Units=1/GPa)
#
#
# Indices 1 2 3 4 5 6 
#
# 1 0.012707 -0.003523 -0.003124 0.000000 0.000000 0.000000
# 2 -0.003523 0.014361 -0.003923 0.000000 0.000000 0.000000
# 3 -0.003124 -0.003923 0.011385 0.000000 0.000000 0.000000
# 4 0.000000 0.000000 0.000000 0.051234 0.000000 0.000000
# 5 0.000000 0.000000 0.000000 0.000000 0.037643 0.000000
# 6 0.000000 0.000000 0.000000 0.000000 0.000000 0.041619
#
#
# Mechanical properties :
#
#
# Convention : Reuss Voigt Hill
#
# Bulk Modulus (GPa) = 57.75494 58.47033 58.11264
# Shear Modulus (GPa) = 25.52847 26.40215 25.96531
#
# Velocity S-wave (km/s) = 3.88287 3.94875 3.91595
# Velocity P-wave (km/s) = 7.36283 7.43786 7.40044
#
# Compressibility (1/GPa) = 0.01731454
#
# Stress axis : x y z
#
# Youngs Moduli (GPa) = 78.69748 69.63152 87.83297
#
# Poissons Ratio (x) = 0.24528 0.27438
# Poissons Ratio (y) = 0.27722 0.34457
# Poissons Ratio (z) = 0.24584 0.27316
#
# Static dielectric constant tensor:
#      x y z
#    x 3.387280 0.000000 0.000000 
#    y 0.000000 2.926490 0.000000 
#    z 0.000000 0.000000 3.649570 
# 
# 
# High freq. dielectric constant tensor:
#      x y z
#    x 1.669810 0.000000 0.000000 
#    y 0.000000 1.607620 0.000000 
#    z 0.000000 0.000000 1.662630 
# 
# From -- ./inp_files/35102.got.cif
#   From: 2010.03.12/outbox.cif.g09.slc.cpg/sg24_18_cif.got.tgz:35102.got - 2010.04.14 03:06:53.
