data_PCOD8164076
_publ_section_title
;
Structure prediction by ZEFSAII (Michael W. Deem and Ramdas Pophale) SiO2 
 PCOD8164076
Probable space group: I 2 2 2
;
_chemical_formula_sum "Si O2"
_cell_formula_units_Z 40
_cell_length_a 7.415636
_cell_length_b 27.937468
_cell_length_c 9.175854
_cell_angle_alpha 90.000000
_cell_angle_beta 90.000000
_cell_angle_gamma 90.000000
_cell_volume 1900.999234
_symmetry_space_group_name_H-M "I 2 2 2"
_symmetry_group_IT_number 23
_symmetry_cell_setting 'orthorhombic'
loop_
_space_group_symop_operation_xyz
x,y,z
-x,-y,z
x,-y,-z
-x,y,-z
1/2+x,1/2+y,1/2+z
1/2-x,1/2-y,1/2+z
1/2+x,1/2-y,1/2-z
1/2-x,1/2+y,1/2-z
loop_
_atom_site_type_symbol
_atom_site_label
_atom_site_fract_x
_atom_site_fract_y
_atom_site_fract_z
Si Si1 0.740182 0.613389 0.362713
Si Si2 0.137334 0.216484 0.875379
Si Si3 0.524243 0.055565 0.668667
Si Si4 0.111521 0.199224 0.365993
Si Si5 0.830344 0.893251 0.192626
O O1 0.761442 0.670536 0.336897
O O2 0.888287 0.586140 0.268081
O O3 0.763784 0.604038 0.534457
O O4 0.542637 0.595427 0.311647
O O5 0.243339 0.263228 0.928619
O O6 0.023932 0.230654 0.732645
O O7 0.000000 0.198425 0.000000
O O8 0.500000 0.068830 0.500000
O O9 0.730401 0.067387 0.709601
O O10 0.500000 0.000000 0.700117
O O11 0.203671 0.158183 0.269019
O O12 0.000000 0.176221 0.500000
#
# Coordination Sequence:
#
# PCOD8164076 Si02
#       5
#     8   8   8   8   8
#     4  10  22  45  68  93 135 174 220 273 322 395
#     4  11  22  42  59  95 135 175 223 262 323 386
#     4  11  27  45  69 102 129 166 218 277 345 400
#     4  11  24  36  62  97 133 179 220 266 324 385
#     4  10  23  44  66  97 132 176 221 269 328 390
#
# _framework density 21.041567000000001
#
# number of rings (size 3 to 8) (size 9 to 14) (size 15 to 20)
#    0.000    1.400    4.000    1.800    8.400    3.200 
#    0.000    4.000    0.000    0.000    0.000    0.000 
#    0.000    0.000    0.000    0.000    0.000    0.000 
#
# Total GULP energy -247990.777196 kJ/mol
# GULP energy per Si atom -12399.538860 kJ/mol
# Density = 2.099367 g / cm^3
# Si number density = 21.041567 Si / 1000 Ang^3
#
#
#
# Elastic Constant Matrix: (Units=GPa)
#
#
# Indices 1 2 3 4 5 6 
#
# 1 76.8649 57.2388 49.3652 -0.0008 -0.0001 -0.0002
# 2 57.2388 117.4098 57.1638 0.0047 -0.0002 0.0000
# 3 49.3652 57.1638 131.1715 0.0054 0.0001 0.0000
# 4 -0.0008 0.0047 0.0054 29.1869 -0.0004 -0.0001
# 5 -0.0001 -0.0002 0.0001 -0.0004 35.8589 0.0005
# 6 -0.0002 0.0000 0.0000 -0.0001 0.0005 27.2652
#
#
#
# Elastic Compliance Matrix: (Units=1/GPa)
#
#
# Indices 1 2 3 4 5 6 
#
# 1 0.022478 -0.008682 -0.004676 0.000003 0.000000 0.000000
# 2 -0.008682 0.014164 -0.002905 -0.000002 0.000000 0.000000
# 3 -0.004676 -0.002905 0.010649 -0.000002 0.000000 0.000000
# 4 0.000003 -0.000002 -0.000002 0.034262 0.000000 0.000000
# 5 0.000000 0.000000 0.000000 0.000000 0.027887 -0.000001
# 6 0.000000 0.000000 0.000000 0.000000 -0.000001 0.036677
#
#
# Mechanical properties :
#
#
# Convention : Reuss Voigt Hill
#
# Bulk Modulus (GPa) = 67.72516 72.55354 70.13935
# Shear Modulus (GPa) = 27.23830 29.24076 28.23953
#
# Velocity S-wave (km/s) = 3.60182 3.73187 3.66742
# Velocity P-wave (km/s) = 7.03944 7.28869 7.16515
#
# Compressibility (1/GPa) = 0.01476556
#
# Stress axis : x y z
#
# Youngs Moduli (GPa) = 44.48831 70.60075 93.90116
#
# Poissons Ratio (x) = 0.61293 0.43907
# Poissons Ratio (y) = 0.38623 0.27282
# Poissons Ratio (z) = 0.20802 0.20512
#
# Static dielectric constant tensor:
#      x y z
#    x 3.795990 0.000000 0.000000 
#    y 0.000000 3.507580 -0.000010 
#    z 0.000000 -0.000010 4.082960 
# 
# 
# High freq. dielectric constant tensor:
#      x y z
#    x 1.820880 0.000000 0.000000 
#    y 0.000000 1.806600 0.000000 
#    z 0.000000 0.000000 1.842810 
# 
# From -- ./inp_files/6923.got.cif
#   From: 2010.03.12/outbox.cif.g09.slc.cpg/sg23_4_cif.got.tgz:6923.got - 2010.04.14 02:50:06.
