data_PCOD8164630
_publ_section_title
;
Structure prediction by ZEFSAII (Michael W. Deem and Ramdas Pophale) SiO2 
 PCOD8164630
Probable space group: I 21 21 21
;
_chemical_formula_sum "Si O2"
_cell_formula_units_Z 48
_cell_length_a 14.352031
_cell_length_b 17.666707
_cell_length_c 9.701092
_cell_angle_alpha 90.000000
_cell_angle_beta 90.000000
_cell_angle_gamma 90.000000
_cell_volume 2459.742207
_symmetry_space_group_name_H-M "I 21 21 21"
_symmetry_group_IT_number 24
_symmetry_cell_setting 'orthorhombic'
loop_
_space_group_symop_operation_xyz
x,y,z
-x,1/2-y,z
x,-y,1/2-z
1/2-x,y,-z
1/2+x,1/2+y,1/2+z
1/2-x,-y,1/2+z
1/2+x,1/2-y,-z
-x,1/2+y,1/2-z
loop_
_atom_site_type_symbol
_atom_site_label
_atom_site_fract_x
_atom_site_fract_y
_atom_site_fract_z
Si Si1 0.353176 0.849644 0.957985
Si Si2 0.208172 0.287153 0.862450
Si Si3 0.927676 0.682252 0.768473
Si Si4 0.973452 0.162780 0.982969
Si Si5 0.175278 0.675660 0.114894
Si Si6 0.006245 0.412715 0.275531
O O1 0.355234 0.761145 0.918699
O O2 0.402316 0.897745 0.836590
O O3 0.250000 0.878469 0.000000
O O4 0.417316 0.865043 0.092480
O O5 0.172290 0.219945 0.764463
O O6 0.282260 0.332016 0.768933
O O7 0.250000 0.249197 0.000000
O O8 0.130239 0.345160 0.920083
O O9 0.000000 0.750000 0.791515
O O10 0.959091 0.630227 0.638678
O O11 0.988485 0.121780 0.124537
O O12 0.000000 0.250000 0.006480
O O13 0.083319 0.622820 0.120164
O O14 0.250000 0.646858 0.000000
O O15 0.025271 0.500000 0.250000
#
# Coordination Sequence:
#
# PCOD8164630 Si02
#       6
#     8   8   8   8   8   8
#     4  11  22  39  68  92 117 158 221 277 311 361
#     4  10  17  31  58  96 126 142 199 256 321 372
#     4   9  18  32  57  92 120 146 194 268 320 360
#     4   9  20  36  61  88 121 160 204 262 310 369
#     4  11  21  38  68  99 122 162 211 268 318 370
#     4  12  26  43  57  89 133 176 209 251 326 391
#
# _framework density 19.514240000000001
#
# number of rings (size 3 to 8) (size 9 to 14) (size 15 to 20)
#    0.000    2.000    5.000    2.500    4.667    0.000 
#    3.000    2.500    0.000    0.000    0.000    0.000 
#    0.000    0.000    0.000    0.000    0.000    0.000 
#
# Total GULP energy -297375.165461 kJ/mol
# GULP energy per Si atom -12390.631894 kJ/mol
# Density = 1.946982 g / cm^3
# Si number density = 19.514240 Si / 1000 Ang^3
#
#
#
# Elastic Constant Matrix: (Units=GPa)
#
#
# Indices 1 2 3 4 5 6 
#
# 1 95.7209 26.7971 37.2175 0.0000 0.0000 0.0000
# 2 26.7971 48.1173 26.8660 0.0000 0.0000 0.0000
# 3 37.2175 26.8660 141.8776 0.0000 0.0000 0.0000
# 4 0.0000 0.0000 0.0000 6.3125 0.0000 0.0000
# 5 0.0000 0.0000 0.0000 0.0000 85.7705 0.0000
# 6 0.0000 0.0000 0.0000 0.0000 0.0000 13.5697
#
#
#
# Elastic Compliance Matrix: (Units=1/GPa)
#
#
# Indices 1 2 3 4 5 6 
#
# 1 0.013005 -0.005969 -0.002281 0.000000 0.000000 0.000000
# 2 -0.005969 0.025979 -0.003354 0.000000 0.000000 0.000000
# 3 -0.002281 -0.003354 0.008282 0.000000 0.000000 0.000000
# 4 0.000000 0.000000 0.000000 0.158415 0.000000 0.000000
# 5 0.000000 0.000000 0.000000 0.000000 0.011659 0.000000
# 6 0.000000 0.000000 0.000000 0.000000 0.000000 0.073694
#
#
# Mechanical properties :
#
#
# Convention : Reuss Voigt Hill
#
# Bulk Modulus (GPa) = 41.56553 51.94191 46.75372
# Shear Modulus (GPa) = 15.51537 34.11956 24.81746
#
# Velocity S-wave (km/s) = 2.82277 4.18598 3.57005
# Velocity P-wave (km/s) = 5.65424 7.07378 6.40347
#
# Compressibility (1/GPa) = 0.02405840
#
# Stress axis : x y z
#
# Youngs Moduli (GPa) = 76.89346 38.49230 120.74690
#
# Poissons Ratio (x) = 0.22976 0.27545
# Poissons Ratio (y) = 0.45897 0.40494
# Poissons Ratio (z) = 0.17541 0.12909
#
# Static dielectric constant tensor:
#      x y z
#    x 3.924850 0.000000 0.000000 
#    y 0.000000 1.561130 0.000000 
#    z 0.000000 0.000000 4.163430 
# 
# 
# High freq. dielectric constant tensor:
#      x y z
#    x 1.777920 0.000000 0.000000 
#    y 0.000000 1.674660 0.000000 
#    z 0.000000 0.000000 1.792190 
# 
# From -- ./inp_files/12824.got.cif
#   From: 2010.03.12/outbox.cif.g09.slc.cpg/sg24_7_cif.got.tgz:12824.got - 2010.04.14 03:06:53.
