data_PCOD8164861
_publ_section_title
;
Structure prediction by ZEFSAII (Michael W. Deem and Ramdas Pophale) SiO2 
 PCOD8164861
Probable space group: I 21 21 21
;
_chemical_formula_sum "Si O2"
_cell_formula_units_Z 56
_cell_length_a 14.475929
_cell_length_b 21.602049
_cell_length_c 8.770798
_cell_angle_alpha 90.000000
_cell_angle_beta 90.000000
_cell_angle_gamma 90.000000
_cell_volume 2742.713853
_symmetry_space_group_name_H-M "I 21 21 21"
_symmetry_group_IT_number 24
_symmetry_cell_setting 'orthorhombic'
loop_
_space_group_symop_operation_xyz
x,y,z
-x,1/2-y,z
x,-y,1/2-z
1/2-x,y,-z
1/2+x,1/2+y,1/2+z
1/2-x,-y,1/2+z
1/2+x,1/2-y,-z
-x,1/2+y,1/2-z
loop_
_atom_site_type_symbol
_atom_site_label
_atom_site_fract_x
_atom_site_fract_y
_atom_site_fract_z
Si Si1 0.150885 0.500898 0.566875
Si Si2 0.666888 0.774905 0.908792
Si Si3 0.341308 0.710722 0.577832
Si Si4 0.951515 0.890202 0.064872
Si Si5 0.931499 0.691139 0.870559
Si Si6 0.478818 0.402172 0.903319
Si Si7 0.645001 0.662086 0.448438
O O1 0.153831 0.500000 0.750000
O O2 0.250000 0.521993 0.500000
O O3 0.128488 0.432425 0.506506
O O4 0.069650 0.544244 0.501870
O O5 0.696024 0.760459 0.736923
O O6 0.584479 0.822728 0.890969
O O7 0.750000 0.807203 0.000000
O O8 0.637548 0.713042 0.996706
O O9 0.250000 0.682526 0.500000
O O10 0.417278 0.658496 0.581398
O O11 0.385603 0.769031 0.494444
O O12 0.989577 0.920215 0.223450
O O13 0.023996 0.873040 0.932832
O O14 0.871162 0.664312 0.732358
O O15 0.000000 0.750000 0.829867
O O16 0.579612 0.389285 0.972987
O O17 0.750000 0.647344 0.500000
#
# Coordination Sequence:
#
# PCOD8164861 Si02
#       7
#     8   8   8   8   8   8   8
#     4  12  25  41  63  90 119 152 191 234 287 348
#     4  10  19  32  53  82 118 152 189 236 285 345
#     4  10  20  33  54  86 118 153 191 233 291 350
#     4  10  22  38  58  84 115 153 194 239 294 345
#     4  10  20  35  56  83 116 155 194 238 292 343
#     4  11  22  39  60  83 118 154 194 244 292 343
#     4  11  22  36  57  84 116 153 196 242 289 346
#
# _framework density 20.417733999999999
#
# number of rings (size 3 to 8) (size 9 to 14) (size 15 to 20)
#    0.000    1.429    0.000    6.857    0.000    8.000 
#    0.000    0.000    0.000    6.000    0.000    0.000 
#    0.000    0.000    0.000    0.000    0.000    0.000 
#
# Total GULP energy -346973.236015 kJ/mol
# GULP energy per Si atom -12391.901286 kJ/mol
# Density = 2.037126 g / cm^3
# Si number density = 20.417734 Si / 1000 Ang^3
#
#
#
# Elastic Constant Matrix: (Units=GPa)
#
#
# Indices 1 2 3 4 5 6 
#
# 1 111.5456 29.0428 57.9175 0.0000 0.0000 0.0000
# 2 29.0428 56.0337 24.5150 0.0000 0.0000 0.0000
# 3 57.9175 24.5150 154.7579 -0.0002 -0.0002 0.0000
# 4 0.0000 0.0000 -0.0002 26.7475 0.0000 0.0000
# 5 0.0000 0.0000 -0.0002 0.0000 37.0439 0.0000
# 6 0.0000 0.0000 0.0000 0.0000 0.0000 32.8071
#
#
#
# Elastic Compliance Matrix: (Units=1/GPa)
#
#
# Indices 1 2 3 4 5 6 
#
# 1 0.012151 -0.004629 -0.003814 0.000000 0.000000 0.000000
# 2 -0.004629 0.020939 -0.001584 0.000000 0.000000 0.000000
# 3 -0.003814 -0.001584 0.008140 0.000000 0.000000 0.000000
# 4 0.000000 0.000000 0.000000 0.037387 0.000000 0.000000
# 5 0.000000 0.000000 0.000000 0.000000 0.026995 0.000000
# 6 0.000000 0.000000 0.000000 0.000000 0.000000 0.030481
#
#
# Mechanical properties :
#
#
# Convention : Reuss Voigt Hill
#
# Bulk Modulus (GPa) = 47.22689 60.58753 53.90721
# Shear Modulus (GPa) = 30.63617 33.37715 32.00666
#
# Velocity S-wave (km/s) = 3.87779 4.04755 3.96358
# Velocity P-wave (km/s) = 6.57497 7.18205 6.88521
#
# Compressibility (1/GPa) = 0.02117438
#
# Stress axis : x y z
#
# Youngs Moduli (GPa) = 82.30088 47.75792 122.84905
#
# Poissons Ratio (x) = 0.22108 0.46855
# Poissons Ratio (y) = 0.38098 0.19465
# Poissons Ratio (z) = 0.31390 0.07567
#
# Static dielectric constant tensor:
#      x y z
#    x 3.660270 0.000000 0.000000 
#    y 0.000000 3.455220 0.000000 
#    z 0.000000 0.000000 4.327270 
# 
# 
# High freq. dielectric constant tensor:
#      x y z
#    x 1.789250 0.000000 0.000000 
#    y 0.000000 1.768820 0.000000 
#    z 0.000000 0.000000 1.823910 
# 
# From -- ./inp_files/13144.got.cif
#   From: 2010.03.12/outbox.cif.g09.slc.cpg/sg24_7_cif.got.tgz:13144.got - 2010.04.14 03:06:53.
