data_PCOD8164940
_publ_section_title
;
Structure prediction by ZEFSAII (Michael W. Deem and Ramdas Pophale) SiO2 
 PCOD8164940
Probable space group: I 21 21 21
;
_chemical_formula_sum "Si O2"
_cell_formula_units_Z 52
_cell_length_a 5.345647
_cell_length_b 25.431068
_cell_length_c 18.872871
_cell_angle_alpha 90.000000
_cell_angle_beta 90.000000
_cell_angle_gamma 90.000000
_cell_volume 2565.682118
_symmetry_space_group_name_H-M "I 21 21 21"
_symmetry_group_IT_number 24
_symmetry_cell_setting 'orthorhombic'
loop_
_space_group_symop_operation_xyz
x,y,z
-x,1/2-y,z
x,-y,1/2-z
1/2-x,y,-z
1/2+x,1/2+y,1/2+z
1/2-x,-y,1/2+z
1/2+x,1/2-y,-z
-x,1/2+y,1/2-z
loop_
_atom_site_type_symbol
_atom_site_label
_atom_site_fract_x
_atom_site_fract_y
_atom_site_fract_z
Si Si1 0.748786 0.773510 0.863431
Si Si2 0.184293 0.111327 0.758084
Si Si3 0.750000 0.420781 0.500000
Si Si4 0.314574 0.550856 0.704278
Si Si5 0.750746 0.729768 0.704797
Si Si6 0.867239 0.017755 0.423511
Si Si7 0.927003 0.115321 0.615557
O O1 0.500000 0.750000 0.900196
O O2 0.749903 0.758997 0.780794
O O3 0.738362 0.836169 0.874252
O O4 0.000000 0.750000 0.899660
O O5 0.429506 0.076048 0.767257
O O6 0.246445 0.167147 0.792574
O O7 0.928840 0.088475 0.792867
O O8 0.143546 0.119026 0.674335
O O9 0.641977 0.458499 0.561982
O O10 0.543434 0.383464 0.463713
O O11 0.250402 0.500000 0.750000
O O12 0.370453 0.535311 0.622399
O O13 0.500000 0.750000 0.664510
O O14 0.000000 0.750000 0.664078
O O15 0.750000 0.005535 0.500000
O O16 0.720018 0.060771 0.376383
#
# Coordination Sequence:
#
# PCOD8164940 Si02
#       7
#     8   8   4   8   8   8   8
#     4  10  21  33  60  82 113 159 205 254 316 352
#     4  12  24  37  63  94 131 155 212 266 322 378
#     4  10  24  40  68  78 120 172 230 254 306 384
#     4  12  25  38  61  97 128 162 209 273 321 374
#     4  10  19  35  56  88 118 168 192 247 327 370
#     4  10  24  43  64  86 126 176 218 256 320 383
#     4  11  22  40  62  90 116 174 217 264 315 379
#
# _framework density 20.267516000000001
#
# number of rings (size 3 to 8) (size 9 to 14) (size 15 to 20)
#    0.000    1.231    4.615    2.308    8.615    0.000 
#    0.000    0.000    5.077    0.000    0.000    0.000 
#    0.000   12.308    0.000    0.000    0.000    0.000 
#
# Total GULP energy -322286.463207 kJ/mol
# GULP energy per Si atom -12395.633200 kJ/mol
# Density = 2.022139 g / cm^3
# Si number density = 20.267516 Si / 1000 Ang^3
#
#
#
# Elastic Constant Matrix: (Units=GPa)
#
#
# Indices 1 2 3 4 5 6 
#
# 1 165.2697 48.0996 19.2166 0.0000 0.0000 0.0000
# 2 48.0996 99.3854 36.9375 0.0000 0.0000 0.0000
# 3 19.2166 36.9375 48.3026 0.0000 0.0000 0.0000
# 4 0.0000 0.0000 0.0000 17.1866 0.0000 0.0000
# 5 0.0000 0.0000 0.0000 0.0000 13.5776 0.0000
# 6 0.0000 0.0000 0.0000 0.0000 0.0000 41.8702
#
#
#
# Elastic Compliance Matrix: (Units=1/GPa)
#
#
# Indices 1 2 3 4 5 6 
#
# 1 0.007045 -0.003308 -0.000273 0.000000 0.000000 0.000000
# 2 -0.003308 0.015610 -0.010621 0.000000 0.000000 0.000000
# 3 -0.000273 -0.010621 0.028934 0.000000 0.000000 0.000000
# 4 0.000000 0.000000 0.000000 0.058185 0.000000 0.000000
# 5 0.000000 0.000000 0.000000 0.000000 0.073651 0.000000
# 6 0.000000 0.000000 0.000000 0.000000 0.000000 0.023883
#
#
# Mechanical properties :
#
#
# Convention : Reuss Voigt Hill
#
# Bulk Modulus (GPa) = 43.13280 57.94057 50.53668
# Shear Modulus (GPa) = 20.53878 28.44045 24.48962
#
# Velocity S-wave (km/s) = 3.18682 3.75007 3.47986
# Velocity P-wave (km/s) = 5.90500 6.88481 6.41364
#
# Compressibility (1/GPa) = 0.02318422
#
# Stress axis : x y z
#
# Youngs Moduli (GPa) = 141.93896 64.05970 34.56178
#
# Poissons Ratio (x) = 0.21192 0.00944
# Poissons Ratio (y) = 0.46957 0.36709
# Poissons Ratio (z) = 0.03876 0.68040
#
# Static dielectric constant tensor:
#      x y z
#    x 4.961130 0.000000 0.000000 
#    y 0.000000 3.694780 0.000000 
#    z 0.000000 0.000000 3.302300 
# 
# 
# High freq. dielectric constant tensor:
#      x y z
#    x 1.820550 0.000000 0.000000 
#    y 0.000000 1.786890 0.000000 
#    z 0.000000 0.000000 1.734770 
# 
# From -- ./inp_files/32178.got.cif
#   From: 2010.03.12/outbox.cif.g09.slc.cpg/sg24_17_cif.got.tgz:32178.got - 2010.04.14 03:06:53.
