data_PCOD8164342
_publ_section_title
;
Structure prediction by ZEFSAII (Michael W. Deem and Ramdas Pophale) SiO2 
 PCOD8164342
Probable space group: I 2 2 2
;
_chemical_formula_sum "Si O2"
_cell_formula_units_Z 64
_cell_length_a 21.851513
_cell_length_b 9.627732
_cell_length_c 13.364607
_cell_angle_alpha 90.000000
_cell_angle_beta 90.000000
_cell_angle_gamma 90.000000
_cell_volume 2811.652849
_symmetry_space_group_name_H-M "I 2 2 2"
_symmetry_group_IT_number 23
_symmetry_cell_setting 'orthorhombic'
loop_
_space_group_symop_operation_xyz
x,y,z
-x,-y,z
x,-y,-z
-x,y,-z
1/2+x,1/2+y,1/2+z
1/2-x,1/2-y,1/2+z
1/2+x,1/2-y,1/2-z
1/2-x,1/2+y,1/2-z
loop_
_atom_site_type_symbol
_atom_site_label
_atom_site_fract_x
_atom_site_fract_y
_atom_site_fract_z
Si Si1 0.655776 0.784990 0.584217
Si Si2 0.362822 0.556256 0.820463
Si Si3 0.737116 0.017036 0.647018
Si Si4 0.470266 0.267711 0.111057
Si Si5 0.410661 0.260716 0.773125
Si Si6 0.817405 0.193058 0.119020
Si Si7 0.745443 0.939514 0.127178
Si Si8 0.889926 0.518909 0.608584
O O1 0.681038 0.942610 0.589930
O O2 0.595931 0.770186 0.654460
O O3 0.636970 0.740446 0.471538
O O4 0.713268 0.696838 0.627459
O O5 0.301776 0.550628 0.889954
O O6 0.419766 0.609806 0.886471
O O7 0.369940 0.395394 0.792111
O O8 0.355025 0.649530 0.718566
O O9 0.730037 0.181880 0.635231
O O10 0.737725 0.988549 0.764679
O O11 0.520716 0.298014 0.195169
O O12 0.437532 0.129080 0.154152
O O13 0.500000 0.259715 0.000000
O O14 0.386683 0.125202 0.832254
O O15 0.778011 0.067786 0.068758
O O16 0.676322 0.908376 0.092022
O O17 0.918860 0.500000 0.500000
#
# Coordination Sequence:
#
# PCOD8164342 Si02
#       8
#     8   8   8   8   8   8   8   8
#     4  12  23  41  66 104 145 185 231 299 360 452
#     4  11  26  44  72 100 145 189 240 305 363 431
#     4  11  21  41  65 101 145 183 227 290 369 427
#     4  12  27  50  69  99 142 191 247 300 359 425
#     4  12  25  43  69  97 139 189 241 294 361 417
#     4  11  23  42  68 107 150 183 232 297 372 445
#     4  11  21  39  69 102 140 181 232 287 364 434
#     4  12  23  43  71 103 137 186 238 298 356 434
#
# _framework density 22.762412000000001
#
# number of rings (size 3 to 8) (size 9 to 14) (size 15 to 20)
#    0.000    0.500    5.000    6.000    0.000    1.000 
#    4.500    0.625    0.000    1.500    0.000    0.000 
#    0.000    0.000    0.000    0.000    0.000    0.000 
#
# Total GULP energy -396520.335939 kJ/mol
# GULP energy per Si atom -12391.260498 kJ/mol
# Density = 2.271060 g / cm^3
# Si number density = 22.762412 Si / 1000 Ang^3
#
#
#
# Elastic Constant Matrix: (Units=GPa)
#
#
# Indices 1 2 3 4 5 6 
#
# 1 103.4426 25.9723 35.6408 0.0000 0.0000 0.0000
# 2 25.9723 115.9320 31.7918 0.0000 0.0000 0.0000
# 3 35.6408 31.7918 100.8268 0.0000 0.0000 0.0000
# 4 0.0000 0.0000 0.0000 30.2405 0.0000 0.0000
# 5 0.0000 0.0000 0.0000 0.0000 29.9871 0.0000
# 6 0.0000 0.0000 0.0000 0.0000 0.0000 39.0945
#
#
#
# Elastic Compliance Matrix: (Units=1/GPa)
#
#
# Indices 1 2 3 4 5 6 
#
# 1 0.011262 -0.001567 -0.003487 0.000000 0.000000 0.000000
# 2 -0.001567 0.009660 -0.002492 0.000000 0.000000 0.000000
# 3 -0.003487 -0.002492 0.011936 0.000000 0.000000 0.000000
# 4 0.000000 0.000000 0.000000 0.033068 0.000000 0.000000
# 5 0.000000 0.000000 0.000000 0.000000 0.033348 0.000000
# 6 0.000000 0.000000 0.000000 0.000000 0.000000 0.025579
#
#
# Mechanical properties :
#
#
# Convention : Reuss Voigt Hill
#
# Bulk Modulus (GPa) = 56.28463 56.33457 56.30960
# Shear Modulus (GPa) = 34.27771 34.98420 34.63095
#
# Velocity S-wave (km/s) = 3.88479 3.92462 3.90476
# Velocity P-wave (km/s) = 6.70096 6.73346 6.71723
#
# Compressibility (1/GPa) = 0.01776684
#
# Stress axis : x y z
#
# Youngs Moduli (GPa) = 88.79416 103.51787 83.77759
#
# Poissons Ratio (x) = 0.16219 0.29213
# Poissons Ratio (y) = 0.13912 0.20878
# Poissons Ratio (z) = 0.30962 0.25798
#
# Static dielectric constant tensor:
#      x y z
#    x 4.081920 0.000000 0.000000 
#    y 0.000000 4.253680 0.000000 
#    z 0.000000 0.000000 4.274460 
# 
# 
# High freq. dielectric constant tensor:
#      x y z
#    x 1.870250 0.000000 0.000000 
#    y 0.000000 1.920390 0.000000 
#    z 0.000000 0.000000 1.896500 
# 
# From -- ./inp_files/22624.got.cif
#   From: 2010.03.12/outbox.cif.g09.slc.cpg/sg23_12_cif.got.tgz:22624.got - 2010.04.14 02:50:06.
