data_PCOD8164566
_publ_section_title
;
Structure prediction by ZEFSAII (Michael W. Deem and Ramdas Pophale) SiO2 
 PCOD8164566
Probable space group: I 2 2 2
;
_chemical_formula_sum "Si O2"
_cell_formula_units_Z 28
_cell_length_a 21.000000
_cell_length_b 9.000000
_cell_length_c 15.000000
_cell_angle_alpha 90.000000
_cell_angle_beta 90.000000
_cell_angle_gamma 90.000000
_cell_volume 2835.000000
_symmetry_space_group_name_H-M "I 2 2 2"
_symmetry_group_IT_number 23
_symmetry_cell_setting 'orthorhombic'
loop_
_space_group_symop_operation_xyz
x,y,z
-x,-y,z
x,-y,-z
-x,y,-z
1/2+x,1/2+y,1/2+z
1/2-x,1/2-y,1/2+z
1/2+x,1/2-y,1/2-z
1/2-x,1/2+y,1/2-z
loop_
_atom_site_type_symbol
_atom_site_label
_atom_site_fract_x
_atom_site_fract_y
_atom_site_fract_z
Si Si1 0.000000 0.500000 0.261105
Si Si2 0.416280 0.257819 0.297189
Si Si3 0.000000 0.000000 0.280484
Si Si4 0.586498 0.251562 0.159012
Si Si5 0.306099 0.313932 0.171403
Si Si6 0.812935 0.670814 0.482375
Si Si7 0.320125 0.403401 0.415592
Si Si8 0.198514 0.118306 0.246809
O O1 0.045860 0.601156 0.198715
O O2 0.043525 0.394059 0.323260
O O3 0.464372 0.394341 0.289303
O O4 0.375294 0.266156 0.206423
O O5 0.373203 0.281848 0.386052
O O6 0.956307 0.900272 0.345931
O O7 0.626064 0.237514 0.067686
O O8 0.637944 0.274723 0.237558
O O9 0.258476 0.226158 0.237189
O O10 0.293457 0.492450 0.175587
O O11 0.299904 0.264443 0.070458
O O12 0.828528 0.500000 0.500000
O O13 0.747219 0.681933 0.426754
O O14 0.341875 0.500000 0.500000
O O15 0.313072 0.527386 0.341652
#
# Coordination Sequence:
#
# PCOD8164566 Si02
#       8
#     4   8   4   8   8   8   8   8
#     4  10  24  38  69  87 124 176 218 252 300 377
#     4  10  21  40  62  94 119 165 214 253 303 374
#     4  10  20  42  62  86 118 170 224 240 297 375
#     4  11  22  42  65  89 124 172 209 262 306 369
#     4  11  22  39  66  98 125 160 209 255 320 384
#     4  11  22  39  63  98 132 156 201 263 327 377
#     4  10  19  39  66  96 122 159 201 261 322 379
#     4  11  22  39  68  92 125 164 205 258 324 375
#
# _framework density 9.8765429999999999
#
# number of rings (size 3 to 8) (size 9 to 14) (size 15 to 20)
#    0.000    1.429    5.714    2.571    2.000    0.571 
#    0.000    7.857    0.000    1.714    0.000    0.000 
#    0.000    0.000    0.000    0.000    0.000    0.000 
#
# Total GULP energy -347081.090873 kJ/mol
# GULP energy per Si atom -12395.753245 kJ/mol
# Density = 0.985406 g / cm^3
# Si number density = 9.876543 Si / 1000 Ang^3
#
#
#
# Elastic Constant Matrix: (Units=GPa)
#
#
# Indices 1 2 3 4 5 6 
#
# 1 105.8393 44.6899 20.5106 0.0000 0.0000 0.0000
# 2 44.6899 109.4726 15.3223 0.0000 0.0000 0.0000
# 3 20.5106 15.3223 76.3383 0.0000 0.0000 0.0000
# 4 0.0000 0.0000 0.0000 26.7034 0.0000 0.0000
# 5 0.0000 0.0000 0.0000 0.0000 26.4757 0.0000
# 6 0.0000 0.0000 0.0000 0.0000 0.0000 49.3374
#
#
#
# Elastic Compliance Matrix: (Units=1/GPa)
#
#
# Indices 1 2 3 4 5 6 
#
# 1 0.011785 -0.004494 -0.002264 0.000000 0.000000 0.000000
# 2 -0.004494 0.011112 -0.001023 0.000000 0.000000 0.000000
# 3 -0.002264 -0.001023 0.013913 0.000000 0.000000 0.000000
# 4 0.000000 0.000000 0.000000 0.037448 0.000000 0.000000
# 5 0.000000 0.000000 0.000000 0.000000 0.037771 0.000000
# 6 0.000000 0.000000 0.000000 0.000000 0.000000 0.020269
#
#
# Mechanical properties :
#
#
# Convention : Reuss Voigt Hill
#
# Bulk Modulus (GPa) = 47.06348 50.29954 48.68151
# Shear Modulus (GPa) = 32.26996 34.57847 33.42421
#
# Velocity S-wave (km/s) = 4.04625 4.18848 4.11798
# Velocity P-wave (km/s) = 6.76070 6.99361 6.87814
#
# Compressibility (1/GPa) = 0.02124790
#
# Stress axis : x y z
#
# Youngs Moduli (GPa) = 84.85649 89.98927 71.87377
#
# Poissons Ratio (x) = 0.40440 0.16274
# Poissons Ratio (y) = 0.38134 0.07353
# Poissons Ratio (z) = 0.19214 0.09206
#
# Static dielectric constant tensor:
#      x y z
#    x 4.016690 0.000000 0.000000 
#    y 0.000000 4.174770 0.000000 
#    z 0.000000 0.000000 3.782330 
# 
# 
# High freq. dielectric constant tensor:
#      x y z
#    x 1.785340 0.000000 0.000000 
#    y 0.000000 1.785750 0.000000 
#    z 0.000000 0.000000 1.742530 
# 
# From -- ./inp_files/10259.got.cif
#   From: 2010.03.12/outbox.ucp.g09.slc.cvg/sg23_6_cif.got.tgz:10259.got - 2010.05.04 21:03:00.
