data_PCOD8164409
_publ_section_title
;
Structure prediction by ZEFSAII (Michael W. Deem and Ramdas Pophale) SiO2 
 PCOD8164409
Probable space group: I 2 2 2
;
_chemical_formula_sum "Si O2"
_cell_formula_units_Z 32
_cell_length_a 24.819943
_cell_length_b 12.366270
_cell_length_c 4.875923
_cell_angle_alpha 90.000000
_cell_angle_beta 90.000000
_cell_angle_gamma 90.000000
_cell_volume 1496.567615
_symmetry_space_group_name_H-M "I 2 2 2"
_symmetry_group_IT_number 23
_symmetry_cell_setting 'orthorhombic'
loop_
_space_group_symop_operation_xyz
x,y,z
-x,-y,z
x,-y,-z
-x,y,-z
1/2+x,1/2+y,1/2+z
1/2-x,1/2-y,1/2+z
1/2+x,1/2-y,1/2-z
1/2-x,1/2+y,1/2-z
loop_
_atom_site_type_symbol
_atom_site_label
_atom_site_fract_x
_atom_site_fract_y
_atom_site_fract_z
Si Si1 0.864273 0.071044 0.752452
Si Si2 0.390752 0.126599 0.976679
Si Si3 0.786081 0.753044 0.464632
Si Si4 0.562923 0.245396 0.500825
O O1 0.814747 0.137942 0.631458
O O2 0.910007 0.145327 0.888929
O O3 0.888648 0.000000 0.500000
O O4 0.840721 0.000000 0.000000
O O5 0.416105 0.206889 0.203118
O O6 0.327343 0.152665 0.954333
O O7 0.422314 0.147676 0.697552
O O8 0.399059 0.000000 0.000000
O O9 0.765066 0.771625 0.772265
O O10 0.500000 0.267884 0.500000
#
# Coordination Sequence:
#
# PCOD8164409 Si02
#       4
#     8   8   8   8
#     4  11  23  42  64  91 126 163 208 259 311 372
#     4  11  24  42  64  94 128 163 209 259 310 374
#     4  11  23  41  63  90 124 162 206 256 309 368
#     4  11  24  43  65  93 128 164 207 260 313 372
#
# _framework density 21.382262999999998
#
# number of rings (size 3 to 8) (size 9 to 14) (size 15 to 20)
#    0.000    1.000    0.000    9.000    0.000    6.500 
#    0.000    6.250    0.000    0.000    0.000    0.000 
#    0.000    0.000    0.000    0.000    0.000    0.000 
#
# Total GULP energy -198410.925119 kJ/mol
# GULP energy per Si atom -12400.682820 kJ/mol
# Density = 2.133360 g / cm^3
# Si number density = 21.382263 Si / 1000 Ang^3
#
#
#
# Elastic Constant Matrix: (Units=GPa)
#
#
# Indices 1 2 3 4 5 6 
#
# 1 105.8163 8.3853 -2.5720 0.0000 -0.0001 0.0000
# 2 8.3853 -53.7023 -128.7475 0.0000 -0.0024 0.0004
# 3 -2.5720 -128.7475 -36.2606 0.0001 -0.0004 -0.0003
# 4 0.0000 0.0000 0.0001 44.5072 0.0002 0.0000
# 5 -0.0001 -0.0024 -0.0004 0.0002 -51.0890 0.0018
# 6 0.0000 0.0004 -0.0003 0.0000 0.0018 90.0192
#
#
#
# Elastic Compliance Matrix: (Units=1/GPa)
#
#
# Indices 1 2 3 4 5 6 
#
# 1 0.009502 -0.000413 0.000791 0.000000 0.000000 0.000000
# 2 -0.000413 0.002497 -0.008835 0.000000 0.000000 0.000000
# 3 0.000791 -0.008835 0.003737 0.000000 0.000000 0.000000
# 4 0.000000 0.000000 0.000000 0.022468 0.000000 0.000000
# 5 0.000000 0.000000 0.000000 0.000000 -0.019574 0.000000
# 6 0.000000 0.000000 0.000000 0.000000 0.000000 0.011109
#
#
# Mechanical properties :
#
#
# Convention : Reuss Voigt Hill
#
# Bulk Modulus (GPa) = -848.72712 -25.55723 -437.14217
# Shear Modulus (GPa) = 108.08379 25.93999 67.01189
#
# Velocity S-wave (km/s) = 7.11745 3.48682 5.60428
# Velocity P-wave (km/s) = 18.17273 2.05719 12.76746
#
# Compressibility (1/GPa) = -0.00117824
#
# Stress axis : x y z
#
# Youngs Moduli (GPa) = 105.23806 400.53552 267.60310
#
# Poissons Ratio (x) = 0.16526 -0.21167
# Poissons Ratio (y) = 0.04342 2.36438
# Poissons Ratio (z) = -0.08324 3.53889
#
# Static dielectric constant tensor:
#      x y z
#    x 3.736650 0.000000 0.000000 
#    y 0.000000 3.911700 0.000000 
#    z 0.000000 0.000000 4.128820 
# 
# 
# High freq. dielectric constant tensor:
#      x y z
#    x 1.832360 0.000000 0.000000 
#    y 0.000000 1.844990 0.000000 
#    z 0.000000 0.000000 1.866150 
# 
# From -- ./inp_files/1360.got.cif
#   From: 2010.03.12/outbox.cif.g09.slc.cpg/sg23_1_cif.got.tgz:1360.got - 2010.04.14 02:50:06.
