data_PCOD8164777
_publ_section_title
;
Structure prediction by ZEFSAII (Michael W. Deem and Ramdas Pophale) SiO2 
 PCOD8164777
Probable space group: I 21 21 21
;
_chemical_formula_sum "Si O2"
_cell_formula_units_Z 60
_cell_length_a 13.135002
_cell_length_b 9.632898
_cell_length_c 24.521827
_cell_angle_alpha 90.000000
_cell_angle_beta 90.000000
_cell_angle_gamma 90.000000
_cell_volume 3102.701025
_symmetry_space_group_name_H-M "I 21 21 21"
_symmetry_group_IT_number 24
_symmetry_cell_setting 'orthorhombic'
loop_
_space_group_symop_operation_xyz
x,y,z
-x,1/2-y,z
x,-y,1/2-z
1/2-x,y,-z
1/2+x,1/2+y,1/2+z
1/2-x,-y,1/2+z
1/2+x,1/2-y,-z
-x,1/2+y,1/2-z
loop_
_atom_site_type_symbol
_atom_site_label
_atom_site_fract_x
_atom_site_fract_y
_atom_site_fract_z
Si Si1 0.407915 0.660937 0.837580
Si Si2 0.971839 0.599275 0.519131
Si Si3 0.530094 0.908231 0.118399
Si Si4 0.506097 0.590423 0.603174
Si Si5 0.190292 0.389936 0.703498
Si Si6 0.858499 0.592178 0.801332
Si Si7 0.750000 0.500660 0.500000
Si Si8 0.688360 0.596940 0.890970
O O1 0.500000 0.750000 0.807909
O O2 0.436536 0.508793 0.859563
O O3 0.311988 0.635727 0.797921
O O4 0.377669 0.762220 0.887734
O O5 0.849986 0.594008 0.509916
O O6 0.000000 0.750000 0.542342
O O7 0.016043 0.489796 0.562141
O O8 0.026246 0.575656 0.460453
O O9 0.500000 0.750000 0.105233
O O10 0.644631 0.929357 0.143108
O O11 0.456362 0.964453 0.166323
O O12 0.500000 0.750000 0.623028
O O13 0.621833 0.542567 0.611076
O O14 0.163789 0.500000 0.750000
O O15 0.129545 0.250093 0.719825
O O16 0.834309 0.500000 0.750000
O O17 0.763092 0.587123 0.840920
O O18 0.744581 0.397490 0.551344
#
# Coordination Sequence:
#
# PCOD8164777 Si02
#       8
#     8   8   8   8   8   8   4   8
#     4   9  19  39  58  82 112 150 197 244 292 356
#     4  10  21  37  56  86 119 156 197 245 296 364
#     4  10  21  38  58  84 118 151 198 241 292 358
#     4   9  19  36  55  81 117 148 190 245 302 350
#     4  10  22  39  56  86 119 148 190 253 297 344
#     4  10  20  36  58  83 114 155 197 235 288 364
#     4  10  18  36  62  82 118 156 198 244 302 356
#     4   9  18  34  59  82 109 150 196 241 287 355
#
# _framework density 19.337990000000001
#
# number of rings (size 3 to 8) (size 9 to 14) (size 15 to 20)
#    0.000    2.400    1.333    0.400    0.000    4.800 
#    7.200    6.667    0.000    0.000    0.000    0.000 
#    0.000    0.000    0.000    0.000    0.000    0.000 
#
# Total GULP energy -371779.708739 kJ/mol
# GULP energy per Si atom -12392.656958 kJ/mol
# Density = 1.929398 g / cm^3
# Si number density = 19.337990 Si / 1000 Ang^3
#
#
#
# Elastic Constant Matrix: (Units=GPa)
#
#
# Indices 1 2 3 4 5 6 
#
# 1 69.1135 17.3324 9.3554 0.0000 0.0000 0.0000
# 2 17.3324 112.3086 38.4016 0.0000 0.0000 0.0000
# 3 9.3554 38.4016 63.2610 0.0000 0.0000 0.0000
# 4 0.0000 0.0000 0.0000 30.7218 0.0000 0.0000
# 5 0.0000 0.0000 0.0000 0.0000 21.6256 0.0000
# 6 0.0000 0.0000 0.0000 0.0000 0.0000 18.8370
#
#
#
# Elastic Compliance Matrix: (Units=1/GPa)
#
#
# Indices 1 2 3 4 5 6 
#
# 1 0.015105 -0.001978 -0.001033 0.000000 0.000000 0.000000
# 2 -0.001978 0.011495 -0.006686 0.000000 0.000000 0.000000
# 3 -0.001033 -0.006686 0.020019 0.000000 0.000000 0.000000
# 4 0.000000 0.000000 0.000000 0.032550 0.000000 0.000000
# 5 0.000000 0.000000 0.000000 0.000000 0.046242 0.000000
# 6 0.000000 0.000000 0.000000 0.000000 0.000000 0.053087
#
#
# Mechanical properties :
#
#
# Convention : Reuss Voigt Hill
#
# Bulk Modulus (GPa) = 36.73003 41.65132 39.19068
# Shear Modulus (GPa) = 24.15859 26.20979 25.18419
#
# Velocity S-wave (km/s) = 3.53835 3.68550 3.61268
# Velocity P-wave (km/s) = 5.97731 6.30047 6.14102
#
# Compressibility (1/GPa) = 0.02722568
#
# Stress axis : x y z
#
# Youngs Moduli (GPa) = 66.20404 86.99255 49.95343
#
# Poissons Ratio (x) = 0.17206 0.05161
# Poissons Ratio (y) = 0.13094 0.33396
# Poissons Ratio (z) = 0.06840 0.58159
#
# Static dielectric constant tensor:
#      x y z
#    x 3.712060 0.000000 0.000000 
#    y 0.000000 3.625740 0.000000 
#    z 0.000000 0.000000 3.346420 
# 
# 
# High freq. dielectric constant tensor:
#      x y z
#    x 1.759020 0.000000 0.000000 
#    y 0.000000 1.748910 0.000000 
#    z 0.000000 0.000000 1.737370 
# 
# From -- ./inp_files/37224.got.cif
#   From: 2010.03.12/outbox.cif.g09.slc.cpg/sg24_19_cif.got.tgz:37224.got - 2010.04.14 03:06:53.
