data_PCOD8164851
_publ_section_title
;
Structure prediction by ZEFSAII (Michael W. Deem and Ramdas Pophale) SiO2 
 PCOD8164851
Probable space group: I 21 21 21
;
_chemical_formula_sum "Si O2"
_cell_formula_units_Z 48
_cell_length_a 26.048418
_cell_length_b 18.025825
_cell_length_c 5.134910
_cell_angle_alpha 90.000000
_cell_angle_beta 90.000000
_cell_angle_gamma 90.000000
_cell_volume 2411.067333
_symmetry_space_group_name_H-M "I 21 21 21"
_symmetry_group_IT_number 24
_symmetry_cell_setting 'orthorhombic'
loop_
_space_group_symop_operation_xyz
x,y,z
-x,1/2-y,z
x,-y,1/2-z
1/2-x,y,-z
1/2+x,1/2+y,1/2+z
1/2-x,-y,1/2+z
1/2+x,1/2-y,-z
-x,1/2+y,1/2-z
loop_
_atom_site_type_symbol
_atom_site_label
_atom_site_fract_x
_atom_site_fract_y
_atom_site_fract_z
Si Si1 0.852218 0.827666 0.773795
Si Si2 0.351573 0.417092 0.770886
Si Si3 0.192353 0.965021 0.507526
Si Si4 0.473513 0.582629 0.723815
Si Si5 0.973914 0.171434 0.724551
Si Si6 0.281960 0.807453 0.269697
O O1 0.832151 0.874051 0.526227
O O2 0.913051 0.817659 0.768925
O O3 0.828667 0.745920 0.800776
O O4 0.832108 0.872338 0.022164
O O5 0.328420 0.500000 0.750000
O O6 0.412570 0.422130 0.773110
O O7 0.250000 0.998451 0.500000
O O8 0.194854 0.877257 0.565259
O O9 0.164810 0.000000 0.250000
O O10 0.161660 0.000000 0.750000
O O11 0.496780 0.500000 0.750000
O O12 0.493010 0.618409 0.456420
O O13 0.493123 0.633804 0.959096
O O14 0.000000 0.250000 0.758916
O O15 0.250000 0.766562 0.500000
O O16 0.250000 0.827165 0.000000
#
# Coordination Sequence:
#
# PCOD8164851 Si02
#       6
#     8   8   8   8   8   8
#     4  10  20  33  52  77 104 133 167 209 255 302
#     4   9  17  31  52  75  99 131 174 216 246 285
#     4   9  16  28  47  70  91 116 158 204 238 275
#     4   9  17  30  50  76 101 131 174 214 246 288
#     4  10  19  32  52  78 105 133 166 209 256 302
#     4  11  21  34  53  76 103 134 167 208 255 302
#
# _framework density 19.908194000000002
#
# number of rings (size 3 to 8) (size 9 to 14) (size 15 to 20)
#    0.000    2.333    0.000    5.000    0.000    4.000 
#    0.000    0.000    0.000   13.000    0.000    5.833 
#    0.000    0.000    0.000    0.000    0.000    0.000 
#
# Total GULP energy -297335.314477 kJ/mol
# GULP energy per Si atom -12388.971437 kJ/mol
# Density = 1.986288 g / cm^3
# Si number density = 19.908194 Si / 1000 Ang^3
#
#
#
# Elastic Constant Matrix: (Units=GPa)
#
#
# Indices 1 2 3 4 5 6 
#
# 1 18.3895 27.9846 18.5831 0.0000 0.0000 0.0000
# 2 27.9846 129.6512 51.1951 0.0000 0.0000 0.0000
# 3 18.5831 51.1951 165.1204 0.0000 0.0000 0.0000
# 4 0.0000 0.0000 0.0000 40.3557 0.0000 0.0000
# 5 0.0000 0.0000 0.0000 0.0000 7.5826 0.0000
# 6 0.0000 0.0000 0.0000 0.0000 0.0000 21.6907
#
#
#
# Elastic Compliance Matrix: (Units=1/GPa)
#
#
# Indices 1 2 3 4 5 6 
#
# 1 0.083629 -0.016334 -0.004347 0.000000 0.000000 0.000000
# 2 -0.016334 0.011979 -0.001876 0.000000 0.000000 0.000000
# 3 -0.004347 -0.001876 0.007127 0.000000 0.000000 0.000000
# 4 0.000000 0.000000 0.000000 0.024780 0.000000 0.000000
# 5 0.000000 0.000000 0.000000 0.000000 0.131881 0.000000
# 6 0.000000 0.000000 0.000000 0.000000 0.000000 0.046103
#
#
# Mechanical properties :
#
#
# Convention : Reuss Voigt Hill
#
# Bulk Modulus (GPa) = 17.35492 56.52074 36.93783
# Shear Modulus (GPa) = 13.52002 28.28570 20.90286
#
# Velocity S-wave (km/s) = 2.60882 3.77345 3.24383
# Velocity P-wave (km/s) = 4.22030 6.88749 5.71176
#
# Compressibility (1/GPa) = 0.05762054
#
# Stress axis : x y z
#
# Youngs Moduli (GPa) = 11.95751 83.47653 140.31014
#
# Poissons Ratio (x) = 1.36353 0.61000
# Poissons Ratio (y) = 0.19532 0.26320
# Poissons Ratio (z) = 0.05199 0.15659
#
# Static dielectric constant tensor:
#      x y z
#    x 2.967660 0.000000 0.000000 
#    y 0.000000 3.658250 0.000000 
#    z 0.000000 0.000000 4.311660 
# 
# 
# High freq. dielectric constant tensor:
#      x y z
#    x 1.702120 0.000000 0.000000 
#    y 0.000000 1.789320 0.000000 
#    z 0.000000 0.000000 1.805930 
# 
# From -- ./inp_files/7112.got.cif
#   From: 2010.03.12/outbox.cif.g09.slc.cpg/sg24_4_cif.got.tgz:7112.got - 2010.04.14 03:06:53.
