data_PCOD8164487
_publ_section_title
;
Structure prediction by ZEFSAII (Michael W. Deem and Ramdas Pophale) SiO2 
 PCOD8164487
Probable space group: I 2 2 2
;
_chemical_formula_sum "Si O2"
_cell_formula_units_Z 32
_cell_length_a 9.907593
_cell_length_b 16.209604
_cell_length_c 7.702332
_cell_angle_alpha 90.000000
_cell_angle_beta 90.000000
_cell_angle_gamma 90.000000
_cell_volume 1236.980340
_symmetry_space_group_name_H-M "I 2 2 2"
_symmetry_group_IT_number 23
_symmetry_cell_setting 'orthorhombic'
loop_
_space_group_symop_operation_xyz
x,y,z
-x,-y,z
x,-y,-z
-x,y,-z
1/2+x,1/2+y,1/2+z
1/2-x,1/2-y,1/2+z
1/2+x,1/2-y,1/2-z
1/2-x,1/2+y,1/2-z
loop_
_atom_site_type_symbol
_atom_site_label
_atom_site_fract_x
_atom_site_fract_y
_atom_site_fract_z
Si Si1 0.539553 0.176586 0.300312
Si Si2 0.301822 0.410739 0.147259
Si Si3 0.076421 0.859737 0.720792
Si Si4 0.685844 0.942977 0.165277
O O1 0.500000 0.178357 0.500000
O O2 0.696454 0.155092 0.277449
O O3 0.524584 0.265760 0.214674
O O4 0.449798 0.107947 0.202741
O O5 0.441284 0.412933 0.257185
O O6 0.229973 0.500426 0.168074
O O7 0.347850 0.383796 0.956478
O O8 0.189045 0.879196 0.868765
O O9 0.660563 0.000000 0.000000
#
# Coordination Sequence:
#
# PCOD8164487 Si02
#       4
#     8   8   8   8
#     4  12  27  49  81 117 167 216 268 336 416 489
#     4  11  26  47  80 113 162 209 273 325 406 477
#     4  11  26  49  78 116 160 215 268 330 403 488
#     4  12  28  50  84 121 162 208 274 339 410 487
#
# _framework density 25.869448999999999
#
# number of rings (size 3 to 8) (size 9 to 14) (size 15 to 20)
#    0.000    0.500    2.500    3.750    3.500   10.000 
#    0.000    0.000    0.000    0.000    0.000    0.000 
#    0.000    0.000    0.000    0.000    0.000    0.000 
#
# Total GULP energy -198285.902619 kJ/mol
# GULP energy per Si atom -12392.868914 kJ/mol
# Density = 2.581057 g / cm^3
# Si number density = 25.869449 Si / 1000 Ang^3
#
#
#
# Elastic Constant Matrix: (Units=GPa)
#
#
# Indices 1 2 3 4 5 6 
#
# 1 195.9938 58.2968 52.4157 0.0001 0.0000 0.0000
# 2 58.2968 168.7803 67.7191 -0.0001 0.0000 0.0000
# 3 52.4157 67.7191 112.3580 -0.0008 0.0002 0.0002
# 4 0.0001 -0.0001 -0.0008 43.2463 0.0001 0.0001
# 5 0.0000 0.0000 0.0002 0.0001 21.3986 0.0000
# 6 0.0000 0.0000 0.0002 0.0001 0.0000 61.6219
#
#
#
# Elastic Compliance Matrix: (Units=1/GPa)
#
#
# Indices 1 2 3 4 5 6 
#
# 1 0.006025 -0.001257 -0.002053 0.000000 0.000000 0.000000
# 2 -0.001257 0.008077 -0.004281 0.000000 0.000000 0.000000
# 3 -0.002053 -0.004281 0.012438 0.000000 0.000000 0.000000
# 4 0.000000 0.000000 0.000000 0.023123 0.000000 0.000000
# 5 0.000000 0.000000 0.000000 0.000000 0.046732 0.000000
# 6 0.000000 0.000000 0.000000 0.000000 0.000000 0.016228
#
#
# Mechanical properties :
#
#
# Convention : Reuss Voigt Hill
#
# Bulk Modulus (GPa) = 88.05253 92.66614 90.35934
# Shear Modulus (GPa) = 37.99582 45.16671 41.58127
#
# Velocity S-wave (km/s) = 3.83659 4.18299 4.01353
# Velocity P-wave (km/s) = 7.33055 7.69599 7.51550
#
# Compressibility (1/GPa) = 0.01135686
#
# Stress axis : x y z
#
# Youngs Moduli (GPa) = 165.96830 123.80789 80.39663
#
# Poissons Ratio (x) = 0.15568 0.16505
# Poissons Ratio (y) = 0.20869 0.34422
# Poissons Ratio (z) = 0.34072 0.53008
#
# Static dielectric constant tensor:
#      x y z
#    x 5.806110 0.000000 0.000000 
#    y 0.000000 5.165360 0.000000 
#    z 0.000000 0.000000 4.666320 
# 
# 
# High freq. dielectric constant tensor:
#      x y z
#    x 2.065170 0.000000 0.000000 
#    y 0.000000 2.046920 0.000000 
#    z 0.000000 0.000000 2.018810 
# 
# From -- ./inp_files/8104.got.cif
#   From: 2010.03.12/outbox.cif.g09.slc.cpg/sg23_5_cif.got.tgz:8104.got - 2010.04.14 02:50:06.
