data_PCOD8164855
_publ_section_title
;
Structure prediction by ZEFSAII (Michael W. Deem and Ramdas Pophale) SiO2 
 PCOD8164855
Probable space group: I 21 21 21
;
_chemical_formula_sum "Si O2"
_cell_formula_units_Z 64
_cell_length_a 13.217451
_cell_length_b 31.387571
_cell_length_c 9.705989
_cell_angle_alpha 90.000000
_cell_angle_beta 90.000000
_cell_angle_gamma 90.000000
_cell_volume 4026.662331
_symmetry_space_group_name_H-M "I 21 21 21"
_symmetry_group_IT_number 24
_symmetry_cell_setting 'orthorhombic'
loop_
_space_group_symop_operation_xyz
x,y,z
-x,1/2-y,z
x,-y,1/2-z
1/2-x,y,-z
1/2+x,1/2+y,1/2+z
1/2-x,-y,1/2+z
1/2+x,1/2-y,-z
-x,1/2+y,1/2-z
loop_
_atom_site_type_symbol
_atom_site_label
_atom_site_fract_x
_atom_site_fract_y
_atom_site_fract_z
Si Si1 0.651495 0.550564 0.406791
Si Si2 0.371114 0.860912 0.509369
Si Si3 0.634259 0.775653 0.158762
Si Si4 0.942272 0.317759 0.277418
Si Si5 0.559278 0.686812 0.260349
Si Si6 0.369092 0.869550 0.027358
Si Si7 0.849328 0.541107 0.911215
Si Si8 0.362013 0.728030 0.835965
O O1 0.750000 0.549854 0.500000
O O2 0.589450 0.592205 0.458569
O O3 0.681020 0.553564 0.245688
O O4 0.592191 0.504733 0.423276
O O5 0.250000 0.857777 0.500000
O O6 0.408057 0.851610 0.663408
O O7 0.425608 0.824478 0.419816
O O8 0.613534 0.731272 0.232811
O O9 0.559927 0.811194 0.222237
O O10 0.749365 0.789593 0.189032
O O11 0.612240 0.769722 0.997497
O O12 0.932671 0.341920 0.421455
O O13 0.871724 0.275758 0.275317
O O14 0.059414 0.303617 0.260977
O O15 0.614667 0.649571 0.177906
O O16 0.250000 0.868504 0.000000
O O17 0.410765 0.918495 0.027240
O O18 0.750000 0.535100 0.000000
#
# Coordination Sequence:
#
# PCOD8164855 Si02
#       8
#     8   8   8   8   8   8   8   8
#     4   9  18  31  42  65  99 128 156 194 243 281
#     4  11  22  32  46  69 102 133 156 198 238 280
#     4  10  19  32  53  70  95 120 162 211 245 277
#     4  11  21  33  48  70  97 126 166 198 238 287
#     4  11  19  33  47  73  92 125 166 197 236 283
#     4  11  18  28  48  70  91 126 165 193 226 283
#     4   9  18  29  46  66  92 129 164 193 231 291
#     4  10  19  34  50  71  94 126 158 208 249 275
#
# _framework density 15.894057
#
# number of rings (size 3 to 8) (size 9 to 14) (size 15 to 20)
#    0.000    1.750    3.750    3.000    5.250    2.000 
#    0.000    1.875    0.000    0.000    0.000    0.000 
#    0.000    6.000    0.000    0.000    0.000    0.000 
#
# Total GULP energy -396540.340959 kJ/mol
# GULP energy per Si atom -12391.885655 kJ/mol
# Density = 1.585788 g / cm^3
# Si number density = 15.894057 Si / 1000 Ang^3
#
#
#
# Elastic Constant Matrix: (Units=GPa)
#
#
# Indices 1 2 3 4 5 6 
#
# 1 74.2461 27.6403 13.0614 0.0004 -0.0004 0.0001
# 2 27.6403 103.1882 21.8159 0.0034 -0.0009 -0.0004
# 3 13.0614 21.8159 51.7872 0.0089 -0.0060 -0.0004
# 4 0.0004 0.0034 0.0089 19.1593 -0.0001 -0.0002
# 5 -0.0004 -0.0009 -0.0060 -0.0001 20.6893 0.0004
# 6 0.0001 -0.0004 -0.0004 -0.0002 0.0004 10.3928
#
#
#
# Elastic Compliance Matrix: (Units=1/GPa)
#
#
# Indices 1 2 3 4 5 6 
#
# 1 0.015212 -0.003583 -0.002327 0.000001 -0.000001 0.000000
# 2 -0.003583 0.011482 -0.003933 0.000000 -0.000001 0.000000
# 3 -0.002327 -0.003933 0.021554 -0.000009 0.000006 0.000001
# 4 0.000001 0.000000 -0.000009 0.052194 0.000000 0.000001
# 5 -0.000001 -0.000001 0.000006 0.000000 0.048334 -0.000002
# 6 0.000000 0.000000 0.000001 0.000001 -0.000002 0.096221
#
#
# Mechanical properties :
#
#
# Convention : Reuss Voigt Hill
#
# Bulk Modulus (GPa) = 35.01277 39.36183 37.18730
# Shear Modulus (GPa) = 18.23458 21.16186 19.69822
#
# Velocity S-wave (km/s) = 3.39079 3.65284 3.52425
# Velocity P-wave (km/s) = 6.11610 6.52762 6.32521
#
# Compressibility (1/GPa) = 0.02856101
#
# Stress axis : x y z
#
# Youngs Moduli (GPa) = 65.73797 87.09057 46.39551
#
# Poissons Ratio (x) = 0.31201 0.10798
# Poissons Ratio (y) = 0.23552 0.18249
# Poissons Ratio (z) = 0.15300 0.34257
#
# Static dielectric constant tensor:
#      x y z
#    x 2.794930 0.000000 0.000000 
#    y 0.000000 3.514070 0.000000 
#    z 0.000000 0.000000 3.072580 
# 
# 
# High freq. dielectric constant tensor:
#      x y z
#    x 1.563370 0.000000 0.000000 
#    y 0.000000 1.616390 0.000000 
#    z 0.000000 0.000000 1.618210 
# 
# From -- ./inp_files/13469.got.cif
#   From: 2010.03.12/outbox.cif.g09.slc.cpg/sg24_7_cif.got.tgz:13469.got - 2010.04.14 03:06:53.
