data_PCOD8164913
_publ_section_title
;
Structure prediction by ZEFSAII (Michael W. Deem and Ramdas Pophale) SiO2 
 PCOD8164913
Probable space group: I 21 21 21
;
_chemical_formula_sum "Si O2"
_cell_formula_units_Z 52
_cell_length_a 22.036765
_cell_length_b 14.321954
_cell_length_c 9.315158
_cell_angle_alpha 90.000000
_cell_angle_beta 90.000000
_cell_angle_gamma 90.000000
_cell_volume 2939.952681
_symmetry_space_group_name_H-M "I 21 21 21"
_symmetry_group_IT_number 24
_symmetry_cell_setting 'orthorhombic'
loop_
_space_group_symop_operation_xyz
x,y,z
-x,1/2-y,z
x,-y,1/2-z
1/2-x,y,-z
1/2+x,1/2+y,1/2+z
1/2-x,-y,1/2+z
1/2+x,1/2-y,-z
-x,1/2+y,1/2-z
loop_
_atom_site_type_symbol
_atom_site_label
_atom_site_fract_x
_atom_site_fract_y
_atom_site_fract_z
Si Si1 0.776651 0.781976 0.842984
Si Si2 0.494751 0.639180 0.366219
Si Si3 0.420204 0.533554 0.594747
Si Si4 0.611170 0.912603 0.160950
Si Si5 0.906209 0.500000 0.750000
Si Si6 0.710490 0.570561 0.139230
Si Si7 0.787670 0.915448 0.356461
O O1 0.841872 0.829418 0.837094
O O2 0.785385 0.675079 0.802648
O O3 0.732038 0.820581 0.720984
O O4 0.750000 0.798463 0.000000
O O5 0.500000 0.750000 0.387811
O O6 0.470319 0.596726 0.516073
O O7 0.449927 0.621492 0.235068
O O8 0.555900 0.584037 0.322974
O O9 0.444668 0.500000 0.750000
O O10 0.404725 0.441505 0.501555
O O11 0.358865 0.594094 0.609806
O O12 0.638722 0.000000 0.250000
O O13 0.861494 0.543357 0.873930
O O14 0.742443 0.500000 0.250000
O O15 0.750000 0.558164 0.000000
O O16 0.750000 0.934090 0.500000
O O17 0.773944 0.000000 0.250000
#
# Coordination Sequence:
#
# PCOD8164913 Si02
#       7
#     8   8   8   8   4   8   8
#     4  11  20  34  56  85 117 155 190 233 288 344
#     4  11  21  39  62  85 110 153 207 242 279 346
#     4  10  20  35  54  81 127 151 179 242 295 340
#     4  10  19  34  57  85 117 152 191 233 278 343
#     4  10  20  42  66  82 108 154 194 240 298 330
#     4   9  22  41  61  83 112 144 193 245 286 334
#     4  11  20  31  52  86 123 156 182 221 290 353
#
# _framework density 17.687360000000002
#
# number of rings (size 3 to 8) (size 9 to 14) (size 15 to 20)
#    0.462    1.231    2.308    6.462    0.000    0.615 
#    2.769    1.538    3.385    0.000    0.000    0.000 
#    0.000    0.000    0.000    0.000    0.000    0.000 
#
# Total GULP energy -322289.094702 kJ/mol
# GULP energy per Si atom -12395.734412 kJ/mol
# Density = 1.764710 g / cm^3
# Si number density = 17.687360 Si / 1000 Ang^3
#
#
#
# Elastic Constant Matrix: (Units=GPa)
#
#
# Indices 1 2 3 4 5 6 
#
# 1 119.9066 64.5331 53.5088 0.0000 0.0000 0.0000
# 2 64.5331 145.0614 67.0180 0.0000 0.0000 0.0000
# 3 53.5088 67.0180 115.6437 0.0000 0.0000 0.0000
# 4 0.0000 0.0000 0.0000 20.3980 0.0000 0.0000
# 5 0.0000 0.0000 0.0000 0.0000 6.9199 0.0000
# 6 0.0000 0.0000 0.0000 0.0000 0.0000 -74.9754
#
#
#
# Elastic Compliance Matrix: (Units=1/GPa)
#
#
# Indices 1 2 3 4 5 6 
#
# 1 0.011825 -0.003732 -0.003309 0.000000 0.000000 0.000000
# 2 -0.003732 0.010592 -0.004411 0.000000 0.000000 0.000000
# 3 -0.003309 -0.004411 0.012735 0.000000 0.000000 0.000000
# 4 0.000000 0.000000 0.000000 0.049024 0.000000 0.000000
# 5 0.000000 0.000000 0.000000 0.000000 0.144511 0.000000
# 6 0.000000 0.000000 0.000000 0.000000 0.000000 -0.013338
#
#
# Mechanical properties :
#
#
# Convention : Reuss Voigt Hill
#
# Bulk Modulus (GPa) = 81.65015 83.41462 82.53239
# Shear Modulus (GPa) = 20.63254 3.50530 12.06892
#
# Velocity S-wave (km/s) = 3.41913 1.40930 2.61501
# Velocity P-wave (km/s) = 7.86451 7.06478 7.47535
#
# Compressibility (1/GPa) = 0.01224737
#
# Stress axis : x y z
#
# Youngs Moduli (GPa) = 84.56795 94.41163 78.52532
#
# Poissons Ratio (x) = 0.35233 0.25982
# Poissons Ratio (y) = 0.31560 0.34641
# Poissons Ratio (z) = 0.27981 0.41650
#
# Static dielectric constant tensor:
#      x y z
#    x 3.277560 0.000000 0.000000 
#    y 0.000000 3.526790 0.000000 
#    z 0.000000 0.000000 3.803920 
# 
# 
# High freq. dielectric constant tensor:
#      x y z
#    x 1.683810 0.000000 0.000000 
#    y 0.000000 1.683120 0.000000 
#    z 0.000000 0.000000 1.683230 
# 
# From -- ./inp_files/15953.got.cif
#   From: 2010.03.12/outbox.cif.g09.slc.cpg/sg24_8_cif.got.tgz:15953.got - 2010.04.14 03:06:53.
