data_PCOD8164360
_publ_section_title
;
Structure prediction by ZEFSAII (Michael W. Deem and Ramdas Pophale) SiO2 
 PCOD8164360
Probable space group: I 2 2 2
;
_chemical_formula_sum "Si O2"
_cell_formula_units_Z 48
_cell_length_a 20.028847
_cell_length_b 17.994514
_cell_length_c 7.501232
_cell_angle_alpha 90.000000
_cell_angle_beta 90.000000
_cell_angle_gamma 90.000000
_cell_volume 2703.514282
_symmetry_space_group_name_H-M "I 2 2 2"
_symmetry_group_IT_number 23
_symmetry_cell_setting 'orthorhombic'
loop_
_space_group_symop_operation_xyz
x,y,z
-x,-y,z
x,-y,-z
-x,y,-z
1/2+x,1/2+y,1/2+z
1/2-x,1/2-y,1/2+z
1/2+x,1/2-y,1/2-z
1/2-x,1/2+y,1/2-z
loop_
_atom_site_type_symbol
_atom_site_label
_atom_site_fract_x
_atom_site_fract_y
_atom_site_fract_z
Si Si1 0.923403 0.306420 0.703183
Si Si2 0.810332 0.804203 0.202511
Si Si3 0.076596 0.306420 0.703184
Si Si4 0.689668 0.695797 0.297490
Si Si5 0.222134 0.914084 0.500000
Si Si6 0.379532 0.085722 0.500001
O O1 0.880131 0.237432 0.770779
O O2 0.904864 0.327071 0.499999
O O3 0.910032 0.378709 0.822261
O O4 1.000000 0.281791 0.721019
O O5 0.803394 0.831111 0.000000
O O6 0.750000 0.750000 0.250000
O O7 0.809083 0.877036 0.324554
O O8 0.119868 0.237431 0.770780
O O9 0.089968 0.378708 0.822263
O O10 0.690917 0.622964 0.175446
O O11 0.300879 0.901031 0.500000
O O12 0.202341 0.000000 0.500000
O O13 0.399424 0.000000 0.500000
#
# Coordination Sequence:
#
# PCOD8164360 Si02
#       6
#     8   8   8   8   8   8
#     4  11  22  36  58  87 115 154 198 238 287 344
#     4  12  20  36  63  85 113 153 197 243 286 337
#     4  11  22  36  58  87 115 154 198 238 287 344
#     4  12  20  36  63  85 113 153 197 243 286 337
#     4  11  24  39  59  91 123 151 193 244 297 341
#     4  11  23  38  57  85 124 160 190 237 291 347
#
# _framework density 17.754669
#
# number of rings (size 3 to 8) (size 9 to 14) (size 15 to 20)
#    0.000    0.667    8.333    0.500    0.000    2.667 
#    0.000    5.000    0.000    2.000    0.000    2.333 
#    0.000    0.000    0.000    0.000    0.000    0.000 
#
# Total GULP energy -297728.796634 kJ/mol
# GULP energy per Si atom -12405.366526 kJ/mol
# Density = 1.771426 g / cm^3
# Si number density = 17.754669 Si / 1000 Ang^3
#
#
#
# Elastic Constant Matrix: (Units=GPa)
#
#
# Indices 1 2 3 4 5 6 
#
# 1 87.1996 45.4015 37.0014 0.0000 0.0000 0.0000
# 2 45.4015 114.1288 70.6343 0.0000 0.0000 0.0000
# 3 37.0014 70.6343 184.4691 0.0000 0.0000 0.0000
# 4 0.0000 0.0000 0.0000 34.9743 0.0000 0.0000
# 5 0.0000 0.0000 0.0000 0.0000 63.8248 0.0000
# 6 0.0000 0.0000 0.0000 0.0000 0.0000 23.8089
#
#
#
# Elastic Compliance Matrix: (Units=1/GPa)
#
#
# Indices 1 2 3 4 5 6 
#
# 1 0.014582 -0.005230 -0.000922 0.000000 0.000000 0.000000
# 2 -0.005230 0.013359 -0.004066 0.000000 0.000000 0.000000
# 3 -0.000922 -0.004066 0.007163 0.000000 0.000000 0.000000
# 4 0.000000 0.000000 0.000000 0.028592 0.000000 0.000000
# 5 0.000000 0.000000 0.000000 0.000000 0.015668 0.000000
# 6 0.000000 0.000000 0.000000 0.000000 0.000000 0.042001
#
#
# Mechanical properties :
#
#
# Convention : Reuss Voigt Hill
#
# Bulk Modulus (GPa) = 68.17968 76.87464 72.52716
# Shear Modulus (GPa) = 34.08486 40.03896 37.06191
#
# Velocity S-wave (km/s) = 4.38627 4.75397 4.57381
# Velocity P-wave (km/s) = 8.00855 8.57472 8.29647
#
# Compressibility (1/GPa) = 0.01466713
#
# Stress axis : x y z
#
# Youngs Moduli (GPa) = 68.57542 74.85451 139.60729
#
# Poissons Ratio (x) = 0.39151 0.12876
# Poissons Ratio (y) = 0.35866 0.56768
# Poissons Ratio (z) = 0.06325 0.30438
#
# Static dielectric constant tensor:
#      x y z
#    x 3.408240 0.000000 0.000000 
#    y 0.000000 3.155260 0.000000 
#    z 0.000000 0.000000 4.109350 
# 
# 
# High freq. dielectric constant tensor:
#      x y z
#    x 1.690760 0.000000 0.000000 
#    y 0.000000 1.664550 0.000000 
#    z 0.000000 0.000000 1.711020 
# 
# From -- ./inp_files/21648.got.cif
#   From: 2010.03.12/outbox.cif.g09.slc.cpg/sg23_11_cif.got.tgz:21648.got - 2010.04.14 02:50:06.
