data_PCOD8164445
_publ_section_title
;
Structure prediction by ZEFSAII (Michael W. Deem and Ramdas Pophale) SiO2 
 PCOD8164445
Probable space group: I 2 2 2
;
_chemical_formula_sum "Si O2"
_cell_formula_units_Z 64
_cell_length_a 14.094674
_cell_length_b 9.404512
_cell_length_c 22.536737
_cell_angle_alpha 90.000000
_cell_angle_beta 90.000000
_cell_angle_gamma 90.000000
_cell_volume 2987.324061
_symmetry_space_group_name_H-M "I 2 2 2"
_symmetry_group_IT_number 23
_symmetry_cell_setting 'orthorhombic'
loop_
_space_group_symop_operation_xyz
x,y,z
-x,-y,z
x,-y,-z
-x,y,-z
1/2+x,1/2+y,1/2+z
1/2-x,1/2-y,1/2+z
1/2+x,1/2-y,1/2-z
1/2-x,1/2+y,1/2-z
loop_
_atom_site_type_symbol
_atom_site_label
_atom_site_fract_x
_atom_site_fract_y
_atom_site_fract_z
Si Si1 0.896315 0.169726 0.495437
Si Si2 0.655274 0.701107 0.651949
Si Si3 0.109225 0.843653 0.984941
Si Si4 0.066954 0.879673 0.279587
Si Si5 0.304716 0.591492 0.882086
Si Si6 0.768287 0.100252 0.191971
Si Si7 0.439826 0.140112 0.752312
Si Si8 0.239160 0.292666 0.922214
O O1 0.841904 0.197032 0.433888
O O2 0.840684 0.244699 0.548917
O O3 0.000000 0.238350 0.500000
O O4 0.901232 0.000000 0.500000
O O5 0.620759 0.687384 0.584524
O O6 0.736508 0.817479 0.658898
O O7 0.700653 0.558889 0.677768
O O8 0.570827 0.763143 0.692848
O O9 0.160517 0.727443 0.026472
O O10 0.000000 0.835879 0.000000
O O11 0.150657 0.000000 0.000000
O O12 0.106035 0.950586 0.340760
O O13 0.005787 0.738228 0.294657
O O14 0.155185 0.837285 0.237724
O O15 0.000000 0.000000 0.249739
O O16 0.243241 0.457731 0.904085
O O17 0.661024 0.105760 0.216969
O O18 0.778871 0.193763 0.133369
O O19 0.500000 0.000000 0.736739
#
# Coordination Sequence:
#
# PCOD8164445 Si02
#       8
#     8   8   8   8   8   8   8   8
#     4   9  20  38  63  99 135 173 223 279 343 407
#     4  12  25  47  71 100 143 191 227 296 360 419
#     4  11  25  45  71 102 137 186 237 285 355 433
#     4  12  26  45  73 103 141 190 241 287 364 430
#     4  11  24  41  71 100 145 177 232 297 352 415
#     4  12  27  47  71 101 146 190 238 289 358 431
#     4  12  29  46  72 109 143 187 243 300 355 425
#     4  11  24  43  72 101 136 186 236 288 350 420
#
# _framework density 21.423857000000002
#
# number of rings (size 3 to 8) (size 9 to 14) (size 15 to 20)
#    0.000    0.750    5.000    1.500    8.750    0.000 
#    0.000    0.625    0.000    0.750    0.000    0.000 
#    0.000    0.000    0.000    0.000    0.000    0.000 
#
# Total GULP energy -396698.970770 kJ/mol
# GULP energy per Si atom -12396.842837 kJ/mol
# Density = 2.137510 g / cm^3
# Si number density = 21.423857 Si / 1000 Ang^3
#
#
#
# Elastic Constant Matrix: (Units=GPa)
#
#
# Indices 1 2 3 4 5 6 
#
# 1 109.5131 47.5832 29.8886 0.0000 0.0000 0.0000
# 2 47.5832 112.9079 35.0864 0.0000 0.0000 0.0000
# 3 29.8886 35.0864 109.0075 0.0000 0.0000 0.0000
# 4 0.0000 0.0000 0.0000 27.5776 0.0000 0.0000
# 5 0.0000 0.0000 0.0000 0.0000 28.5123 0.0000
# 6 0.0000 0.0000 0.0000 0.0000 0.0000 29.6456
#
#
#
# Elastic Compliance Matrix: (Units=1/GPa)
#
#
# Indices 1 2 3 4 5 6 
#
# 1 0.011476 -0.004288 -0.001767 0.000000 0.000000 0.000000
# 2 -0.004288 0.011443 -0.002508 0.000000 0.000000 0.000000
# 3 -0.001767 -0.002508 0.010465 0.000000 0.000000 0.000000
# 4 0.000000 0.000000 0.000000 0.036261 0.000000 0.000000
# 5 0.000000 0.000000 0.000000 0.000000 0.035073 0.000000
# 6 0.000000 0.000000 0.000000 0.000000 0.000000 0.033732
#
#
# Mechanical properties :
#
#
# Convention : Reuss Voigt Hill
#
# Bulk Modulus (GPa) = 61.49687 61.83835 61.66761
# Shear Modulus (GPa) = 31.05703 31.73845 31.39774
#
# Velocity S-wave (km/s) = 3.81155 3.85314 3.83240
# Velocity P-wave (km/s) = 6.93814 6.98015 6.95918
#
# Compressibility (1/GPa) = 0.01626099
#
# Stress axis : x y z
#
# Youngs Moduli (GPa) = 87.13512 87.39022 95.55484
#
# Poissons Ratio (x) = 0.37469 0.16881
# Poissons Ratio (y) = 0.37360 0.23961
# Poissons Ratio (z) = 0.15394 0.21914
#
# Static dielectric constant tensor:
#      x y z
#    x 4.094770 0.000000 0.000000 
#    y 0.000000 3.816590 0.000000 
#    z 0.000000 0.000000 4.015480 
# 
# 
# High freq. dielectric constant tensor:
#      x y z
#    x 1.854920 0.000000 0.000000 
#    y 0.000000 1.827680 0.000000 
#    z 0.000000 0.000000 1.851820 
# 
# From -- ./inp_files/28583.got.cif
#   From: 2010.03.12/outbox.cif.g09.slc.cpg/sg23_15_cif.got.tgz:28583.got - 2010.04.14 02:50:06.
