data_PCOD8164314
_publ_section_title
;
Structure prediction by ZEFSAII (Michael W. Deem and Ramdas Pophale) SiO2 
 PCOD8164314
Probable space group: I 2 2 2
;
_chemical_formula_sum "Si O2"
_cell_formula_units_Z 48
_cell_length_a 15.237862
_cell_length_b 13.830957
_cell_length_c 11.939058
_cell_angle_alpha 90.000000
_cell_angle_beta 90.000000
_cell_angle_gamma 90.000000
_cell_volume 2516.206786
_symmetry_space_group_name_H-M "I 2 2 2"
_symmetry_group_IT_number 23
_symmetry_cell_setting 'orthorhombic'
loop_
_space_group_symop_operation_xyz
x,y,z
-x,-y,z
x,-y,-z
-x,y,-z
1/2+x,1/2+y,1/2+z
1/2-x,1/2-y,1/2+z
1/2+x,1/2-y,1/2-z
1/2-x,1/2+y,1/2-z
loop_
_atom_site_type_symbol
_atom_site_label
_atom_site_fract_x
_atom_site_fract_y
_atom_site_fract_z
Si Si1 0.116209 0.275336 0.154042
Si Si2 0.184463 0.275295 0.402438
Si Si3 0.789320 0.606395 0.969296
Si Si4 0.691846 0.601956 0.534993
Si Si5 0.117010 0.591378 0.428919
Si Si6 0.954806 0.399433 0.187381
O O1 0.151307 0.290370 0.278298
O O2 0.124149 0.164654 0.110165
O O3 0.015383 0.309978 0.147642
O O4 0.177575 0.343877 0.081752
O O5 0.204005 0.162457 0.423360
O O6 0.275396 0.336072 0.425955
O O7 0.110527 0.314247 0.489906
O O8 0.863283 0.607961 0.874612
O O9 0.757611 0.500000 0.000000
O O10 0.646297 0.500000 0.500000
O O11 0.780325 0.575920 0.606557
O O12 0.082649 0.500000 0.500000
O O13 0.057842 0.606307 0.320487
O O14 0.000000 0.500000 0.152845
#
# Coordination Sequence:
#
# PCOD8164314 Si02
#       6
#     8   8   8   8   8   8
#     4  11  21  34  56  85 117 154 185 237 298 341
#     4   9  20  36  59  82 110 155 199 237 274 335
#     4  11  23  37  55  86 119 153 189 234 290 348
#     4   8  18  36  56  79 112 150 203 235 263 335
#     4   9  19  36  56  87 115 155 191 238 275 335
#     4  12  23  33  57  89 132 149 176 233 308 358
#
# _framework density 19.076335
#
# number of rings (size 3 to 8) (size 9 to 14) (size 15 to 20)
#    1.000    1.000    1.667    2.500    0.000    3.667 
#    0.000    0.000    0.000    9.000    0.000    1.167 
#    0.000    0.000    0.000    0.000    0.000    0.000 
#
# Total GULP energy -297434.835029 kJ/mol
# GULP energy per Si atom -12393.118126 kJ/mol
# Density = 1.903292 g / cm^3
# Si number density = 19.076335 Si / 1000 Ang^3
#
#
#
# Elastic Constant Matrix: (Units=GPa)
#
#
# Indices 1 2 3 4 5 6 
#
# 1 31.5494 22.6462 3.6280 0.0000 0.0000 0.0000
# 2 22.6462 123.6255 22.6138 0.0000 0.0000 0.0000
# 3 3.6280 22.6138 65.5398 0.0000 0.0000 0.0000
# 4 0.0000 0.0000 0.0000 29.7905 0.0000 0.0000
# 5 0.0000 0.0000 0.0000 0.0000 26.0976 0.0000
# 6 0.0000 0.0000 0.0000 0.0000 0.0000 -1.4278
#
#
#
# Elastic Compliance Matrix: (Units=1/GPa)
#
#
# Indices 1 2 3 4 5 6 
#
# 1 0.036501 -0.006742 0.000306 0.000000 0.000000 0.000000
# 2 -0.006742 0.009879 -0.003036 0.000000 0.000000 0.000000
# 3 0.000306 -0.003036 0.016288 0.000000 0.000000 0.000000
# 4 0.000000 0.000000 0.000000 0.033568 0.000000 0.000000
# 5 0.000000 0.000000 0.000000 0.000000 0.038318 0.000000
# 6 0.000000 0.000000 0.000000 0.000000 0.000000 -0.700355
#
#
# Mechanical properties :
#
#
# Convention : Reuss Voigt Hill
#
# Bulk Modulus (GPa) = 22.87050 35.38786 29.12918
# Shear Modulus (GPa) = -9.39352 22.34716 6.47682
#
# Velocity S-wave (km/s) = -2.22146 3.42637 1.84461
# Velocity P-wave (km/s) = 2.33134 5.85186 4.45418
#
# Compressibility (1/GPa) = 0.04372446
#
# Stress axis : x y z
#
# Youngs Moduli (GPa) = 27.39667 101.22192 61.39357
#
# Poissons Ratio (x) = 0.68247 -0.01878
# Poissons Ratio (y) = 0.18472 0.18636
# Poissons Ratio (z) = -0.00838 0.30726
#
# Static dielectric constant tensor:
#      x y z
#    x 3.228870 0.000000 0.000000 
#    y 0.000000 4.344000 0.000000 
#    z 0.000000 0.000000 3.415910 
# 
# 
# High freq. dielectric constant tensor:
#      x y z
#    x 1.705650 0.000000 0.000000 
#    y 0.000000 1.740010 0.000000 
#    z 0.000000 0.000000 1.744400 
# 
# From -- ./inp_files/17409.got.cif
#   From: 2010.03.12/outbox.cif.g09.slc.cpg/sg23_9_cif.got.tgz:17409.got - 2010.04.14 02:50:06.
