data_PCOD8164388
_publ_section_title
;
Structure prediction by ZEFSAII (Michael W. Deem and Ramdas Pophale) SiO2 
 PCOD8164388
Probable space group: I 2 2 2
;
_chemical_formula_sum "Si O2"
_cell_formula_units_Z 36
_cell_length_a 7.272138
_cell_length_b 13.098698
_cell_length_c 15.603125
_cell_angle_alpha 90.000000
_cell_angle_beta 90.000000
_cell_angle_gamma 90.000000
_cell_volume 1486.284089
_symmetry_space_group_name_H-M "I 2 2 2"
_symmetry_group_IT_number 23
_symmetry_cell_setting 'orthorhombic'
loop_
_space_group_symop_operation_xyz
x,y,z
-x,-y,z
x,-y,-z
-x,y,-z
1/2+x,1/2+y,1/2+z
1/2-x,1/2-y,1/2+z
1/2+x,1/2-y,1/2-z
1/2-x,1/2+y,1/2-z
loop_
_atom_site_type_symbol
_atom_site_label
_atom_site_fract_x
_atom_site_fract_y
_atom_site_fract_z
Si Si1 0.611461 0.377432 0.675146
Si Si2 0.500000 0.688065 0.500000
Si Si3 0.789613 0.506129 0.814803
Si Si4 0.824815 0.164925 0.440036
Si Si5 0.605349 0.712553 0.810829
O O1 0.549131 0.391136 0.576728
O O2 0.654350 0.478190 0.733241
O O3 0.448584 0.306783 0.712360
O O4 0.804647 0.320758 0.678153
O O5 0.325255 0.762659 0.485067
O O6 0.762503 0.438513 0.900545
O O7 0.736019 0.620339 0.844356
O O8 0.000000 0.500000 0.784761
O O9 0.000000 0.139162 0.500000
O O10 0.910278 0.222857 0.358625
#
# Coordination Sequence:
#
# PCOD8164388 Si02
#       5
#     8   4   8   8   8
#     4  11  22  41  70  95 138 176 229 285 342 415
#     4  12  24  42  68 108 130 184 226 286 352 410
#     4  11  25  44  68 101 135 188 235 278 347 423
#     4  11  23  42  64 100 144 172 221 289 348 410
#     4  11  22  44  67  95 134 181 225 279 343 414
#
# _framework density 24.221481000000001
#
# number of rings (size 3 to 8) (size 9 to 14) (size 15 to 20)
#    0.000    0.889    2.222    8.000    0.000    1.778 
#    0.000    2.222    0.000    1.333    0.000    0.000 
#    0.000    0.000    0.000    0.000    0.000    0.000 
#
# Total GULP energy -223047.150642 kJ/mol
# GULP energy per Si atom -12391.508369 kJ/mol
# Density = 2.416635 g / cm^3
# Si number density = 24.221481 Si / 1000 Ang^3
#
#
#
# Elastic Constant Matrix: (Units=GPa)
#
#
# Indices 1 2 3 4 5 6 
#
# 1 138.8093 16.4326 29.0145 0.0000 0.0000 0.0000
# 2 16.4326 55.3006 10.2041 0.0001 0.0000 0.0000
# 3 29.0145 10.2041 126.5530 0.0000 0.0000 0.0000
# 4 0.0000 0.0001 0.0000 -2.2741 0.0000 0.0000
# 5 0.0000 0.0000 0.0000 0.0000 36.3919 0.0000
# 6 0.0000 0.0000 0.0000 0.0000 0.0000 25.8420
#
#
#
# Elastic Compliance Matrix: (Units=1/GPa)
#
#
# Indices 1 2 3 4 5 6 
#
# 1 0.007781 -0.002013 -0.001622 0.000000 0.000000 0.000000
# 2 -0.002013 0.018877 -0.001061 0.000000 0.000000 0.000000
# 3 -0.001622 -0.001061 0.008359 0.000000 0.000000 0.000000
# 4 0.000000 0.000000 0.000000 -0.439728 0.000000 0.000000
# 5 0.000000 0.000000 0.000000 0.000000 0.027479 0.000000
# 6 0.000000 0.000000 0.000000 0.000000 0.000000 0.038697
#
#
# Mechanical properties :
#
#
# Convention : Reuss Voigt Hill
#
# Bulk Modulus (GPa) = 39.02154 47.99615 43.50885
# Shear Modulus (GPa) = -15.59564 29.65940 7.03188
#
# Velocity S-wave (km/s) = -2.54022 3.50309 1.70571
# Velocity P-wave (km/s) = 2.74620 6.01837 4.67773
#
# Compressibility (1/GPa) = 0.02562687
#
# Stress axis : x y z
#
# Youngs Moduli (GPa) = 128.51141 52.97493 119.62945
#
# Poissons Ratio (x) = 0.10664 0.19400
# Poissons Ratio (y) = 0.25869 0.12687
# Poissons Ratio (z) = 0.20841 0.05618
#
# Static dielectric constant tensor:
#      x y z
#    x 4.453430 0.000000 0.000000 
#    y 0.000000 4.106260 0.000000 
#    z 0.000000 0.000000 4.698690 
# 
# 
# High freq. dielectric constant tensor:
#      x y z
#    x 1.984030 0.000000 0.000000 
#    y 0.000000 1.935900 0.000000 
#    z 0.000000 0.000000 1.969670 
# 
# From -- ./inp_files/23613.got.cif
#   From: 2010.03.12/outbox.cif.g09.slc.cpg/sg23_12_cif.got.tgz:23613.got - 2010.04.14 02:50:06.
