data_PCOD8164651
_publ_section_title
;
Structure prediction by ZEFSAII (Michael W. Deem and Ramdas Pophale) SiO2 
 PCOD8164651
Probable space group: I 21 21 21
;
_chemical_formula_sum "Si O2"
_cell_formula_units_Z 56
_cell_length_a 14.259386
_cell_length_b 14.951328
_cell_length_c 12.096869
_cell_angle_alpha 90.000000
_cell_angle_beta 90.000000
_cell_angle_gamma 90.000000
_cell_volume 2579.013243
_symmetry_space_group_name_H-M "I 21 21 21"
_symmetry_group_IT_number 24
_symmetry_cell_setting 'orthorhombic'
loop_
_space_group_symop_operation_xyz
x,y,z
-x,1/2-y,z
x,-y,1/2-z
1/2-x,y,-z
1/2+x,1/2+y,1/2+z
1/2-x,-y,1/2+z
1/2+x,1/2-y,-z
-x,1/2+y,1/2-z
loop_
_atom_site_type_symbol
_atom_site_label
_atom_site_fract_x
_atom_site_fract_y
_atom_site_fract_z
Si Si1 0.000000 0.750000 0.310803
Si Si2 0.428052 0.083068 0.671052
Si Si3 0.263435 0.842143 0.196336
Si Si4 0.466823 0.535397 0.048626
Si Si5 0.905252 0.797858 0.835168
Si Si6 0.304790 0.724446 0.605470
Si Si7 0.394733 0.000000 0.250000
Si Si8 0.820536 0.925069 0.661865
O O1 0.982645 0.664100 0.231267
O O2 0.917367 0.772469 0.398240
O O3 0.324312 0.115461 0.628473
O O4 0.486418 0.040264 0.570641
O O5 0.409603 0.000000 0.750000
O O6 0.327675 0.774707 0.123339
O O7 0.217740 0.784115 0.290802
O O8 0.328908 0.914066 0.256182
O O9 0.422008 0.633279 0.065810
O O10 0.541612 0.507843 0.141555
O O11 0.381654 0.464199 0.059612
O O12 0.878848 0.847597 0.722230
O O13 0.000000 0.750000 0.802633
O O14 0.250000 0.765548 0.500000
O O15 0.273668 0.620556 0.616760
O O16 0.791837 0.000000 0.750000
#
# Coordination Sequence:
#
# PCOD8164651 Si02
#       8
#     4   8   8   8   8   8   4   8
#     4  10  26  48  66 100 146 184 238 292 354 442
#     4  11  26  45  66  97 145 196 229 279 360 439
#     4  10  22  41  61  95 139 175 229 287 350 417
#     4  11  22  38  69 102 134 175 235 286 357 418
#     4  10  17  36  64  93 131 169 221 293 351 395
#     4  10  23  44  68  95 131 183 235 283 343 413
#     4  12  20  38  64 102 134 168 234 302 340 408
#     4   9  19  39  64  98 131 164 228 293 339 404
#
# _framework density 21.713730999999999
#
# number of rings (size 3 to 8) (size 9 to 14) (size 15 to 20)
#    0.000    1.714    4.286    0.000    3.000    3.429 
#    5.143    0.000    0.000    0.000    0.000    0.000 
#    0.000    0.000    0.000    0.000    0.000    0.000 
#
# Total GULP energy -346983.546235 kJ/mol
# GULP energy per Si atom -12392.269508 kJ/mol
# Density = 2.166431 g / cm^3
# Si number density = 21.713731 Si / 1000 Ang^3
#
#
#
# Elastic Constant Matrix: (Units=GPa)
#
#
# Indices 1 2 3 4 5 6 
#
# 1 152.5586 57.1095 41.1965 0.0000 0.0000 0.0000
# 2 57.1095 116.2699 15.3542 0.0000 0.0000 0.0000
# 3 41.1965 15.3542 73.4324 0.0000 0.0000 0.0000
# 4 0.0000 0.0000 0.0000 22.5687 0.0000 0.0000
# 5 0.0000 0.0000 0.0000 0.0000 78.8813 0.0000
# 6 0.0000 0.0000 0.0000 0.0000 0.0000 22.2069
#
#
#
# Elastic Compliance Matrix: (Units=1/GPa)
#
#
# Indices 1 2 3 4 5 6 
#
# 1 0.009204 -0.003948 -0.004338 0.000000 0.000000 0.000000
# 2 -0.003948 0.010538 0.000011 0.000000 0.000000 0.000000
# 3 -0.004338 0.000011 0.016049 0.000000 0.000000 0.000000
# 4 0.000000 0.000000 0.000000 0.044309 0.000000 0.000000
# 5 0.000000 0.000000 0.000000 0.000000 0.012677 0.000000
# 6 0.000000 0.000000 0.000000 0.000000 0.000000 0.045031
#
#
# Mechanical properties :
#
#
# Convention : Reuss Voigt Hill
#
# Bulk Modulus (GPa) = 51.96881 63.28681 57.62781
# Shear Modulus (GPa) = 31.09965 39.97141 35.53553
#
# Velocity S-wave (km/s) = 3.78862 4.29515 4.04981
# Velocity P-wave (km/s) = 6.56687 7.33533 6.96171
#
# Compressibility (1/GPa) = 0.01924231
#
# Stress axis : x y z
#
# Youngs Moduli (GPa) = 108.64516 94.89122 62.30775
#
# Poissons Ratio (x) = 0.37464 0.27030
# Poissons Ratio (y) = 0.42894 -0.00071
# Poissons Ratio (z) = 0.47132 -0.00108
#
# Static dielectric constant tensor:
#      x y z
#    x 4.612580 0.000000 0.000000 
#    y 0.000000 1.524350 0.000000 
#    z 0.000000 0.000000 3.640060 
# 
# 
# High freq. dielectric constant tensor:
#      x y z
#    x 1.868280 0.000000 0.000000 
#    y 0.000000 1.873020 0.000000 
#    z 0.000000 0.000000 1.821290 
# 
# From -- ./inp_files/20898.got.cif
#   From: 2010.03.12/outbox.cif.g09.slc.cpg/sg24_11_cif.got.tgz:20898.got - 2010.04.14 03:06:53.
