data_PCOD8164741
_publ_section_title
;
Structure prediction by ZEFSAII (Michael W. Deem and Ramdas Pophale) SiO2 
 PCOD8164741
Probable space group: I 21 21 21
;
_chemical_formula_sum "Si O2"
_cell_formula_units_Z 64
_cell_length_a 20.667945
_cell_length_b 19.040418
_cell_length_c 8.710339
_cell_angle_alpha 90.000000
_cell_angle_beta 90.000000
_cell_angle_gamma 90.000000
_cell_volume 3427.747583
_symmetry_space_group_name_H-M "I 21 21 21"
_symmetry_group_IT_number 24
_symmetry_cell_setting 'orthorhombic'
loop_
_space_group_symop_operation_xyz
x,y,z
-x,1/2-y,z
x,-y,1/2-z
1/2-x,y,-z
1/2+x,1/2+y,1/2+z
1/2-x,-y,1/2+z
1/2+x,1/2-y,-z
-x,1/2+y,1/2-z
loop_
_atom_site_type_symbol
_atom_site_label
_atom_site_fract_x
_atom_site_fract_y
_atom_site_fract_z
Si Si1 0.724017 0.740040 0.332425
Si Si2 0.183363 0.343175 0.575553
Si Si3 0.351360 0.235291 0.676790
Si Si4 0.438571 0.285397 0.927294
Si Si5 0.540000 0.320369 0.506088
Si Si6 0.094099 0.172700 0.831450
Si Si7 0.442732 0.574087 0.076820
Si Si8 0.484068 0.582940 0.417048
O O1 0.750000 0.762685 0.500000
O O2 0.695264 0.809998 0.246246
O O3 0.781100 0.706971 0.226516
O O4 0.672015 0.676619 0.348235
O O5 0.250000 0.370223 0.500000
O O6 0.152260 0.281378 0.476055
O O7 0.134130 0.409535 0.566528
O O8 0.375717 0.281132 0.821208
O O9 0.403589 0.174651 0.636706
O O10 0.500000 0.250000 0.839118
O O11 0.431971 0.243191 0.087153
O O12 0.447981 0.367185 0.962676
O O13 0.500000 0.250000 0.516011
O O14 0.575742 0.327556 0.344904
O O15 0.487357 0.380999 0.538629
O O16 0.061417 0.103683 0.914022
O O17 0.459315 0.598032 0.247382
O O18 0.464222 0.495301 0.036478
#
# Coordination Sequence:
#
# PCOD8164741 Si02
#       8
#     8   8   8   8   8   8   8   8
#     4  11  20  34  55  86 116 151 186 241 291 341
#     4  10  21  35  55  83 119 150 192 232 280 354
#     4  11  21  30  53  86 115 146 188 235 291 345
#     4  10  19  32  53  83 115 139 188 246 281 332
#     4  11  18  31  57  85 109 144 190 240 292 337
#     4  10  18  34  56  85 107 144 195 237 287 334
#     4  10  19  36  60  81 115 153 193 239 287 337
#     4   9  20  34  59  86 106 152 196 240 280 337
#
# _framework density 18.671153
#
# number of rings (size 3 to 8) (size 9 to 14) (size 15 to 20)
#    0.000    1.750    3.750    3.000    0.000    0.000 
#    0.000    0.625   13.750    0.000   13.000    0.000 
#    0.000    0.000    0.000    0.000    0.000    0.000 
#
# Total GULP energy -396437.090161 kJ/mol
# GULP energy per Si atom -12388.659068 kJ/mol
# Density = 1.862866 g / cm^3
# Si number density = 18.671153 Si / 1000 Ang^3
#
#
#
# Elastic Constant Matrix: (Units=GPa)
#
#
# Indices 1 2 3 4 5 6 
#
# 1 152.3785 68.5035 29.3230 0.0000 0.0000 0.0000
# 2 68.5035 100.4128 27.5097 0.0000 0.0000 0.0000
# 3 29.3230 27.5097 55.8588 0.0000 0.0000 0.0000
# 4 0.0000 0.0000 0.0000 6.0741 0.0000 0.0000
# 5 0.0000 0.0000 0.0000 0.0000 33.8995 0.0000
# 6 0.0000 0.0000 0.0000 0.0000 0.0000 24.8490
#
#
#
# Elastic Compliance Matrix: (Units=1/GPa)
#
#
# Indices 1 2 3 4 5 6 
#
# 1 0.009677 -0.006023 -0.002114 0.000000 0.000000 0.000000
# 2 -0.006023 0.015261 -0.004354 0.000000 0.000000 0.000000
# 3 -0.002114 -0.004354 0.021156 0.000000 0.000000 0.000000
# 4 0.000000 0.000000 0.000000 0.164633 0.000000 0.000000
# 5 0.000000 0.000000 0.000000 0.000000 0.029499 0.000000
# 6 0.000000 0.000000 0.000000 0.000000 0.000000 0.040243
#
#
# Mechanical properties :
#
#
# Convention : Reuss Voigt Hill
#
# Bulk Modulus (GPa) = 47.36488 62.14694 54.75591
# Shear Modulus (GPa) = 16.00066 25.18546 20.59306
#
# Velocity S-wave (km/s) = 2.93058 3.67672 3.32465
# Velocity P-wave (km/s) = 6.07241 7.16810 6.64288
#
# Compressibility (1/GPa) = 0.02111269
#
# Stress axis : x y z
#
# Youngs Moduli (GPa) = 103.33842 65.52854 47.26747
#
# Poissons Ratio (x) = 0.39466 0.09991
# Poissons Ratio (y) = 0.62237 0.20580
# Poissons Ratio (z) = 0.21844 0.28531
#
# Static dielectric constant tensor:
#      x y z
#    x 4.113220 0.000000 0.000000 
#    y 0.000000 3.074270 0.000000 
#    z 0.000000 0.000000 3.525050 
# 
# 
# High freq. dielectric constant tensor:
#      x y z
#    x 1.745090 0.000000 0.000000 
#    y 0.000000 1.666850 0.000000 
#    z 0.000000 0.000000 1.730990 
# 
# From -- ./inp_files/15425.got.cif
#   From: 2010.03.12/outbox.cif.g09.slc.cpg/sg24_8_cif.got.tgz:15425.got - 2010.04.14 03:06:53.
