data_PCOD8164797
_publ_section_title
;
Structure prediction by ZEFSAII (Michael W. Deem and Ramdas Pophale) SiO2 
 PCOD8164797
Probable space group: I 21 21 21
;
_chemical_formula_sum "Si O2"
_cell_formula_units_Z 36
_cell_length_a 5.761044
_cell_length_b 11.419203
_cell_length_c 27.583681
_cell_angle_alpha 90.000000
_cell_angle_beta 90.000000
_cell_angle_gamma 90.000000
_cell_volume 1814.634683
_symmetry_space_group_name_H-M "I 21 21 21"
_symmetry_group_IT_number 24
_symmetry_cell_setting 'orthorhombic'
loop_
_space_group_symop_operation_xyz
x,y,z
-x,1/2-y,z
x,-y,1/2-z
1/2-x,y,-z
1/2+x,1/2+y,1/2+z
1/2-x,-y,1/2+z
1/2+x,1/2-y,-z
-x,1/2+y,1/2-z
loop_
_atom_site_type_symbol
_atom_site_label
_atom_site_fract_x
_atom_site_fract_y
_atom_site_fract_z
Si Si1 0.500000 0.250000 0.842996
Si Si2 0.348667 0.070728 0.173353
Si Si3 0.533631 0.113584 0.666171
Si Si4 0.276987 0.437301 0.100798
Si Si5 0.300340 0.500000 0.250000
Si Si6 0.750000 0.176885 0.000000
O O1 0.311622 0.180872 0.810970
O O2 0.401641 0.347095 0.877568
O O3 0.463785 0.089531 0.120379
O O4 0.548014 0.075598 0.213293
O O5 0.216950 0.947397 0.170500
O O6 0.500000 0.250000 0.656655
O O7 0.650955 0.090758 0.718421
O O8 0.687155 0.063900 0.620776
O O9 0.271598 0.416426 0.043629
O O10 0.500000 0.250000 0.997636
#
# Coordination Sequence:
#
# PCOD8164797 Si02
#       6
#     4   8   8   8   4   4
#     4  10  18  38  58  90 124 168 200 264 336 392
#     4  10  21  40  59  89 128 168 215 267 332 396
#     4  10  23  45  62  87 130 175 221 271 326 396
#     4  10  22  39  65  94 131 173 209 268 336 399
#     4  10  22  42  56  96 116 170 222 272 326 382
#     4  12  24  40  72 112 142 170 218 284 346 408
#
# _framework density 19.838704
#
# number of rings (size 3 to 8) (size 9 to 14) (size 15 to 20)
#    0.000    1.778    1.111    2.667    3.111    3.556 
#   48.000    0.000    4.889    0.000    0.000    0.000 
#    0.000    0.000    0.000    0.000    0.000    0.000 
#
# Total GULP energy -222993.092944 kJ/mol
# GULP energy per Si atom -12388.505164 kJ/mol
# Density = 1.979355 g / cm^3
# Si number density = 19.838704 Si / 1000 Ang^3
#
#
#
# Elastic Constant Matrix: (Units=GPa)
#
#
# Indices 1 2 3 4 5 6 
#
# 1 112.4304 36.6442 51.0019 0.0000 0.0000 0.0000
# 2 36.6442 127.6547 56.9723 0.0000 0.0000 0.0000
# 3 51.0019 56.9723 134.8622 0.0000 0.0000 0.0000
# 4 0.0000 0.0000 0.0000 30.3513 0.0000 0.0000
# 5 0.0000 0.0000 0.0000 0.0000 32.8504 0.0000
# 6 0.0000 0.0000 0.0000 0.0000 0.0000 3.8972
#
#
#
# Elastic Compliance Matrix: (Units=1/GPa)
#
#
# Indices 1 2 3 4 5 6 
#
# 1 0.010996 -0.001603 -0.003481 0.000000 0.000000 0.000000
# 2 -0.001603 0.009887 -0.003571 0.000000 0.000000 0.000000
# 3 -0.003481 -0.003571 0.010240 0.000000 0.000000 0.000000
# 4 0.000000 0.000000 0.000000 0.032948 0.000000 0.000000
# 5 0.000000 0.000000 0.000000 0.000000 0.030441 0.000000
# 6 0.000000 0.000000 0.000000 0.000000 0.000000 0.256592
#
#
# Mechanical properties :
#
#
# Convention : Reuss Voigt Hill
#
# Bulk Modulus (GPa) = 72.39237 73.79822 73.09530
# Shear Modulus (GPa) = 13.40417 28.77504 21.08961
#
# Velocity S-wave (km/s) = 2.60216 3.81261 3.26399
# Velocity P-wave (km/s) = 6.75263 7.52736 7.15050
#
# Compressibility (1/GPa) = 0.01381361
#
# Stress axis : x y z
#
# Youngs Moduli (GPa) = 90.94191 101.13937 97.65606
#
# Poissons Ratio (x) = 0.16210 0.33998
# Poissons Ratio (y) = 0.14576 0.34871
# Poissons Ratio (z) = 0.31660 0.36114
#
# Static dielectric constant tensor:
#      x y z
#    x 3.785720 0.000000 0.000000 
#    y 0.000000 3.035140 0.000000 
#    z 0.000000 0.000000 3.953160 
# 
# 
# High freq. dielectric constant tensor:
#      x y z
#    x 1.801100 0.000000 0.000000 
#    y 0.000000 1.758640 0.000000 
#    z 0.000000 0.000000 1.757500 
# 
# From -- ./inp_files/17563.got.cif
#   From: 2010.03.12/outbox.cif.g09.slc.cpg/sg24_9_cif.got.tgz:17563.got - 2010.04.14 03:06:53.
