data_PCOD8164834
_publ_section_title
;
Structure prediction by ZEFSAII (Michael W. Deem and Ramdas Pophale) SiO2 
 PCOD8164834
Probable space group: I 21 21 21
;
_chemical_formula_sum "Si O2"
_cell_formula_units_Z 56
_cell_length_a 18.894364
_cell_length_b 8.520175
_cell_length_c 17.734595
_cell_angle_alpha 90.000000
_cell_angle_beta 90.000000
_cell_angle_gamma 90.000000
_cell_volume 2854.973411
_symmetry_space_group_name_H-M "I 21 21 21"
_symmetry_group_IT_number 24
_symmetry_cell_setting 'orthorhombic'
loop_
_space_group_symop_operation_xyz
x,y,z
-x,1/2-y,z
x,-y,1/2-z
1/2-x,y,-z
1/2+x,1/2+y,1/2+z
1/2-x,-y,1/2+z
1/2+x,1/2-y,-z
-x,1/2+y,1/2-z
loop_
_atom_site_type_symbol
_atom_site_label
_atom_site_fract_x
_atom_site_fract_y
_atom_site_fract_z
Si Si1 0.078408 0.295952 0.910368
Si Si2 0.362323 0.629409 0.132186
Si Si3 0.200789 0.286089 0.186508
Si Si4 0.666060 0.694172 0.989683
Si Si5 0.851555 0.323858 0.774910
Si Si6 0.194799 0.633518 0.153503
Si Si7 0.828704 0.346947 0.031457
O O1 0.093284 0.468430 0.874717
O O2 0.094373 0.168558 0.844595
O O3 0.000000 0.250000 0.935713
O O4 0.125426 0.279988 0.985894
O O5 0.386602 0.726062 0.206191
O O6 0.277998 0.613290 0.137078
O O7 0.378071 0.730129 0.057443
O O8 0.285598 0.269674 0.188554
O O9 0.170510 0.456703 0.166192
O O10 0.178211 0.255047 0.273710
O O11 0.168930 0.173664 0.122332
O O12 0.650302 0.792853 0.914389
O O13 0.638274 0.517408 0.982800
O O14 0.750000 0.691020 0.000000
O O15 0.830195 0.500000 0.750000
O O16 0.750000 0.328653 0.000000
#
# Coordination Sequence:
#
# PCOD8164834 Si02
#       7
#     8   8   8   8   8   8   8
#     4  12  25  40  58  83 117 165 209 243 294 353
#     4  10  19  36  55  75 114 157 195 240 285 351
#     4  10  19  30  55  83 119 148 188 243 294 349
#     4   9  19  31  54  84 116 145 189 246 304 348
#     4  11  22  35  56  84 121 158 200 243 289 349
#     4   9  17  31  51  86 114 148 187 232 300 350
#     4  11  20  35  56  83 113 150 196 257 302 344
#
# _framework density 19.614895000000001
#
# number of rings (size 3 to 8) (size 9 to 14) (size 15 to 20)
#    0.000    1.714    2.857    2.143    6.000    2.286 
#    0.000    2.143    0.000    0.000    0.000    8.000 
#    0.000    0.000    0.000    0.000    0.000    0.000 
#
# Total GULP energy -346954.025522 kJ/mol
# GULP energy per Si atom -12391.215197 kJ/mol
# Density = 1.957025 g / cm^3
# Si number density = 19.614895 Si / 1000 Ang^3
#
#
#
# Elastic Constant Matrix: (Units=GPa)
#
#
# Indices 1 2 3 4 5 6 
#
# 1 41.5922 17.2429 30.7935 0.0000 0.0000 0.0000
# 2 17.2429 94.3167 50.6861 0.0000 0.0000 0.0000
# 3 30.7935 50.6861 156.6915 0.0000 0.0000 0.0000
# 4 0.0000 0.0000 0.0000 39.2805 0.0000 0.0000
# 5 0.0000 0.0000 0.0000 0.0000 14.4264 0.0000
# 6 0.0000 0.0000 0.0000 0.0000 0.0000 11.6335
#
#
#
# Elastic Compliance Matrix: (Units=1/GPa)
#
#
# Indices 1 2 3 4 5 6 
#
# 1 0.028686 -0.002681 -0.004770 0.000000 0.000000 0.000000
# 2 -0.002681 0.013084 -0.003706 0.000000 0.000000 0.000000
# 3 -0.004770 -0.003706 0.008518 0.000000 0.000000 0.000000
# 4 0.000000 0.000000 0.000000 0.025458 0.000000 0.000000
# 5 0.000000 0.000000 0.000000 0.000000 0.069318 0.000000
# 6 0.000000 0.000000 0.000000 0.000000 0.000000 0.085959
#
#
# Mechanical properties :
#
#
# Convention : Reuss Voigt Hill
#
# Bulk Modulus (GPa) = 35.74622 54.44948 45.09785
# Shear Modulus (GPa) = 19.03595 25.99327 22.51461
#
# Velocity S-wave (km/s) = 3.11864 3.64425 3.39164
# Velocity P-wave (km/s) = 5.58851 6.74737 6.19509
#
# Compressibility (1/GPa) = 0.02797499
#
# Stress axis : x y z
#
# Youngs Moduli (GPa) = 34.86001 76.42898 117.39705
#
# Poissons Ratio (x) = 0.20489 0.56002
# Poissons Ratio (y) = 0.09345 0.43502
# Poissons Ratio (z) = 0.16629 0.28321
#
# Static dielectric constant tensor:
#      x y z
#    x 2.867680 0.000000 0.000000 
#    y 0.000000 3.626220 0.000000 
#    z 0.000000 0.000000 3.964920 
# 
# 
# High freq. dielectric constant tensor:
#      x y z
#    x 1.680550 0.000000 0.000000 
#    y 0.000000 1.770160 0.000000 
#    z 0.000000 0.000000 1.789350 
# 
# From -- ./inp_files/31363.got.cif
#   From: 2010.03.12/outbox.cif.g09.slc.cpg/sg24_16_cif.got.tgz:31363.got - 2010.04.14 03:06:53.
