data_PCOD8164465
_publ_section_title
;
Structure prediction by ZEFSAII (Michael W. Deem and Ramdas Pophale) SiO2 
 PCOD8164465
Probable space group: I 2 2 2
;
_chemical_formula_sum "Si O2"
_cell_formula_units_Z 48
_cell_length_a 9.455124
_cell_length_b 8.492069
_cell_length_c 25.928680
_cell_angle_alpha 90.000000
_cell_angle_beta 90.000000
_cell_angle_gamma 90.000000
_cell_volume 2081.906164
_symmetry_space_group_name_H-M "I 2 2 2"
_symmetry_group_IT_number 23
_symmetry_cell_setting 'orthorhombic'
loop_
_space_group_symop_operation_xyz
x,y,z
-x,-y,z
x,-y,-z
-x,y,-z
1/2+x,1/2+y,1/2+z
1/2-x,1/2-y,1/2+z
1/2+x,1/2-y,1/2-z
1/2-x,1/2+y,1/2-z
loop_
_atom_site_type_symbol
_atom_site_label
_atom_site_fract_x
_atom_site_fract_y
_atom_site_fract_z
Si Si1 0.452651 0.331299 0.415560
Si Si2 0.778031 0.346059 0.878084
Si Si3 0.993148 0.677211 0.402769
Si Si4 0.751823 0.319680 0.677958
Si Si5 0.777323 0.117246 0.547710
Si Si6 0.165789 0.494293 0.225584
O O1 0.500000 0.500000 0.438322
O O2 0.584673 0.218325 0.406785
O O3 0.371654 0.362887 0.361885
O O4 0.349319 0.245315 0.456949
O O5 0.650865 0.228929 0.889861
O O6 0.747807 0.520950 0.899640
O O7 0.802358 0.360080 0.817122
O O8 0.000000 0.500000 0.424486
O O9 0.901800 0.687052 0.350877
O O10 0.926079 0.790131 0.446933
O O11 0.755512 0.454891 0.721135
O O12 0.727181 0.157646 0.706840
O O13 0.781572 0.000000 0.500000
O O14 0.000000 0.500000 0.235594
#
# Coordination Sequence:
#
# PCOD8164465 Si02
#       6
#     8   8   8   8   8   8
#     4  11  24  46  71 108 145 190 240 302 369 434
#     4  12  23  44  72 101 145 187 246 306 357 441
#     4  11  25  46  70 107 147 191 238 300 369 441
#     4  11  26  42  67 101 149 199 248 293 364 423
#     4  11  25  49  76 106 139 191 242 298 371 446
#     4  12  25  43  63 106 147 194 256 304 350 428
#
# _framework density 23.055793000000001
#
# number of rings (size 3 to 8) (size 9 to 14) (size 15 to 20)
#    0.000    0.667    5.000    3.500    7.000    2.667 
#    0.000    5.000    0.000    0.000    0.000    0.000 
#    0.000    0.000    0.000    0.000    0.000    0.000 
#
# Total GULP energy -297735.111368 kJ/mol
# GULP energy per Si atom -12405.629640 kJ/mol
# Density = 2.300332 g / cm^3
# Si number density = 23.055793 Si / 1000 Ang^3
#
#
#
# Elastic Constant Matrix: (Units=GPa)
#
#
# Indices 1 2 3 4 5 6 
#
# 1 116.6421 31.0121 27.9750 0.0000 0.0000 0.0000
# 2 31.0121 127.3279 45.9940 0.0000 0.0000 0.0000
# 3 27.9750 45.9940 102.9581 0.0000 0.0000 0.0000
# 4 0.0000 0.0000 0.0000 39.8767 0.0000 0.0000
# 5 0.0000 0.0000 0.0000 0.0000 13.5166 0.0000
# 6 0.0000 0.0000 0.0000 0.0000 0.0000 51.8089
#
#
#
# Elastic Compliance Matrix: (Units=1/GPa)
#
#
# Indices 1 2 3 4 5 6 
#
# 1 0.009449 -0.001638 -0.001836 0.000000 0.000000 0.000000
# 2 -0.001638 0.009649 -0.003865 0.000000 0.000000 0.000000
# 3 -0.001836 -0.003865 0.011938 0.000000 0.000000 0.000000
# 4 0.000000 0.000000 0.000000 0.025077 0.000000 0.000000
# 5 0.000000 0.000000 0.000000 0.000000 0.073983 0.000000
# 6 0.000000 0.000000 0.000000 0.000000 0.000000 0.019302
#
#
# Mechanical properties :
#
#
# Convention : Reuss Voigt Hill
#
# Bulk Modulus (GPa) = 61.13279 61.87671 61.50475
# Shear Modulus (GPa) = 29.49341 37.17023 33.33182
#
# Velocity S-wave (km/s) = 3.58050 4.01956 3.80636
# Velocity P-wave (km/s) = 6.60803 6.95978 6.78618
#
# Compressibility (1/GPa) = 0.01635783
#
# Stress axis : x y z
#
# Youngs Moduli (GPa) = 105.83062 103.63740 83.76511
#
# Poissons Ratio (x) = 0.16980 0.15375
# Poissons Ratio (y) = 0.17339 0.32378
# Poissons Ratio (z) = 0.19425 0.40059
#
# Static dielectric constant tensor:
#      x y z
#    x 4.478040 0.000000 0.000000 
#    y 0.000000 4.342780 0.000000 
#    z 0.000000 0.000000 4.107110 
# 
# 
# High freq. dielectric constant tensor:
#      x y z
#    x 1.921560 0.000000 0.000000 
#    y 0.000000 1.925960 0.000000 
#    z 0.000000 0.000000 1.902530 
# 
# From -- ./inp_files/30248.got.cif
#   From: 2010.03.12/outbox.cif.g09.slc.cpg/sg23_16_cif.got.tgz:30248.got - 2010.04.14 02:50:06.
