data_PCOD8164587
_publ_section_title
;
Structure prediction by ZEFSAII (Michael W. Deem and Ramdas Pophale) SiO2 
 PCOD8164587
Probable space group: I 21 21 21
;
_chemical_formula_sum "Si O2"
_cell_formula_units_Z 52
_cell_length_a 15.095335
_cell_length_b 20.226614
_cell_length_c 8.760834
_cell_angle_alpha 90.000000
_cell_angle_beta 90.000000
_cell_angle_gamma 90.000000
_cell_volume 2674.923668
_symmetry_space_group_name_H-M "I 21 21 21"
_symmetry_group_IT_number 24
_symmetry_cell_setting 'orthorhombic'
loop_
_space_group_symop_operation_xyz
x,y,z
-x,1/2-y,z
x,-y,1/2-z
1/2-x,y,-z
1/2+x,1/2+y,1/2+z
1/2-x,-y,1/2+z
1/2+x,1/2-y,-z
-x,1/2+y,1/2-z
loop_
_atom_site_type_symbol
_atom_site_label
_atom_site_fract_x
_atom_site_fract_y
_atom_site_fract_z
Si Si1 0.238144 0.663299 0.321125
Si Si2 0.576447 0.867728 0.369982
Si Si3 0.753915 0.299229 0.672522
Si Si4 0.952256 0.681108 0.857139
Si Si5 0.425332 0.150528 0.703681
Si Si6 0.920955 0.069772 0.179162
Si Si7 0.500000 0.750000 0.564411
O O1 0.250000 0.656930 0.500000
O O2 0.333758 0.635214 0.266803
O O3 0.223101 0.738199 0.274082
O O4 0.154192 0.621060 0.261920
O O5 0.500019 0.876068 0.242793
O O6 0.575990 0.928278 0.492915
O O7 0.561671 0.799088 0.465230
O O8 0.750000 0.273119 0.500000
O O9 0.852869 0.321987 0.709812
O O10 0.682093 0.359079 0.696233
O O11 0.000000 0.750000 0.817125
O O12 0.960355 0.668957 0.036035
O O13 0.480888 0.086959 0.757246
O O14 0.436829 0.208492 0.825623
O O15 0.893546 0.000000 0.250000
#
# Coordination Sequence:
#
# PCOD8164587 Si02
#       7
#     8   8   8   8   8   8   4
#     4  10  19  32  53  79 110 140 177 225 280 330
#     4  10  19  34  55  83 114 144 178 232 280 335
#     4  10  20  31  53  86 118 139 166 215 289 352
#     4  11  19  32  54  86 119 138 167 224 292 351
#     4  10  20  33  53  77 110 146 185 221 277 334
#     4  10  23  40  55  71 105 155 204 233 262 314
#     4  10  16  30  54  80 110 146 174 216 288 348
#
# _framework density 19.439806999999998
#
# number of rings (size 3 to 8) (size 9 to 14) (size 15 to 20)
#    0.000    1.846    3.077    2.769    2.154    1.231 
#    0.000    7.692    0.000    5.538    0.000    0.000 
#    0.000    0.000    0.000    0.000    0.000    0.000 
#
# Total GULP energy -322105.220730 kJ/mol
# GULP energy per Si atom -12388.662336 kJ/mol
# Density = 1.939556 g / cm^3
# Si number density = 19.439807 Si / 1000 Ang^3
#
#
#
# Elastic Constant Matrix: (Units=GPa)
#
#
# Indices 1 2 3 4 5 6 
#
# 1 154.5665 24.2461 30.1136 0.0000 0.0000 0.0000
# 2 24.2461 43.1633 9.5289 0.0000 0.0000 0.0000
# 3 30.1136 9.5289 57.2274 0.0000 0.0000 0.0000
# 4 0.0000 0.0000 0.0000 10.6572 0.0000 0.0000
# 5 0.0000 0.0000 0.0000 0.0000 28.3189 0.0000
# 6 0.0000 0.0000 0.0000 0.0000 0.0000 10.2729
#
#
#
# Elastic Compliance Matrix: (Units=1/GPa)
#
#
# Indices 1 2 3 4 5 6 
#
# 1 0.007703 -0.003563 -0.003460 0.000000 0.000000 0.000000
# 2 -0.003563 0.025700 -0.002404 0.000000 0.000000 0.000000
# 3 -0.003460 -0.002404 0.019695 0.000000 0.000000 0.000000
# 4 0.000000 0.000000 0.000000 0.093833 0.000000 0.000000
# 5 0.000000 0.000000 0.000000 0.000000 0.035312 0.000000
# 6 0.000000 0.000000 0.000000 0.000000 0.000000 0.097344
#
#
# Mechanical properties :
#
#
# Convention : Reuss Voigt Hill
#
# Bulk Modulus (GPa) = 29.20291 42.52605 35.86448
# Shear Modulus (GPa) = 16.13654 22.58772 19.36213
#
# Velocity S-wave (km/s) = 2.88423 3.41241 3.15938
# Velocity P-wave (km/s) = 5.11337 6.11958 5.63897
#
# Compressibility (1/GPa) = 0.03424317
#
# Stress axis : x y z
#
# Youngs Moduli (GPa) = 129.82454 38.91041 50.77391
#
# Poissons Ratio (x) = 0.13864 0.17568
# Poissons Ratio (y) = 0.46256 0.12208
# Poissons Ratio (z) = 0.44919 0.09356
#
# Static dielectric constant tensor:
#      x y z
#    x 4.460180 0.000000 0.000000 
#    y 0.000000 2.974000 0.000000 
#    z 0.000000 0.000000 3.645180 
# 
# 
# High freq. dielectric constant tensor:
#      x y z
#    x 1.783280 0.000000 0.000000 
#    y 0.000000 1.684770 0.000000 
#    z 0.000000 0.000000 1.763660 
# 
# From -- ./inp_files/13057.got.cif
#   From: 2010.03.12/outbox.cif.g09.slc.cpg/sg24_7_cif.got.tgz:13057.got - 2010.04.14 03:06:53.
