data_PCOD8164633
_publ_section_title
;
Structure prediction by ZEFSAII (Michael W. Deem and Ramdas Pophale) SiO2 
 PCOD8164633
Probable space group: I 21 21 21
;
_chemical_formula_sum "Si O2"
_cell_formula_units_Z 52
_cell_length_a 12.397513
_cell_length_b 16.505698
_cell_length_c 14.039381
_cell_angle_alpha 90.000000
_cell_angle_beta 90.000000
_cell_angle_gamma 90.000000
_cell_volume 2872.872996
_symmetry_space_group_name_H-M "I 21 21 21"
_symmetry_group_IT_number 24
_symmetry_cell_setting 'orthorhombic'
loop_
_space_group_symop_operation_xyz
x,y,z
-x,1/2-y,z
x,-y,1/2-z
1/2-x,y,-z
1/2+x,1/2+y,1/2+z
1/2-x,-y,1/2+z
1/2+x,1/2-y,-z
-x,1/2+y,1/2-z
loop_
_atom_site_type_symbol
_atom_site_label
_atom_site_fract_x
_atom_site_fract_y
_atom_site_fract_z
Si Si1 0.305099 0.765500 0.713786
Si Si2 0.283909 0.541804 0.347162
Si Si3 0.087008 0.318403 0.375629
Si Si4 0.750000 0.086255 0.500000
Si Si5 0.062265 0.089822 0.231284
Si Si6 0.904005 0.194349 0.868191
Si Si7 0.088217 0.651437 0.413285
O O1 0.313906 0.718405 0.814158
O O2 0.326703 0.859652 0.734467
O O3 0.195874 0.751987 0.656854
O O4 0.404108 0.733899 0.648182
O O5 0.243388 0.500000 0.250000
O O6 0.307706 0.469112 0.419933
O O7 0.385988 0.602784 0.325440
O O8 0.195904 0.599218 0.396124
O O9 0.148594 0.360557 0.463293
O O10 0.000000 0.250000 0.409616
O O11 0.023856 0.384035 0.311863
O O12 0.011051 0.097818 0.125386
O O13 0.100289 0.000000 0.250000
O O14 0.000000 0.250000 0.825719
O O15 0.924219 0.179029 0.979082
#
# Coordination Sequence:
#
# PCOD8164633 Si02
#       7
#     8   8   8   4   8   8   8
#     4   9  18  34  50  76 107 144 185 225 275 331
#     4  11  21  34  54  85 111 140 188 239 280 322
#     4   9  20  35  54  81 109 140 186 232 279 332
#     4  12  18  34  60  82 108 142 184 242 286 322
#     4  10  18  30  54  81 109 140 180 229 279 329
#     4  11  21  34  52  78 116 151 185 227 284 352
#     4  10  17  32  52  82 110 139 178 232 290 334
#
# _framework density 18.100348
#
# number of rings (size 3 to 8) (size 9 to 14) (size 15 to 20)
#    0.000    1.846    1.538    7.846    0.000    0.000 
#    0.000    3.846    0.000    1.846    0.000    0.000 
#    0.000    0.000    0.000    0.000    0.000    0.000 
#
# Total GULP energy -322090.929084 kJ/mol
# GULP energy per Si atom -12388.112657 kJ/mol
# Density = 1.805915 g / cm^3
# Si number density = 18.100348 Si / 1000 Ang^3
#
#
#
# Elastic Constant Matrix: (Units=GPa)
#
#
# Indices 1 2 3 4 5 6 
#
# 1 62.9274 40.3509 23.9728 0.0000 0.0000 0.0000
# 2 40.3509 131.6512 33.6127 0.0000 0.0000 0.0000
# 3 23.9728 33.6127 66.1939 0.0000 0.0000 0.0000
# 4 0.0000 0.0000 0.0000 24.8838 0.0001 0.0000
# 5 0.0000 0.0000 0.0000 0.0001 15.4030 0.0000
# 6 0.0000 0.0000 0.0000 0.0000 0.0000 24.4569
#
#
#
# Elastic Compliance Matrix: (Units=1/GPa)
#
#
# Indices 1 2 3 4 5 6 
#
# 1 0.021134 -0.005197 -0.005015 0.000000 0.000000 0.000000
# 2 -0.005197 0.010005 -0.003198 0.000000 0.000000 0.000000
# 3 -0.005015 -0.003198 0.018547 0.000000 0.000000 0.000000
# 4 0.000000 0.000000 0.000000 0.040187 0.000000 0.000000
# 5 0.000000 0.000000 0.000000 0.000000 0.064922 0.000000
# 6 0.000000 0.000000 0.000000 0.000000 0.000000 0.040888
#
#
# Mechanical properties :
#
#
# Convention : Reuss Voigt Hill
#
# Bulk Modulus (GPa) = 43.73289 50.73837 47.23563
# Shear Modulus (GPa) = 21.72705 23.80449 22.76577
#
# Velocity S-wave (km/s) = 3.46839 3.63042 3.55033
# Velocity P-wave (km/s) = 6.34456 6.75765 6.55436
#
# Compressibility (1/GPa) = 0.02286608
#
# Stress axis : x y z
#
# Youngs Moduli (GPa) = 47.31610 99.94612 53.91580
#
# Poissons Ratio (x) = 0.51945 0.27038
# Poissons Ratio (y) = 0.24592 0.17244
# Poissons Ratio (z) = 0.23729 0.31967
#
# Static dielectric constant tensor:
#      x y z
#    x 3.127280 0.000000 0.000000 
#    y 0.000000 3.652770 0.000000 
#    z 0.000000 0.000000 3.267230 
# 
# 
# High freq. dielectric constant tensor:
#      x y z
#    x 1.669220 0.000000 0.000000 
#    y 0.000000 1.712210 0.000000 
#    z 0.000000 0.000000 1.686850 
# 
# From -- ./inp_files/25940.got.cif
#   From: 2010.03.12/outbox.cif.g09.slc.cpg/sg24_13_cif.got.tgz:25940.got - 2010.04.14 03:06:53.
