data_PCOD8164616
_publ_section_title
;
Structure prediction by ZEFSAII (Michael W. Deem and Ramdas Pophale) SiO2 
 PCOD8164616
Probable space group: I 21 21 21
;
_chemical_formula_sum "Si O2"
_cell_formula_units_Z 32
_cell_length_a 18.687702
_cell_length_b 10.370420
_cell_length_c 8.363385
_cell_angle_alpha 90.000000
_cell_angle_beta 90.000000
_cell_angle_gamma 90.000000
_cell_volume 1620.818314
_symmetry_space_group_name_H-M "I 21 21 21"
_symmetry_group_IT_number 24
_symmetry_cell_setting 'orthorhombic'
loop_
_space_group_symop_operation_xyz
x,y,z
-x,1/2-y,z
x,-y,1/2-z
1/2-x,y,-z
1/2+x,1/2+y,1/2+z
1/2-x,-y,1/2+z
1/2+x,1/2-y,-z
-x,1/2+y,1/2-z
loop_
_atom_site_type_symbol
_atom_site_label
_atom_site_fract_x
_atom_site_fract_y
_atom_site_fract_z
Si Si1 0.100632 0.958262 0.569307
Si Si2 0.324478 0.280767 0.932752
Si Si3 0.696001 0.384679 0.639011
Si Si4 0.528737 0.887338 0.623065
O O1 0.156351 0.841298 0.543570
O O2 0.019598 0.917170 0.532102
O O3 0.106758 0.000000 0.750000
O O4 0.122025 0.071482 0.445234
O O5 0.317835 0.240298 0.746956
O O6 0.389003 0.383754 0.937383
O O7 0.250000 0.340568 0.000000
O O8 0.727494 0.500000 0.750000
O O9 0.750000 0.346245 0.500000
O O10 0.500000 0.750000 0.694000
O O11 0.518793 0.000000 0.750000
#
# Coordination Sequence:
#
# PCOD8164616 Si02
#       4
#     8   8   8   8
#     4  10  18  32  56  84 112 144 191 243 283 325
#     4  10  20  35  54  79 116 152 185 230 285 341
#     4  10  17  29  53  84 113 143 186 237 284 332
#     4  10  21  40  61  83 113 153 193 234 284 336
#
# _framework density 19.743113999999998
#
# number of rings (size 3 to 8) (size 9 to 14) (size 15 to 20)
#    0.000    2.000    0.000    9.000    0.000    0.000 
#    0.000   16.250    0.000    0.000    0.000    0.000 
#    0.000    0.000    0.000    0.000    0.000    0.000 
#
# Total GULP energy -198356.508567 kJ/mol
# GULP energy per Si atom -12397.281785 kJ/mol
# Density = 1.969818 g / cm^3
# Si number density = 19.743114 Si / 1000 Ang^3
#
#
#
# Elastic Constant Matrix: (Units=GPa)
#
#
# Indices 1 2 3 4 5 6 
#
# 1 155.6923 30.4945 42.5534 0.0000 0.0000 0.0000
# 2 30.4945 53.3063 36.2897 0.0000 0.0000 0.0000
# 3 42.5534 36.2897 126.9012 0.0000 0.0000 0.0000
# 4 0.0000 0.0000 0.0000 11.5310 0.0000 0.0000
# 5 0.0000 0.0000 0.0000 0.0000 20.4447 0.0000
# 6 0.0000 0.0000 0.0000 0.0000 0.0000 17.2553
#
#
#
# Elastic Compliance Matrix: (Units=1/GPa)
#
#
# Indices 1 2 3 4 5 6 
#
# 1 0.007485 -0.003195 -0.001596 0.000000 0.000000 0.000000
# 2 -0.003195 0.024658 -0.005980 0.000000 0.000000 0.000000
# 3 -0.001596 -0.005980 0.010126 0.000000 0.000000 0.000000
# 4 0.000000 0.000000 0.000000 0.086723 0.000000 0.000000
# 5 0.000000 0.000000 0.000000 0.000000 0.048912 0.000000
# 6 0.000000 0.000000 0.000000 0.000000 0.000000 0.057953
#
#
# Mechanical properties :
#
#
# Convention : Reuss Voigt Hill
#
# Bulk Modulus (GPa) = 48.24867 61.61946 54.93407
# Shear Modulus (GPa) = 18.91724 24.95034 21.93379
#
# Velocity S-wave (km/s) = 3.09879 3.55878 3.33672
# Velocity P-wave (km/s) = 6.10693 6.94010 6.53680
#
# Compressibility (1/GPa) = 0.02072596
#
# Stress axis : x y z
#
# Youngs Moduli (GPa) = 133.60006 40.55400 98.76046
#
# Poissons Ratio (x) = 0.12958 0.15764
# Poissons Ratio (y) = 0.42688 0.59060
# Poissons Ratio (z) = 0.21325 0.24252
#
# Static dielectric constant tensor:
#      x y z
#    x 3.829720 0.000000 0.000000 
#    y 0.000000 3.257010 0.000000 
#    z 0.000000 0.000000 3.488520 
# 
# 
# High freq. dielectric constant tensor:
#      x y z
#    x 1.785290 0.000000 0.000000 
#    y 0.000000 1.721420 0.000000 
#    z 0.000000 0.000000 1.764040 
# 
# From -- ./inp_files/8944.got.cif
#   From: 2010.03.12/outbox.cif.g09.slc.cpg/sg24_5_cif.got.tgz:8944.got - 2010.04.14 03:06:53.
