data_PCOD8164020
_publ_section_title
;
Structure prediction by ZEFSAII (Michael W. Deem and Ramdas Pophale) SiO2 
 PCOD8164020
Probable space group: I 2 2 2
;
_chemical_formula_sum "Si O2"
_cell_formula_units_Z 64
_cell_length_a 8.799148
_cell_length_b 16.387753
_cell_length_c 21.629942
_cell_angle_alpha 90.000000
_cell_angle_beta 90.000000
_cell_angle_gamma 90.000000
_cell_volume 3119.000088
_symmetry_space_group_name_H-M "I 2 2 2"
_symmetry_group_IT_number 23
_symmetry_cell_setting 'orthorhombic'
loop_
_space_group_symop_operation_xyz
x,y,z
-x,-y,z
x,-y,-z
-x,y,-z
1/2+x,1/2+y,1/2+z
1/2-x,1/2-y,1/2+z
1/2+x,1/2-y,1/2-z
1/2-x,1/2+y,1/2-z
loop_
_atom_site_type_symbol
_atom_site_label
_atom_site_fract_x
_atom_site_fract_y
_atom_site_fract_z
Si Si1 0.901498 0.348935 0.562854
Si Si2 0.346477 0.332616 0.898838
Si Si3 0.224852 0.815470 0.738252
Si Si4 0.158373 0.964488 0.112386
Si Si5 0.397720 0.574298 0.853611
Si Si6 0.099567 0.844914 0.225708
Si Si7 0.675025 0.980741 0.434082
Si Si8 0.899231 0.575930 0.668732
O O1 0.839171 0.257530 0.572598
O O2 0.755665 0.410820 0.562418
O O3 0.000000 0.358186 0.500000
O O4 0.005485 0.368702 0.621626
O O5 0.325421 0.352477 0.826260
O O6 0.516045 0.371018 0.906692
O O7 0.210062 0.384378 0.928107
O O8 0.285164 0.728471 0.716467
O O9 0.353343 0.868645 0.772877
O O10 0.073552 0.812500 0.780445
O O11 0.126589 0.911900 0.173457
O O12 0.253068 0.043742 0.132197
O O13 0.000000 0.000000 0.084029
O O14 0.500000 0.500000 0.830822
O O15 0.352729 0.623339 0.792810
O O16 0.245132 0.539358 0.882734
O O17 0.500000 0.000000 0.432063
O O18 0.747917 0.000000 0.500000
O O19 0.000000 0.500000 0.693056
#
# Coordination Sequence:
#
# PCOD8164020 Si02
#       8
#     8   8   8   8   8   8   8   8
#     4  11  25  47  69  98 131 181 235 288 341 415
#     4  10  22  40  65  94 127 175 219 266 326 398
#     4  11  22  39  62  96 139 168 216 270 339 408
#     4  11  22  43  68  97 133 176 224 289 350 401
#     4   9  20  36  60  91 124 172 216 249 317 388
#     4  11  22  37  61  95 137 168 211 274 336 410
#     4  10  23  41  60  92 131 171 215 264 318 388
#     4  10  23  39  66  98 136 179 224 276 342 408
#
# _framework density 20.519396
#
# number of rings (size 3 to 8) (size 9 to 14) (size 15 to 20)
#    0.000    1.625    2.500    1.875    7.000    5.500 
#    0.000    1.250    0.000    0.000    0.000    0.000 
#    0.000    0.000    0.000    0.000    0.000    0.000 
#
# Total GULP energy -396616.290756 kJ/mol
# GULP energy per Si atom -12394.259086 kJ/mol
# Density = 2.047269 g / cm^3
# Si number density = 20.519396 Si / 1000 Ang^3
#
#
#
# Elastic Constant Matrix: (Units=GPa)
#
#
# Indices 1 2 3 4 5 6 
#
# 1 113.6417 50.2894 38.0877 0.0000 0.0000 0.0000
# 2 50.2894 115.4624 23.4218 0.0000 0.0000 0.0000
# 3 38.0877 23.4218 63.5155 0.0000 0.0000 0.0000
# 4 0.0000 0.0000 0.0000 17.4053 0.0000 0.0000
# 5 0.0000 0.0000 0.0000 0.0000 24.8262 0.0000
# 6 0.0000 0.0000 0.0000 0.0000 0.0000 34.0184
#
#
#
# Elastic Compliance Matrix: (Units=1/GPa)
#
#
# Indices 1 2 3 4 5 6 
#
# 1 0.012738 -0.004322 -0.006045 0.000000 0.000000 0.000000
# 2 -0.004322 0.010827 -0.001401 0.000000 0.000000 0.000000
# 3 -0.006045 -0.001401 0.019886 0.000000 0.000000 0.000000
# 4 0.000000 0.000000 0.000000 0.057454 0.000000 0.000000
# 5 0.000000 0.000000 0.000000 0.000000 0.040280 0.000000
# 6 0.000000 0.000000 0.000000 0.000000 0.000000 0.029396
#
#
# Mechanical properties :
#
#
# Convention : Reuss Voigt Hill
#
# Bulk Modulus (GPa) = 50.21149 57.35749 53.78449
# Shear Modulus (GPa) = 24.90599 27.30468 26.10534
#
# Velocity S-wave (km/s) = 3.48771 3.65180 3.57070
# Velocity P-wave (km/s) = 6.38296 6.76715 6.57786
#
# Compressibility (1/GPa) = 0.01991576
#
# Stress axis : x y z
#
# Youngs Moduli (GPa) = 78.50486 92.35827 50.28745
#
# Poissons Ratio (x) = 0.39916 0.30398
# Poissons Ratio (y) = 0.33929 0.07046
# Poissons Ratio (z) = 0.47455 0.12940
#
# Static dielectric constant tensor:
#      x y z
#    x 3.911630 0.000000 0.000000 
#    y 0.000000 4.103070 0.000000 
#    z 0.000000 0.000000 3.610360 
# 
# 
# High freq. dielectric constant tensor:
#      x y z
#    x 1.809470 0.000000 0.000000 
#    y 0.000000 1.813110 0.000000 
#    z 0.000000 0.000000 1.786100 
# 
# From -- ./inp_files/26362.got.cif
#   From: 2010.03.12/outbox.cif.g09.slc.cpg/sg23_14_cif.got.tgz:26362.got - 2010.04.14 02:50:06.
