data_PCOD8164148
_publ_section_title
;
Structure prediction by ZEFSAII (Michael W. Deem and Ramdas Pophale) SiO2 
 PCOD8164148
Probable space group: I 2 2 2
;
_chemical_formula_sum "Si O2"
_cell_formula_units_Z 44
_cell_length_a 8.066581
_cell_length_b 14.931971
_cell_length_c 17.377059
_cell_angle_alpha 90.000000
_cell_angle_beta 90.000000
_cell_angle_gamma 90.000000
_cell_volume 2093.065950
_symmetry_space_group_name_H-M "I 2 2 2"
_symmetry_group_IT_number 23
_symmetry_cell_setting 'orthorhombic'
loop_
_space_group_symop_operation_xyz
x,y,z
-x,-y,z
x,-y,-z
-x,y,-z
1/2+x,1/2+y,1/2+z
1/2-x,1/2-y,1/2+z
1/2+x,1/2-y,1/2-z
1/2-x,1/2+y,1/2-z
loop_
_atom_site_type_symbol
_atom_site_label
_atom_site_fract_x
_atom_site_fract_y
_atom_site_fract_z
Si Si1 0.170719 0.722968 0.147560
Si Si2 0.586551 0.671966 0.724340
Si Si3 0.189516 0.604873 0.579592
Si Si4 0.500000 0.500000 0.192545
Si Si5 0.687311 0.094331 0.904316
Si Si6 0.321137 0.034884 0.413885
O O1 0.325044 0.698740 0.198376
O O2 0.188194 0.820885 0.111429
O O3 0.156081 0.643181 0.085132
O O4 0.012008 0.737891 0.201688
O O5 0.480188 0.584980 0.750161
O O6 0.708934 0.654031 0.653534
O O7 0.247910 0.599470 0.491610
O O8 0.208387 0.509042 0.621728
O O9 0.999432 0.632174 0.593628
O O10 0.668075 0.495667 0.140435
O O11 0.500000 0.000000 0.382899
O O12 0.285608 0.000000 0.500000
#
# Coordination Sequence:
#
# PCOD8164148 Si02
#       6
#     8   8   8   4   8   8
#     4  11  24  40  61  95 125 166 221 270 327 392
#     4  11  23  39  61  96 124 167 208 271 330 394
#     4   9  19  39  62  92 125 163 207 258 320 392
#     4  10  23  44  66  95 136 174 216 272 342 401
#     4   9  19  38  63  90 129 165 199 256 330 392
#     4  10  24  46  67  93 128 183 228 278 331 388
#
# _framework density 21.021792000000001
#
# number of rings (size 3 to 8) (size 9 to 14) (size 15 to 20)
#    0.000    2.000    0.000    3.545    2.545    3.636 
#   26.182    1.818    0.000    0.000    0.000    0.000 
#    0.000    0.000    0.000    0.000    0.000    0.000 
#
# Total GULP energy -272584.642205 kJ/mol
# GULP energy per Si atom -12390.211009 kJ/mol
# Density = 2.097395 g / cm^3
# Si number density = 21.021792 Si / 1000 Ang^3
#
#
#
# Elastic Constant Matrix: (Units=GPa)
#
#
# Indices 1 2 3 4 5 6 
#
# 1 77.6049 28.9868 25.7419 0.0000 0.0000 0.0000
# 2 28.9868 109.2061 38.9985 0.0000 0.0000 0.0000
# 3 25.7419 38.9985 72.9552 0.0000 0.0000 0.0000
# 4 0.0000 0.0000 0.0000 34.0751 0.0000 0.0000
# 5 0.0000 0.0000 0.0000 0.0000 28.4897 0.0000
# 6 0.0000 0.0000 0.0000 0.0000 0.0000 22.8659
#
#
#
# Elastic Compliance Matrix: (Units=1/GPa)
#
#
# Indices 1 2 3 4 5 6 
#
# 1 0.015175 -0.002615 -0.003957 0.000000 0.000000 0.000000
# 2 -0.002615 0.011768 -0.005368 0.000000 0.000000 0.000000
# 3 -0.003957 -0.005368 0.017973 0.000000 0.000000 0.000000
# 4 0.000000 0.000000 0.000000 0.029347 0.000000 0.000000
# 5 0.000000 0.000000 0.000000 0.000000 0.035100 0.000000
# 6 0.000000 0.000000 0.000000 0.000000 0.000000 0.043733
#
#
# Mechanical properties :
#
#
# Convention : Reuss Voigt Hill
#
# Bulk Modulus (GPa) = 47.53638 49.69118 48.61378
# Shear Modulus (GPa) = 27.17579 28.15540 27.66559
#
# Velocity S-wave (km/s) = 3.59937 3.66367 3.63167
# Velocity P-wave (km/s) = 6.31949 6.44872 6.38443
#
# Compressibility (1/GPa) = 0.02103652
#
# Stress axis : x y z
#
# Youngs Moduli (GPa) = 65.89811 84.97583 55.64037
#
# Poissons Ratio (x) = 0.22221 0.22014
# Poissons Ratio (y) = 0.17232 0.29868
# Poissons Ratio (z) = 0.26073 0.45615
#
# Static dielectric constant tensor:
#      x y z
#    x 3.793650 0.000000 0.000000 
#    y 0.000000 4.113230 0.000000 
#    z 0.000000 0.000000 3.700450 
# 
# 
# High freq. dielectric constant tensor:
#      x y z
#    x 1.825070 0.000000 0.000000 
#    y 0.000000 1.826670 0.000000 
#    z 0.000000 0.000000 1.824040 
# 
# From -- ./inp_files/23671.got.cif
#   From: 2010.03.12/outbox.cif.g09.slc.cpg/sg23_12_cif.got.tgz:23671.got - 2010.04.14 02:50:06.
