data_PCOD8164973
_publ_section_title
;
Structure prediction by ZEFSAII (Michael W. Deem and Ramdas Pophale) SiO2 
 PCOD8164973
Probable space group: I 21 21 21
;
_chemical_formula_sum "Si O2"
_cell_formula_units_Z 52
_cell_length_a 9.472592
_cell_length_b 19.665279
_cell_length_c 14.598499
_cell_angle_alpha 90.000000
_cell_angle_beta 90.000000
_cell_angle_gamma 90.000000
_cell_volume 2719.425394
_symmetry_space_group_name_H-M "I 21 21 21"
_symmetry_group_IT_number 24
_symmetry_cell_setting 'orthorhombic'
loop_
_space_group_symop_operation_xyz
x,y,z
-x,1/2-y,z
x,-y,1/2-z
1/2-x,y,-z
1/2+x,1/2+y,1/2+z
1/2-x,-y,1/2+z
1/2+x,1/2-y,-z
-x,1/2+y,1/2-z
loop_
_atom_site_type_symbol
_atom_site_label
_atom_site_fract_x
_atom_site_fract_y
_atom_site_fract_z
Si Si1 0.010582 0.407195 0.058314
Si Si2 0.204794 0.843468 0.314146
Si Si3 0.989655 0.882130 0.651355
Si Si4 0.850120 0.949549 0.085983
Si Si5 0.014356 0.675016 0.165351
Si Si6 0.668626 0.000000 0.250000
Si Si7 0.709135 0.809085 0.663645
O O1 0.054352 0.484857 0.070541
O O2 0.138700 0.357787 0.087936
O O3 0.871015 0.396761 0.118846
O O4 0.973002 0.391565 0.954426
O O5 0.366994 0.862244 0.296888
O O6 0.185983 0.769649 0.362015
O O7 0.132060 0.844784 0.214682
O O8 0.930582 0.951920 0.690907
O O9 0.875987 0.822749 0.667115
O O10 0.949185 0.882570 0.090898
O O11 0.765391 0.956749 0.181047
O O12 0.750000 0.938860 0.000000
O O13 0.140465 0.676570 0.238588
O O14 0.000000 0.750000 0.118922
#
# Coordination Sequence:
#
# PCOD8164973 Si02
#       7
#     8   8   8   8   8   4   8
#     4  11  21  36  57  91 119 158 210 244 297 371
#     4  10  23  36  55  89 130 167 187 251 312 365
#     4  12  22  35  56  88 125 158 207 249 307 362
#     4  12  21  40  71  90 112 160 209 255 302 356
#     4   9  20  40  65  87 113 155 207 248 305 364
#     4  12  22  38  60  94 114 154 202 270 284 364
#     4  10  19  36  59  86 122 165 207 241 292 367
#
# _framework density 19.121686
#
# number of rings (size 3 to 8) (size 9 to 14) (size 15 to 20)
#    0.000    1.231    4.615    3.692    0.000    4.923 
#    0.000    0.000    6.769    0.000    0.000    0.000 
#    0.000    0.000    0.000    0.000    0.000    0.000 
#
# Total GULP energy -322466.208354 kJ/mol
# GULP energy per Si atom -12402.546475 kJ/mol
# Density = 1.907816 g / cm^3
# Si number density = 19.121686 Si / 1000 Ang^3
#
#
#
# Elastic Constant Matrix: (Units=GPa)
#
#
# Indices 1 2 3 4 5 6 
#
# 1 125.7289 40.5823 21.0118 0.0000 0.0000 0.0000
# 2 40.5823 139.0427 34.2238 0.0000 0.0000 0.0000
# 3 21.0118 34.2238 46.8461 0.0000 0.0000 -0.0001
# 4 0.0000 0.0000 0.0000 19.1492 0.0000 -0.0001
# 5 0.0000 0.0000 0.0000 0.0000 20.0083 0.0000
# 6 0.0000 0.0000 -0.0001 -0.0001 0.0000 28.1373
#
#
#
# Elastic Compliance Matrix: (Units=1/GPa)
#
#
# Indices 1 2 3 4 5 6 
#
# 1 0.009032 -0.001998 -0.002591 0.000000 0.000000 0.000000
# 2 -0.001998 0.009211 -0.005833 0.000000 0.000000 0.000000
# 3 -0.002591 -0.005833 0.026770 0.000000 0.000000 0.000000
# 4 0.000000 0.000000 0.000000 0.052222 0.000000 0.000000
# 5 0.000000 0.000000 0.000000 0.000000 0.049979 0.000000
# 6 0.000000 0.000000 0.000000 0.000000 0.000000 0.035540
#
#
# Mechanical properties :
#
#
# Convention : Reuss Voigt Hill
#
# Bulk Modulus (GPa) = 41.37692 55.91707 48.64700
# Shear Modulus (GPa) = 23.62347 27.84561 25.73454
#
# Velocity S-wave (km/s) = 3.51868 3.82020 3.67254
# Velocity P-wave (km/s) = 6.18012 6.98318 6.59389
#
# Compressibility (1/GPa) = 0.02416806
#
# Stress axis : x y z
#
# Youngs Moduli (GPa) = 110.72181 108.56627 37.35537
#
# Poissons Ratio (x) = 0.21695 0.09679
# Poissons Ratio (y) = 0.22125 0.21789
# Poissons Ratio (z) = 0.28689 0.63325
#
# Static dielectric constant tensor:
#      x y z
#    x 3.522170 0.000000 0.000000 
#    y 0.000000 3.691370 0.000000 
#    z 0.000000 0.000000 3.227670 
# 
# 
# High freq. dielectric constant tensor:
#      x y z
#    x 1.745140 0.000000 0.000000 
#    y 0.000000 1.754240 0.000000 
#    z 0.000000 0.000000 1.717780 
# 
# From -- ./inp_files/24992.got.cif
#   From: 2010.03.12/outbox.cif.g09.slc.cpg/sg24_13_cif.got.tgz:24992.got - 2010.04.14 03:06:53.
