data_PCOD8164675
_publ_section_title
;
Structure prediction by ZEFSAII (Michael W. Deem and Ramdas Pophale) SiO2 
 PCOD8164675
Probable space group: I 21 21 21
;
_chemical_formula_sum "Si O2"
_cell_formula_units_Z 40
_cell_length_a 9.794719
_cell_length_b 21.002071
_cell_length_c 8.289660
_cell_angle_alpha 90.000000
_cell_angle_beta 90.000000
_cell_angle_gamma 90.000000
_cell_volume 1705.260851
_symmetry_space_group_name_H-M "I 21 21 21"
_symmetry_group_IT_number 24
_symmetry_cell_setting 'orthorhombic'
loop_
_space_group_symop_operation_xyz
x,y,z
-x,1/2-y,z
x,-y,1/2-z
1/2-x,y,-z
1/2+x,1/2+y,1/2+z
1/2-x,-y,1/2+z
1/2+x,1/2-y,-z
-x,1/2+y,1/2-z
loop_
_atom_site_type_symbol
_atom_site_label
_atom_site_fract_x
_atom_site_fract_y
_atom_site_fract_z
Si Si1 0.276621 0.813590 0.812821
Si Si2 0.408946 0.975550 0.018973
Si Si3 0.670772 0.827280 0.211135
Si Si4 0.447631 0.633260 0.870401
Si Si5 0.561503 0.600656 0.334615
O O1 0.218702 0.744922 0.767084
O O2 0.439555 0.820909 0.785548
O O3 0.202771 0.861915 0.690207
O O4 0.250000 0.831699 0.000000
O O5 0.464223 0.945274 0.183178
O O6 0.433546 0.052325 0.012293
O O7 0.250000 0.961157 0.000000
O O8 0.491930 0.938539 0.879425
O O9 0.806854 0.870431 0.228890
O O10 0.565333 0.849809 0.350255
O O11 0.591325 0.834142 0.041711
#
# Coordination Sequence:
#
# PCOD8164675 Si02
#       5
#     8   8   8   8   8
#     4  12  17  29  49  80 112 135 173 222 278 323
#     4  10  18  34  53  70 109 145 186 217 252 329
#     4  10  20  27  49  80 114 133 168 220 284 327
#     4  10  18  29  49  76 107 144 161 214 283 318
#     4  10  20  31  51  77 109 141 182 216 264 329
#
# _framework density 23.456821999999999
#
# number of rings (size 3 to 8) (size 9 to 14) (size 15 to 20)
#    0.000    1.600    8.000    1.200    0.000    0.000 
#    0.000    0.000   30.800    0.000    0.000    5.600 
#   18.000    0.000    0.000    0.000    0.000    0.000 
#
# Total GULP energy -247822.098436 kJ/mol
# GULP energy per Si atom -12391.104922 kJ/mol
# Density = 2.340343 g / cm^3
# Si number density = 23.456822 Si / 1000 Ang^3
#
#
#
# Elastic Constant Matrix: (Units=GPa)
#
#
# Indices 1 2 3 4 5 6 
#
# 1 188.8294 86.0049 10.9635 0.0000 -0.0001 -0.0004
# 2 86.0049 171.5924 24.3841 -0.0001 0.0001 -0.0005
# 3 10.9635 24.3841 11.2047 0.0005 -0.0006 -0.0170
# 4 0.0000 -0.0001 0.0005 24.1285 -0.0001 -0.0057
# 5 -0.0001 0.0001 -0.0006 -0.0001 2.9217 0.0016
# 6 -0.0004 -0.0005 -0.0170 -0.0057 0.0016 88.2770
#
#
#
# Elastic Compliance Matrix: (Units=1/GPa)
#
#
# Indices 1 2 3 4 5 6 
#
# 1 0.006872 -0.003603 0.001117 0.000000 0.000001 0.000000
# 2 -0.003603 0.010326 -0.018946 0.000000 -0.000005 -0.000004
# 3 0.001117 -0.018946 0.129387 -0.000003 0.000029 0.000025
# 4 0.000000 0.000000 -0.000003 0.041445 0.000002 0.000003
# 5 0.000001 -0.000005 0.000029 0.000002 0.342262 -0.000006
# 6 0.000000 -0.000004 0.000025 0.000003 -0.000006 0.011328
#
#
# Mechanical properties :
#
#
# Convention : Reuss Voigt Hill
#
# Bulk Modulus (GPa) = 9.64134 68.25907 38.95020
# Shear Modulus (GPa) = 8.07680 39.75039 23.91359
#
# Velocity S-wave (km/s) = 1.85762 4.12104 3.19638
# Velocity P-wave (km/s) = 2.95299 7.19771 5.50124
#
# Compressibility (1/GPa) = 0.10372007
#
# Stress axis : x y z
#
# Youngs Moduli (GPa) = 145.51779 96.84225 7.72877
#
# Poissons Ratio (x) = 0.34893 -0.00863
# Poissons Ratio (y) = 0.52432 0.14643
# Poissons Ratio (z) = -0.16256 1.83481
#
# Static dielectric constant tensor:
#      x y z
#    x 4.738830 0.000000 0.000020 
#    y 0.000000 4.748250 0.000060 
#    z 0.000020 0.000060 1.373860 
# 
# 
# High freq. dielectric constant tensor:
#      x y z
#    x 1.940960 0.000000 0.000000 
#    y 0.000000 1.938850 0.000000 
#    z 0.000000 0.000000 1.851500 
# 
# From -- ./inp_files/11014.got.cif
#   From: 2010.03.12/outbox.cif.g09.slc.cpg/sg24_6_cif.got.tgz:11014.got - 2010.04.14 03:06:53.
