data_PCOD8164647
_publ_section_title
;
Structure prediction by ZEFSAII (Michael W. Deem and Ramdas Pophale) SiO2 
 PCOD8164647
Probable space group: I 21 21 21
;
_chemical_formula_sum "Si O2"
_cell_formula_units_Z 56
_cell_length_a 19.504672
_cell_length_b 17.381797
_cell_length_c 9.463755
_cell_angle_alpha 90.000000
_cell_angle_beta 90.000000
_cell_angle_gamma 90.000000
_cell_volume 3208.461362
_symmetry_space_group_name_H-M "I 21 21 21"
_symmetry_group_IT_number 24
_symmetry_cell_setting 'orthorhombic'
loop_
_space_group_symop_operation_xyz
x,y,z
-x,1/2-y,z
x,-y,1/2-z
1/2-x,y,-z
1/2+x,1/2+y,1/2+z
1/2-x,-y,1/2+z
1/2+x,1/2-y,-z
-x,1/2+y,1/2-z
loop_
_atom_site_type_symbol
_atom_site_label
_atom_site_fract_x
_atom_site_fract_y
_atom_site_fract_z
Si Si1 0.868368 0.822015 0.751144
Si Si2 0.431060 0.798518 0.066043
Si Si3 0.482748 0.567164 0.143822
Si Si4 0.760625 0.916113 0.225078
Si Si5 0.075069 0.267276 0.276361
Si Si6 0.819736 0.195399 0.053629
Si Si7 0.403016 0.562693 0.869557
O O1 0.877627 0.737299 0.820183
O O2 0.933850 0.873457 0.778455
O O3 0.799343 0.857922 0.820582
O O4 0.865281 0.821437 0.582521
O O5 0.500000 0.750000 0.072538
O O6 0.447285 0.887953 0.099215
O O7 0.402947 0.788185 0.906291
O O8 0.504677 0.500000 0.250000
O O9 0.441405 0.533218 0.009720
O O10 0.797720 0.883976 0.367984
O O11 0.820542 0.926088 0.106976
O O12 0.727274 0.000000 0.250000
O O13 0.134209 0.253855 0.159572
O O14 0.067149 0.354750 0.328562
O O15 0.000000 0.250000 0.212103
O O16 0.750000 0.238710 0.000000
O O17 0.417754 0.500000 0.750000
#
# Coordination Sequence:
#
# PCOD8164647 Si02
#       7
#     8   8   8   8   8   8   8
#     4  10  19  35  50  73 106 148 185 222 278 317
#     4   9  18  37  52  71 104 145 191 227 268 334
#     4  11  22  33  52  78 111 144 186 235 284 325
#     4   9  19  33  48  70 111 148 180 216 254 334
#     4  10  17  35  56  69 101 158 189 223 271 331
#     4   9  20  34  47  75 108 139 187 231 262 324
#     4  10  20  35  50  75 112 147 188 222 265 340
#
# _framework density 17.453849999999999
#
# number of rings (size 3 to 8) (size 9 to 14) (size 15 to 20)
#    0.000    2.286    4.286    0.429    6.000    2.286 
#    7.714    0.000    0.000    0.000    0.000    0.000 
#    0.000   30.857    0.000    0.000    0.000    0.000 
#
# Total GULP energy -346958.267820 kJ/mol
# GULP energy per Si atom -12391.366708 kJ/mol
# Density = 1.741412 g / cm^3
# Si number density = 17.453850 Si / 1000 Ang^3
#
#
#
# Elastic Constant Matrix: (Units=GPa)
#
#
# Indices 1 2 3 4 5 6 
#
# 1 71.2304 42.4378 39.3954 0.0000 0.0000 0.0000
# 2 42.4378 76.6771 40.7448 0.0000 0.0000 0.0000
# 3 39.3954 40.7448 104.0934 0.0000 0.0000 0.0000
# 4 0.0000 0.0000 0.0000 24.9063 0.0000 0.0000
# 5 0.0000 0.0000 0.0000 0.0000 26.8530 0.0000
# 6 0.0000 0.0000 0.0000 0.0000 0.0000 29.0456
#
#
#
# Elastic Compliance Matrix: (Units=1/GPa)
#
#
# Indices 1 2 3 4 5 6 
#
# 1 0.022573 -0.010042 -0.004612 0.000000 0.000000 0.000000
# 2 -0.010042 0.020934 -0.004394 0.000000 0.000000 0.000000
# 3 -0.004612 -0.004394 0.013072 0.000000 0.000000 0.000000
# 4 0.000000 0.000000 0.000000 0.040150 0.000000 0.000000
# 5 0.000000 0.000000 0.000000 0.000000 0.037240 0.000000
# 6 0.000000 0.000000 0.000000 0.000000 0.000000 0.034429
#
#
# Mechanical properties :
#
#
# Convention : Reuss Voigt Hill
#
# Bulk Modulus (GPa) = 54.10349 55.23965 54.67157
# Shear Modulus (GPa) = 23.51221 24.78919 24.15070
#
# Velocity S-wave (km/s) = 3.67428 3.77274 3.72383
# Velocity P-wave (km/s) = 7.00469 7.12009 7.06263
#
# Compressibility (1/GPa) = 0.01848309
#
# Stress axis : x y z
#
# Youngs Moduli (GPa) = 44.30097 47.76815 76.49920
#
# Poissons Ratio (x) = 0.47971 0.35282
# Poissons Ratio (y) = 0.44489 0.33611
# Poissons Ratio (z) = 0.20432 0.20987
#
# Static dielectric constant tensor:
#      x y z
#    x 3.405960 0.000000 0.000000 
#    y 0.000000 3.269520 0.000000 
#    z 0.000000 0.000000 3.558040 
# 
# 
# High freq. dielectric constant tensor:
#      x y z
#    x 1.657600 0.000000 0.000000 
#    y 0.000000 1.636460 0.000000 
#    z 0.000000 0.000000 1.684680 
# 
# From -- ./inp_files/15364.got.cif
#   From: 2010.03.12/outbox.cif.g09.slc.cpg/sg24_8_cif.got.tgz:15364.got - 2010.04.14 03:06:53.
