data_PCOD8164875
_publ_section_title
;
Structure prediction by ZEFSAII (Michael W. Deem and Ramdas Pophale) SiO2 
 PCOD8164875
Probable space group: I 21 21 21
;
_chemical_formula_sum "Si O2"
_cell_formula_units_Z 56
_cell_length_a 9.687568
_cell_length_b 21.353696
_cell_length_c 14.064529
_cell_angle_alpha 90.000000
_cell_angle_beta 90.000000
_cell_angle_gamma 90.000000
_cell_volume 2909.464165
_symmetry_space_group_name_H-M "I 21 21 21"
_symmetry_group_IT_number 24
_symmetry_cell_setting 'orthorhombic'
loop_
_space_group_symop_operation_xyz
x,y,z
-x,1/2-y,z
x,-y,1/2-z
1/2-x,y,-z
1/2+x,1/2+y,1/2+z
1/2-x,-y,1/2+z
1/2+x,1/2-y,-z
-x,1/2+y,1/2-z
loop_
_atom_site_type_symbol
_atom_site_label
_atom_site_fract_x
_atom_site_fract_y
_atom_site_fract_z
Si Si1 0.249528 0.407234 0.218089
Si Si2 0.396011 0.999517 0.481093
Si Si3 0.658492 0.564440 0.296713
Si Si4 0.670225 0.025487 0.401684
Si Si5 0.903203 0.301665 0.019268
Si Si6 0.444365 0.916118 0.650287
Si Si7 0.481863 0.679680 0.313183
O O1 0.271925 0.423865 0.328475
O O2 0.320317 0.456793 0.146425
O O3 0.321320 0.340365 0.197986
O O4 0.086131 0.403315 0.204206
O O5 0.250000 0.036288 0.500000
O O6 0.509985 0.041339 0.426946
O O7 0.354741 0.941376 0.411636
O O8 0.464643 0.974478 0.578502
O O9 0.599954 0.500000 0.250000
O O10 0.822381 0.570865 0.272906
O O11 0.574630 0.625856 0.260663
O O12 0.750000 0.027579 0.500000
O O13 0.980039 0.320824 0.923061
O O14 0.000000 0.250000 0.069276
O O15 0.750000 0.274867 0.000000
O O16 0.890416 0.357440 0.092216
O O17 0.500000 0.750000 0.269599
#
# Coordination Sequence:
#
# PCOD8164875 Si02
#       7
#     8   8   8   8   8   8   8
#     4  11  24  35  57  90 119 165 199 254 314 371
#     4  10  19  33  53  78 114 158 191 242 298 353
#     4  11  21  35  56  82 118 161 206 254 300 366
#     4  11  21  38  59  85 123 150 209 252 316 370
#     4  11  22  36  56  83 123 169 209 235 304 379
#     4  11  21  35  53  82 123 158 200 247 301 365
#     4  11  23  39  57  85 121 162 211 246 304 377
#
# _framework density 19.247529
#
# number of rings (size 3 to 8) (size 9 to 14) (size 15 to 20)
#    0.000    1.143    5.714    1.286    6.000    0.000 
#    0.000    0.000    0.000    0.000    0.000   11.000 
#    0.000    0.000    0.000    0.000    0.000    0.000 
#
# Total GULP energy -347017.156754 kJ/mol
# GULP energy per Si atom -12393.469884 kJ/mol
# Density = 1.920372 g / cm^3
# Si number density = 19.247529 Si / 1000 Ang^3
#
#
#
# Elastic Constant Matrix: (Units=GPa)
#
#
# Indices 1 2 3 4 5 6 
#
# 1 146.7658 29.9528 35.0486 0.0000 0.0000 0.0000
# 2 29.9528 98.3247 24.4689 0.0000 0.0000 0.0000
# 3 35.0486 24.4689 73.3559 -0.0002 0.0000 0.0000
# 4 0.0000 0.0000 -0.0002 14.9537 0.0000 0.0000
# 5 0.0000 0.0000 0.0000 0.0000 22.3289 0.0000
# 6 0.0000 0.0000 0.0000 0.0000 0.0000 28.3821
#
#
#
# Elastic Compliance Matrix: (Units=1/GPa)
#
#
# Indices 1 2 3 4 5 6 
#
# 1 0.007916 -0.001603 -0.003247 0.000000 0.000000 0.000000
# 2 -0.001603 0.011416 -0.003042 0.000000 0.000000 0.000000
# 3 -0.003247 -0.003042 0.016198 0.000000 0.000000 0.000000
# 4 0.000000 0.000000 0.000000 0.066873 0.000000 0.000000
# 5 0.000000 0.000000 0.000000 0.000000 0.044785 0.000000
# 6 0.000000 0.000000 0.000000 0.000000 0.000000 0.035233
#
#
# Mechanical properties :
#
#
# Convention : Reuss Voigt Hill
#
# Bulk Modulus (GPa) = 50.64534 55.26520 52.95527
# Shear Modulus (GPa) = 24.41532 28.39801 26.40667
#
# Velocity S-wave (km/s) = 3.56545 3.84527 3.70800
# Velocity P-wave (km/s) = 6.58177 6.96348 6.77531
#
# Compressibility (1/GPa) = 0.01974515
#
# Stress axis : x y z
#
# Youngs Moduli (GPa) = 126.32119 87.59785 61.73437
#
# Poissons Ratio (x) = 0.14045 0.20048
# Poissons Ratio (y) = 0.20254 0.18778
# Poissons Ratio (z) = 0.41023 0.26646
#
# Static dielectric constant tensor:
#      x y z
#    x 3.872650 0.000000 0.000000 
#    y 0.000000 3.435920 0.000000 
#    z 0.000000 0.000000 3.323090 
# 
# 
# High freq. dielectric constant tensor:
#      x y z
#    x 1.778720 0.000000 0.000000 
#    y 0.000000 1.706620 0.000000 
#    z 0.000000 0.000000 1.719220 
# 
# From -- ./inp_files/25073.got.cif
#   From: 2010.03.12/outbox.cif.g09.slc.cpg/sg24_13_cif.got.tgz:25073.got - 2010.04.14 03:06:53.
