data_PCOD8164755
_publ_section_title
;
Structure prediction by ZEFSAII (Michael W. Deem and Ramdas Pophale) SiO2 
 PCOD8164755
Probable space group: I 21 21 21
;
_chemical_formula_sum "Si O2"
_cell_formula_units_Z 48
_cell_length_a 8.392409
_cell_length_b 8.889495
_cell_length_c 30.113725
_cell_angle_alpha 90.000000
_cell_angle_beta 90.000000
_cell_angle_gamma 90.000000
_cell_volume 2246.612707
_symmetry_space_group_name_H-M "I 21 21 21"
_symmetry_group_IT_number 24
_symmetry_cell_setting 'orthorhombic'
loop_
_space_group_symop_operation_xyz
x,y,z
-x,1/2-y,z
x,-y,1/2-z
1/2-x,y,-z
1/2+x,1/2+y,1/2+z
1/2-x,-y,1/2+z
1/2+x,1/2-y,-z
-x,1/2+y,1/2-z
loop_
_atom_site_type_symbol
_atom_site_label
_atom_site_fract_x
_atom_site_fract_y
_atom_site_fract_z
Si Si1 0.863805 0.639130 0.462250
Si Si2 0.864575 0.000000 0.250000
Si Si3 0.500000 0.250000 0.812085
Si Si4 0.673341 0.722888 0.223876
Si Si5 0.932779 0.410111 0.907954
Si Si6 0.930429 0.913138 0.983229
Si Si7 0.290554 0.921053 0.318113
O O1 0.750000 0.717690 0.500000
O O2 0.751787 0.575443 0.423315
O O3 0.000000 0.750000 0.443473
O O4 0.954530 0.501526 0.484096
O O5 0.761288 0.116706 0.279410
O O6 0.971391 0.103382 0.218526
O O7 0.649963 0.313880 0.839775
O O8 0.500000 0.750000 0.203221
O O9 0.650997 0.668014 0.274691
O O10 0.761001 0.592084 0.195160
O O11 0.931425 0.432152 0.854617
O O12 0.000000 0.250000 0.921905
O O13 0.050132 0.527451 0.932435
O O14 0.000000 0.750000 0.984106
O O15 0.750000 0.920938 0.000000
#
# Coordination Sequence:
#
# PCOD8164755 Si02
#       7
#     8   4   4   8   8   8   8
#     4  10  19  35  61  89 118 154 201 246 302 378
#     4  10  18  34  64  86 114 164 224 266 302 386
#     4  10  20  36  56  86 120 164 212 266 322 364
#     4  10  20  37  61  86 117 165 216 259 316 373
#     4  11  23  38  60  92 126 160 203 259 311 375
#     4  11  22  41  66  90 121 162 203 255 317 383
#     4  10  22  37  57  86 126 163 208 263 313 376
#
# _framework density 21.365499
#
# number of rings (size 3 to 8) (size 9 to 14) (size 15 to 20)
#    0.000    1.667    0.000    8.500    1.167    2.000 
#    0.000    0.000    7.333    0.000    0.000    0.000 
#    0.000    0.000    0.000    0.000    0.000    0.000 
#
# Total GULP energy -297364.156883 kJ/mol
# GULP energy per Si atom -12390.173203 kJ/mol
# Density = 2.131687 g / cm^3
# Si number density = 21.365499 Si / 1000 Ang^3
#
#
#
# Elastic Constant Matrix: (Units=GPa)
#
#
# Indices 1 2 3 4 5 6 
#
# 1 107.9920 44.8345 31.4679 0.0000 0.0000 0.0000
# 2 44.8345 143.2662 30.6854 0.0000 0.0000 0.0000
# 3 31.4679 30.6854 83.2176 0.0000 0.0000 0.0000
# 4 0.0000 0.0000 0.0000 17.7491 0.0000 0.0000
# 5 0.0000 0.0000 0.0000 0.0000 26.3424 0.0000
# 6 0.0000 0.0000 0.0000 0.0000 0.0000 40.4435
#
#
#
# Elastic Compliance Matrix: (Units=1/GPa)
#
#
# Indices 1 2 3 4 5 6 
#
# 1 0.011399 -0.002871 -0.003252 0.000000 0.000000 0.000000
# 2 -0.002871 0.008302 -0.001976 0.000000 0.000000 0.000000
# 3 -0.003252 -0.001976 0.013975 0.000000 0.000000 0.000000
# 4 0.000000 0.000000 0.000000 0.056341 0.000000 0.000000
# 5 0.000000 0.000000 0.000000 0.000000 0.037962 0.000000
# 6 0.000000 0.000000 0.000000 0.000000 0.000000 0.024726
#
#
# Mechanical properties :
#
#
# Convention : Reuss Voigt Hill
#
# Bulk Modulus (GPa) = 57.21115 60.93905 59.07510
# Shear Modulus (GPa) = 28.61604 32.07287 30.34445
#
# Velocity S-wave (km/s) = 3.66369 3.87867 3.77272
# Velocity P-wave (km/s) = 6.68822 6.97445 6.83283
#
# Compressibility (1/GPa) = 0.01747911
#
# Stress axis : x y z
#
# Youngs Moduli (GPa) = 87.72372 120.45926 71.55723
#
# Poissons Ratio (x) = 0.34582 0.23270
# Poissons Ratio (y) = 0.25184 0.14136
# Poissons Ratio (z) = 0.28528 0.23797
#
# Static dielectric constant tensor:
#      x y z
#    x 4.176240 0.000000 0.000000 
#    y 0.000000 3.446890 0.000000 
#    z 0.000000 0.000000 3.554260 
# 
# 
# High freq. dielectric constant tensor:
#      x y z
#    x 1.846500 0.000000 0.000000 
#    y 0.000000 1.847270 0.000000 
#    z 0.000000 0.000000 1.806890 
# 
# From -- ./inp_files/38327.got.cif
#   From: 2010.03.12/outbox.cif.g09.slc.cpg/sg24_20_cif.got.tgz:38327.got - 2010.04.14 03:06:53.
