data_PCOD8164748
_publ_section_title
;
Structure prediction by ZEFSAII (Michael W. Deem and Ramdas Pophale) SiO2 
 PCOD8164748
Probable space group: I 21 21 21
;
_chemical_formula_sum "Si O2"
_cell_formula_units_Z 32
_cell_length_a 5.517205
_cell_length_b 8.919699
_cell_length_c 29.959003
_cell_angle_alpha 90.000000
_cell_angle_beta 90.000000
_cell_angle_gamma 90.000000
_cell_volume 1474.336701
_symmetry_space_group_name_H-M "I 21 21 21"
_symmetry_group_IT_number 24
_symmetry_cell_setting 'orthorhombic'
loop_
_space_group_symop_operation_xyz
x,y,z
-x,1/2-y,z
x,-y,1/2-z
1/2-x,y,-z
1/2+x,1/2+y,1/2+z
1/2-x,-y,1/2+z
1/2+x,1/2-y,-z
-x,1/2+y,1/2-z
loop_
_atom_site_type_symbol
_atom_site_label
_atom_site_fract_x
_atom_site_fract_y
_atom_site_fract_z
Si Si1 0.750000 0.654837 0.500000
Si Si2 0.669326 0.994237 0.170187
Si Si3 0.500000 0.250000 0.711510
Si Si4 0.692992 0.500000 0.250000
Si Si5 0.868978 0.593246 0.593116
Si Si6 0.000000 0.750000 0.349644
O O1 0.500000 0.750000 0.509195
O O2 0.797603 0.544225 0.542673
O O3 0.456052 0.011985 0.205187
O O4 0.825156 0.845382 0.179001
O O5 0.549681 0.982128 0.120439
O O6 0.813921 0.149477 0.178655
O O7 0.642588 0.353710 0.745949
O O8 0.626218 0.620186 0.621114
O O9 0.000000 0.750000 0.586763
#
# Coordination Sequence:
#
# PCOD8164748 Si02
#       6
#     4   8   4   4   8   4
#     4  10  18  34  60 100 148 182 222 276 354 412
#     4  11  25  41  63  94 132 176 222 273 337 401
#     4  12  28  45  62  88 130 176 226 276 332 401
#     4  12  28  46  64  90 128 172 228 278 332 406
#     4   9  19  34  58  93 138 173 215 269 338 401
#     4  10  20  39  62  94 134 164 214 274 332 391
#
# _framework density 21.704675999999999
#
# number of rings (size 3 to 8) (size 9 to 14) (size 15 to 20)
#    0.000    1.500    1.250    3.000    0.000   19.000 
#    0.000    0.000    0.000    0.000    0.000    0.000 
#  105.000    0.000    0.000    0.000    0.000    0.000 
#
# Total GULP energy -198251.772120 kJ/mol
# GULP energy per Si atom -12390.735758 kJ/mol
# Density = 2.165528 g / cm^3
# Si number density = 21.704676 Si / 1000 Ang^3
#
#
#
# Elastic Constant Matrix: (Units=GPa)
#
#
# Indices 1 2 3 4 5 6 
#
# 1 135.7360 58.6163 61.5265 0.0000 0.0000 0.0000
# 2 58.6163 104.3443 66.5306 0.0000 0.0000 0.0000
# 3 61.5265 66.5306 146.0203 0.0000 0.0000 0.0000
# 4 0.0000 0.0000 0.0000 19.4704 0.0000 0.0000
# 5 0.0000 0.0000 0.0000 0.0000 -14.6929 0.0000
# 6 0.0000 0.0000 0.0000 0.0000 0.0000 29.0549
#
#
#
# Elastic Compliance Matrix: (Units=1/GPa)
#
#
# Indices 1 2 3 4 5 6 
#
# 1 0.010290 -0.004251 -0.002399 0.000000 0.000000 0.000000
# 2 -0.004251 0.015264 -0.005163 0.000000 0.000000 0.000000
# 3 -0.002399 -0.005163 0.010212 0.000000 0.000000 0.000000
# 4 0.000000 0.000000 0.000000 0.051360 0.000000 0.000000
# 5 0.000000 0.000000 0.000000 0.000000 -0.068060 0.000000
# 6 0.000000 0.000000 0.000000 0.000000 0.000000 0.034418
#
#
# Mechanical properties :
#
#
# Convention : Reuss Voigt Hill
#
# Bulk Modulus (GPa) = 82.37844 84.38305 83.38074
# Shear Modulus (GPa) = 61.60877 20.06163 40.83520
#
# Velocity S-wave (km/s) = 5.33354 3.04353 4.34222
# Velocity P-wave (km/s) = 8.71582 7.16331 7.97742
#
# Compressibility (1/GPa) = 0.01213910
#
# Stress axis : x y z
#
# Youngs Moduli (GPa) = 97.17708 65.51361 97.92587
#
# Poissons Ratio (x) = 0.27851 0.23493
# Poissons Ratio (y) = 0.41311 0.50563
# Poissons Ratio (z) = 0.23313 0.33828
#
# Static dielectric constant tensor:
#      x y z
#    x 4.763610 0.000000 0.000000 
#    y 0.000000 3.623970 0.000000 
#    z 0.000000 0.000000 4.443090 
# 
# 
# High freq. dielectric constant tensor:
#      x y z
#    x 1.885810 0.000000 0.000000 
#    y 0.000000 1.797930 0.000000 
#    z 0.000000 0.000000 1.858890 
# 
# From -- ./inp_files/1239.got.cif
#   From: 2010.03.12/outbox.cif.g09.slc.cpg/sg24_1_cif.got.tgz:1239.got - 2010.04.14 03:06:53.
