data_PCOD8164045
_publ_section_title
;
Structure prediction by ZEFSAII (Michael W. Deem and Ramdas Pophale) SiO2 
 PCOD8164045
Probable space group: I 2 2 2
;
_chemical_formula_sum "Si O2"
_cell_formula_units_Z 34
_cell_length_a 8.044658
_cell_length_b 9.155570
_cell_length_c 22.411476
_cell_angle_alpha 90.000000
_cell_angle_beta 90.000000
_cell_angle_gamma 90.000000
_cell_volume 1650.682066
_symmetry_space_group_name_H-M "I 2 2 2"
_symmetry_group_IT_number 23
_symmetry_cell_setting 'orthorhombic'
loop_
_space_group_symop_operation_xyz
x,y,z
-x,-y,z
x,-y,-z
-x,y,-z
1/2+x,1/2+y,1/2+z
1/2-x,1/2-y,1/2+z
1/2+x,1/2-y,1/2-z
1/2-x,1/2+y,1/2-z
loop_
_atom_site_type_symbol
_atom_site_label
_atom_site_fract_x
_atom_site_fract_y
_atom_site_fract_z
Si Si1 0.528344 0.835119 0.794851
Si Si2 0.000000 0.000000 0.000000
Si Si3 0.643355 0.823908 0.325696
Si Si4 0.425080 0.776365 0.440803
Si Si5 0.157871 0.091113 0.634995
O O1 0.499869 0.819117 0.724012
O O2 0.716114 0.794547 0.811089
O O3 0.395161 0.729775 0.826238
O O4 0.500000 0.000000 0.817069
O O5 0.110866 0.894528 0.957222
O O6 0.561620 0.787102 0.388778
O O7 0.723057 0.986133 0.325850
O O8 0.500000 0.854724 0.500000
O O9 0.253715 0.853126 0.423440
O O10 0.000000 0.000000 0.611952
#
# Coordination Sequence:
#
# PCOD8164045 Si02
#       5
#     8   2   8   8   8
#     4  11  23  37  63  92 129 169 211 268 324 389
#     4   8  24  40  66 102 116 172 216 268 318 388
#     4  11  22  40  61  95 126 169 212 265 326 393
#     4  10  22  42  67  88 126 165 218 260 328 386
#     4  10  23  42  63  95 130 166 218 266 326 392
#
# _framework density 20.597546000000001
#
# number of rings (size 3 to 8) (size 9 to 14) (size 15 to 20)
#    0.706    0.941    0.000    4.941    3.294    1.882 
#    6.353    8.235    0.000    7.059    0.000    0.000 
#    0.000    0.000    0.000    0.000    0.000    0.000 
#
# Total GULP energy -210744.410803 kJ/mol
# GULP energy per Si atom -12396.730047 kJ/mol
# Density = 2.055066 g / cm^3
# Si number density = 20.597546 Si / 1000 Ang^3
#
#
#
# Elastic Constant Matrix: (Units=GPa)
#
#
# Indices 1 2 3 4 5 6 
#
# 1 120.9506 54.3189 86.6872 0.0000 0.0000 0.0000
# 2 54.3189 158.2765 56.9196 0.0000 0.0000 0.0000
# 3 86.6872 56.9196 152.7731 0.0000 0.0000 0.0000
# 4 0.0000 0.0000 0.0000 35.6810 0.0000 0.0000
# 5 0.0000 0.0000 0.0000 0.0000 32.9747 0.0000
# 6 0.0000 0.0000 0.0000 0.0000 0.0000 33.1817
#
#
#
# Elastic Compliance Matrix: (Units=1/GPa)
#
#
# Indices 1 2 3 4 5 6 
#
# 1 0.014658 -0.002355 -0.007440 0.000000 0.000000 0.000000
# 2 -0.002355 0.007674 -0.001523 0.000000 0.000000 0.000000
# 3 -0.007440 -0.001523 0.011335 0.000000 0.000000 0.000000
# 4 0.000000 0.000000 0.000000 0.028026 0.000000 0.000000
# 5 0.000000 0.000000 0.000000 0.000000 0.030326 0.000000
# 6 0.000000 0.000000 0.000000 0.000000 0.000000 0.030137
#
#
# Mechanical properties :
#
#
# Convention : Reuss Voigt Hill
#
# Bulk Modulus (GPa) = 90.65315 91.98350 91.31833
# Shear Modulus (GPa) = 33.67744 35.97244 34.82494
#
# Velocity S-wave (km/s) = 4.04793 4.18358 4.11631
# Velocity P-wave (km/s) = 8.12126 8.25172 8.18675
#
# Compressibility (1/GPa) = 0.01103106
#
# Stress axis : x y z
#
# Youngs Moduli (GPa) = 68.22426 130.31202 88.22613
#
# Poissons Ratio (x) = 0.30687 0.65637
# Poissons Ratio (y) = 0.16066 0.13436
# Poissons Ratio (z) = 0.50757 0.19845
#
# Static dielectric constant tensor:
#      x y z
#    x 3.756200 0.000000 0.000000 
#    y 0.000000 3.930770 0.000000 
#    z 0.000000 0.000000 3.565710 
# 
# 
# High freq. dielectric constant tensor:
#      x y z
#    x 1.803520 0.000000 0.000000 
#    y 0.000000 1.821430 0.000000 
#    z 0.000000 0.000000 1.797690 
# 
# From -- ./inp_files/11671.got.cif
#   From: 2010.03.12/outbox.cif.g09.slc.cpg/sg23_6_cif.got.tgz:11671.got - 2010.04.14 02:50:06.
