data_PCOD8164490
_publ_section_title
;
Structure prediction by ZEFSAII (Michael W. Deem and Ramdas Pophale) SiO2 
 PCOD8164490
Probable space group: I 2 2 2
;
_chemical_formula_sum "Si O2"
_cell_formula_units_Z 34
_cell_length_a 13.791912
_cell_length_b 20.668894
_cell_length_c 5.061488
_cell_angle_alpha 90.000000
_cell_angle_beta 90.000000
_cell_angle_gamma 90.000000
_cell_volume 1442.845825
_symmetry_space_group_name_H-M "I 2 2 2"
_symmetry_group_IT_number 23
_symmetry_cell_setting 'orthorhombic'
loop_
_space_group_symop_operation_xyz
x,y,z
-x,-y,z
x,-y,-z
-x,y,-z
1/2+x,1/2+y,1/2+z
1/2-x,1/2-y,1/2+z
1/2+x,1/2-y,1/2-z
1/2-x,1/2+y,1/2-z
loop_
_atom_site_type_symbol
_atom_site_label
_atom_site_fract_x
_atom_site_fract_y
_atom_site_fract_z
Si Si1 0.846340 0.000000 0.500000
Si Si2 0.095867 0.395432 0.638203
Si Si3 0.000000 0.811176 0.000000
Si Si4 0.188913 0.267462 0.844478
Si Si5 0.500000 0.395155 0.000000
Si Si6 0.000000 0.500000 0.000000
Si Si7 0.778160 0.500000 0.500000
O O1 0.910232 0.061009 0.410230
O O2 0.784366 0.020855 0.750073
O O3 0.159464 0.340818 0.778580
O O4 0.160032 0.434981 0.423548
O O5 0.000000 0.364733 0.500000
O O6 0.069356 0.453349 0.834973
O O7 0.091178 0.768389 0.078969
O O8 0.967610 0.853064 0.250059
O O9 0.237104 0.232972 0.590668
#
# Coordination Sequence:
#
# PCOD8164490 Si02
#       7
#     4   8   4   8   4   2   4
#     4  11  27  46  72 116 142 202 241 333 366 470
#     4  12  28  49  76 116 159 202 256 326 405 467
#     4  12  27  53  76 111 149 212 252 330 372 470
#     4  12  32  52  80 115 158 215 266 320 393 480
#     4  11  26  50  76 100 158 191 262 302 398 435
#     4  12  22  52  78 114 150 212 240 342 408 452
#     4  12  25  45  78 112 150 190 254 319 395 452
#
# _framework density 23.564540999999998
#
# number of rings (size 3 to 8) (size 9 to 14) (size 15 to 20)
#    0.000    0.235    2.353    4.235   18.118    1.882 
#    0.000    0.000    0.000    0.000    0.000    0.000 
#    0.000    0.000    0.000    0.000    0.000    0.000 
#
# Total GULP energy -210848.345112 kJ/mol
# GULP energy per Si atom -12402.843830 kJ/mol
# Density = 2.351091 g / cm^3
# Si number density = 23.564541 Si / 1000 Ang^3
#
#
#
# Elastic Constant Matrix: (Units=GPa)
#
#
# Indices 1 2 3 4 5 6 
#
# 1 145.6067 74.1049 53.1058 0.0001 0.0000 0.0000
# 2 74.1049 158.4066 52.6560 0.0000 0.0000 0.0000
# 3 53.1058 52.6560 135.9543 0.0003 0.0001 -0.0001
# 4 0.0001 0.0000 0.0003 4.7402 0.0000 -0.0002
# 5 0.0000 0.0000 0.0001 0.0000 14.7894 0.0000
# 6 0.0000 0.0000 -0.0001 -0.0002 0.0000 30.5963
#
#
#
# Elastic Compliance Matrix: (Units=1/GPa)
#
#
# Indices 1 2 3 4 5 6 
#
# 1 0.009607 -0.003727 -0.002309 0.000000 0.000000 0.000000
# 2 -0.003727 0.008691 -0.001911 0.000000 0.000000 0.000000
# 3 -0.002309 -0.001911 0.008997 -0.000001 0.000000 0.000000
# 4 0.000000 0.000000 -0.000001 0.210960 0.000001 0.000001
# 5 0.000000 0.000000 0.000000 0.000001 0.067616 0.000000
# 6 0.000000 0.000000 0.000000 0.000001 0.000000 0.032684
#
#
# Mechanical properties :
#
#
# Convention : Reuss Voigt Hill
#
# Bulk Modulus (GPa) = 87.69804 88.85564 88.27684
# Shear Modulus (GPa) = 13.95680 27.36524 20.66102
#
# Velocity S-wave (km/s) = 2.43632 3.41147 2.96427
# Velocity P-wave (km/s) = 6.72392 7.30114 7.01847
#
# Compressibility (1/GPa) = 0.01140276
#
# Stress axis : x y z
#
# Youngs Moduli (GPa) = 104.09529 115.05802 111.14345
#
# Poissons Ratio (x) = 0.42876 0.25665
# Poissons Ratio (y) = 0.38791 0.21235
# Poissons Ratio (z) = 0.24037 0.21982
#
# Static dielectric constant tensor:
#      x y z
#    x 4.957980 0.000000 0.000000 
#    y 0.000000 4.472710 0.000000 
#    z 0.000000 0.000000 4.328830 
# 
# 
# High freq. dielectric constant tensor:
#      x y z
#    x 1.955850 0.000000 0.000000 
#    y 0.000000 1.940600 0.000000 
#    z 0.000000 0.000000 1.937920 
# 
# From -- ./inp_files/2240.got.cif
#   From: 2010.03.12/outbox.cif.g09.slc.cpg/sg23_2_cif.got.tgz:2240.got - 2010.04.14 02:50:06.
