data_PCOD8164581
_publ_section_title
;
Structure prediction by ZEFSAII (Michael W. Deem and Ramdas Pophale) SiO2 
 PCOD8164581
Probable space group: I 21 21 21
;
_chemical_formula_sum "Si O2"
_cell_formula_units_Z 60
_cell_length_a 15.822085
_cell_length_b 9.388919
_cell_length_c 25.763930
_cell_angle_alpha 90.000000
_cell_angle_beta 90.000000
_cell_angle_gamma 90.000000
_cell_volume 3827.290401
_symmetry_space_group_name_H-M "I 21 21 21"
_symmetry_group_IT_number 24
_symmetry_cell_setting 'orthorhombic'
loop_
_space_group_symop_operation_xyz
x,y,z
-x,1/2-y,z
x,-y,1/2-z
1/2-x,y,-z
1/2+x,1/2+y,1/2+z
1/2-x,-y,1/2+z
1/2+x,1/2-y,-z
-x,1/2+y,1/2-z
loop_
_atom_site_type_symbol
_atom_site_label
_atom_site_fract_x
_atom_site_fract_y
_atom_site_fract_z
Si Si1 0.093552 0.314607 0.698144
Si Si2 0.244568 0.276547 0.894907
Si Si3 0.619513 0.574736 0.443051
Si Si4 0.832751 0.998974 0.971860
Si Si5 0.140102 0.642057 0.691515
Si Si6 0.903736 0.764648 0.460363
Si Si7 0.500000 0.750000 0.381883
Si Si8 0.902041 0.263559 0.588198
O O1 0.099718 0.485113 0.692043
O O2 0.144315 0.284389 0.751654
O O3 0.137894 0.245577 0.646879
O O4 0.000000 0.250000 0.706488
O O5 0.198682 0.127619 0.908447
O O6 0.194050 0.392781 0.927710
O O7 0.232739 0.331841 0.835032
O O8 0.343252 0.263581 0.909626
O O9 0.625092 0.635650 0.501690
O O10 0.527719 0.619872 0.419426
O O11 0.625087 0.404528 0.442284
O O12 0.879942 0.865717 0.948629
O O13 0.750000 0.939133 0.000000
O O14 0.894090 0.083023 0.011285
O O15 0.080081 0.727486 0.653467
O O16 0.000000 0.750000 0.441230
O O17 0.000000 0.250000 0.599950
#
# Coordination Sequence:
#
# PCOD8164581 Si02
#       8
#     8   8   8   8   8   8   4   8
#     4  10  19  29  44  69  99 131 165 193 225 278
#     4   9  19  33  47  66  93 130 163 199 246 287
#     4  10  19  28  47  67  96 129 161 198 238 282
#     4   9  18  32  47  64  95 129 158 196 246 297
#     4  10  18  30  46  65  99 135 162 197 230 283
#     4  10  18  32  52  69  89 124 167 206 241 293
#     4  10  16  28  42  62  92 134 162 190 232 276
#     4  11  20  29  44  72 100 129 160 197 233 284
#
# _framework density 15.676887000000001
#
# number of rings (size 3 to 8) (size 9 to 14) (size 15 to 20)
#    0.000    2.133    2.667    3.600    1.867    1.067 
#    0.000    0.000    0.000    0.000    0.000    0.000 
#    8.000    0.000    0.000    0.000    0.000    0.000 
#
# Total GULP energy -371655.408864 kJ/mol
# GULP energy per Si atom -12388.513629 kJ/mol
# Density = 1.564121 g / cm^3
# Si number density = 15.676887 Si / 1000 Ang^3
#
#
#
# Elastic Constant Matrix: (Units=GPa)
#
#
# Indices 1 2 3 4 5 6 
#
# 1 79.7262 32.2642 41.4715 0.0000 0.0000 0.0000
# 2 32.2642 80.5539 32.0879 0.0000 0.0000 0.0000
# 3 41.4715 32.0879 94.9380 0.0000 0.0000 0.0000
# 4 0.0000 0.0000 0.0000 4.4182 0.0000 0.0000
# 5 0.0000 0.0000 0.0000 0.0000 22.2895 0.0000
# 6 0.0000 0.0000 0.0000 0.0000 0.0000 16.5331
#
#
#
# Elastic Compliance Matrix: (Units=1/GPa)
#
#
# Indices 1 2 3 4 5 6 
#
# 1 0.017595 -0.004606 -0.006129 0.000000 0.000000 0.000000
# 2 -0.004606 0.015551 -0.003244 0.000000 0.000000 0.000000
# 3 -0.006129 -0.003244 0.014307 0.000000 0.000000 0.000000
# 4 0.000000 0.000000 0.000000 0.226339 0.000000 0.000000
# 5 0.000000 0.000000 0.000000 0.000000 0.044864 0.000000
# 6 0.000000 0.000000 0.000000 0.000000 0.000000 0.060485
#
#
# Mechanical properties :
#
#
# Convention : Reuss Voigt Hill
#
# Bulk Modulus (GPa) = 51.29570 51.87392 51.58481
# Shear Modulus (GPa) = 12.08903 18.60780 15.34841
#
# Velocity S-wave (km/s) = 2.77995 3.44896 3.13237
# Velocity P-wave (km/s) = 6.56474 7.00155 6.78666
#
# Compressibility (1/GPa) = 0.01949481
#
# Stress axis : x y z
#
# Youngs Moduli (GPa) = 56.83379 64.30421 69.89518
#
# Poissons Ratio (x) = 0.29617 0.42841
# Poissons Ratio (y) = 0.26177 0.22675
# Poissons Ratio (z) = 0.34835 0.20861
#
# Static dielectric constant tensor:
#      x y z
#    x 2.849220 0.000000 0.000000 
#    y 0.000000 2.970280 0.000000 
#    z 0.000000 0.000000 3.263890 
# 
# 
# High freq. dielectric constant tensor:
#      x y z
#    x 1.568940 0.000000 0.000000 
#    y 0.000000 1.596760 0.000000 
#    z 0.000000 0.000000 1.593700 
# 
# From -- ./inp_files/13422.got.cif
#   From: 2010.03.12/outbox.cif.g09.slc.cpg/sg24_7_cif.got.tgz:13422.got - 2010.04.14 03:06:53.
