data_PCOD8164867
_publ_section_title
;
Structure prediction by ZEFSAII (Michael W. Deem and Ramdas Pophale) SiO2 
 PCOD8164867
Probable space group: I 21 21 21
;
_chemical_formula_sum "Si O2"
_cell_formula_units_Z 64
_cell_length_a 19.572259
_cell_length_b 9.823079
_cell_length_c 18.457869
_cell_angle_alpha 90.000000
_cell_angle_beta 90.000000
_cell_angle_gamma 90.000000
_cell_volume 3548.707058
_symmetry_space_group_name_H-M "I 21 21 21"
_symmetry_group_IT_number 24
_symmetry_cell_setting 'orthorhombic'
loop_
_space_group_symop_operation_xyz
x,y,z
-x,1/2-y,z
x,-y,1/2-z
1/2-x,y,-z
1/2+x,1/2+y,1/2+z
1/2-x,-y,1/2+z
1/2+x,1/2-y,-z
-x,1/2+y,1/2-z
loop_
_atom_site_type_symbol
_atom_site_label
_atom_site_fract_x
_atom_site_fract_y
_atom_site_fract_z
Si Si1 0.072107 0.308956 0.814876
Si Si2 0.914057 0.632874 0.083800
Si Si3 0.329550 0.063846 0.172960
Si Si4 0.414057 0.132873 0.416200
Si Si5 0.572107 0.808956 0.685124
Si Si6 0.560163 0.103092 0.650141
Si Si7 0.829550 0.436154 0.172960
Si Si8 0.439837 0.396908 0.349859
O O1 0.131841 0.206119 0.836254
O O2 0.068618 0.336160 0.729863
O O3 0.089587 0.450649 0.855820
O O4 0.000000 0.250000 0.842740
O O5 0.899682 0.794747 0.095849
O O6 0.850832 0.542386 0.110600
O O7 0.980101 0.594742 0.131105
O O8 0.927626 0.603396 0.000000
O O9 0.250000 0.094425 0.165376
O O10 0.348853 0.000000 0.250000
O O11 0.350832 0.957615 0.110600
O O12 0.399682 0.294746 0.404151
O O13 0.480102 0.094740 0.368896
O O14 0.500000 0.750000 0.657261
O O15 0.568619 0.836161 0.770137
O O16 0.631841 0.706118 0.663745
O O17 0.589587 0.950648 0.644178
O O18 0.848853 0.500000 0.250000
#
# Coordination Sequence:
#
# PCOD8164867 Si02
#       8
#     8   8   8   8   8   8   8   8
#     4  11  18  33  60  87 116 145 193 246 289 333
#     4  11  21  36  57  85 118 152 192 237 291 351
#     4  11  22  39  59  84 116 155 197 240 289 349
#     4  11  21  36  57  85 118 152 192 237 291 351
#     4  11  18  33  60  87 116 145 193 246 289 333
#     4  10  19  32  57  87 116 144 186 240 295 336
#     4  11  22  39  59  84 116 155 197 240 289 349
#     4  10  19  32  57  87 116 144 186 240 295 336
#
# _framework density 18.034737
#
# number of rings (size 3 to 8) (size 9 to 14) (size 15 to 20)
#    0.000    1.250    7.500    1.500    0.000    0.500 
#    0.000    7.500    0.000    0.000    0.000    0.000 
#    0.000    0.000    0.000    0.000    0.000    0.000 
#
# Total GULP energy -396777.391102 kJ/mol
# GULP energy per Si atom -12399.293472 kJ/mol
# Density = 1.799369 g / cm^3
# Si number density = 18.034737 Si / 1000 Ang^3
#
#
#
# Elastic Constant Matrix: (Units=GPa)
#
#
# Indices 1 2 3 4 5 6 
#
# 1 84.9069 65.2270 26.2420 0.0000 0.0000 0.0000
# 2 65.2270 160.6251 33.5013 0.0000 0.0000 0.0000
# 3 26.2420 33.5013 64.1780 0.0000 0.0000 0.0000
# 4 0.0000 0.0000 0.0000 22.4299 0.0000 0.0000
# 5 0.0000 0.0000 0.0000 0.0000 9.3451 0.0000
# 6 0.0000 0.0000 0.0000 0.0000 0.0000 28.5085
#
#
#
# Elastic Compliance Matrix: (Units=1/GPa)
#
#
# Indices 1 2 3 4 5 6 
#
# 1 0.017977 -0.006472 -0.003972 0.000000 0.000000 0.000000
# 2 -0.006472 0.009316 -0.002217 0.000000 0.000000 0.000000
# 3 -0.003972 -0.002217 0.018363 0.000000 0.000000 0.000000
# 4 0.000000 0.000000 0.000000 0.044583 0.000000 0.000000
# 5 0.000000 0.000000 0.000000 0.000000 0.107008 0.000000
# 6 0.000000 0.000000 0.000000 0.000000 0.000000 0.035077
#
#
# Mechanical properties :
#
#
# Convention : Reuss Voigt Hill
#
# Bulk Modulus (GPa) = 49.17774 62.18343 55.68059
# Shear Modulus (GPa) = 18.90894 24.37266 21.64080
#
# Velocity S-wave (km/s) = 3.24153 3.68017 3.46779
# Velocity P-wave (km/s) = 6.42943 7.25347 6.85384
#
# Compressibility (1/GPa) = 0.02033440
#
# Stress axis : x y z
#
# Youngs Moduli (GPa) = 55.62676 107.34177 54.45675
#
# Poissons Ratio (x) = 0.69467 0.21633
# Poissons Ratio (y) = 0.35999 0.12072
# Poissons Ratio (z) = 0.22098 0.23796
#
# Static dielectric constant tensor:
#      x y z
#    x 3.015610 0.000000 0.000000 
#    y 0.000000 3.800620 0.000000 
#    z 0.000000 0.000000 3.118440 
# 
# 
# High freq. dielectric constant tensor:
#      x y z
#    x 1.665750 0.000000 0.000000 
#    y 0.000000 1.719100 0.000000 
#    z 0.000000 0.000000 1.679110 
# 
# From -- ./inp_files/31431.got.cif
#   From: 2010.03.12/outbox.cif.g09.slc.cpg/sg24_16_cif.got.tgz:31431.got - 2010.04.14 03:06:53.
