data_PCOD8164131
_publ_section_title
;
Structure prediction by ZEFSAII (Michael W. Deem and Ramdas Pophale) SiO2 
 PCOD8164131
Probable space group: I 2 2 2
;
_chemical_formula_sum "Si O2"
_cell_formula_units_Z 44
_cell_length_a 28.770273
_cell_length_b 14.094663
_cell_length_c 5.087455
_cell_angle_alpha 90.000000
_cell_angle_beta 90.000000
_cell_angle_gamma 90.000000
_cell_volume 2063.000153
_symmetry_space_group_name_H-M "I 2 2 2"
_symmetry_group_IT_number 23
_symmetry_cell_setting 'orthorhombic'
loop_
_space_group_symop_operation_xyz
x,y,z
-x,-y,z
x,-y,-z
-x,y,-z
1/2+x,1/2+y,1/2+z
1/2-x,1/2-y,1/2+z
1/2+x,1/2-y,1/2-z
1/2-x,1/2+y,1/2-z
loop_
_atom_site_type_symbol
_atom_site_label
_atom_site_fract_x
_atom_site_fract_y
_atom_site_fract_z
Si Si1 0.000000 0.650154 0.500000
Si Si2 0.525454 0.667694 0.249831
Si Si3 0.116666 0.061484 0.738467
Si Si4 0.804356 0.196091 0.420832
Si Si5 0.924096 0.500000 0.500000
Si Si6 0.302766 0.181741 0.575553
Si Si7 0.636938 0.000000 0.500000
O O1 0.981773 0.717954 0.736545
O O2 0.956645 0.586822 0.404901
O O3 0.500000 0.623841 0.500000
O O4 0.579884 0.645802 0.280710
O O5 0.500000 0.619165 0.000000
O O6 0.165166 0.104256 0.639916
O O7 0.096399 0.000000 0.500000
O O8 0.124575 0.000000 0.000000
O O9 0.751735 0.158903 0.402061
O O10 0.817058 0.241292 0.703034
O O11 0.814630 0.276479 0.207547
O O12 0.893901 0.531657 0.751188
O O13 0.331285 0.085365 0.607088
#
# Coordination Sequence:
#
# PCOD8164131 Si02
#       7
#     4   8   8   8   4   8   4
#     4   9  26  44  67  94 132 182 205 282 324 399
#     4  10  24  41  67  90 124 173 213 271 331 389
#     4  12  26  42  66  99 127 173 221 278 330 395
#     4  10  23  45  66  93 133 179 218 272 324 411
#     4  11  26  42  66 100 138 164 234 254 337 394
#     4  10  23  42  67  97 133 175 220 265 340 380
#     4  12  26  39  70 104 134 172 215 288 308 416
#
# _framework density 21.328161000000001
#
# number of rings (size 3 to 8) (size 9 to 14) (size 15 to 20)
#    0.545    0.909    0.000    3.273    8.909    2.909 
#    1.636    0.000    0.000    0.000    0.000    0.000 
#    0.000    0.000    0.000    0.000    0.000    0.000 
#
# Total GULP energy -272790.144100 kJ/mol
# GULP energy per Si atom -12399.552005 kJ/mol
# Density = 2.127962 g / cm^3
# Si number density = 21.328161 Si / 1000 Ang^3
#
#
#
# Elastic Constant Matrix: (Units=GPa)
#
#
# Indices 1 2 3 4 5 6 
#
# 1 116.2882 64.7054 42.5169 0.0001 -0.0003 0.0000
# 2 64.7054 100.7885 29.6326 0.0003 -0.0003 0.0001
# 3 42.5169 29.6326 127.5042 -0.0010 0.0012 -0.0005
# 4 0.0001 0.0003 -0.0010 15.4367 0.0000 -0.0001
# 5 -0.0003 -0.0003 0.0012 0.0000 26.1490 -0.0001
# 6 0.0000 0.0001 -0.0005 -0.0001 -0.0001 16.3569
#
#
#
# Elastic Compliance Matrix: (Units=1/GPa)
#
#
# Indices 1 2 3 4 5 6 
#
# 1 0.014265 -0.008329 -0.002821 0.000000 0.000000 0.000000
# 2 -0.008329 0.015512 -0.000828 0.000000 0.000000 0.000000
# 3 -0.002821 -0.000828 0.008976 0.000001 0.000000 0.000000
# 4 0.000000 0.000000 0.000001 0.064781 0.000000 0.000000
# 5 0.000000 0.000000 0.000000 0.000000 0.038242 0.000000
# 6 0.000000 0.000000 0.000000 0.000000 0.000000 0.061136
#
#
# Mechanical properties :
#
#
# Convention : Reuss Voigt Hill
#
# Bulk Modulus (GPa) = 67.57721 68.69895 68.13808
# Shear Modulus (GPa) = 21.57030 25.43691 23.50360
#
# Velocity S-wave (km/s) = 3.18363 3.45721 3.32324
# Velocity P-wave (km/s) = 6.72809 6.94383 6.83681
#
# Compressibility (1/GPa) = 0.01479789
#
# Stress axis : x y z
#
# Youngs Moduli (GPa) = 70.10170 64.46601 111.40816
#
# Poissons Ratio (x) = 0.53691 0.31430
# Poissons Ratio (y) = 0.58385 0.09223
# Poissons Ratio (z) = 0.19777 0.05337
#
# Static dielectric constant tensor:
#      x y z
#    x 3.915640 0.000000 0.000000 
#    y 0.000000 3.625010 0.000000 
#    z 0.000000 0.000000 3.892960 
# 
# 
# High freq. dielectric constant tensor:
#      x y z
#    x 1.844590 0.000000 0.000000 
#    y 0.000000 1.828200 0.000000 
#    z 0.000000 0.000000 1.845610 
# 
# From -- ./inp_files/4881.got.cif
#   From: 2010.03.12/outbox.cif.g09.slc.cpg/sg23_3_cif.got.tgz:4881.got - 2010.04.14 02:50:06.
