data_PCOD8164026
_publ_section_title
;
Structure prediction by ZEFSAII (Michael W. Deem and Ramdas Pophale) SiO2 
 PCOD8164026
Probable space group: I 2 2 2
;
_chemical_formula_sum "Si O2"
_cell_formula_units_Z 24
_cell_length_a 5.155545
_cell_length_b 27.585822
_cell_length_c 7.461760
_cell_angle_alpha 90.000000
_cell_angle_beta 90.000000
_cell_angle_gamma 90.000000
_cell_volume 1061.211109
_symmetry_space_group_name_H-M "I 2 2 2"
_symmetry_group_IT_number 23
_symmetry_cell_setting 'orthorhombic'
loop_
_space_group_symop_operation_xyz
x,y,z
-x,-y,z
x,-y,-z
-x,y,-z
1/2+x,1/2+y,1/2+z
1/2-x,1/2-y,1/2+z
1/2+x,1/2-y,1/2-z
1/2-x,1/2+y,1/2-z
loop_
_atom_site_type_symbol
_atom_site_label
_atom_site_fract_x
_atom_site_fract_y
_atom_site_fract_z
Si Si1 0.755344 0.380550 0.877487
Si Si2 0.251094 0.521493 0.701763
Si Si3 0.363094 0.773466 0.312739
O O1 0.737206 0.420231 0.717852
O O2 0.796606 0.329591 0.777098
O O3 0.500000 0.378944 0.000000
O O4 0.000000 0.393403 0.000000
O O5 0.500000 0.500000 0.804586
O O6 0.251711 0.500000 0.500000
O O7 0.000000 0.500000 0.801768
O O8 0.500000 0.764541 0.500000
O O9 0.590057 0.755590 0.178167
#
# Coordination Sequence:
#
# PCOD8164026 Si02
#       3
#     8   8   8
#     4  11  23  41  68  94 133 179 223 268 338 399
#     4  10  22  41  61  91 134 165 219 275 326 395
#     4  11  23  44  67 100 137 178 228 282 333 405
#
# _framework density 22.615670999999999
#
# number of rings (size 3 to 8) (size 9 to 14) (size 15 to 20)
#    0.000    1.333    0.000    7.000    0.000    4.000 
#   18.000    0.000    0.000    0.000    0.000    0.000 
#    0.000    0.000    0.000    0.000    0.000    0.000 
#
# Total GULP energy -148672.198316 kJ/mol
# GULP energy per Si atom -12389.349860 kJ/mol
# Density = 2.256420 g / cm^3
# Si number density = 22.615671 Si / 1000 Ang^3
#
#
#
# Elastic Constant Matrix: (Units=GPa)
#
#
# Indices 1 2 3 4 5 6 
#
# 1 225.1896 92.1844 23.8734 0.0003 0.0000 0.0006
# 2 92.1844 246.0040 69.6871 -0.0023 -0.0003 -0.0020
# 3 23.8734 69.6871 54.3893 -0.0013 -0.0002 -0.0033
# 4 0.0003 -0.0023 -0.0013 32.1413 -0.0002 -0.0024
# 5 0.0000 -0.0003 -0.0002 -0.0002 20.7931 0.0002
# 6 0.0006 -0.0020 -0.0033 -0.0024 0.0002 -5.2901
#
#
#
# Elastic Compliance Matrix: (Units=1/GPa)
#
#
# Indices 1 2 3 4 5 6 
#
# 1 0.005249 -0.002063 0.000339 0.000000 0.000000 0.000001
# 2 -0.002063 0.007192 -0.008309 0.000000 0.000000 0.000002
# 3 0.000339 -0.008309 0.028883 0.000001 0.000000 -0.000015
# 4 0.000000 0.000000 0.000001 0.031113 0.000000 -0.000014
# 5 0.000000 0.000000 0.000000 0.000000 0.048093 0.000002
# 6 0.000001 0.000002 -0.000015 -0.000014 0.000002 -0.189031
#
#
# Mechanical properties :
#
#
# Convention : Reuss Voigt Hill
#
# Bulk Modulus (GPa) = 47.03984 99.67475 73.35730
# Shear Modulus (GPa) = -120.92232 32.18471 -44.36880
#
# Velocity S-wave (km/s) = -7.32014 3.77651 -4.43410
# Velocity P-wave (km/s) = 7.11345 7.94890 2.50838
#
# Compressibility (1/GPa) = 0.02125857
#
# Stress axis : x y z
#
# Youngs Moduli (GPa) = 190.50068 139.04545 34.62221
#
# Poissons Ratio (x) = 0.28688 -0.01175
# Poissons Ratio (y) = 0.39304 0.28768
# Poissons Ratio (z) = -0.06466 1.15534
#
# Static dielectric constant tensor:
#      x y z
#    x 7.436600 0.000000 -0.000010 
#    y 0.000000 4.224510 0.000000 
#    z -0.000010 0.000000 3.663610 
# 
# 
# High freq. dielectric constant tensor:
#      x y z
#    x 1.937560 0.000000 0.000000 
#    y 0.000000 1.897350 0.000000 
#    z 0.000000 0.000000 1.860120 
# 
# From -- ./inp_files/407.got.cif
#   From: 2010.03.12/outbox.cif.g09.slc.cpg/sg23_1_cif.got.tgz:407.got - 2010.04.14 02:50:06.
