data_PCOD8164558
_publ_section_title
;
Structure prediction by ZEFSAII (Michael W. Deem and Ramdas Pophale) SiO2 
 PCOD8164558
Probable space group: I 2 2 2
;
_chemical_formula_sum "Si O2"
_cell_formula_units_Z 64
_cell_length_a 10.127413
_cell_length_b 29.276969
_cell_length_c 12.726708
_cell_angle_alpha 90.000000
_cell_angle_beta 90.000000
_cell_angle_gamma 90.000000
_cell_volume 3773.468368
_symmetry_space_group_name_H-M "I 2 2 2"
_symmetry_group_IT_number 23
_symmetry_cell_setting 'orthorhombic'
loop_
_space_group_symop_operation_xyz
x,y,z
-x,-y,z
x,-y,-z
-x,y,-z
1/2+x,1/2+y,1/2+z
1/2-x,1/2-y,1/2+z
1/2+x,1/2-y,1/2-z
1/2-x,1/2+y,1/2-z
loop_
_atom_site_type_symbol
_atom_site_label
_atom_site_fract_x
_atom_site_fract_y
_atom_site_fract_z
Si Si1 0.345362 0.578504 0.725722
Si Si2 0.848304 0.181710 0.773064
Si Si3 0.854156 0.738276 0.380906
Si Si4 0.842564 0.000000 0.379700
Si Si5 0.645843 0.238276 0.880906
Si Si6 0.651696 0.681710 0.273064
Si Si7 0.345361 0.578504 0.274278
Si Si8 0.851666 0.053875 0.000000
O O1 0.288958 0.544361 0.815242
O O2 0.315814 0.630134 0.762009
O O3 0.500000 0.567963 0.715798
O O4 0.281892 0.570807 0.608713
O O5 0.814638 0.215017 0.677051
O O6 0.750982 0.197522 0.866039
O O7 0.815814 0.130134 0.737991
O O8 1.000000 0.185624 0.811210
O O9 0.855203 0.753117 0.500000
O O10 0.749017 0.697522 0.366040
O O11 0.999999 0.721447 0.344570
O O12 0.786692 0.000000 0.500000
O O13 0.788958 0.955639 0.315241
O O14 0.000000 0.000000 0.385492
O O15 0.685362 0.284983 0.822947
O O16 0.281892 0.570807 0.391287
O O17 0.000000 0.073825 0.000000
O O18 0.850955 0.000000 0.000000
#
# Coordination Sequence:
#
# PCOD8164558 Si02
#       8
#     8   8   8   8   8   8   8   8
#     4   9  16  25  38  60  86 113 145 180 219 259
#     4   9  18  30  46  68  90 115 154 192 220 261
#     4   9  18  32  46  62  90 123 149 182 231 274
#     4   9  16  25  37  57  90 124 146 170 214 272
#     4   9  18  32  46  62  90 123 149 182 231 274
#     4   9  18  30  46  68  90 115 154 192 220 261
#     4   9  16  25  38  60  86 113 145 180 219 259
#     4   9  14  22  36  54  85 115 133 171 225 262
#
# _framework density 16.960522999999998
#
# number of rings (size 3 to 8) (size 9 to 14) (size 15 to 20)
#    0.000    3.000    1.250    0.000    1.750    1.500 
#    0.000    5.000    0.000    0.000    0.000    0.875 
#    0.000    4.000    0.000    0.000    0.000    0.000 
#
# Total GULP energy -396491.664134 kJ/mol
# GULP energy per Si atom -12390.364504 kJ/mol
# Density = 1.692192 g / cm^3
# Si number density = 16.960523 Si / 1000 Ang^3
#
#
#
# Elastic Constant Matrix: (Units=GPa)
#
#
# Indices 1 2 3 4 5 6 
#
# 1 35.8575 34.9786 22.8278 0.0001 0.0003 0.0000
# 2 34.9786 126.7477 53.2413 0.0005 -0.0004 -0.0001
# 3 22.8278 53.2413 113.6983 0.0027 -0.0012 -0.0003
# 4 0.0001 0.0005 0.0027 16.4358 0.0001 0.0000
# 5 0.0003 -0.0004 -0.0012 0.0001 12.7411 0.0001
# 6 0.0000 -0.0001 -0.0003 0.0000 0.0001 14.4334
#
#
#
# Elastic Compliance Matrix: (Units=1/GPa)
#
#
# Indices 1 2 3 4 5 6 
#
# 1 0.039247 -0.009363 -0.003496 0.000001 -0.000001 0.000000
# 2 -0.009363 0.012055 -0.003765 0.000000 0.000000 0.000000
# 3 -0.003496 -0.003765 0.011260 -0.000002 0.000001 0.000000
# 4 0.000001 0.000000 -0.000002 0.060843 -0.000001 0.000000
# 5 -0.000001 0.000000 0.000001 -0.000001 0.078486 -0.000001
# 6 0.000000 0.000000 0.000000 0.000000 -0.000001 0.069284
#
#
# Mechanical properties :
#
#
# Convention : Reuss Voigt Hill
#
# Bulk Modulus (GPa) = 34.11204 55.37766 44.74485
# Shear Modulus (GPa) = 15.91375 19.73908 17.82642
#
# Velocity S-wave (km/s) = 3.06646 3.41519 3.24551
# Velocity P-wave (km/s) = 5.71785 6.94789 6.36266
#
# Compressibility (1/GPa) = 0.02931516
#
# Stress axis : x y z
#
# Youngs Moduli (GPa) = 25.47987 82.95235 88.80855
#
# Poissons Ratio (x) = 0.77665 0.31043
# Poissons Ratio (y) = 0.23856 0.33439
# Poissons Ratio (z) = 0.08907 0.31234
#
# Static dielectric constant tensor:
#      x y z
#    x 2.828920 0.000000 0.000000 
#    y 0.000000 3.189390 0.000000 
#    z 0.000000 0.000000 3.342200 
# 
# 
# High freq. dielectric constant tensor:
#      x y z
#    x 1.588820 0.000000 0.000000 
#    y 0.000000 1.658980 0.000000 
#    z 0.000000 0.000000 1.658400 
# 
# From -- ./inp_files/16140.got.cif
#   From: 2010.03.12/outbox.cif.g09.slc.cpg/sg23_9_cif.got.tgz:16140.got - 2010.04.14 02:50:06.
