data_PCOD8164953
_publ_section_title
;
Structure prediction by ZEFSAII (Michael W. Deem and Ramdas Pophale) SiO2 
 PCOD8164953
Probable space group: I 21 21 21
;
_chemical_formula_sum "Si O2"
_cell_formula_units_Z 64
_cell_length_a 30.273313
_cell_length_b 8.793760
_cell_length_c 11.368819
_cell_angle_alpha 90.000000
_cell_angle_beta 90.000000
_cell_angle_gamma 90.000000
_cell_volume 3026.564349
_symmetry_space_group_name_H-M "I 21 21 21"
_symmetry_group_IT_number 24
_symmetry_cell_setting 'orthorhombic'
loop_
_space_group_symop_operation_xyz
x,y,z
-x,1/2-y,z
x,-y,1/2-z
1/2-x,y,-z
1/2+x,1/2+y,1/2+z
1/2-x,-y,1/2+z
1/2+x,1/2-y,-z
-x,1/2+y,1/2-z
loop_
_atom_site_type_symbol
_atom_site_label
_atom_site_fract_x
_atom_site_fract_y
_atom_site_fract_z
Si Si1 0.082540 0.137472 0.325157
Si Si2 0.135715 0.609784 0.849257
Si Si3 0.504642 0.430904 0.125177
Si Si4 0.435547 0.413519 0.540358
Si Si5 0.700703 0.890649 0.477039
Si Si6 0.620725 0.821011 0.622320
Si Si7 0.100542 0.943372 0.537270
Si Si8 0.322576 0.139770 0.194225
O O1 0.049737 0.266284 0.380336
O O2 0.117626 0.225565 0.242450
O O3 0.058233 0.000000 0.250000
O O4 0.109712 0.059555 0.430196
O O5 0.114661 0.500000 0.750000
O O6 0.176545 0.524211 0.908668
O O7 0.154362 0.762561 0.795290
O O8 0.097001 0.649992 0.939505
O O9 0.500000 0.250000 0.127297
O O10 0.489329 0.500000 0.250000
O O11 0.554632 0.479319 0.100925
O O12 0.477347 0.504148 0.017300
O O13 0.408326 0.525776 0.626583
O O14 0.750000 0.948144 0.500000
O O15 0.672644 0.854284 0.595622
O O16 0.705613 0.740703 0.395380
O O17 0.600159 0.729272 0.512071
O O18 0.139568 0.956970 0.628951
O O19 0.293569 0.000000 0.250000
#
# Coordination Sequence:
#
# PCOD8164953 Si02
#       8
#     8   8   8   8   8   8   8   8
#     4  10  22  39  61  85 115 161 215 251 296 353
#     4   9  19  35  61  89 117 161 198 234 302 373
#     4  12  27  39  60  92 126 156 204 264 324 373
#     4  11  21  38  62  86 122 159 205 254 302 367
#     4   9  19  37  60  88 123 154 196 255 301 355
#     4   9  19  40  62  83 115 159 205 251 294 360
#     4  10  21  39  57  85 123 155 200 250 307 363
#     4  10  19  35  60  85 120 157 194 238 305 374
#
# _framework density 21.146087999999999
#
# number of rings (size 3 to 8) (size 9 to 14) (size 15 to 20)
#    0.000    2.000    1.250    2.625    3.500    0.000 
#    0.000   17.500    0.000    0.000    0.000    0.000 
#    0.000    0.000    0.000    0.000    0.000    0.000 
#
# Total GULP energy -396580.887362 kJ/mol
# GULP energy per Si atom -12393.152730 kJ/mol
# Density = 2.109796 g / cm^3
# Si number density = 21.146088 Si / 1000 Ang^3
#
#
#
# Elastic Constant Matrix: (Units=GPa)
#
#
# Indices 1 2 3 4 5 6 
#
# 1 69.4120 4.0624 23.2824 0.0000 0.0000 0.0000
# 2 4.0624 120.1210 51.6960 0.0000 0.0000 0.0000
# 3 23.2824 51.6960 95.7874 0.0000 0.0000 0.0000
# 4 0.0000 0.0000 0.0000 45.3477 0.0000 0.0000
# 5 0.0000 0.0000 0.0000 0.0000 10.4435 0.0000
# 6 0.0000 0.0000 0.0000 0.0000 0.0000 8.8316
#
#
#
# Elastic Compliance Matrix: (Units=1/GPa)
#
#
# Indices 1 2 3 4 5 6 
#
# 1 0.015881 0.001464 -0.004650 0.000000 0.000000 0.000000
# 2 0.001464 0.010979 -0.006281 0.000000 0.000000 0.000000
# 3 -0.004650 -0.006281 0.014960 0.000000 0.000000 0.000000
# 4 0.000000 0.000000 0.000000 0.022052 0.000000 0.000000
# 5 0.000000 0.000000 0.000000 0.000000 0.095753 0.000000
# 6 0.000000 0.000000 0.000000 0.000000 0.000000 0.113230
#
#
# Mechanical properties :
#
#
# Convention : Reuss Voigt Hill
#
# Bulk Modulus (GPa) = 43.69626 49.26691 46.48158
# Shear Modulus (GPa) = 16.69914 26.67654 21.68784
#
# Velocity S-wave (km/s) = 2.81321 3.55566 3.20600
# Velocity P-wave (km/s) = 5.59116 6.34081 5.97775
#
# Compressibility (1/GPa) = 0.02288526
#
# Stress axis : x y z
#
# Youngs Moduli (GPa) = 62.96892 91.08682 66.84528
#
# Poissons Ratio (x) = -0.13338 0.31085
# Poissons Ratio (y) = -0.09220 0.41985
# Poissons Ratio (z) = 0.29283 0.57211
#
# Static dielectric constant tensor:
#      x y z
#    x 3.269450 0.000000 0.000000 
#    y 0.000000 4.065180 0.000000 
#    z 0.000000 0.000000 4.094790 
# 
# 
# High freq. dielectric constant tensor:
#      x y z
#    x 1.773110 0.000000 0.000000 
#    y 0.000000 1.853280 0.000000 
#    z 0.000000 0.000000 1.841550 
# 
# From -- ./inp_files/11641.got.cif
#   From: 2010.03.12/outbox.cif.g09.slc.cpg/sg24_6_cif.got.tgz:11641.got - 2010.04.14 03:06:53.
