data_PCOD8164278
_publ_section_title
;
Structure prediction by ZEFSAII (Michael W. Deem and Ramdas Pophale) SiO2 
 PCOD8164278
Probable space group: I 2 2 2
;
_chemical_formula_sum "Si O2"
_cell_formula_units_Z 30
_cell_length_a 21.110533
_cell_length_b 10.991037
_cell_length_c 4.851875
_cell_angle_alpha 90.000000
_cell_angle_beta 90.000000
_cell_angle_gamma 90.000000
_cell_volume 1125.764299
_symmetry_space_group_name_H-M "I 2 2 2"
_symmetry_group_IT_number 23
_symmetry_cell_setting 'orthorhombic'
loop_
_space_group_symop_operation_xyz
x,y,z
-x,-y,z
x,-y,-z
-x,y,-z
1/2+x,1/2+y,1/2+z
1/2-x,1/2-y,1/2+z
1/2+x,1/2-y,1/2-z
1/2-x,1/2+y,1/2-z
loop_
_atom_site_type_symbol
_atom_site_label
_atom_site_fract_x
_atom_site_fract_y
_atom_site_fract_z
Si Si1 0.000000 0.500000 0.500000
Si Si2 0.853799 0.000000 0.000000
Si Si3 0.290363 0.280206 0.224671
Si Si4 0.454772 0.332624 0.733966
Si Si5 0.402914 0.876543 0.608996
O O1 0.039639 0.590446 0.307954
O O2 0.895021 0.074761 0.770722
O O3 0.807351 0.914325 0.825573
O O4 0.238908 0.214854 0.420894
O O5 0.354605 0.202055 0.210706
O O6 0.500000 0.383442 0.500000
O O7 0.571023 0.197697 0.344085
O O8 0.500000 0.334064 0.000000
O O9 0.369697 0.000000 0.500000
#
# Coordination Sequence:
#
# PCOD8164278 Si02
#       5
#     2   4   8   8   8
#     4  12  26  50  78 128 166 220 266 346 426 506
#     4  10  27  51  78 118 153 209 274 330 396 484
#     4  11  29  52  81 113 156 214 277 340 403 482
#     4  11  26  47  75 116 165 209 254 323 408 489
#     4  11  28  46  81 119 165 211 270 338 415 497
#
# _framework density 26.648564
#
# number of rings (size 3 to 8) (size 9 to 14) (size 15 to 20)
#    0.000    1.067    0.000    2.400   14.933   10.667 
#    7.200    0.000    0.000    0.000    0.000    0.000 
#    0.000    0.000    0.000    0.000    0.000    0.000 
#
# Total GULP energy -186013.337896 kJ/mol
# GULP energy per Si atom -12400.889193 kJ/mol
# Density = 2.658791 g / cm^3
# Si number density = 26.648564 Si / 1000 Ang^3
#
#
#
# Elastic Constant Matrix: (Units=GPa)
#
#
# Indices 1 2 3 4 5 6 
#
# 1 115.9427 34.7112 23.9381 0.0000 0.0000 0.0000
# 2 34.7112 148.9896 10.1190 0.0000 0.0000 0.0000
# 3 23.9381 10.1190 114.4112 0.0000 0.0000 0.0000
# 4 0.0000 0.0000 0.0000 23.8891 0.0000 0.0000
# 5 0.0000 0.0000 0.0000 0.0000 -2.5530 0.0000
# 6 0.0000 0.0000 0.0000 0.0000 0.0000 43.1402
#
#
#
# Elastic Compliance Matrix: (Units=1/GPa)
#
#
# Indices 1 2 3 4 5 6 
#
# 1 0.009638 -0.002121 -0.001829 0.000000 0.000000 0.000000
# 2 -0.002121 0.007219 -0.000195 0.000000 0.000000 0.000000
# 3 -0.001829 -0.000195 0.009140 0.000000 0.000000 0.000000
# 4 0.000000 0.000000 0.000000 0.041860 0.000000 0.000000
# 5 0.000000 0.000000 0.000000 0.000000 -0.391697 0.000000
# 6 0.000000 0.000000 0.000000 0.000000 0.000000 0.023180
#
#
# Mechanical properties :
#
#
# Convention : Reuss Voigt Hill
#
# Bulk Modulus (GPa) = 56.47244 57.43113 56.95179
# Shear Modulus (GPa) = -17.45400 33.60026 8.07313
#
# Velocity S-wave (km/s) = -2.56201 3.55472 1.74243
# Velocity P-wave (km/s) = 3.53351 6.20049 5.04637
#
# Compressibility (1/GPa) = 0.01770775
#
# Stress axis : x y z
#
# Youngs Moduli (GPa) = 103.76055 138.51801 109.40591
#
# Poissons Ratio (x) = 0.29381 0.20009
# Poissons Ratio (y) = 0.22009 0.02130
# Poissons Ratio (z) = 0.18976 0.02697
#
# Static dielectric constant tensor:
#      x y z
#    x 5.025650 0.000000 0.000000 
#    y 0.000000 5.369450 0.000000 
#    z 0.000000 0.000000 4.605140 
# 
# 
# High freq. dielectric constant tensor:
#      x y z
#    x 2.075180 0.000000 0.000000 
#    y 0.000000 2.092420 0.000000 
#    z 0.000000 0.000000 2.067920 
# 
# From -- ./inp_files/3670.got.cif
#   From: 2010.03.12/outbox.cif.g09.slc.cpg/sg23_2_cif.got.tgz:3670.got - 2010.04.14 02:50:06.
