data_PCOD8164766
_publ_section_title
;
Structure prediction by ZEFSAII (Michael W. Deem and Ramdas Pophale) SiO2 
 PCOD8164766
Probable space group: I 21 21 21
;
_chemical_formula_sum "Si O2"
_cell_formula_units_Z 32
_cell_length_a 18.674459
_cell_length_b 7.662171
_cell_length_c 8.356417
_cell_angle_alpha 90.000000
_cell_angle_beta 90.000000
_cell_angle_gamma 90.000000
_cell_volume 1195.693789
_symmetry_space_group_name_H-M "I 21 21 21"
_symmetry_group_IT_number 24
_symmetry_cell_setting 'orthorhombic'
loop_
_space_group_symop_operation_xyz
x,y,z
-x,1/2-y,z
x,-y,1/2-z
1/2-x,y,-z
1/2+x,1/2+y,1/2+z
1/2-x,-y,1/2+z
1/2+x,1/2-y,-z
-x,1/2+y,1/2-z
loop_
_atom_site_type_symbol
_atom_site_label
_atom_site_fract_x
_atom_site_fract_y
_atom_site_fract_z
Si Si1 0.196411 0.342671 0.640878
Si Si2 0.673733 0.610079 0.435505
Si Si3 0.028843 0.941222 0.928600
Si Si4 0.601855 0.944332 0.572650
O O1 0.228957 0.500000 0.750000
O O2 0.250000 0.291411 0.500000
O O3 0.180263 0.169299 0.748026
O O4 0.123425 0.409118 0.559455
O O5 0.750000 0.543468 0.500000
O O6 0.613964 0.459725 0.463367
O O7 0.647920 0.772888 0.540372
O O8 0.000000 0.750000 0.967863
O O9 0.011637 0.000000 0.750000
O O10 0.983789 0.073569 0.044424
O O11 0.621170 0.000000 0.750000
#
# Coordination Sequence:
#
# PCOD8164766 Si02
#       4
#     8   8   8   8
#     4  10  18  35  68 113 157 193 231 286 359 439
#     4  11  24  45  73 109 152 191 241 303 365 438
#     4  12  26  49  76 102 142 198 252 305 369 439
#     4  11  22  41  74 112 151 194 243 294 354 432
#
# _framework density 26.762702999999998
#
# number of rings (size 3 to 8) (size 9 to 14) (size 15 to 20)
#    0.000    1.000    0.000   11.250    0.000    2.000 
#    0.000   12.500    0.000    0.000    0.000    0.000 
#    0.000    0.000    0.000    0.000    0.000    0.000 
#
# Total GULP energy -198411.447893 kJ/mol
# GULP energy per Si atom -12400.715493 kJ/mol
# Density = 2.670179 g / cm^3
# Si number density = 26.762703 Si / 1000 Ang^3
#
#
#
# Elastic Constant Matrix: (Units=GPa)
#
#
# Indices 1 2 3 4 5 6 
#
# 1 211.9046 76.4003 61.0248 0.0000 0.0000 0.0000
# 2 76.4003 130.5931 40.9339 0.0000 0.0000 0.0000
# 3 61.0248 40.9339 153.1904 0.0000 0.0000 0.0000
# 4 0.0000 0.0000 0.0000 16.8366 0.0000 0.0000
# 5 0.0000 0.0000 0.0000 0.0000 52.4812 0.0000
# 6 0.0000 0.0000 0.0000 0.0000 0.0000 38.0147
#
#
#
# Elastic Compliance Matrix: (Units=1/GPa)
#
#
# Indices 1 2 3 4 5 6 
#
# 1 0.006353 -0.003190 -0.001678 0.000000 0.000000 0.000000
# 2 -0.003190 0.009960 -0.001390 0.000000 0.000000 0.000000
# 3 -0.001678 -0.001390 0.007568 0.000000 0.000000 0.000000
# 4 0.000000 0.000000 0.000000 0.059394 0.000000 0.000000
# 5 0.000000 0.000000 0.000000 0.000000 0.019054 0.000000
# 6 0.000000 0.000000 0.000000 0.000000 0.000000 0.026306
#
#
# Mechanical properties :
#
#
# Convention : Reuss Voigt Hill
#
# Bulk Modulus (GPa) = 88.01055 94.71177 91.36116
# Shear Modulus (GPa) = 34.49705 42.62177 38.55941
#
# Velocity S-wave (km/s) = 3.59416 3.99504 3.79989
# Velocity P-wave (km/s) = 7.08384 7.53305 7.31190
#
# Compressibility (1/GPa) = 0.01136227
#
# Stress axis : x y z
#
# Youngs Moduli (GPa) = 157.41411 100.40475 132.13817
#
# Poissons Ratio (x) = 0.32034 0.22174
# Poissons Ratio (y) = 0.50223 0.18372
# Poissons Ratio (z) = 0.26416 0.13960
#
# Static dielectric constant tensor:
#      x y z
#    x 5.083350 0.000000 0.000000 
#    y 0.000000 4.785020 0.000000 
#    z 0.000000 0.000000 4.750480 
# 
# 
# High freq. dielectric constant tensor:
#      x y z
#    x 2.096160 0.000000 0.000000 
#    y 0.000000 2.087940 0.000000 
#    z 0.000000 0.000000 2.065900 
# 
# From -- ./inp_files/14775.got.cif
#   From: 2010.03.12/outbox.cif.g09.slc.cpg/sg24_8_cif.got.tgz:14775.got - 2010.04.14 03:06:53.
