data_PCOD8164735
_publ_section_title
;
Structure prediction by ZEFSAII (Michael W. Deem and Ramdas Pophale) SiO2 
 PCOD8164735
Probable space group: I 21 21 21
;
_chemical_formula_sum "Si O2"
_cell_formula_units_Z 52
_cell_length_a 18.044474
_cell_length_b 13.741624
_cell_length_c 9.818978
_cell_angle_alpha 90.000000
_cell_angle_beta 90.000000
_cell_angle_gamma 90.000000
_cell_volume 2434.717486
_symmetry_space_group_name_H-M "I 21 21 21"
_symmetry_group_IT_number 24
_symmetry_cell_setting 'orthorhombic'
loop_
_space_group_symop_operation_xyz
x,y,z
-x,1/2-y,z
x,-y,1/2-z
1/2-x,y,-z
1/2+x,1/2+y,1/2+z
1/2-x,-y,1/2+z
1/2+x,1/2-y,-z
-x,1/2+y,1/2-z
loop_
_atom_site_type_symbol
_atom_site_label
_atom_site_fract_x
_atom_site_fract_y
_atom_site_fract_z
Si Si1 0.328383 0.585758 0.428129
Si Si2 0.000000 0.750000 0.728106
Si Si3 0.197624 0.890031 0.718038
Si Si4 0.121652 0.381613 0.639919
Si Si5 0.333857 0.798679 0.019010
Si Si6 0.112624 0.211637 0.991581
Si Si7 0.129514 0.111578 0.256165
O O1 0.250000 0.560914 0.500000
O O2 0.382817 0.490787 0.422957
O O3 0.321500 0.619298 0.269743
O O4 0.366375 0.674389 0.509791
O O5 0.042417 0.667465 0.818724
O O6 0.051545 0.808463 0.622769
O O7 0.145959 0.830560 0.826442
O O8 0.180421 0.854976 0.564426
O O9 0.284080 0.870019 0.734145
O O10 0.177554 0.000000 0.750000
O O11 0.157145 0.317877 0.517828
O O12 0.250000 0.834656 0.000000
O O13 0.388347 0.846680 0.906919
O O14 0.086539 0.171587 0.138835
O O15 0.105064 0.000000 0.250000
#
# Coordination Sequence:
#
# PCOD8164735 Si02
#       7
#     8   4   8   8   8   8   8
#     4  10  20  36  64  92 130 167 217 290 343 388
#     4  10  22  42  64  82 130 172 230 260 302 414
#     4  10  18  33  57  89 120 159 210 258 323 389
#     4  10  21  40  59  96 127 167 223 265 332 409
#     4  10  19  33  55  87 124 159 201 270 336 389
#     4  11  21  39  60  89 126 177 219 263 330 383
#     4  10  21  35  57  91 130 159 208 274 331 392
#
# _framework density 21.357714999999999
#
# number of rings (size 3 to 8) (size 9 to 14) (size 15 to 20)
#    0.000    1.846    3.077    2.769    2.154    2.462 
#    5.538    0.769    0.000    0.000    0.000    0.000 
#    0.000    0.000    0.000    0.000    0.000    0.000 
#
# Total GULP energy -322108.811173 kJ/mol
# GULP energy per Si atom -12388.800430 kJ/mol
# Density = 2.130910 g / cm^3
# Si number density = 21.357715 Si / 1000 Ang^3
#
#
#
# Elastic Constant Matrix: (Units=GPa)
#
#
# Indices 1 2 3 4 5 6 
#
# 1 53.3914 27.4246 16.2736 0.0000 0.0000 0.0000
# 2 27.4246 145.6050 48.0927 0.0000 0.0000 0.0000
# 3 16.2736 48.0927 99.6185 0.0000 0.0000 0.0000
# 4 0.0000 0.0000 0.0000 37.0325 0.0000 0.0000
# 5 0.0000 0.0000 0.0000 0.0000 17.7384 0.0000
# 6 0.0000 0.0000 0.0000 0.0000 0.0000 25.6799
#
#
#
# Elastic Compliance Matrix: (Units=1/GPa)
#
#
# Indices 1 2 3 4 5 6 
#
# 1 0.021007 -0.003359 -0.001810 0.000000 0.000000 0.000000
# 2 -0.003359 0.008708 -0.003655 0.000000 0.000000 0.000000
# 3 -0.001810 -0.003655 0.012099 0.000000 0.000000 0.000000
# 4 0.000000 0.000000 0.000000 0.027003 0.000000 0.000000
# 5 0.000000 0.000000 0.000000 0.000000 0.056375 0.000000
# 6 0.000000 0.000000 0.000000 0.000000 0.000000 0.038941
#
#
# Mechanical properties :
#
#
# Convention : Reuss Voigt Hill
#
# Bulk Modulus (GPa) = 41.38231 53.57742 47.47986
# Shear Modulus (GPa) = 26.33865 29.87842 28.10853
#
# Velocity S-wave (km/s) = 3.51553 3.74431 3.63172
# Velocity P-wave (km/s) = 5.99136 6.62068 6.31387
#
# Compressibility (1/GPa) = 0.02416492
#
# Stress axis : x y z
#
# Youngs Moduli (GPa) = 47.60425 114.83971 82.65416
#
# Poissons Ratio (x) = 0.38571 0.14962
# Poissons Ratio (y) = 0.15989 0.30212
# Poissons Ratio (z) = 0.08617 0.41976
#
# Static dielectric constant tensor:
#      x y z
#    x 3.577640 0.000000 0.000000 
#    y 0.000000 4.030450 0.000000 
#    z 0.000000 0.000000 4.110190 
# 
# 
# High freq. dielectric constant tensor:
#      x y z
#    x 1.791450 0.000000 0.000000 
#    y 0.000000 1.847750 0.000000 
#    z 0.000000 0.000000 1.839500 
# 
# From -- ./inp_files/15177.got.cif
#   From: 2010.03.12/outbox.cif.g09.slc.cpg/sg24_8_cif.got.tgz:15177.got - 2010.04.14 03:06:53.
