data_PCOD8164260
_publ_section_title
;
Structure prediction by ZEFSAII (Michael W. Deem and Ramdas Pophale) SiO2 
 PCOD8164260
Probable space group: I 2 2 2
;
_chemical_formula_sum "Si O2"
_cell_formula_units_Z 48
_cell_length_a 10.648871
_cell_length_b 9.129681
_cell_length_c 21.122021
_cell_angle_alpha 90.000000
_cell_angle_beta 90.000000
_cell_angle_gamma 90.000000
_cell_volume 2053.499679
_symmetry_space_group_name_H-M "I 2 2 2"
_symmetry_group_IT_number 23
_symmetry_cell_setting 'orthorhombic'
loop_
_space_group_symop_operation_xyz
x,y,z
-x,-y,z
x,-y,-z
-x,y,-z
1/2+x,1/2+y,1/2+z
1/2-x,1/2-y,1/2+z
1/2+x,1/2-y,1/2-z
1/2-x,1/2+y,1/2-z
loop_
_atom_site_type_symbol
_atom_site_label
_atom_site_fract_x
_atom_site_fract_y
_atom_site_fract_z
Si Si1 0.642152 0.133590 0.040073
Si Si2 0.570370 0.856406 0.777871
Si Si3 0.462201 0.665288 0.886122
Si Si4 0.697964 0.562150 0.345423
Si Si5 0.051261 0.769307 0.855105
Si Si6 0.214353 0.350575 0.041310
O O1 0.526516 0.239922 0.058058
O O2 0.697240 0.054732 0.101095
O O3 0.755380 0.221616 0.007449
O O4 0.588043 0.000000 0.000000
O O5 0.505917 0.722784 0.817103
O O6 0.721984 0.874518 0.786013
O O7 0.547568 0.840513 0.703506
O O8 0.500000 0.000000 0.802554
O O9 0.500000 0.500000 0.892768
O O10 0.314408 0.657847 0.900868
O O11 0.645485 0.399718 0.334737
O O12 0.588420 0.671733 0.365627
O O13 0.085634 0.685333 0.920747
O O14 0.207123 0.500000 0.000000
#
# Coordination Sequence:
#
# PCOD8164260 Si02
#       6
#     8   8   8   8   8   8
#     4  11  23  45  75 106 146 191 252 306 373 468
#     4  11  27  46  77 109 145 192 262 322 381 455
#     4  11  25  44  73 112 149 195 248 325 394 439
#     4  10  25  48  71 107 139 200 248 307 382 455
#     4  11  26  47  75 101 151 199 249 309 389 471
#     4  12  25  44  73 112 154 194 243 322 389 468
#
# _framework density 23.374728999999999
#
# number of rings (size 3 to 8) (size 9 to 14) (size 15 to 20)
#    0.000    1.000    3.333    1.500    9.333    2.667 
#    0.000    0.833    0.000    0.000    0.000    0.000 
#    0.000    0.000    0.000    0.000    0.000    0.000 
#
# Total GULP energy -297535.030723 kJ/mol
# GULP energy per Si atom -12397.292947 kJ/mol
# Density = 2.332153 g / cm^3
# Si number density = 23.374729 Si / 1000 Ang^3
#
#
#
# Elastic Constant Matrix: (Units=GPa)
#
#
# Indices 1 2 3 4 5 6 
#
# 1 111.7272 38.8643 24.4120 0.0000 0.0000 0.0000
# 2 38.8643 139.5577 38.2061 0.0000 0.0000 0.0000
# 3 24.4120 38.2061 101.4994 0.0000 0.0000 0.0000
# 4 0.0000 0.0000 0.0000 34.6141 0.0000 0.0000
# 5 0.0000 0.0000 0.0000 0.0000 29.5513 0.0000
# 6 0.0000 0.0000 0.0000 0.0000 0.0000 34.1977
#
#
#
# Elastic Compliance Matrix: (Units=1/GPa)
#
#
# Indices 1 2 3 4 5 6 
#
# 1 0.010119 -0.002399 -0.001531 0.000000 0.000000 0.000000
# 2 -0.002399 0.008557 -0.002644 0.000000 0.000000 0.000000
# 3 -0.001531 -0.002644 0.011216 0.000000 0.000000 0.000000
# 4 0.000000 0.000000 0.000000 0.028890 0.000000 0.000000
# 5 0.000000 0.000000 0.000000 0.000000 0.033839 0.000000
# 6 0.000000 0.000000 0.000000 0.000000 0.000000 0.029242
#
#
# Mechanical properties :
#
#
# Convention : Reuss Voigt Hill
#
# Bulk Modulus (GPa) = 59.72074 61.74991 60.73532
# Shear Modulus (GPa) = 35.56360 36.42608 35.99484
#
# Velocity S-wave (km/s) = 3.90481 3.95188 3.92842
# Velocity P-wave (km/s) = 6.77752 6.87735 6.82762
#
# Compressibility (1/GPa) = 0.01674460
#
# Stress axis : x y z
#
# Youngs Moduli (GPa) = 98.82073 116.85726 89.16017
#
# Poissons Ratio (x) = 0.28034 0.13649
# Poissons Ratio (y) = 0.23707 0.23576
# Poissons Ratio (z) = 0.15128 0.30899
#
# Static dielectric constant tensor:
#      x y z
#    x 4.436680 0.000000 0.000000 
#    y 0.000000 4.177730 0.000000 
#    z 0.000000 0.000000 4.095530 
# 
# 
# High freq. dielectric constant tensor:
#      x y z
#    x 1.932680 0.000000 0.000000 
#    y 0.000000 1.931470 0.000000 
#    z 0.000000 0.000000 1.924790 
# 
# From -- ./inp_files/28284.got.cif
#   From: 2010.03.12/outbox.cif.g09.slc.cpg/sg23_15_cif.got.tgz:28284.got - 2010.04.14 02:50:06.
