data_PCOD8164736
_publ_section_title
;
Structure prediction by ZEFSAII (Michael W. Deem and Ramdas Pophale) SiO2 
 PCOD8164736
Probable space group: I 21 21 21
;
_chemical_formula_sum "Si O2"
_cell_formula_units_Z 64
_cell_length_a 8.140682
_cell_length_b 20.940663
_cell_length_c 19.457452
_cell_angle_alpha 90.000000
_cell_angle_beta 90.000000
_cell_angle_gamma 90.000000
_cell_volume 3316.936716
_symmetry_space_group_name_H-M "I 21 21 21"
_symmetry_group_IT_number 24
_symmetry_cell_setting 'orthorhombic'
loop_
_space_group_symop_operation_xyz
x,y,z
-x,1/2-y,z
x,-y,1/2-z
1/2-x,y,-z
1/2+x,1/2+y,1/2+z
1/2-x,-y,1/2+z
1/2+x,1/2-y,-z
-x,1/2+y,1/2-z
loop_
_atom_site_type_symbol
_atom_site_label
_atom_site_fract_x
_atom_site_fract_y
_atom_site_fract_z
Si Si1 0.313611 0.228086 0.713164
Si Si2 0.431724 0.901416 0.749887
Si Si3 0.302995 0.360548 0.263956
Si Si4 0.842941 0.292454 0.434585
Si Si5 0.329989 0.006745 0.856728
Si Si6 0.007803 0.074141 0.463217
Si Si7 0.342562 0.569795 0.103155
Si Si8 0.023752 0.461906 0.818842
O O1 0.500000 0.250000 0.707297
O O2 0.317702 0.162303 0.756655
O O3 0.201859 0.283758 0.747703
O O4 0.242092 0.214606 0.636580
O O5 0.618886 0.887928 0.770043
O O6 0.345483 0.944429 0.808208
O O7 0.437666 0.936466 0.676467
O O8 0.385120 0.377975 0.337740
O O9 0.406328 0.391600 0.200883
O O10 0.750000 0.263491 0.500000
O O11 0.000000 0.250000 0.426312
O O12 0.879040 0.366385 0.445998
O O13 0.400130 0.988600 0.932336
O O14 0.145999 0.035897 0.861578
O O15 0.985792 0.070271 0.545462
O O16 0.832407 0.084610 0.428677
O O17 0.338575 0.499082 0.136870
O O18 0.986739 0.500000 0.750000
#
# Coordination Sequence:
#
# PCOD8164736 Si02
#       8
#     8   8   8   8   8   8   8   8
#     4   9  18  35  54  78 107 146 194 230 272 337
#     4  10  18  33  58  76 104 147 188 236 288 338
#     4  10  19  35  57  79 109 149 190 238 285 338
#     4  11  24  36  51  72 109 156 200 231 271 322
#     4  11  20  34  53  77 110 146 189 239 289 337
#     4  11  22  36  53  77 110 153 198 230 283 342
#     4  10  21  33  55  77 111 150 194 237 275 338
#     4  10  21  34  53  79 107 138 188 238 294 328
#
# _framework density 19.294910999999999
#
# number of rings (size 3 to 8) (size 9 to 14) (size 15 to 20)
#    0.000    1.750    3.750    2.250    8.750    0.000 
#    0.000    0.625    0.000    0.000    0.000    0.000 
#    0.000   20.000    0.000    0.000    0.000    0.000 
#
# Total GULP energy -396533.797621 kJ/mol
# GULP energy per Si atom -12391.681176 kJ/mol
# Density = 1.925100 g / cm^3
# Si number density = 19.294911 Si / 1000 Ang^3
#
#
#
# Elastic Constant Matrix: (Units=GPa)
#
#
# Indices 1 2 3 4 5 6 
#
# 1 52.1505 27.1400 11.7538 0.0000 0.0000 0.0000
# 2 27.1400 126.3125 43.8511 0.0000 0.0000 0.0000
# 3 11.7538 43.8511 46.4022 0.0000 0.0000 0.0000
# 4 0.0000 0.0000 0.0000 27.5206 0.0000 0.0000
# 5 0.0000 0.0000 0.0000 0.0000 25.8487 0.0000
# 6 0.0000 0.0000 0.0000 0.0000 0.0000 13.1340
#
#
#
# Elastic Compliance Matrix: (Units=1/GPa)
#
#
# Indices 1 2 3 4 5 6 
#
# 1 0.021671 -0.004094 -0.001621 0.000000 0.000000 0.000000
# 2 -0.004094 0.012556 -0.010828 0.000000 0.000000 0.000000
# 3 -0.001621 -0.010828 0.032194 0.000000 0.000000 0.000000
# 4 0.000000 0.000000 0.000000 0.036336 0.000000 0.000000
# 5 0.000000 0.000000 0.000000 0.000000 0.038687 0.000000
# 6 0.000000 0.000000 0.000000 0.000000 0.000000 0.076138
#
#
# Mechanical properties :
#
#
# Convention : Reuss Voigt Hill
#
# Bulk Modulus (GPa) = 29.99818 43.37277 36.68548
# Shear Modulus (GPa) = 19.10002 22.77534 20.93768
#
# Velocity S-wave (km/s) = 3.14968 3.43939 3.29772
# Velocity P-wave (km/s) = 5.36733 6.18872 5.79260
#
# Compressibility (1/GPa) = 0.03333535
#
# Stress axis : x y z
#
# Youngs Moduli (GPa) = 46.14472 79.64505 31.06134
#
# Poissons Ratio (x) = 0.32604 0.05034
# Poissons Ratio (y) = 0.18890 0.33635
# Poissons Ratio (z) = 0.07479 0.86243
#
# Static dielectric constant tensor:
#      x y z
#    x 3.530550 0.000000 0.000000 
#    y 0.000000 3.714970 0.000000 
#    z 0.000000 0.000000 3.809960 
# 
# 
# High freq. dielectric constant tensor:
#      x y z
#    x 1.749750 0.000000 0.000000 
#    y 0.000000 1.737020 0.000000 
#    z 0.000000 0.000000 1.719910 
# 
# From -- ./inp_files/29833.got.cif
#   From: 2010.03.12/outbox.cif.g09.slc.cpg/sg24_15_cif.got.tgz:29833.got - 2010.04.14 03:06:53.
