data_PCOD8164037
_publ_section_title
;
Structure prediction by ZEFSAII (Michael W. Deem and Ramdas Pophale) SiO2 
 PCOD8164037
Probable space group: I 2 2 2
;
_chemical_formula_sum "Si O2"
_cell_formula_units_Z 30
_cell_length_a 20.244549
_cell_length_b 7.991114
_cell_length_c 8.050186
_cell_angle_alpha 90.000000
_cell_angle_beta 90.000000
_cell_angle_gamma 90.000000
_cell_volume 1302.330907
_symmetry_space_group_name_H-M "I 2 2 2"
_symmetry_group_IT_number 23
_symmetry_cell_setting 'orthorhombic'
loop_
_space_group_symop_operation_xyz
x,y,z
-x,-y,z
x,-y,-z
-x,y,-z
1/2+x,1/2+y,1/2+z
1/2-x,1/2-y,1/2+z
1/2+x,1/2-y,1/2-z
1/2-x,1/2+y,1/2-z
loop_
_atom_site_type_symbol
_atom_site_label
_atom_site_fract_x
_atom_site_fract_y
_atom_site_fract_z
Si Si1 0.000000 0.000000 0.500000
Si Si2 0.285580 0.406243 0.765931
Si Si3 0.169773 0.688295 0.025705
Si Si4 0.617484 0.684958 0.150694
Si Si5 0.684726 0.000000 0.000000
O O1 0.044206 0.122609 0.611901
O O2 0.244709 0.299688 0.902057
O O3 0.330233 0.291007 0.645610
O O4 0.332325 0.529869 0.867550
O O5 0.231275 0.513684 0.662838
O O6 0.117595 0.762177 0.156313
O O7 0.146599 0.500000 0.000000
O O8 0.638894 0.833757 0.022939
#
# Coordination Sequence:
#
# PCOD8164037 Si02
#       5
#     2   8   8   8   4
#     4  12  32  50  66  92 136 214 242 290 336 434
#     4  11  23  40  71 114 150 176 223 303 374 426
#     4  11  23  39  71 113 146 178 223 300 376 430
#     4  11  26  43  70  98 149 188 245 281 354 437
#     4  10  22  41  72 111 134 174 222 308 366 420
#
# _framework density 23.035620999999999
#
# number of rings (size 3 to 8) (size 9 to 14) (size 15 to 20)
#    0.000    1.067    2.667    3.200   13.067    0.533 
#    0.000    2.667    0.000    4.800    0.000    0.000 
#    0.000    0.000    0.000    0.000    0.000    0.000 
#
# Total GULP energy -185960.993873 kJ/mol
# GULP energy per Si atom -12397.399592 kJ/mol
# Density = 2.298319 g / cm^3
# Si number density = 23.035621 Si / 1000 Ang^3
#
#
#
# Elastic Constant Matrix: (Units=GPa)
#
#
# Indices 1 2 3 4 5 6 
#
# 1 134.2299 60.3027 39.6553 0.0000 0.0000 0.0000
# 2 60.3027 164.1712 44.1266 0.0000 0.0000 0.0000
# 3 39.6553 44.1266 91.3090 0.0000 0.0000 0.0000
# 4 0.0000 0.0000 0.0000 52.8368 0.0000 0.0000
# 5 0.0000 0.0000 0.0000 0.0000 35.6888 0.0000
# 6 0.0000 0.0000 0.0000 0.0000 0.0000 34.7293
#
#
#
# Elastic Compliance Matrix: (Units=1/GPa)
#
#
# Indices 1 2 3 4 5 6 
#
# 1 0.009509 -0.002739 -0.002806 0.000000 0.000000 0.000000
# 2 -0.002739 0.007789 -0.002575 0.000000 0.000000 0.000000
# 3 -0.002806 -0.002575 0.013415 0.000000 0.000000 0.000000
# 4 0.000000 0.000000 0.000000 0.018926 0.000000 0.000000
# 5 0.000000 0.000000 0.000000 0.000000 0.028020 0.000000
# 6 0.000000 0.000000 0.000000 0.000000 0.000000 0.028794
#
#
# Mechanical properties :
#
#
# Convention : Reuss Voigt Hill
#
# Bulk Modulus (GPa) = 69.09068 75.31991 72.20529
# Shear Modulus (GPa) = 39.21008 41.02602 40.11805
#
# Velocity S-wave (km/s) = 4.13019 4.22475 4.17773
# Velocity P-wave (km/s) = 7.26655 7.52104 7.39489
#
# Compressibility (1/GPa) = 0.01447373
#
# Stress axis : x y z
#
# Youngs Moduli (GPa) = 105.16015 128.38246 74.54341
#
# Poissons Ratio (x) = 0.35159 0.20920
# Poissons Ratio (y) = 0.28799 0.19194
# Poissons Ratio (z) = 0.29512 0.33057
#
# Static dielectric constant tensor:
#      x y z
#    x 3.524420 0.000000 0.000000 
#    y 0.000000 4.663510 0.000000 
#    z 0.000000 0.000000 4.843070 
# 
# 
# High freq. dielectric constant tensor:
#      x y z
#    x 1.833360 0.000000 0.000000 
#    y 0.000000 1.947120 0.000000 
#    z 0.000000 0.000000 1.938680 
# 
# From -- ./inp_files/6627.got.cif
#   From: 2010.03.12/outbox.cif.g09.slc.cpg/sg23_4_cif.got.tgz:6627.got - 2010.04.14 02:50:06.
