data_PCOD8164102
_publ_section_title
;
Structure prediction by ZEFSAII (Michael W. Deem and Ramdas Pophale) SiO2 
 PCOD8164102
Probable space group: I 2 2 2
;
_chemical_formula_sum "Si O2"
_cell_formula_units_Z 46
_cell_length_a 20.976758
_cell_length_b 9.846025
_cell_length_c 11.167330
_cell_angle_alpha 90.000000
_cell_angle_beta 90.000000
_cell_angle_gamma 90.000000
_cell_volume 2306.474471
_symmetry_space_group_name_H-M "I 2 2 2"
_symmetry_group_IT_number 23
_symmetry_cell_setting 'orthorhombic'
loop_
_space_group_symop_operation_xyz
x,y,z
-x,-y,z
x,-y,-z
-x,y,-z
1/2+x,1/2+y,1/2+z
1/2-x,1/2-y,1/2+z
1/2+x,1/2-y,1/2-z
1/2-x,1/2+y,1/2-z
loop_
_atom_site_type_symbol
_atom_site_label
_atom_site_fract_x
_atom_site_fract_y
_atom_site_fract_z
Si Si1 0.436426 0.648701 0.053307
Si Si2 0.272501 0.000000 0.000000
Si Si3 0.165734 0.656839 0.981809
Si Si4 0.172471 0.127975 0.835000
Si Si5 0.500000 0.500000 0.500000
Si Si6 0.091297 0.858036 0.827350
Si Si7 0.808615 0.229304 0.428821
O O1 0.439316 0.658927 0.196653
O O2 0.440812 0.500000 0.000000
O O3 0.500000 0.725930 0.000000
O O4 0.367640 0.702428 0.015619
O O5 0.310531 0.893255 0.918317
O O6 0.236581 0.096407 0.906520
O O7 0.132390 0.723713 0.863921
O O8 0.242624 0.665267 0.976696
O O9 0.145010 0.500000 0.000000
O O10 0.139780 0.746049 0.094652
O O11 0.182431 0.166941 0.699955
O O12 0.134479 0.989901 0.836689
O O13 0.536062 0.389459 0.420123
#
# Coordination Sequence:
#
# PCOD8164102 Si02
#       7
#     8   4   8   8   2   8   8
#     4  11  24  41  63 100 128 171 223 270 326 401
#     4  10  23  40  59 103 129 176 220 272 338 405
#     4  11  25  39  63 102 132 172 220 278 338 388
#     4  11  21  41  62  96 130 171 224 267 332 398
#     4  12  22  44  72  92 118 188 212 282 324 386
#     4  12  23  43  70  96 132 168 229 274 325 400
#     4  11  24  38  68  91 140 173 215 276 340 388
#
# _framework density 19.943857999999999
#
# number of rings (size 3 to 8) (size 9 to 14) (size 15 to 20)
#    0.000    0.870    6.957    1.565    7.304    0.000 
#    0.000    0.870    0.000    2.087    0.000    0.000 
#    0.000    0.000    0.000    0.000    0.000    0.000 
#
# Total GULP energy -284931.466129 kJ/mol
# GULP energy per Si atom -12388.324614 kJ/mol
# Density = 1.989847 g / cm^3
# Si number density = 19.943858 Si / 1000 Ang^3
#
#
#
# Elastic Constant Matrix: (Units=GPa)
#
#
# Indices 1 2 3 4 5 6 
#
# 1 99.9578 33.5150 44.7587 0.0000 0.0000 0.0000
# 2 33.5150 151.7029 46.2636 0.0000 0.0000 0.0000
# 3 44.7587 46.2636 138.9006 0.0000 0.0000 0.0000
# 4 0.0000 0.0000 0.0000 -17.6784 0.0000 0.0000
# 5 0.0000 0.0000 0.0000 0.0000 38.6554 0.0000
# 6 0.0000 0.0000 0.0000 0.0000 0.0000 16.9471
#
#
#
# Elastic Compliance Matrix: (Units=1/GPa)
#
#
# Indices 1 2 3 4 5 6 
#
# 1 0.012049 -0.001645 -0.003335 0.000000 0.000000 0.000000
# 2 -0.001645 0.007562 -0.001988 0.000000 0.000000 0.000000
# 3 -0.003335 -0.001988 0.008936 0.000000 0.000000 0.000000
# 4 0.000000 0.000000 0.000000 -0.056566 0.000000 0.000000
# 5 0.000000 0.000000 0.000000 0.000000 0.025870 0.000000
# 6 0.000000 0.000000 0.000000 0.000000 0.000000 0.059007
#
#
# Mechanical properties :
#
#
# Convention : Reuss Voigt Hill
#
# Bulk Modulus (GPa) = 68.44370 71.07065 69.75718
# Shear Modulus (GPa) = 66.08169 25.31975 45.70072
#
# Velocity S-wave (km/s) = 5.76245 3.56694 4.79212
# Velocity P-wave (km/s) = 8.86945 7.25788 8.10382
#
# Compressibility (1/GPa) = 0.01461055
#
# Stress axis : x y z
#
# Youngs Moduli (GPa) = 82.99460 132.24607 111.90352
#
# Poissons Ratio (x) = 0.21754 0.37317
# Poissons Ratio (y) = 0.13652 0.22252
# Poissons Ratio (z) = 0.27676 0.26297
#
# Static dielectric constant tensor:
#      x y z
#    x 4.232720 0.000000 0.000000 
#    y 0.000000 3.811690 0.000000 
#    z 0.000000 0.000000 3.756160 
# 
# 
# High freq. dielectric constant tensor:
#      x y z
#    x 1.769320 0.000000 0.000000 
#    y 0.000000 1.772360 0.000000 
#    z 0.000000 0.000000 1.790400 
# 
# From -- ./inp_files/18328.got.cif
#   From: 2010.03.12/outbox.cif.g09.slc.cpg/sg23_10_cif.got.tgz:18328.got - 2010.04.14 02:50:06.
