data_PCOD8164939
_publ_section_title
;
Structure prediction by ZEFSAII (Michael W. Deem and Ramdas Pophale) SiO2 
 PCOD8164939
Probable space group: I 21 21 21
;
_chemical_formula_sum "Si O2"
_cell_formula_units_Z 40
_cell_length_a 13.830792
_cell_length_b 15.384207
_cell_length_c 9.605378
_cell_angle_alpha 90.000000
_cell_angle_beta 90.000000
_cell_angle_gamma 90.000000
_cell_volume 2043.791672
_symmetry_space_group_name_H-M "I 21 21 21"
_symmetry_group_IT_number 24
_symmetry_cell_setting 'orthorhombic'
loop_
_space_group_symop_operation_xyz
x,y,z
-x,1/2-y,z
x,-y,1/2-z
1/2-x,y,-z
1/2+x,1/2+y,1/2+z
1/2-x,-y,1/2+z
1/2+x,1/2-y,-z
-x,1/2+y,1/2-z
loop_
_atom_site_type_symbol
_atom_site_label
_atom_site_fract_x
_atom_site_fract_y
_atom_site_fract_z
Si Si1 0.475957 0.840641 0.563157
Si Si2 0.388592 0.813147 0.260364
Si Si3 0.785379 0.417929 0.154821
Si Si4 0.922567 0.122089 0.674344
Si Si5 0.639337 0.959767 0.458143
O O1 0.500000 0.750000 0.641463
O O2 0.434045 0.808752 0.414478
O O3 0.395768 0.888502 0.654640
O O4 0.568284 0.904957 0.558555
O O5 0.278893 0.843766 0.271769
O O6 0.387821 0.722114 0.176544
O O7 0.459574 0.880054 0.178123
O O8 0.772808 0.500000 0.250000
O O9 0.750000 0.440273 0.000000
O O10 0.873571 0.077337 0.805568
O O11 0.888972 0.063401 0.541876
O O12 0.750000 0.946491 0.500000
#
# Coordination Sequence:
#
# PCOD8164939 Si02
#       5
#     8   8   8   8   8
#     4  10  19  35  56  85 114 144 189 244 290 339
#     4   9  17  34  60  80 107 143 204 237 276 334
#     4  10  23  37  61  88 118 155 191 240 292 346
#     4   9  18  33  55  83 103 148 190 244 274 335
#     4  10  20  32  54  81 114 144 189 235 290 337
#
# _framework density 19.571466999999998
#
# number of rings (size 3 to 8) (size 9 to 14) (size 15 to 20)
#    0.000    2.400    4.000    0.000   11.200    0.000 
#    3.600    1.000    0.000    0.000    0.000    0.000 
#    0.000    0.000    0.000    0.000    0.000    0.000 
#
# Total GULP energy -247776.271977 kJ/mol
# GULP energy per Si atom -12388.813599 kJ/mol
# Density = 1.952692 g / cm^3
# Si number density = 19.571467 Si / 1000 Ang^3
#
#
#
# Elastic Constant Matrix: (Units=GPa)
#
#
# Indices 1 2 3 4 5 6 
#
# 1 176.4212 76.6170 29.2532 0.0000 0.0000 0.0000
# 2 76.6170 136.2715 36.4338 0.0000 0.0000 0.0000
# 3 29.2532 36.4338 23.5065 0.0000 0.0000 0.0000
# 4 0.0000 0.0000 0.0000 -4.9414 0.0000 0.0000
# 5 0.0000 0.0000 0.0000 0.0000 9.1561 0.0000
# 6 0.0000 0.0000 0.0000 0.0000 0.0000 27.6505
#
#
#
# Elastic Compliance Matrix: (Units=1/GPa)
#
#
# Indices 1 2 3 4 5 6 
#
# 1 0.007827 -0.003068 -0.004986 0.000000 0.000000 0.000000
# 2 -0.003068 0.013733 -0.017468 0.000000 0.000000 0.000000
# 3 -0.004986 -0.017468 0.075822 0.000000 0.000000 0.000000
# 4 0.000000 0.000000 0.000000 -0.202373 0.000000 0.000000
# 5 0.000000 0.000000 0.000000 0.000000 0.109217 0.000000
# 6 0.000000 0.000000 0.000000 0.000000 0.000000 0.036166
#
#
# Mechanical properties :
#
#
# Convention : Reuss Voigt Hill
#
# Bulk Modulus (GPa) = 21.58062 68.97857 45.27960
# Shear Modulus (GPa) = 46.78021 19.29939 33.03980
#
# Velocity S-wave (km/s) = 4.89430 3.14363 4.11318
# Velocity P-wave (km/s) = 6.55663 6.96401 6.76339
#
# Compressibility (1/GPa) = 0.04633787
#
# Stress axis : x y z
#
# Youngs Moduli (GPa) = 127.75848 72.81486 13.18887
#
# Poissons Ratio (x) = 0.22337 0.06576
# Poissons Ratio (y) = 0.39193 0.23039
# Poissons Ratio (z) = 0.63701 1.27196
#
# Static dielectric constant tensor:
#      x y z
#    x 3.873470 0.000000 0.000000 
#    y 0.000000 4.129670 0.000000 
#    z 0.000000 0.000000 3.452380 
# 
# 
# High freq. dielectric constant tensor:
#      x y z
#    x 1.770800 0.000000 0.000000 
#    y 0.000000 1.778130 0.000000 
#    z 0.000000 0.000000 1.698630 
# 
# From -- ./inp_files/12322.got.cif
#   From: 2010.03.12/outbox.cif.g09.slc.cpg/sg24_7_cif.got.tgz:12322.got - 2010.04.14 03:06:53.
