data_PCOD8164925
_publ_section_title
;
Structure prediction by ZEFSAII (Michael W. Deem and Ramdas Pophale) SiO2 
 PCOD8164925
Probable space group: I 21 21 21
;
_chemical_formula_sum "Si O2"
_cell_formula_units_Z 48
_cell_length_a 15.353147
_cell_length_b 11.542845
_cell_length_c 12.320361
_cell_angle_alpha 90.000000
_cell_angle_beta 90.000000
_cell_angle_gamma 90.000000
_cell_volume 2183.402008
_symmetry_space_group_name_H-M "I 21 21 21"
_symmetry_group_IT_number 24
_symmetry_cell_setting 'orthorhombic'
loop_
_space_group_symop_operation_xyz
x,y,z
-x,1/2-y,z
x,-y,1/2-z
1/2-x,y,-z
1/2+x,1/2+y,1/2+z
1/2-x,-y,1/2+z
1/2+x,1/2-y,-z
-x,1/2+y,1/2-z
loop_
_atom_site_type_symbol
_atom_site_label
_atom_site_fract_x
_atom_site_fract_y
_atom_site_fract_z
Si Si1 0.874879 0.918896 0.411458
Si Si2 0.607296 0.321652 0.806942
Si Si3 0.690615 0.665690 0.293415
Si Si4 0.335383 0.951277 0.069838
Si Si5 0.677355 0.083670 0.154710
Si Si6 0.038889 0.056908 0.390904
O O1 0.919787 0.796883 0.371541
O O2 0.781134 0.933790 0.357375
O O3 0.869866 0.934233 0.540559
O O4 0.936983 0.025808 0.377837
O O5 0.707721 0.313978 0.780831
O O6 0.594741 0.439459 0.873426
O O7 0.555910 0.338368 0.692999
O O8 0.656818 0.616782 0.181325
O O9 0.667958 0.587187 0.398238
O O10 0.647153 0.789069 0.311657
O O11 0.250000 0.917011 0.000000
O O12 0.424118 0.910193 0.009086
O O13 0.642806 0.000000 0.250000
#
# Coordination Sequence:
#
# PCOD8164925 Si02
#       6
#     8   8   8   8   8   8
#     4  10  23  41  63  92 123 170 213 266 318 373
#     4  10  19  34  61  94 124 158 209 260 318 370
#     4  10  20  36  62  92 122 167 214 259 318 388
#     4  11  18  34  60  96 127 158 202 263 337 379
#     4  10  23  45  67  85 121 175 227 259 306 390
#     4  11  20  34  61  94 128 155 199 269 323 379
#
# _framework density 21.984041000000001
#
# number of rings (size 3 to 8) (size 9 to 14) (size 15 to 20)
#    0.000    1.667    3.333    2.500    4.667    0.000 
#    6.000    0.000    3.667    0.000    0.000    0.000 
#    0.000    0.000    0.000    0.000    0.000    0.000 
#
# Total GULP energy -297435.974649 kJ/mol
# GULP energy per Si atom -12393.165610 kJ/mol
# Density = 2.193400 g / cm^3
# Si number density = 21.984041 Si / 1000 Ang^3
#
#
#
# Elastic Constant Matrix: (Units=GPa)
#
#
# Indices 1 2 3 4 5 6 
#
# 1 52.1359 13.0220 21.0082 0.0000 0.0000 0.0000
# 2 13.0220 65.5651 39.4771 0.0000 0.0000 0.0000
# 3 21.0082 39.4771 138.5296 0.0000 0.0000 0.0000
# 4 0.0000 0.0000 0.0000 29.4514 0.0000 0.0000
# 5 0.0000 0.0000 0.0000 0.0000 12.3260 0.0000
# 6 0.0000 0.0000 0.0000 0.0000 0.0000 11.1334
#
#
#
# Elastic Compliance Matrix: (Units=1/GPa)
#
#
# Indices 1 2 3 4 5 6 
#
# 1 0.020817 -0.002696 -0.002388 0.000000 0.000000 0.000000
# 2 -0.002696 0.018760 -0.004937 0.000000 0.000000 0.000000
# 3 -0.002388 -0.004937 0.008988 0.000000 0.000000 0.000000
# 4 0.000000 0.000000 0.000000 0.033954 0.000000 0.000000
# 5 0.000000 0.000000 0.000000 0.000000 0.081129 0.000000
# 6 0.000000 0.000000 0.000000 0.000000 0.000000 0.089820
#
#
# Mechanical properties :
#
#
# Convention : Reuss Voigt Hill
#
# Bulk Modulus (GPa) = 35.06237 44.80503 39.93370
# Shear Modulus (GPa) = 17.66668 22.76372 20.21520
#
# Velocity S-wave (km/s) = 2.83788 3.22136 3.03568
# Velocity P-wave (km/s) = 5.16931 5.85330 5.52191
#
# Compressibility (1/GPa) = 0.02852061
#
# Stress axis : x y z
#
# Youngs Moduli (GPa) = 48.03873 53.30408 111.26102
#
# Poissons Ratio (x) = 0.14372 0.26575
# Poissons Ratio (y) = 0.12953 0.54932
# Poissons Ratio (z) = 0.11474 0.26318
#
# Static dielectric constant tensor:
#      x y z
#    x 3.741880 0.000000 0.000000 
#    y 0.000000 4.036530 0.000000 
#    z 0.000000 0.000000 4.101760 
# 
# 
# High freq. dielectric constant tensor:
#      x y z
#    x 1.847180 0.000000 0.000000 
#    y 0.000000 1.851670 0.000000 
#    z 0.000000 0.000000 1.876860 
# 
# From -- ./inp_files/21522.got.cif
#   From: 2010.03.12/outbox.cif.g09.slc.cpg/sg24_11_cif.got.tgz:21522.got - 2010.04.14 03:06:53.
