data_PCOD8164448
_publ_section_title
;
Structure prediction by ZEFSAII (Michael W. Deem and Ramdas Pophale) SiO2 
 PCOD8164448
Probable space group: I 2 2 2
;
_chemical_formula_sum "Si O2"
_cell_formula_units_Z 40
_cell_length_a 18.272682
_cell_length_b 11.722458
_cell_length_c 8.044931
_cell_angle_alpha 90.000000
_cell_angle_beta 90.000000
_cell_angle_gamma 90.000000
_cell_volume 1723.230232
_symmetry_space_group_name_H-M "I 2 2 2"
_symmetry_group_IT_number 23
_symmetry_cell_setting 'orthorhombic'
loop_
_space_group_symop_operation_xyz
x,y,z
-x,-y,z
x,-y,-z
-x,y,-z
1/2+x,1/2+y,1/2+z
1/2-x,1/2-y,1/2+z
1/2+x,1/2-y,1/2-z
1/2-x,1/2+y,1/2-z
loop_
_atom_site_type_symbol
_atom_site_label
_atom_site_fract_x
_atom_site_fract_y
_atom_site_fract_z
Si Si1 0.931020 0.199324 0.412031
Si Si2 0.038235 0.381395 0.839446
Si Si3 0.305096 0.875194 0.517707
Si Si4 0.171045 0.775557 0.692765
Si Si5 0.087409 0.998175 0.811868
O O1 0.973704 0.295431 0.309219
O O2 0.874033 0.266811 0.531245
O O3 0.887300 0.109845 0.293735
O O4 0.000000 0.135083 0.500000
O O5 0.123144 0.399831 0.875132
O O6 0.000000 0.500000 0.794591
O O7 0.000000 0.324789 0.000000
O O8 0.253489 0.797538 0.631900
O O9 0.325597 0.815212 0.342141
O O10 0.267512 0.000000 0.500000
O O11 0.125650 0.889044 0.734237
O O12 0.000000 0.000000 0.809468
O O13 0.116921 0.000000 0.000000
#
# Coordination Sequence:
#
# PCOD8164448 Si02
#       5
#     8   8   8   8   8
#     4  12  24  41  71 110 151 191 251 308 380 447
#     4  11  24  46  72 102 143 198 254 309 372 442
#     4  12  26  49  76 105 151 206 248 322 385 455
#     4  12  27  48  73 112 154 192 258 311 387 462
#     4  11  24  42  73 110 150 196 242 307 381 451
#
# _framework density 23.212218
#
# number of rings (size 3 to 8) (size 9 to 14) (size 15 to 20)
#    0.000    0.400    4.000    5.400    2.800    2.000 
#    0.000    2.000    0.000    0.000    0.000    0.000 
#    0.000    0.000    0.000    0.000    0.000    0.000 
#
# Total GULP energy -247939.495309 kJ/mol
# GULP energy per Si atom -12396.974765 kJ/mol
# Density = 2.315939 g / cm^3
# Si number density = 23.212218 Si / 1000 Ang^3
#
#
#
# Elastic Constant Matrix: (Units=GPa)
#
#
# Indices 1 2 3 4 5 6 
#
# 1 97.1172 39.5988 30.6911 0.0000 0.0000 0.0000
# 2 39.5988 134.6462 81.1567 0.0000 0.0000 0.0000
# 3 30.6911 81.1567 129.3354 0.0000 0.0000 0.0000
# 4 0.0000 0.0000 0.0000 21.4370 0.0000 0.0000
# 5 0.0000 0.0000 0.0000 0.0000 35.4049 0.0000
# 6 0.0000 0.0000 0.0000 0.0000 0.0000 17.6920
#
#
#
# Elastic Compliance Matrix: (Units=1/GPa)
#
#
# Indices 1 2 3 4 5 6 
#
# 1 0.011780 -0.002862 -0.000999 0.000000 0.000000 0.000000
# 2 -0.002862 0.012640 -0.007252 0.000000 0.000000 0.000000
# 3 -0.000999 -0.007252 0.012520 0.000000 0.000000 0.000000
# 4 0.000000 0.000000 0.000000 0.046648 0.000000 0.000000
# 5 0.000000 0.000000 0.000000 0.000000 0.028245 0.000000
# 6 0.000000 0.000000 0.000000 0.000000 0.000000 0.056523
#
#
# Mechanical properties :
#
#
# Convention : Reuss Voigt Hill
#
# Bulk Modulus (GPa) = 67.97217 73.77692 70.87454
# Shear Modulus (GPa) = 25.57729 28.88359 27.23044
#
# Velocity S-wave (km/s) = 3.32307 3.53133 3.42878
# Velocity P-wave (km/s) = 6.63854 6.96274 6.80257
#
# Compressibility (1/GPa) = 0.01471190
#
# Stress axis : x y z
#
# Youngs Moduli (GPa) = 84.89246 79.11558 79.87425
#
# Poissons Ratio (x) = 0.22642 0.07983
# Poissons Ratio (y) = 0.24295 0.57926
# Poissons Ratio (z) = 0.08485 0.57376
#
# Static dielectric constant tensor:
#      x y z
#    x 4.225040 0.000000 0.000000 
#    y 0.000000 4.107170 0.000000 
#    z 0.000000 0.000000 4.780000 
# 
# 
# High freq. dielectric constant tensor:
#      x y z
#    x 1.924750 0.000000 0.000000 
#    y 0.000000 1.905560 0.000000 
#    z 0.000000 0.000000 1.934130 
# 
# From -- ./inp_files/10751.got.cif
#   From: 2010.03.12/outbox.cif.g09.slc.cpg/sg23_6_cif.got.tgz:10751.got - 2010.04.14 02:50:06.
