data_PCOD8164159
_publ_section_title
;
Structure prediction by ZEFSAII (Michael W. Deem and Ramdas Pophale) SiO2 
 PCOD8164159
Probable space group: I 2 2 2
;
_chemical_formula_sum "Si O2"
_cell_formula_units_Z 40
_cell_length_a 10.625504
_cell_length_b 8.135210
_cell_length_c 19.104736
_cell_angle_alpha 90.000000
_cell_angle_beta 90.000000
_cell_angle_gamma 90.000000
_cell_volume 1651.426875
_symmetry_space_group_name_H-M "I 2 2 2"
_symmetry_group_IT_number 23
_symmetry_cell_setting 'orthorhombic'
loop_
_space_group_symop_operation_xyz
x,y,z
-x,-y,z
x,-y,-z
-x,y,-z
1/2+x,1/2+y,1/2+z
1/2-x,1/2-y,1/2+z
1/2+x,1/2-y,1/2-z
1/2-x,1/2+y,1/2-z
loop_
_atom_site_type_symbol
_atom_site_label
_atom_site_fract_x
_atom_site_fract_y
_atom_site_fract_z
Si Si1 0.609881 0.115739 0.368357
Si Si2 0.053708 0.819882 0.224139
Si Si3 0.244053 0.193243 0.377455
Si Si4 0.033845 0.813692 0.378269
Si Si5 0.247232 0.686178 0.474221
O O1 0.556910 0.190657 0.295949
O O2 0.643616 0.267967 0.418958
O O3 0.500000 0.000000 0.401231
O O4 0.734644 0.000609 0.356178
O O5 0.167718 0.807191 0.169737
O O6 0.102614 0.788375 0.303231
O O7 0.000000 0.000000 0.219387
O O8 0.275155 0.199809 0.459484
O O9 0.104431 0.265258 0.367102
O O10 0.110858 0.723906 0.439603
O O11 0.000000 0.000000 0.400001
O O12 0.255225 0.500000 0.500000
#
# Coordination Sequence:
#
# PCOD8164159 Si02
#       5
#     8   8   8   8   8
#     4  10  23  45  73 107 144 198 248 295 381 450
#     4  10  24  45  71 110 146 193 247 315 371 440
#     4  11  24  44  72 104 145 201 240 305 374 451
#     4  11  25  45  75 106 153 196 247 301 383 454
#     4  12  26  46  73 112 147 193 250 315 366 443
#
# _framework density 24.221475999999999
#
# number of rings (size 3 to 8) (size 9 to 14) (size 15 to 20)
#    0.000    1.200    2.000    2.400    2.800    8.000 
#   10.800    5.000    0.000    0.000    0.000    0.000 
#    0.000    0.000    0.000    0.000    0.000    0.000 
#
# Total GULP energy -247924.420812 kJ/mol
# GULP energy per Si atom -12396.221041 kJ/mol
# Density = 2.416635 g / cm^3
# Si number density = 24.221476 Si / 1000 Ang^3
#
#
#
# Elastic Constant Matrix: (Units=GPa)
#
#
# Indices 1 2 3 4 5 6 
#
# 1 75.1528 25.7311 20.2193 0.0000 0.0000 0.0000
# 2 25.7311 123.7080 46.9287 0.0000 0.0000 0.0000
# 3 20.2193 46.9287 104.4668 0.0000 0.0000 0.0000
# 4 0.0000 0.0000 0.0000 34.8407 0.0000 0.0000
# 5 0.0000 0.0000 0.0000 0.0000 48.8118 0.0000
# 6 0.0000 0.0000 0.0000 0.0000 0.0000 39.5549
#
#
#
# Elastic Compliance Matrix: (Units=1/GPa)
#
#
# Indices 1 2 3 4 5 6 
#
# 1 0.014590 -0.002367 -0.001761 0.000000 0.000000 0.000000
# 2 -0.002367 0.010128 -0.004092 0.000000 0.000000 0.000000
# 3 -0.001761 -0.004092 0.011751 0.000000 0.000000 0.000000
# 4 0.000000 0.000000 0.000000 0.028702 0.000000 0.000000
# 5 0.000000 0.000000 0.000000 0.000000 0.020487 0.000000
# 6 0.000000 0.000000 0.000000 0.000000 0.000000 0.025281
#
#
# Mechanical properties :
#
#
# Convention : Reuss Voigt Hill
#
# Bulk Modulus (GPa) = 49.92199 54.34286 52.13242
# Shear Modulus (GPa) = 37.29808 38.67138 37.98473
#
# Velocity S-wave (km/s) = 3.92838 4.00005 3.96438
# Velocity P-wave (km/s) = 6.42119 6.61955 6.52112
#
# Compressibility (1/GPa) = 0.02003125
#
# Stress axis : x y z
#
# Youngs Moduli (GPa) = 68.53871 98.73608 85.09739
#
# Poissons Ratio (x) = 0.23369 0.14983
# Poissons Ratio (y) = 0.16222 0.34819
# Poissons Ratio (z) = 0.12067 0.40399
#
# Static dielectric constant tensor:
#      x y z
#    x 4.709300 0.000000 0.000000 
#    y 0.000000 4.252070 0.000000 
#    z 0.000000 0.000000 4.593600 
# 
# 
# High freq. dielectric constant tensor:
#      x y z
#    x 1.974100 0.000000 0.000000 
#    y 0.000000 1.953350 0.000000 
#    z 0.000000 0.000000 1.963320 
# 
# From -- ./inp_files/24173.got.cif
#   From: 2010.03.12/outbox.cif.g09.slc.cpg/sg23_13_cif.got.tgz:24173.got - 2010.04.14 02:50:06.
