data_PCOD8164711
_publ_section_title
;
Structure prediction by ZEFSAII (Michael W. Deem and Ramdas Pophale) SiO2 
 PCOD8164711
Probable space group: I 21 21 21
;
_chemical_formula_sum "Si O2"
_cell_formula_units_Z 52
_cell_length_a 27.738608
_cell_length_b 5.064115
_cell_length_c 24.098404
_cell_angle_alpha 90.000000
_cell_angle_beta 90.000000
_cell_angle_gamma 90.000000
_cell_volume 3385.138978
_symmetry_space_group_name_H-M "I 21 21 21"
_symmetry_group_IT_number 24
_symmetry_cell_setting 'orthorhombic'
loop_
_space_group_symop_operation_xyz
x,y,z
-x,1/2-y,z
x,-y,1/2-z
1/2-x,y,-z
1/2+x,1/2+y,1/2+z
1/2-x,-y,1/2+z
1/2+x,1/2-y,-z
-x,1/2+y,1/2-z
loop_
_atom_site_type_symbol
_atom_site_label
_atom_site_fract_x
_atom_site_fract_y
_atom_site_fract_z
Si Si1 0.837746 0.000000 0.750000
Si Si2 0.368749 0.416074 0.450595
Si Si3 0.745344 0.588170 0.590584
Si Si4 0.945691 0.829723 0.865798
Si Si5 0.671268 0.587822 0.499987
Si Si6 0.785553 0.913350 0.859929
Si Si7 0.920254 0.339987 0.799935
O O1 0.804106 0.879898 0.797505
O O2 0.869031 0.760401 0.723702
O O3 0.421811 0.420624 0.423352
O O4 0.363950 0.666982 0.490298
O O5 0.331503 0.423614 0.399938
O O6 0.360830 0.170092 0.490944
O O7 0.692613 0.596093 0.562236
O O8 0.785034 0.596767 0.542807
O O9 0.750101 0.325533 0.626416
O O10 0.752648 0.828983 0.632660
O O11 0.914888 0.570755 0.846194
O O12 0.000000 0.750000 0.877791
O O13 0.947067 0.076299 0.822200
O O14 0.948108 0.500000 0.750000
#
# Coordination Sequence:
#
# PCOD8164711 Si02
#       7
#     4   8   8   8   8   8   8
#     4  12  24  34  52  64  88 124 164 190 232 290
#     4  10  18  32  50  65  82 115 137 186 228 292
#     4   9  18  30  43  71  86 108 130 184 224 274
#     4  12  25  38  50  66  88 113 154 205 252 283
#     4   9  17  29  50  66  88 103 137 168 237 283
#     4  10  20  29  47  61  91 111 148 182 225 268
#     4  12  23  39  49  61  83 114 162 199 241 283
#
# _framework density 15.361259
#
# number of rings (size 3 to 8) (size 9 to 14) (size 15 to 20)
#    0.000    1.538    3.077    2.308    6.462    4.923 
#    1.385    0.000    0.000    0.000    0.000    0.000 
#    0.000    0.000    0.000    0.000    0.000    0.000 
#
# Total GULP energy -322294.500732 kJ/mol
# GULP energy per Si atom -12395.942336 kJ/mol
# Density = 1.532630 g / cm^3
# Si number density = 15.361259 Si / 1000 Ang^3
#
#
#
# Elastic Constant Matrix: (Units=GPa)
#
#
# Indices 1 2 3 4 5 6 
#
# 1 62.2245 33.3980 47.8640 0.0000 0.0000 0.0000
# 2 33.3980 116.7140 32.5587 0.0000 0.0000 0.0000
# 3 47.8640 32.5587 54.6121 0.0000 0.0000 0.0000
# 4 0.0000 0.0000 0.0000 -12.3798 0.0000 0.0000
# 5 0.0000 0.0000 0.0000 0.0000 17.2717 0.0000
# 6 0.0000 0.0000 0.0000 0.0000 0.0000 -2.9167
#
#
#
# Elastic Compliance Matrix: (Units=1/GPa)
#
#
# Indices 1 2 3 4 5 6 
#
# 1 0.049920 -0.002495 -0.042265 0.000000 0.000000 0.000000
# 2 -0.002495 0.010402 -0.004015 0.000000 0.000000 0.000000
# 3 -0.042265 -0.004015 0.057747 0.000000 0.000000 0.000000
# 4 0.000000 0.000000 0.000000 -0.080777 0.000000 0.000000
# 5 0.000000 0.000000 0.000000 0.000000 0.057898 0.000000
# 6 0.000000 0.000000 0.000000 0.000000 0.000000 -0.342858
#
#
# Mechanical properties :
#
#
# Convention : Reuss Voigt Hill
#
# Bulk Modulus (GPa) = 48.73192 51.24354 49.98773
# Shear Modulus (GPa) = -34.89715 8.37704 -13.26006
#
# Velocity S-wave (km/s) = -4.77147 2.33778 -2.94124
# Velocity P-wave (km/s) = 1.19868 6.38109 4.59103
#
# Compressibility (1/GPa) = 0.02052043
#
# Stress axis : x y z
#
# Youngs Moduli (GPa) = 20.03188 96.13699 17.31694
#
# Poissons Ratio (x) = 0.23982 0.73190
# Poissons Ratio (y) = 0.04997 0.06953
# Poissons Ratio (z) = 0.84664 0.38599
#
# Static dielectric constant tensor:
#      x y z
#    x 2.773880 0.000000 0.000000 
#    y 0.000000 3.290120 0.000000 
#    z 0.000000 0.000000 2.810990 
# 
# 
# High freq. dielectric constant tensor:
#      x y z
#    x 1.538010 0.000000 0.000000 
#    y 0.000000 1.619780 0.000000 
#    z 0.000000 0.000000 1.550950 
# 
# From -- ./inp_files/31709.got.cif
#   From: 2010.03.12/outbox.cif.g09.slc.cpg/sg24_16_cif.got.tgz:31709.got - 2010.04.14 03:06:53.
