data_PCOD8164640
_publ_section_title
;
Structure prediction by ZEFSAII (Michael W. Deem and Ramdas Pophale) SiO2 
 PCOD8164640
Probable space group: I 21 21 21
;
_chemical_formula_sum "Si O2"
_cell_formula_units_Z 64
_cell_length_a 13.015397
_cell_length_b 22.357049
_cell_length_c 11.632769
_cell_angle_alpha 90.000000
_cell_angle_beta 90.000000
_cell_angle_gamma 90.000000
_cell_volume 3384.971390
_symmetry_space_group_name_H-M "I 21 21 21"
_symmetry_group_IT_number 24
_symmetry_cell_setting 'orthorhombic'
loop_
_space_group_symop_operation_xyz
x,y,z
-x,1/2-y,z
x,-y,1/2-z
1/2-x,y,-z
1/2+x,1/2+y,1/2+z
1/2-x,-y,1/2+z
1/2+x,1/2-y,-z
-x,1/2+y,1/2-z
loop_
_atom_site_type_symbol
_atom_site_label
_atom_site_fract_x
_atom_site_fract_y
_atom_site_fract_z
Si Si1 0.785344 0.288803 0.376144
Si Si2 0.089902 0.061891 0.185485
Si Si3 0.360595 0.430508 0.244639
Si Si4 0.551010 0.435527 0.399601
Si Si5 0.282818 0.346850 0.623428
Si Si6 0.478707 0.857970 0.879468
Si Si7 0.197358 0.113446 0.780381
Si Si8 0.474788 0.928175 0.431949
O O1 0.750000 0.313709 0.500000
O O2 0.745658 0.221092 0.359009
O O3 0.908810 0.298230 0.384977
O O4 0.738222 0.322611 0.264778
O O5 0.043164 0.114854 0.256996
O O6 0.211460 0.072560 0.167597
O O7 0.067718 0.000000 0.250000
O O8 0.025771 0.069512 0.068462
O O9 0.326037 0.500000 0.250000
O O10 0.447232 0.413642 0.337699
O O11 0.261907 0.389102 0.274741
O O12 0.410268 0.414956 0.118955
O O13 0.552201 0.407891 0.526262
O O14 0.652923 0.415941 0.334397
O O15 0.557684 0.506458 0.390749
O O16 0.250000 0.373426 0.500000
O O17 0.403979 0.341363 0.619270
O O18 0.108993 0.118511 0.878801
#
# Coordination Sequence:
#
# PCOD8164640 Si02
#       8
#     8   8   8   8   8   8   8   8
#     4  10  21  36  57  88 120 152 190 249 311 370
#     4  11  21  32  53  86 115 158 197 243 294 358
#     4   9  20  38  59  84 115 152 192 248 302 358
#     4  10  17  34  54  83 120 153 185 245 304 357
#     4  11  22  38  61  86 113 152 202 253 311 364
#     4  11  21  35  56  82 124 146 191 250 306 354
#     4  10  20  33  55  83 122 158 192 240 298 368
#     4  10  20  36  55  81 123 159 203 239 295 360
#
# _framework density 18.907101000000001
#
# number of rings (size 3 to 8) (size 9 to 14) (size 15 to 20)
#    0.000    1.750    3.750    2.625    0.000    0.500 
#    0.000    3.125    0.000    9.000    0.000    0.000 
#    0.000    0.000    0.000    0.000    0.000    0.000 
#
# Total GULP energy -396542.111855 kJ/mol
# GULP energy per Si atom -12391.940995 kJ/mol
# Density = 1.886407 g / cm^3
# Si number density = 18.907101 Si / 1000 Ang^3
#
#
#
# Elastic Constant Matrix: (Units=GPa)
#
#
# Indices 1 2 3 4 5 6 
#
# 1 77.0349 31.0833 35.4505 0.0000 0.0000 0.0000
# 2 31.0833 65.9646 27.9941 -0.0001 0.0000 0.0000
# 3 35.4505 27.9941 115.0708 -0.0001 0.0000 0.0000
# 4 0.0000 -0.0001 -0.0001 19.4663 0.0000 0.0000
# 5 0.0000 0.0000 0.0000 0.0000 26.9216 0.0000
# 6 0.0000 0.0000 0.0000 0.0000 0.0000 20.6590
#
#
#
# Elastic Compliance Matrix: (Units=1/GPa)
#
#
# Indices 1 2 3 4 5 6 
#
# 1 0.017365 -0.006593 -0.003746 0.000000 0.000000 0.000000
# 2 -0.006593 0.019408 -0.002690 0.000000 0.000000 0.000000
# 3 -0.003746 -0.002690 0.010499 0.000000 0.000000 0.000000
# 4 0.000000 0.000000 0.000000 0.051371 0.000000 0.000000
# 5 0.000000 0.000000 0.000000 0.000000 0.037145 0.000000
# 6 0.000000 0.000000 0.000000 0.000000 0.000000 0.048405
#
#
# Mechanical properties :
#
#
# Convention : Reuss Voigt Hill
#
# Bulk Modulus (GPa) = 47.13964 49.68068 48.41016
# Shear Modulus (GPa) = 23.00727 24.31221 23.65974
#
# Velocity S-wave (km/s) = 3.49213 3.58980 3.54131
# Velocity P-wave (km/s) = 6.42233 6.59663 6.51006
#
# Compressibility (1/GPa) = 0.02121357
#
# Stress axis : x y z
#
# Youngs Moduli (GPa) = 57.58644 51.52488 95.24878
#
# Poissons Ratio (x) = 0.33970 0.35679
# Poissons Ratio (y) = 0.37967 0.25626
# Poissons Ratio (z) = 0.21571 0.13862
#
# Static dielectric constant tensor:
#      x y z
#    x 3.682340 0.000000 0.000000 
#    y 0.000000 3.252840 0.000000 
#    z 0.000000 0.000000 3.581120 
# 
# 
# High freq. dielectric constant tensor:
#      x y z
#    x 1.733170 0.000000 0.000000 
#    y 0.000000 1.714760 0.000000 
#    z 0.000000 0.000000 1.729160 
# 
# From -- ./inp_files/20134.got.cif
#   From: 2010.03.12/outbox.cif.g09.slc.cpg/sg24_11_cif.got.tgz:20134.got - 2010.04.14 03:06:53.
