data_PCOD8164718
_publ_section_title
;
Structure prediction by ZEFSAII (Michael W. Deem and Ramdas Pophale) SiO2 
 PCOD8164718
Probable space group: I 21 21 21
;
_chemical_formula_sum "Si O2"
_cell_formula_units_Z 60
_cell_length_a 16.503405
_cell_length_b 15.952253
_cell_length_c 12.258673
_cell_angle_alpha 90.000000
_cell_angle_beta 90.000000
_cell_angle_gamma 90.000000
_cell_volume 3227.297836
_symmetry_space_group_name_H-M "I 21 21 21"
_symmetry_group_IT_number 24
_symmetry_cell_setting 'orthorhombic'
loop_
_space_group_symop_operation_xyz
x,y,z
-x,1/2-y,z
x,-y,1/2-z
1/2-x,y,-z
1/2+x,1/2+y,1/2+z
1/2-x,-y,1/2+z
1/2+x,1/2-y,-z
-x,1/2+y,1/2-z
loop_
_atom_site_type_symbol
_atom_site_label
_atom_site_fract_x
_atom_site_fract_y
_atom_site_fract_z
Si Si1 0.650441 0.195477 0.218563
Si Si2 0.440100 0.676698 0.496447
Si Si3 0.504149 0.511262 0.957532
Si Si4 0.086922 0.500000 0.250000
Si Si5 0.204371 0.388156 0.106195
Si Si6 0.022573 0.342593 0.618951
Si Si7 0.330683 0.002990 0.063453
Si Si8 0.362170 0.877323 0.240239
O O1 0.579020 0.193700 0.129359
O O2 0.729089 0.143089 0.190022
O O3 0.611368 0.158811 0.327905
O O4 0.681274 0.289364 0.240179
O O5 0.500000 0.750000 0.539533
O O6 0.473908 0.582487 0.512586
O O7 0.354153 0.685667 0.560504
O O8 0.475772 0.540775 0.836810
O O9 0.467395 0.584081 0.032061
O O10 0.601284 0.512973 0.971203
O O11 0.146140 0.445940 0.176194
O O12 0.250000 0.430011 0.000000
O O13 0.000000 0.250000 0.569940
O O14 0.956262 0.367346 0.709502
O O15 0.360092 0.075221 0.144823
O O16 0.315477 0.921786 0.139779
O O17 0.250000 0.028582 0.000000
#
# Coordination Sequence:
#
# PCOD8164718 Si02
#       8
#     8   8   8   4   8   8   8   8
#     4  10  18  32  55  81 106 137 178 230 277 318
#     4  10  19  33  53  80 110 142 180 224 276 329
#     4  10  21  37  56  78 109 144 180 224 272 334
#     4  10  22  40  54  78 110 146 188 220 272 344
#     4   9  21  36  53  79 110 140 180 230 273 323
#     4   9  18  35  58  82 106 139 181 226 277 332
#     4  10  20  34  54  80 109 145 183 228 277 325
#     4   9  19  34  52  80 110 136 182 229 273 333
#
# _framework density 18.591404000000001
#
# number of rings (size 3 to 8) (size 9 to 14) (size 15 to 20)
#    0.000    2.400    0.000    2.800    0.000    8.533 
#    0.000    8.000    0.000    0.000    0.000    0.000 
#    0.000    0.000    0.000    0.000    0.000    0.000 
#
# Total GULP energy -371657.254195 kJ/mol
# GULP energy per Si atom -12388.575140 kJ/mol
# Density = 1.854909 g / cm^3
# Si number density = 18.591404 Si / 1000 Ang^3
#
#
#
# Elastic Constant Matrix: (Units=GPa)
#
#
# Indices 1 2 3 4 5 6 
#
# 1 94.8269 33.2271 59.2390 0.0000 0.0000 0.0000
# 2 33.2271 103.5578 54.6739 0.0000 0.0000 0.0000
# 3 59.2390 54.6739 110.2407 0.0000 0.0000 0.0000
# 4 0.0000 0.0000 0.0000 13.7191 0.0000 0.0000
# 5 0.0000 0.0000 0.0000 0.0000 27.8293 0.0000
# 6 0.0000 0.0000 0.0000 0.0000 0.0000 12.5647
#
#
#
# Elastic Compliance Matrix: (Units=1/GPa)
#
#
# Indices 1 2 3 4 5 6 
#
# 1 0.015923 -0.000801 -0.008159 0.000000 0.000000 0.000000
# 2 -0.000801 0.013122 -0.006077 0.000000 0.000000 0.000000
# 3 -0.008159 -0.006077 0.016469 0.000000 0.000000 0.000000
# 4 0.000000 0.000000 0.000000 0.072891 0.000000 0.000000
# 5 0.000000 0.000000 0.000000 0.000000 0.035933 0.000000
# 6 0.000000 0.000000 0.000000 0.000000 0.000000 0.079588
#
#
# Mechanical properties :
#
#
# Convention : Reuss Voigt Hill
#
# Bulk Modulus (GPa) = 64.76966 66.98949 65.87958
# Shear Modulus (GPa) = 18.57704 21.58833 20.08269
#
# Velocity S-wave (km/s) = 3.16449 3.41133 3.29023
# Velocity P-wave (km/s) = 6.94738 7.18519 7.06729
#
# Compressibility (1/GPa) = 0.01543933
#
# Stress axis : x y z
#
# Youngs Moduli (GPa) = 62.80059 76.20733 60.71851
#
# Poissons Ratio (x) = 0.06108 0.49541
# Poissons Ratio (y) = 0.05033 0.36900
# Poissons Ratio (z) = 0.51240 0.46313
#
# Static dielectric constant tensor:
#      x y z
#    x 3.478940 0.000000 0.000000 
#    y 0.000000 3.437380 0.000000 
#    z 0.000000 0.000000 3.704310 
# 
# 
# High freq. dielectric constant tensor:
#      x y z
#    x 1.723190 0.000000 0.000000 
#    y 0.000000 1.712250 0.000000 
#    z 0.000000 0.000000 1.715860 
# 
# From -- ./inp_files/21676.got.cif
#   From: 2010.03.12/outbox.cif.g09.slc.cpg/sg24_11_cif.got.tgz:21676.got - 2010.04.14 03:06:53.
