data_PCOD8164453
_publ_section_title
;
Structure prediction by ZEFSAII (Michael W. Deem and Ramdas Pophale) SiO2 
 PCOD8164453
Probable space group: I 2 2 2
;
_chemical_formula_sum "Si O2"
_cell_formula_units_Z 36
_cell_length_a 11.809827
_cell_length_b 11.771868
_cell_length_c 10.734153
_cell_angle_alpha 90.000000
_cell_angle_beta 90.000000
_cell_angle_gamma 90.000000
_cell_volume 1492.301930
_symmetry_space_group_name_H-M "I 2 2 2"
_symmetry_group_IT_number 23
_symmetry_cell_setting 'orthorhombic'
loop_
_space_group_symop_operation_xyz
x,y,z
-x,-y,z
x,-y,-z
-x,y,-z
1/2+x,1/2+y,1/2+z
1/2-x,1/2-y,1/2+z
1/2+x,1/2-y,1/2-z
1/2-x,1/2+y,1/2-z
loop_
_atom_site_type_symbol
_atom_site_label
_atom_site_fract_x
_atom_site_fract_y
_atom_site_fract_z
Si Si1 0.500000 0.812922 0.000000
Si Si2 0.715285 0.550391 0.796858
Si Si3 0.786085 0.829827 0.560331
Si Si4 0.070082 0.182648 0.113825
Si Si5 0.540922 0.886096 0.250657
O O1 0.401926 0.739180 0.936265
O O2 0.533249 0.887372 0.879184
O O3 0.716715 0.414117 0.819059
O O4 0.606248 0.586369 0.714040
O O5 0.824919 0.599968 0.725989
O O6 0.711953 0.603822 0.932180
O O7 0.680093 0.746701 0.563108
O O8 0.984526 0.274102 0.171843
O O9 0.000000 0.125356 0.000000
O O10 0.500000 0.000000 0.324390
#
# Coordination Sequence:
#
# PCOD8164453 Si02
#       5
#     4   8   8   8   8
#     4  12  25  45  72 102 150 196 248 306 378 448
#     4  11  24  43  70 112 145 192 254 313 368 450
#     4  11  24  43  75 104 145 200 250 304 377 447
#     4  12  24  43  76 114 152 193 252 317 379 442
#     4  12  24  42  73 108 146 195 257 313 369 448
#
# _framework density 24.123805000000001
#
# number of rings (size 3 to 8) (size 9 to 14) (size 15 to 20)
#    0.000    0.444    8.889    0.333    0.000    2.222 
#    0.000    0.000    0.000    6.667    0.000    0.000 
#    0.000    0.000    0.000    0.000    0.000    0.000 
#
# Total GULP energy -223133.210541 kJ/mol
# GULP energy per Si atom -12396.289474 kJ/mol
# Density = 2.406890 g / cm^3
# Si number density = 24.123805 Si / 1000 Ang^3
#
#
#
# Elastic Constant Matrix: (Units=GPa)
#
#
# Indices 1 2 3 4 5 6 
#
# 1 131.9353 53.1870 41.2927 0.0000 0.0000 0.0000
# 2 53.1870 54.5512 31.7717 0.0000 0.0000 0.0000
# 3 41.2927 31.7717 122.6536 0.0000 0.0000 0.0000
# 4 0.0000 0.0000 0.0000 25.9155 0.0000 0.0000
# 5 0.0000 0.0000 0.0000 0.0000 34.5359 0.0000
# 6 0.0000 0.0000 0.0000 0.0000 0.0000 41.9184
#
#
#
# Elastic Compliance Matrix: (Units=1/GPa)
#
#
# Indices 1 2 3 4 5 6 
#
# 1 0.012649 -0.011603 -0.001253 0.000000 0.000000 0.000000
# 2 -0.011603 0.032232 -0.004443 0.000000 0.000000 0.000000
# 3 -0.001253 -0.004443 0.009726 0.000000 0.000000 0.000000
# 4 0.000000 0.000000 0.000000 0.038587 0.000000 0.000000
# 5 0.000000 0.000000 0.000000 0.000000 0.028955 0.000000
# 6 0.000000 0.000000 0.000000 0.000000 0.000000 0.023856
#
#
# Mechanical properties :
#
#
# Convention : Reuss Voigt Hill
#
# Bulk Modulus (GPa) = 49.97737 62.40477 56.19107
# Shear Modulus (GPa) = 26.69902 32.66652 29.68277
#
# Velocity S-wave (km/s) = 3.33039 3.68383 3.51156
# Velocity P-wave (km/s) = 5.96244 6.63467 6.30752
#
# Compressibility (1/GPa) = 0.02000906
#
# Stress axis : x y z
#
# Youngs Moduli (GPa) = 79.05654 31.02499 102.82025
#
# Poissons Ratio (x) = 0.35999 0.12882
# Poissons Ratio (y) = 0.91731 0.45682
# Poissons Ratio (z) = 0.09905 0.13784
#
# Static dielectric constant tensor:
#      x y z
#    x 4.403500 0.000000 0.000000 
#    y 0.000000 4.634000 0.000000 
#    z 0.000000 0.000000 1.205710 
# 
# 
# High freq. dielectric constant tensor:
#      x y z
#    x 1.956360 0.000000 0.000000 
#    y 0.000000 1.960740 0.000000 
#    z 0.000000 0.000000 1.960160 
# 
# From -- ./inp_files/15344.got.cif
#   From: 2010.03.12/outbox.cif.g09.slc.cpg/sg23_8_cif.got.tgz:15344.got - 2010.04.14 02:50:06.
