data_PCOD8164065
_publ_section_title
;
Structure prediction by ZEFSAII (Michael W. Deem and Ramdas Pophale) SiO2 
 PCOD8164065
Probable space group: I 2 2 2
;
_chemical_formula_sum "Si O2"
_cell_formula_units_Z 40
_cell_length_a 6.330148
_cell_length_b 15.408214
_cell_length_c 19.663268
_cell_angle_alpha 90.000000
_cell_angle_beta 90.000000
_cell_angle_gamma 90.000000
_cell_volume 1917.881916
_symmetry_space_group_name_H-M "I 2 2 2"
_symmetry_group_IT_number 23
_symmetry_cell_setting 'orthorhombic'
loop_
_space_group_symop_operation_xyz
x,y,z
-x,-y,z
x,-y,-z
-x,y,-z
1/2+x,1/2+y,1/2+z
1/2-x,1/2-y,1/2+z
1/2+x,1/2-y,1/2-z
1/2-x,1/2+y,1/2-z
loop_
_atom_site_type_symbol
_atom_site_label
_atom_site_fract_x
_atom_site_fract_y
_atom_site_fract_z
Si Si1 0.199071 0.140701 0.717327
Si Si2 0.500000 0.000000 0.701121
Si Si3 0.117858 0.917836 0.931446
Si Si4 0.500000 0.000000 0.000000
Si Si5 0.500000 0.500000 0.000000
Si Si6 0.313275 0.387034 0.881821
Si Si7 0.532113 0.260506 0.652950
O O1 0.349125 0.193765 0.668221
O O2 0.129865 0.200280 0.778938
O O3 0.009697 0.108695 0.669571
O O4 0.333644 0.057152 0.745651
O O5 0.375825 0.937024 0.652151
O O6 0.096310 0.835318 0.884567
O O7 0.360401 0.939897 0.949791
O O8 0.000000 0.000000 0.896277
O O9 0.000000 0.894219 0.000000
O O10 0.363395 0.566100 0.046521
O O11 0.221495 0.287605 0.889704
#
# Coordination Sequence:
#
# PCOD8164065 Si02
#       7
#     8   4   8   2   2   8   8
#     4  11  22  43  65  99 137 173 233 279 335 413
#     4  10  22  43  69  92 133 179 226 278 336 414
#     4   9  21  42  65  97 128 168 222 274 340 415
#     4   8  18  44  68  90 134 166 222 286 326 438
#     4  12  24  46  74  96 146 190 242 286 358 428
#     4  11  24  44  66  98 135 184 233 287 343 413
#     4  11  24  42  68  99 139 179 224 286 344 409
#
# _framework density 20.856342999999999
#
# number of rings (size 3 to 8) (size 9 to 14) (size 15 to 20)
#    0.000    1.800    4.000    0.000    0.000    6.800 
#    0.000    3.000    0.000    0.000    0.000    0.000 
#    0.000    0.000    0.000    0.000    0.000    0.000 
#
# Total GULP energy -247791.362558 kJ/mol
# GULP energy per Si atom -12389.568128 kJ/mol
# Density = 2.080887 g / cm^3
# Si number density = 20.856343 Si / 1000 Ang^3
#
#
#
# Elastic Constant Matrix: (Units=GPa)
#
#
# Indices 1 2 3 4 5 6 
#
# 1 140.7569 63.4277 40.4085 0.0000 0.0000 0.0000
# 2 63.4277 122.1932 42.2233 0.0000 0.0000 0.0000
# 3 40.4085 42.2233 72.8709 0.0000 0.0000 0.0000
# 4 0.0000 0.0000 0.0000 43.8518 0.0000 0.0000
# 5 0.0000 0.0000 0.0000 0.0000 -0.9543 0.0000
# 6 0.0000 0.0000 0.0000 0.0000 0.0000 34.5764
#
#
#
# Elastic Compliance Matrix: (Units=1/GPa)
#
#
# Indices 1 2 3 4 5 6 
#
# 1 0.009807 -0.004015 -0.003112 0.000000 0.000000 0.000000
# 2 -0.004015 0.011877 -0.004655 0.000000 0.000000 0.000000
# 3 -0.003112 -0.004655 0.018146 0.000000 0.000000 0.000000
# 4 0.000000 0.000000 0.000000 0.022804 0.000000 0.000000
# 5 0.000000 0.000000 0.000000 0.000000 -1.047886 0.000000
# 6 0.000000 0.000000 0.000000 0.000000 0.000000 0.028921
#
#
# Mechanical properties :
#
#
# Convention : Reuss Voigt Hill
#
# Bulk Modulus (GPa) = 61.48078 69.77112 65.62595
# Shear Modulus (GPa) = -5.39173 28.14556 11.37691
#
# Velocity S-wave (km/s) = -1.60959 3.67753 2.33810
# Velocity P-wave (km/s) = 5.10762 7.18040 6.23081
#
# Compressibility (1/GPa) = 0.01626525
#
# Stress axis : x y z
#
# Youngs Moduli (GPa) = 101.96604 84.19929 55.10997
#
# Poissons Ratio (x) = 0.33810 0.17148
# Poissons Ratio (y) = 0.40944 0.25653
# Poissons Ratio (z) = 0.31728 0.39194
#
# Static dielectric constant tensor:
#      x y z
#    x 3.203140 0.000000 0.000000 
#    y 0.000000 4.462010 0.000000 
#    z 0.000000 0.000000 3.520620 
# 
# 
# High freq. dielectric constant tensor:
#      x y z
#    x 1.836510 0.000000 0.000000 
#    y 0.000000 1.838540 0.000000 
#    z 0.000000 0.000000 1.784400 
# 
# From -- ./inp_files/27605.got.cif
#   From: 2010.03.12/outbox.cif.g09.slc.cpg/sg23_14_cif.got.tgz:27605.got - 2010.04.14 02:50:06.
