data_PCOD8164060
_publ_section_title
;
Structure prediction by ZEFSAII (Michael W. Deem and Ramdas Pophale) SiO2 
 PCOD8164060
Probable space group: I 2 2 2
;
_chemical_formula_sum "Si O2"
_cell_formula_units_Z 20
_cell_length_a 18.980817
_cell_length_b 8.713812
_cell_length_c 5.398630
_cell_angle_alpha 90.000000
_cell_angle_beta 90.000000
_cell_angle_gamma 90.000000
_cell_volume 892.907872
_symmetry_space_group_name_H-M "I 2 2 2"
_symmetry_group_IT_number 23
_symmetry_cell_setting 'orthorhombic'
loop_
_space_group_symop_operation_xyz
x,y,z
-x,-y,z
x,-y,-z
-x,y,-z
1/2+x,1/2+y,1/2+z
1/2-x,1/2-y,1/2+z
1/2+x,1/2-y,1/2-z
1/2-x,1/2+y,1/2-z
loop_
_atom_site_type_symbol
_atom_site_label
_atom_site_fract_x
_atom_site_fract_y
_atom_site_fract_z
Si Si1 0.216162 0.316665 0.019465
Si Si2 0.000000 0.000000 0.500000
Si Si3 0.436256 0.248870 0.682771
Si Si4 0.500000 0.000000 0.000000
O O1 0.254147 0.260391 0.270187
O O2 0.136064 0.258344 0.033919
O O3 0.221960 0.500000 0.000000
O O4 0.943743 0.098400 0.654890
O O5 0.500000 0.250920 0.500000
O O6 0.443902 0.098045 0.847485
#
# Coordination Sequence:
#
# PCOD8164060 Si02
#       4
#     8   2   8   2
#     4  12  30  50  78 113 157 204 253 316 385 455
#     4  10  26  42  76 108 144 190 256 314 374 450
#     4  11  25  46  74 107 146 194 253 310 378 443
#     4  10  22  42  76 104 140 190 260 302 374 450
#
# _framework density 22.398727000000001
#
# number of rings (size 3 to 8) (size 9 to 14) (size 15 to 20)
#    0.000    0.800    0.000    4.800   19.600    3.200 
#    0.000    0.000    0.000    0.000    0.000    0.000 
#    0.000    0.000    0.000    0.000    0.000    0.000 
#
# Total GULP energy -123990.968633 kJ/mol
# GULP energy per Si atom -12399.096863 kJ/mol
# Density = 2.234775 g / cm^3
# Si number density = 22.398727 Si / 1000 Ang^3
#
#
#
# Elastic Constant Matrix: (Units=GPa)
#
#
# Indices 1 2 3 4 5 6 
#
# 1 192.0824 67.7533 90.9056 0.0000 0.0000 0.0000
# 2 67.7533 190.5823 85.8241 0.0000 0.0000 0.0000
# 3 90.9056 85.8241 179.8343 0.0000 0.0000 0.0000
# 4 0.0000 0.0000 0.0000 39.6288 0.0000 0.0000
# 5 0.0000 0.0000 0.0000 0.0000 49.1927 0.0000
# 6 0.0000 0.0000 0.0000 0.0000 0.0000 22.7629
#
#
#
# Elastic Compliance Matrix: (Units=1/GPa)
#
#
# Indices 1 2 3 4 5 6 
#
# 1 0.007034 -0.001146 -0.003009 0.000000 0.000000 0.000000
# 2 -0.001146 0.006870 -0.002700 0.000000 0.000000 0.000000
# 3 -0.003009 -0.002700 0.008370 0.000000 0.000000 0.000000
# 4 0.000000 0.000000 0.000000 0.025234 0.000000 0.000000
# 5 0.000000 0.000000 0.000000 0.000000 0.020328 0.000000
# 6 0.000000 0.000000 0.000000 0.000000 0.000000 0.043931
#
#
# Mechanical properties :
#
#
# Convention : Reuss Voigt Hill
#
# Bulk Modulus (GPa) = 116.74211 116.82944 116.78577
# Shear Modulus (GPa) = 38.96155 43.51795 41.23975
#
# Velocity S-wave (km/s) = 4.17520 4.41259 4.29553
# Velocity P-wave (km/s) = 8.68770 8.84497 8.76669
#
# Compressibility (1/GPa) = 0.00856589
#
# Stress axis : x y z
#
# Youngs Moduli (GPa) = 142.16081 145.55962 119.47370
#
# Poissons Ratio (x) = 0.16677 0.35950
# Poissons Ratio (y) = 0.16287 0.32252
# Poissons Ratio (z) = 0.42777 0.39294
#
# Static dielectric constant tensor:
#      x y z
#    x 4.028880 0.000000 0.000000 
#    y 0.000000 4.452760 0.000000 
#    z 0.000000 0.000000 4.864380 
# 
# 
# High freq. dielectric constant tensor:
#      x y z
#    x 1.885020 0.000000 0.000000 
#    y 0.000000 1.908820 0.000000 
#    z 0.000000 0.000000 1.905710 
# 
# From -- ./inp_files/287.got.cif
#   From: 2010.03.12/outbox.cif.g09.slc.cpg/sg23_1_cif.got.tgz:287.got - 2010.04.14 02:50:06.
