data_PCOD8164050
_publ_section_title
;
Structure prediction by ZEFSAII (Michael W. Deem and Ramdas Pophale) SiO2 
 PCOD8164050
Probable space group: I 2 2 2
;
_chemical_formula_sum "Si O2"
_cell_formula_units_Z 48
_cell_length_a 8.768371
_cell_length_b 8.530461
_cell_length_c 28.847465
_cell_angle_alpha 90.000000
_cell_angle_beta 90.000000
_cell_angle_gamma 90.000000
_cell_volume 2157.739808
_symmetry_space_group_name_H-M "I 2 2 2"
_symmetry_group_IT_number 23
_symmetry_cell_setting 'orthorhombic'
loop_
_space_group_symop_operation_xyz
x,y,z
-x,-y,z
x,-y,-z
-x,y,-z
1/2+x,1/2+y,1/2+z
1/2-x,1/2-y,1/2+z
1/2+x,1/2-y,1/2-z
1/2-x,1/2+y,1/2-z
loop_
_atom_site_type_symbol
_atom_site_label
_atom_site_fract_x
_atom_site_fract_y
_atom_site_fract_z
Si Si1 0.148973 0.398119 0.649839
Si Si2 0.503651 0.182376 0.239295
Si Si3 0.670568 0.817792 0.990246
Si Si4 0.301212 0.687446 0.688393
Si Si5 0.671974 0.172379 0.593140
Si Si6 0.823466 0.689242 0.076204
O O1 0.101761 0.291347 0.693679
O O2 0.283892 0.514170 0.666866
O O3 0.210388 0.290096 0.608649
O O4 0.000000 0.500000 0.633632
O O5 0.457727 0.290921 0.282864
O O6 0.673255 0.232973 0.225889
O O7 0.500000 0.000000 0.254190
O O8 0.788637 0.727178 0.022987
O O9 0.500000 0.756908 0.000000
O O10 0.717214 0.782363 0.937313
O O11 0.684368 0.000000 0.000000
O O12 0.289301 0.810966 0.646911
O O13 0.498727 0.229297 0.585785
O O14 0.705644 0.993722 0.581590
#
# Coordination Sequence:
#
# PCOD8164050 Si02
#       6
#     8   8   8   8   8   8
#     4   9  22  43  67  98 134 180 229 286 341 411
#     4   9  22  41  63  94 136 170 226 285 334 400
#     4  11  26  45  72 103 139 177 226 281 344 414
#     4  10  22  42  68  95 136 176 234 272 347 402
#     4  11  26  44  67 105 135 185 227 283 345 409
#     4  11  25  44  72  95 146 176 229 283 342 413
#
# _framework density 22.2455
#
# number of rings (size 3 to 8) (size 9 to 14) (size 15 to 20)
#    0.000    2.167    0.000    2.000   11.667    7.333 
#    3.000    6.667    0.000    0.000    0.000    0.000 
#    0.000    0.000    0.000    0.000    0.000    0.000 
#
# Total GULP energy -297623.590053 kJ/mol
# GULP energy per Si atom -12400.982919 kJ/mol
# Density = 2.219487 g / cm^3
# Si number density = 22.245500 Si / 1000 Ang^3
#
#
#
# Elastic Constant Matrix: (Units=GPa)
#
#
# Indices 1 2 3 4 5 6 
#
# 1 95.3085 49.2266 49.4318 0.0000 0.0000 0.0000
# 2 49.2266 63.9415 33.0571 0.0000 0.0000 0.0000
# 3 49.4318 33.0571 119.2203 0.0000 0.0000 0.0000
# 4 0.0000 0.0000 0.0000 33.2196 0.0000 0.0000
# 5 0.0000 0.0000 0.0000 0.0000 41.5940 0.0000
# 6 0.0000 0.0000 0.0000 0.0000 0.0000 35.6560
#
#
#
# Elastic Compliance Matrix: (Units=1/GPa)
#
#
# Indices 1 2 3 4 5 6 
#
# 1 0.019313 -0.012524 -0.004535 0.000000 0.000000 0.000000
# 2 -0.012524 0.026378 -0.002121 0.000000 0.000000 0.000000
# 3 -0.004535 -0.002121 0.010856 0.000000 0.000000 0.000000
# 4 0.000000 0.000000 0.000000 0.030103 0.000000 0.000000
# 5 0.000000 0.000000 0.000000 0.000000 0.024042 0.000000
# 6 0.000000 0.000000 0.000000 0.000000 0.000000 0.028046
#
#
# Mechanical properties :
#
#
# Convention : Reuss Voigt Hill
#
# Bulk Modulus (GPa) = 54.98526 60.21125 57.59826
# Shear Modulus (GPa) = 27.29861 31.87758 29.58810
#
# Velocity S-wave (km/s) = 3.50687 3.78959 3.65097
# Velocity P-wave (km/s) = 6.41628 6.80246 6.61219
#
# Compressibility (1/GPa) = 0.01818669
#
# Stress axis : x y z
#
# Youngs Moduli (GPa) = 51.77905 37.91092 92.11202
#
# Poissons Ratio (x) = 0.47479 0.41773
# Poissons Ratio (y) = 0.64847 0.19539
# Poissons Ratio (z) = 0.23482 0.08042
#
# Static dielectric constant tensor:
#      x y z
#    x 4.078070 0.000000 0.000000 
#    y 0.000000 3.757240 0.000000 
#    z 0.000000 0.000000 4.040300 
# 
# 
# High freq. dielectric constant tensor:
#      x y z
#    x 1.880370 0.000000 0.000000 
#    y 0.000000 1.862850 0.000000 
#    z 0.000000 0.000000 1.888970 
# 
# From -- ./inp_files/30213.got.cif
#   From: 2010.03.12/outbox.cif.g09.slc.cpg/sg23_16_cif.got.tgz:30213.got - 2010.04.14 02:50:06.
