data_PCOD8164187
_publ_section_title
;
Structure prediction by ZEFSAII (Michael W. Deem and Ramdas Pophale) SiO2 
 PCOD8164187
Probable space group: I 2 2 2
;
_chemical_formula_sum "Si O2"
_cell_formula_units_Z 58
_cell_length_a 9.222151
_cell_length_b 26.070398
_cell_length_c 11.492036
_cell_angle_alpha 90.000000
_cell_angle_beta 90.000000
_cell_angle_gamma 90.000000
_cell_volume 2762.974444
_symmetry_space_group_name_H-M "I 2 2 2"
_symmetry_group_IT_number 23
_symmetry_cell_setting 'orthorhombic'
loop_
_space_group_symop_operation_xyz
x,y,z
-x,-y,z
x,-y,-z
-x,y,-z
1/2+x,1/2+y,1/2+z
1/2-x,1/2-y,1/2+z
1/2+x,1/2-y,1/2-z
1/2-x,1/2+y,1/2-z
loop_
_atom_site_type_symbol
_atom_site_label
_atom_site_fract_x
_atom_site_fract_y
_atom_site_fract_z
Si Si1 0.000000 0.000000 0.000000
Si Si2 0.550918 0.103454 0.865920
Si Si3 0.140394 0.828226 0.070771
Si Si4 0.189522 0.965303 0.809378
Si Si5 0.507830 0.602511 0.867263
Si Si6 0.249608 0.584341 0.715472
Si Si7 0.312897 0.789041 0.864951
Si Si8 0.532502 0.288898 0.219844
O O1 0.090068 0.959830 0.922467
O O2 0.655356 0.056307 0.841462
O O3 0.421757 0.093765 0.772960
O O4 0.634439 0.154618 0.828236
O O5 0.500000 0.103646 0.000000
O O6 0.211018 0.883138 0.099837
O O7 0.091930 0.797272 0.183916
O O8 0.251175 0.792541 0.996975
O O9 0.000000 0.843529 0.000000
O O10 0.109804 0.937569 0.701498
O O11 0.208473 0.025302 0.788798
O O12 0.341559 0.605816 0.823538
O O13 0.571337 0.659833 0.852404
O O14 0.500000 0.584982 0.000000
O O15 0.456003 0.753139 0.863401
O O16 0.183014 0.770020 0.779145
#
# Coordination Sequence:
#
# PCOD8164187 Si02
#       8
#     2   8   8   8   8   8   8   8
#     4  12  24  36  72 104 140 188 230 298 360 428
#     4  12  25  41  64 103 145 176 220 295 361 427
#     4   9  21  41  64  98 138 172 225 286 350 418
#     4  12  25  41  67 104 140 182 236 287 362 429
#     4  11  25  48  70 101 139 186 248 293 337 436
#     4  11  23  41  67  99 134 186 225 283 361 422
#     4  11  23  42  68  97 139 178 229 291 352 419
#     4  10  24  41  70  98 135 181 233 286 351 422
#
# _framework density 20.991869000000001
#
# number of rings (size 3 to 8) (size 9 to 14) (size 15 to 20)
#    0.000    1.103    4.138    1.241    4.828    3.310 
#    0.000    0.690    0.000    1.655    0.000    0.000 
#    0.000    0.000    0.000    0.000    0.000    0.000 
#
# Total GULP energy -359448.855762 kJ/mol
# GULP energy per Si atom -12394.788130 kJ/mol
# Density = 2.094409 g / cm^3
# Si number density = 20.991869 Si / 1000 Ang^3
#
#
#
# Elastic Constant Matrix: (Units=GPa)
#
#
# Indices 1 2 3 4 5 6 
#
# 1 121.1134 17.9036 44.2135 0.0001 -0.0001 0.0001
# 2 17.9036 74.5003 26.6398 -0.0001 -0.0001 0.0002
# 3 44.2135 26.6398 104.2334 0.0016 0.0006 -0.0003
# 4 0.0001 -0.0001 0.0016 19.7067 0.0001 0.0001
# 5 -0.0001 -0.0001 0.0006 0.0001 23.5761 -0.0001
# 6 0.0001 0.0002 -0.0003 0.0001 -0.0001 48.5084
#
#
#
# Elastic Compliance Matrix: (Units=1/GPa)
#
#
# Indices 1 2 3 4 5 6 
#
# 1 0.009831 -0.000959 -0.003925 0.000000 0.000000 0.000000
# 2 -0.000959 0.014866 -0.003393 0.000000 0.000000 0.000000
# 3 -0.003925 -0.003393 0.012126 -0.000001 0.000000 0.000000
# 4 0.000000 0.000000 -0.000001 0.050744 0.000000 0.000000
# 5 0.000000 0.000000 0.000000 0.000000 0.042416 0.000000
# 6 0.000000 0.000000 0.000000 0.000000 0.000000 0.020615
#
#
# Mechanical properties :
#
#
# Convention : Reuss Voigt Hill
#
# Bulk Modulus (GPa) = 49.33434 53.04009 51.18721
# Shear Modulus (GPa) = 28.75064 32.43093 30.59078
#
# Velocity S-wave (km/s) = 3.70484 3.93482 3.82156
# Velocity P-wave (km/s) = 6.46945 6.77979 6.62644
#
# Compressibility (1/GPa) = 0.02026986
#
# Stress axis : x y z
#
# Youngs Moduli (GPa) = 101.71482 67.26569 82.46799
#
# Poissons Ratio (x) = 0.06451 0.32370
# Poissons Ratio (y) = 0.09755 0.27979
# Poissons Ratio (z) = 0.39925 0.22821
#
# Static dielectric constant tensor:
#      x y z
#    x 4.118250 0.000000 0.000000 
#    y 0.000000 3.729330 0.000000 
#    z 0.000000 0.000000 3.669980 
# 
# 
# High freq. dielectric constant tensor:
#      x y z
#    x 1.839770 0.000000 0.000000 
#    y 0.000000 1.825770 0.000000 
#    z 0.000000 0.000000 1.795600 
# 
# From -- ./inp_files/14912.got.cif
#   From: 2010.03.12/outbox.cif.g09.slc.cpg/sg23_8_cif.got.tgz:14912.got - 2010.04.14 02:50:06.
