data_PCOD8164344
_publ_section_title
;
Structure prediction by ZEFSAII (Michael W. Deem and Ramdas Pophale) SiO2 
 PCOD8164344
Probable space group: I 2 2 2
;
_chemical_formula_sum "Si O2"
_cell_formula_units_Z 60
_cell_length_a 11.607726
_cell_length_b 11.552005
_cell_length_c 21.476555
_cell_angle_alpha 90.000000
_cell_angle_beta 90.000000
_cell_angle_gamma 90.000000
_cell_volume 2879.845140
_symmetry_space_group_name_H-M "I 2 2 2"
_symmetry_group_IT_number 23
_symmetry_cell_setting 'orthorhombic'
loop_
_space_group_symop_operation_xyz
x,y,z
-x,-y,z
x,-y,-z
-x,y,-z
1/2+x,1/2+y,1/2+z
1/2-x,1/2-y,1/2+z
1/2+x,1/2-y,1/2-z
1/2-x,1/2+y,1/2-z
loop_
_atom_site_type_symbol
_atom_site_label
_atom_site_fract_x
_atom_site_fract_y
_atom_site_fract_z
Si Si1 0.899079 0.085561 0.230124
Si Si2 0.179890 0.305810 0.112674
Si Si3 0.549696 0.622447 0.933695
Si Si4 0.813477 0.495974 0.199316
Si Si5 0.082365 0.265844 0.663357
Si Si6 0.693377 0.125728 0.523049
Si Si7 0.919180 0.725583 0.859386
Si Si8 0.000000 0.500000 0.287917
O O1 0.937943 0.189561 0.275364
O O2 0.866972 0.151317 0.164770
O O3 0.804927 0.003006 0.262448
O O4 0.000000 0.000000 0.213190
O O5 0.195727 0.440743 0.132627
O O6 0.283889 0.235118 0.143611
O O7 0.058260 0.263437 0.140601
O O8 0.196483 0.294652 0.038541
O O9 0.500000 0.500000 0.909391
O O10 0.508969 0.720895 0.887188
O O11 0.686735 0.615121 0.939729
O O12 0.500000 0.654781 0.000000
O O13 0.861590 0.367326 0.187825
O O14 0.904576 0.560634 0.243904
O O15 0.055556 0.400551 0.670450
O O16 0.607644 0.191069 0.569574
O O17 0.648538 0.000000 0.500000
#
# Coordination Sequence:
#
# PCOD8164344 Si02
#       8
#     8   8   8   8   8   8   8   4
#     4  11  27  43  69  99 139 184 228 281 350 418
#     4  11  22  42  64  97 139 174 223 284 346 404
#     4  11  21  40  63  95 134 173 224 291 345 408
#     4  11  23  41  64  99 137 177 223 282 338 406
#     4  11  24  41  69  98 136 183 224 283 348 408
#     4  12  23  37  67 100 136 176 222 287 353 403
#     4  12  25  42  64 101 138 176 229 281 344 422
#     4  12  24  44  67 101 138 182 224 288 332 416
#
# _framework density 20.834454000000001
#
# number of rings (size 3 to 8) (size 9 to 14) (size 15 to 20)
#    0.000    0.667    6.667    0.800    7.467    0.533 
#    0.000    0.333    0.000    3.200    0.000    0.000 
#    0.000    0.000    0.000    0.000    0.000    0.000 
#
# Total GULP energy -371854.255247 kJ/mol
# GULP energy per Si atom -12395.141842 kJ/mol
# Density = 2.078703 g / cm^3
# Si number density = 20.834454 Si / 1000 Ang^3
#
#
#
# Elastic Constant Matrix: (Units=GPa)
#
#
# Indices 1 2 3 4 5 6 
#
# 1 105.6520 53.1551 43.5587 0.0000 0.0000 0.0000
# 2 53.1551 105.2984 59.1636 0.0000 0.0000 0.0000
# 3 43.5587 59.1636 96.1310 0.0000 0.0000 0.0000
# 4 0.0000 0.0000 0.0000 7.3031 0.0000 0.0000
# 5 0.0000 0.0000 0.0000 0.0000 27.2446 0.0000
# 6 0.0000 0.0000 0.0000 0.0000 0.0000 26.6253
#
#
#
# Elastic Compliance Matrix: (Units=1/GPa)
#
#
# Indices 1 2 3 4 5 6 
#
# 1 0.013186 -0.005043 -0.002871 0.000000 0.000000 0.000000
# 2 -0.005043 0.016446 -0.007836 0.000000 0.000000 0.000000
# 3 -0.002871 -0.007836 0.016526 0.000000 0.000000 0.000000
# 4 0.000000 0.000000 0.000000 0.136928 0.000000 0.000000
# 5 0.000000 0.000000 0.000000 0.000000 0.036705 0.000000
# 6 0.000000 0.000000 0.000000 0.000000 0.000000 0.037558
#
#
# Mechanical properties :
#
#
# Convention : Reuss Voigt Hill
#
# Bulk Modulus (GPa) = 68.22736 68.75958 68.49347
# Shear Modulus (GPa) = 17.02213 22.31487 19.66850
#
# Velocity S-wave (km/s) = 2.86145 3.27625 3.07585
# Velocity P-wave (km/s) = 6.61330 6.88376 6.74989
#
# Compressibility (1/GPa) = 0.01465688
#
# Stress axis : x y z
#
# Youngs Moduli (GPa) = 75.83781 60.80662 60.51025
#
# Poissons Ratio (x) = 0.30666 0.17372
# Poissons Ratio (y) = 0.38247 0.47417
# Poissons Ratio (z) = 0.21773 0.47649
#
# Static dielectric constant tensor:
#      x y z
#    x 4.079110 0.000000 0.000000 
#    y 0.000000 3.440470 0.000000 
#    z 0.000000 0.000000 3.910960 
# 
# 
# High freq. dielectric constant tensor:
#      x y z
#    x 1.828740 0.000000 0.000000 
#    y 0.000000 1.781100 0.000000 
#    z 0.000000 0.000000 1.823840 
# 
# From -- ./inp_files/26762.got.cif
#   From: 2010.03.12/outbox.cif.g09.slc.cpg/sg23_14_cif.got.tgz:26762.got - 2010.04.14 02:50:06.
