data_PCOD8164960
_publ_section_title
;
Structure prediction by ZEFSAII (Michael W. Deem and Ramdas Pophale) SiO2 
 PCOD8164960
Probable space group: I 21 21 21
;
_chemical_formula_sum "Si O2"
_cell_formula_units_Z 60
_cell_length_a 22.779472
_cell_length_b 9.163025
_cell_length_c 15.361194
_cell_angle_alpha 90.000000
_cell_angle_beta 90.000000
_cell_angle_gamma 90.000000
_cell_volume 3206.324687
_symmetry_space_group_name_H-M "I 21 21 21"
_symmetry_group_IT_number 24
_symmetry_cell_setting 'orthorhombic'
loop_
_space_group_symop_operation_xyz
x,y,z
-x,1/2-y,z
x,-y,1/2-z
1/2-x,y,-z
1/2+x,1/2+y,1/2+z
1/2-x,-y,1/2+z
1/2+x,1/2-y,-z
-x,1/2+y,1/2-z
loop_
_atom_site_type_symbol
_atom_site_label
_atom_site_fract_x
_atom_site_fract_y
_atom_site_fract_z
Si Si1 0.684025 0.407166 0.509998
Si Si2 0.539380 0.385934 0.172639
Si Si3 0.000000 0.250000 0.124700
Si Si4 0.086615 0.276789 0.433631
Si Si5 0.494776 0.985062 0.992147
Si Si6 0.667217 0.419811 0.159095
Si Si7 0.297103 0.889045 0.670019
Si Si8 0.391005 0.667260 0.738462
O O1 0.750000 0.356344 0.500000
O O2 0.651604 0.254874 0.531111
O O3 0.659569 0.466345 0.419275
O O4 0.676638 0.529843 0.585292
O O5 0.500000 0.250000 0.200073
O O6 0.540690 0.500000 0.250000
O O7 0.606406 0.327053 0.155001
O O8 0.509800 0.468779 0.091849
O O9 0.051712 0.319549 0.180124
O O10 0.974606 0.378077 0.065081
O O11 0.047749 0.145518 0.469138
O O12 0.089349 0.266274 0.329938
O O13 0.061360 0.431047 0.469188
O O14 0.670184 0.500000 0.250000
O O15 0.729745 0.334455 0.149346
O O16 0.336386 0.749962 0.694129
O O17 0.297479 0.000000 0.750000
O O18 0.371604 0.500000 0.750000
#
# Coordination Sequence:
#
# PCOD8164960 Si02
#       8
#     8   8   4   8   8   8   8   8
#     4  10  19  35  64  93 119 160 210 258 302 370
#     4  11  24  40  63  89 119 154 204 260 317 364
#     4  12  24  38  56  88 126 166 200 250 300 382
#     4  11  22  38  60  91 121 161 203 248 311 371
#     4  11  23  38  62  87 124 161 204 253 307 372
#     4   9  20  38  61  92 113 151 206 261 297 362
#     4  10  20  36  63  89 118 158 207 250 302 366
#     4  12  25  38  58  90 133 163 201 251 313 376
#
# _framework density 18.713016
#
# number of rings (size 3 to 8) (size 9 to 14) (size 15 to 20)
#    0.000    1.333    4.667    1.600    1.867    0.000 
#    0.000    0.667    2.933    0.000    0.000    0.000 
#    0.000    0.000    0.000    0.000    0.000    0.000 
#
# Total GULP energy -371835.995009 kJ/mol
# GULP energy per Si atom -12394.533167 kJ/mol
# Density = 1.867042 g / cm^3
# Si number density = 18.713016 Si / 1000 Ang^3
#
#
#
# Elastic Constant Matrix: (Units=GPa)
#
#
# Indices 1 2 3 4 5 6 
#
# 1 121.5950 41.1409 27.4086 0.0000 0.0000 0.0000
# 2 41.1409 77.7275 22.9852 0.0000 0.0000 0.0000
# 3 27.4086 22.9852 118.7424 0.0000 0.0000 0.0000
# 4 0.0000 0.0000 0.0000 42.0871 0.0000 0.0000
# 5 0.0000 0.0000 0.0000 0.0000 29.7499 0.0000
# 6 0.0000 0.0000 0.0000 0.0000 0.0000 26.2615
#
#
#
# Elastic Compliance Matrix: (Units=1/GPa)
#
#
# Indices 1 2 3 4 5 6 
#
# 1 0.010231 -0.005003 -0.001393 0.000000 0.000000 0.000000
# 2 -0.005003 0.016093 -0.001960 0.000000 0.000000 0.000000
# 3 -0.001393 -0.001960 0.009123 0.000000 0.000000 0.000000
# 4 0.000000 0.000000 0.000000 0.023760 0.000000 0.000000
# 5 0.000000 0.000000 0.000000 0.000000 0.033614 0.000000
# 6 0.000000 0.000000 0.000000 0.000000 0.000000 0.038079
#
#
# Mechanical properties :
#
#
# Convention : Reuss Voigt Hill
#
# Bulk Modulus (GPa) = 53.38007 55.68158 54.53083
# Shear Modulus (GPa) = 32.49776 34.72173 33.60975
#
# Velocity S-wave (km/s) = 4.17182 4.31221 4.24260
# Velocity P-wave (km/s) = 7.19674 7.39010 7.29406
#
# Compressibility (1/GPa) = 0.01873358
#
# Stress axis : x y z
#
# Youngs Moduli (GPa) = 97.74389 62.13752 109.61778
#
# Poissons Ratio (x) = 0.31089 0.15270
# Poissons Ratio (y) = 0.48903 0.21489
# Poissons Ratio (z) = 0.13616 0.12181
#
# Static dielectric constant tensor:
#      x y z
#    x 4.191240 0.000000 0.000000 
#    y 0.000000 3.326840 0.000000 
#    z 0.000000 0.000000 3.684340 
# 
# 
# High freq. dielectric constant tensor:
#      x y z
#    x 1.741180 0.000000 0.000000 
#    y 0.000000 1.692310 0.000000 
#    z 0.000000 0.000000 1.747340 
# 
# From -- ./inp_files/27836.got.cif
#   From: 2010.03.12/outbox.cif.g09.slc.cpg/sg24_14_cif.got.tgz:27836.got - 2010.04.14 03:06:53.
