data_PCOD8164549
_publ_section_title
;
Structure prediction by ZEFSAII (Michael W. Deem and Ramdas Pophale) SiO2 
 PCOD8164549
Probable space group: I 2 2 2
;
_chemical_formula_sum "Si O2"
_cell_formula_units_Z 22
_cell_length_a 6.293741
_cell_length_b 7.222897
_cell_length_c 21.556531
_cell_angle_alpha 90.000000
_cell_angle_beta 90.000000
_cell_angle_gamma 90.000000
_cell_volume 979.939269
_symmetry_space_group_name_H-M "I 2 2 2"
_symmetry_group_IT_number 23
_symmetry_cell_setting 'orthorhombic'
loop_
_space_group_symop_operation_xyz
x,y,z
-x,-y,z
x,-y,-z
-x,y,-z
1/2+x,1/2+y,1/2+z
1/2-x,1/2-y,1/2+z
1/2+x,1/2-y,1/2-z
1/2-x,1/2+y,1/2-z
loop_
_atom_site_type_symbol
_atom_site_label
_atom_site_fract_x
_atom_site_fract_y
_atom_site_fract_z
Si Si1 0.121066 0.314577 0.060098
Si Si2 0.500000 0.500000 0.770672
Si Si3 0.181859 0.359744 0.670263
Si Si4 0.000000 0.000000 0.500000
O O1 0.140527 0.168317 0.116186
O O2 0.000000 0.500000 0.082611
O O3 0.360429 0.366547 0.042631
O O4 0.000000 0.228554 0.000000
O O5 0.298135 0.440195 0.730209
O O6 0.571931 0.334613 0.814775
O O7 0.000000 0.500000 0.647406
#
# Coordination Sequence:
#
# PCOD8164549 Si02
#       4
#     8   4   8   2
#     4   9  21  40  71 103 140 185 234 288 348 416
#     4  12  27  44  67 107 140 189 238 290 350 418
#     4  12  26  45  71 103 144 186 237 292 351 419
#     4   8  16  40  66 102 136 184 222 288 352 398
#
# _framework density 22.450369999999999
#
# number of rings (size 3 to 8) (size 9 to 14) (size 15 to 20)
#    0.000    1.818    3.636    1.091    5.091    5.818 
#    0.000    5.455    0.000    2.182    0.000    0.000 
#    0.000    0.000    0.000    0.000    0.000    0.000 
#
# Total GULP energy -136423.591720 kJ/mol
# GULP energy per Si atom -12402.144702 kJ/mol
# Density = 2.239927 g / cm^3
# Si number density = 22.450370 Si / 1000 Ang^3
#
#
#
# Elastic Constant Matrix: (Units=GPa)
#
#
# Indices 1 2 3 4 5 6 
#
# 1 118.3331 44.0116 43.0974 0.0000 0.0000 0.0000
# 2 44.0116 123.5615 60.2712 0.0000 0.0000 0.0000
# 3 43.0974 60.2712 130.6403 0.0000 0.0000 0.0000
# 4 0.0000 0.0000 0.0000 12.1952 0.0000 0.0000
# 5 0.0000 0.0000 0.0000 0.0000 33.4863 0.0000
# 6 0.0000 0.0000 0.0000 0.0000 0.0000 42.5573
#
#
#
# Elastic Compliance Matrix: (Units=1/GPa)
#
#
# Indices 1 2 3 4 5 6 
#
# 1 0.010200 -0.002570 -0.002179 0.000000 0.000000 0.000000
# 2 -0.002570 0.011091 -0.004269 0.000000 0.000000 0.000000
# 3 -0.002179 -0.004269 0.010343 0.000000 0.000000 0.000000
# 4 0.000000 0.000000 0.000000 0.082000 0.000000 0.000000
# 5 0.000000 0.000000 0.000000 0.000000 0.029863 0.000000
# 6 0.000000 0.000000 0.000000 0.000000 0.000000 0.023498
#
#
# Mechanical properties :
#
#
# Convention : Reuss Voigt Hill
#
# Bulk Modulus (GPa) = 73.54320 74.14391 73.84356
# Shear Modulus (GPa) = 26.37630 32.65805 29.51718
#
# Velocity S-wave (km/s) = 3.43136 3.81816 3.62992
# Velocity P-wave (km/s) = 6.96622 7.24812 7.10857
#
# Compressibility (1/GPa) = 0.01359745
#
# Stress axis : x y z
#
# Youngs Moduli (GPa) = 98.03560 90.16349 96.68378
#
# Poissons Ratio (x) = 0.23175 0.21070
# Poissons Ratio (y) = 0.25198 0.41274
# Poissons Ratio (z) = 0.21364 0.38490
#
# Static dielectric constant tensor:
#      x y z
#    x 4.023570 0.000000 0.000000 
#    y 0.000000 3.868420 0.000000 
#    z 0.000000 0.000000 3.978000 
# 
# 
# High freq. dielectric constant tensor:
#      x y z
#    x 1.897050 0.000000 0.000000 
#    y 0.000000 1.873770 0.000000 
#    z 0.000000 0.000000 1.884910 
# 
# From -- ./inp_files/28787.got.cif
#   From: 2010.03.12/outbox.cif.g09.slc.cpg/sg23_15_cif.got.tgz:28787.got - 2010.04.14 02:50:06.
