data_PCOD8164335
_publ_section_title
;
Structure prediction by ZEFSAII (Michael W. Deem and Ramdas Pophale) SiO2 
 PCOD8164335
Probable space group: I 2 2 2
;
_chemical_formula_sum "Si O2"
_cell_formula_units_Z 64
_cell_length_a 17.668104
_cell_length_b 11.215014
_cell_length_c 14.838697
_cell_angle_alpha 90.000000
_cell_angle_beta 90.000000
_cell_angle_gamma 90.000000
_cell_volume 2940.258633
_symmetry_space_group_name_H-M "I 2 2 2"
_symmetry_group_IT_number 23
_symmetry_cell_setting 'orthorhombic'
loop_
_space_group_symop_operation_xyz
x,y,z
-x,-y,z
x,-y,-z
-x,y,-z
1/2+x,1/2+y,1/2+z
1/2-x,1/2-y,1/2+z
1/2+x,1/2-y,1/2-z
1/2-x,1/2+y,1/2-z
loop_
_atom_site_type_symbol
_atom_site_label
_atom_site_fract_x
_atom_site_fract_y
_atom_site_fract_z
Si Si1 0.686624 0.599086 0.230821
Si Si2 0.566728 0.409345 0.209991
Si Si3 0.067076 0.708202 0.830684
Si Si4 0.701930 0.366243 0.967578
Si Si5 0.343025 0.940048 0.197686
Si Si6 0.596251 0.826346 0.285815
Si Si7 0.864175 0.360715 0.011848
Si Si8 0.575739 0.785051 0.943694
O O1 0.647006 0.474207 0.205944
O O2 0.722839 0.640106 0.137389
O O3 0.751521 0.576915 0.306696
O O4 0.623519 0.694285 0.260585
O O5 0.500000 0.500000 0.194357
O O6 0.564355 0.349033 0.308805
O O7 0.556904 0.309429 0.133706
O O8 0.136061 0.643528 0.781487
O O9 0.078137 0.694173 0.937790
O O10 0.993461 0.652476 0.780585
O O11 0.778047 0.312978 0.011575
O O12 0.680518 0.500000 0.000000
O O13 0.633438 0.276103 0.987055
O O14 0.384367 0.900561 0.104245
O O15 0.362263 0.076929 0.222816
O O16 0.605562 0.833403 0.391491
O O17 0.860567 0.500000 0.000000
O O18 0.500000 0.821857 0.000000
#
# Coordination Sequence:
#
# PCOD8164335 Si02
#       8
#     8   8   8   8   8   8   8   8
#     4  12  24  42  72 104 139 186 235 293 363 426
#     4  11  23  43  69 103 137 183 234 289 360 427
#     4  11  23  42  67  99 133 173 228 290 349 413
#     4  11  21  39  65 100 135 175 235 294 345 412
#     4  11  25  43  67 102 141 186 236 289 354 433
#     4  12  25  42  72  98 136 184 226 288 362 431
#     4  11  22  41  65 100 132 171 230 291 344 412
#     4  11  25  41  71 102 143 188 236 300 355 425
#
# _framework density 21.766791999999999
#
# number of rings (size 3 to 8) (size 9 to 14) (size 15 to 20)
#    0.000    0.750    5.000    3.000    5.250    0.500 
#    0.000    1.250    2.750    3.000    0.000    0.000 
#    0.000    0.000    0.000    0.000    0.000    0.000 
#
# Total GULP energy -396612.322298 kJ/mol
# GULP energy per Si atom -12394.135072 kJ/mol
# Density = 2.171725 g / cm^3
# Si number density = 21.766792 Si / 1000 Ang^3
#
#
#
# Elastic Constant Matrix: (Units=GPa)
#
#
# Indices 1 2 3 4 5 6 
#
# 1 122.2980 26.3622 39.2220 0.0000 0.0000 0.0000
# 2 26.3622 50.9204 38.5997 0.0000 0.0000 0.0000
# 3 39.2220 38.5997 67.3296 0.0000 0.0000 0.0000
# 4 0.0000 0.0000 0.0000 32.9091 0.0000 0.0000
# 5 0.0000 0.0000 0.0000 0.0000 36.7447 0.0000
# 6 0.0000 0.0000 0.0000 0.0000 0.0000 22.8886
#
#
#
# Elastic Compliance Matrix: (Units=1/GPa)
#
#
# Indices 1 2 3 4 5 6 
#
# 1 0.010108 -0.001361 -0.005108 0.000000 0.000000 0.000000
# 2 -0.001361 0.034916 -0.019224 0.000000 0.000000 0.000000
# 3 -0.005108 -0.019224 0.028849 0.000000 0.000000 0.000000
# 4 0.000000 0.000000 0.000000 0.030387 0.000000 0.000000
# 5 0.000000 0.000000 0.000000 0.000000 0.027215 0.000000
# 6 0.000000 0.000000 0.000000 0.000000 0.000000 0.043690
#
#
# Mechanical properties :
#
#
# Convention : Reuss Voigt Hill
#
# Bulk Modulus (GPa) = 44.47121 49.87954 47.17538
# Shear Modulus (GPa) = 21.36319 27.59942 24.48130
#
# Velocity S-wave (km/s) = 3.13622 3.56471 3.35731
# Velocity P-wave (km/s) = 5.79566 6.31728 6.06208
#
# Compressibility (1/GPa) = 0.02248646
#
# Stress axis : x y z
#
# Youngs Moduli (GPa) = 98.92772 28.64029 34.66289
#
# Poissons Ratio (x) = 0.03898 0.17707
# Poissons Ratio (y) = 0.13464 0.66637
# Poissons Ratio (z) = 0.50535 0.55059
#
# Static dielectric constant tensor:
#      x y z
#    x 4.132690 0.000000 0.000000 
#    y 0.000000 3.911600 0.000000 
#    z 0.000000 0.000000 3.883710 
# 
# 
# High freq. dielectric constant tensor:
#      x y z
#    x 1.873090 0.000000 0.000000 
#    y 0.000000 1.840150 0.000000 
#    z 0.000000 0.000000 1.851270 
# 
# From -- ./inp_files/22182.got.cif
#   From: 2010.03.12/outbox.cif.g09.slc.cpg/sg23_12_cif.got.tgz:22182.got - 2010.04.14 02:50:06.
