data_PCOD8164118
_publ_section_title
;
Structure prediction by ZEFSAII (Michael W. Deem and Ramdas Pophale) SiO2 
 PCOD8164118
Probable space group: I 2 2 2
;
_chemical_formula_sum "Si O2"
_cell_formula_units_Z 28
_cell_length_a 31.957171
_cell_length_b 7.473610
_cell_length_c 4.971355
_cell_angle_alpha 90.000000
_cell_angle_beta 90.000000
_cell_angle_gamma 90.000000
_cell_volume 1187.335723
_symmetry_space_group_name_H-M "I 2 2 2"
_symmetry_group_IT_number 23
_symmetry_cell_setting 'orthorhombic'
loop_
_space_group_symop_operation_xyz
x,y,z
-x,-y,z
x,-y,-z
-x,y,-z
1/2+x,1/2+y,1/2+z
1/2-x,1/2-y,1/2+z
1/2+x,1/2-y,1/2-z
1/2-x,1/2+y,1/2-z
loop_
_atom_site_type_symbol
_atom_site_label
_atom_site_fract_x
_atom_site_fract_y
_atom_site_fract_z
Si Si1 0.545982 0.789939 0.979421
Si Si2 0.900737 0.289880 0.015568
Si Si3 0.332923 0.500000 0.500000
Si Si4 0.759591 0.855248 0.684523
O O1 0.563135 0.736965 0.690719
O O2 0.500000 0.699322 0.000000
O O3 0.579984 0.727576 0.200098
O O4 0.540391 0.000000 0.000000
O O5 0.888856 0.500000 0.000000
O O6 0.860011 0.175852 0.937006
O O7 0.304541 0.445670 0.243589
O O8 0.762302 0.686624 0.474250
O O9 0.733638 0.000000 0.500000
#
# Coordination Sequence:
#
# PCOD8164118 Si02
#       4
#     8   8   4   8
#     4   9  18  37  65  96 138 189 239 284 335 410
#     4  10  23  41  65 101 139 185 232 286 359 414
#     4  12  28  46  77 102 146 180 230 306 365 436
#     4  12  26  50  75 103 137 182 239 298 370 442
#
# _framework density 23.582208000000001
#
# number of rings (size 3 to 8) (size 9 to 14) (size 15 to 20)
#    0.000    1.429    2.857    0.857    4.000    4.571 
#    5.143    4.286    0.000    0.000    0.000    0.000 
#    0.000    0.000    0.000    0.000    0.000    0.000 
#
# Total GULP energy -173437.977903 kJ/mol
# GULP energy per Si atom -12388.426993 kJ/mol
# Density = 2.352853 g / cm^3
# Si number density = 23.582208 Si / 1000 Ang^3
#
#
#
# Elastic Constant Matrix: (Units=GPa)
#
#
# Indices 1 2 3 4 5 6 
#
# 1 120.2917 66.1793 47.5758 0.0000 0.0000 0.0014
# 2 66.1793 97.9601 31.4816 -0.0002 0.0000 0.0026
# 3 47.5758 31.4816 134.7294 -0.0002 0.0000 0.0032
# 4 0.0000 -0.0002 -0.0002 36.8106 0.0000 0.0018
# 5 0.0000 0.0000 0.0000 0.0000 59.6625 0.0047
# 6 0.0014 0.0026 0.0032 0.0018 0.0047 -214.7598
#
#
#
# Elastic Compliance Matrix: (Units=1/GPa)
#
#
# Indices 1 2 3 4 5 6 
#
# 1 0.014280 -0.008678 -0.003015 0.000000 0.000000 0.000000
# 2 -0.008678 0.016311 -0.000747 0.000000 0.000000 0.000000
# 3 -0.003015 -0.000747 0.008661 0.000000 0.000000 0.000000
# 4 0.000000 0.000000 0.000000 0.027166 0.000000 0.000000
# 5 0.000000 0.000000 0.000000 0.000000 0.016761 0.000000
# 6 0.000000 0.000000 0.000000 0.000000 0.000000 -0.004656
#
#
# Mechanical properties :
#
#
# Convention : Reuss Voigt Hill
#
# Bulk Modulus (GPa) = 69.57667 71.49494 70.53580
# Shear Modulus (GPa) = 46.21349 -9.80772 18.20289
#
# Velocity S-wave (km/s) = 4.43163 -2.04156 2.78131
# Velocity P-wave (km/s) = 7.46684 4.98255 6.34742
#
# Compressibility (1/GPa) = 0.01437263
#
# Stress axis : x y z
#
# Youngs Moduli (GPa) = 70.02869 61.30808 115.45537
#
# Poissons Ratio (x) = 0.53205 0.34807
# Poissons Ratio (y) = 0.60773 0.08623
# Poissons Ratio (z) = 0.21112 0.04579
#
# Static dielectric constant tensor:
#      x y z
#    x 4.130100 0.000000 0.000010 
#    y 0.000000 4.284530 0.000080 
#    z 0.000010 0.000080 14.560560 
# 
# 
# High freq. dielectric constant tensor:
#      x y z
#    x 1.907840 0.000000 0.000000 
#    y 0.000000 1.935190 0.000000 
#    z 0.000000 0.000000 1.953770 
# 
# From -- ./inp_files/4704.got.cif
#   From: 2010.03.12/outbox.cif.g09.slc.cpg/sg23_3_cif.got.tgz:4704.got - 2010.04.14 02:50:06.
