data_PCOD8164378
_publ_section_title
;
Structure prediction by ZEFSAII (Michael W. Deem and Ramdas Pophale) SiO2 
 PCOD8164378
Probable space group: I 2 2 2
;
_chemical_formula_sum "Si O2"
_cell_formula_units_Z 34
_cell_length_a 21.360735
_cell_length_b 7.746705
_cell_length_c 7.941070
_cell_angle_alpha 90.000000
_cell_angle_beta 90.000000
_cell_angle_gamma 90.000000
_cell_volume 1314.051041
_symmetry_space_group_name_H-M "I 2 2 2"
_symmetry_group_IT_number 23
_symmetry_cell_setting 'orthorhombic'
loop_
_space_group_symop_operation_xyz
x,y,z
-x,-y,z
x,-y,-z
-x,y,-z
1/2+x,1/2+y,1/2+z
1/2-x,1/2-y,1/2+z
1/2+x,1/2-y,1/2-z
1/2-x,1/2+y,1/2-z
loop_
_atom_site_type_symbol
_atom_site_label
_atom_site_fract_x
_atom_site_fract_y
_atom_site_fract_z
Si Si1 0.000000 0.500000 0.500000
Si Si2 0.569850 0.268986 0.558786
Si Si3 0.596564 0.073136 0.243890
Si Si4 0.320666 0.581309 0.735828
Si Si5 0.294634 0.231564 0.922254
O O1 0.043287 0.629213 0.610431
O O2 0.500000 0.324602 0.500000
O O3 0.605378 0.210719 0.391311
O O4 0.609060 0.421383 0.652381
O O5 0.571977 0.110360 0.688930
O O6 0.662575 0.073428 0.146219
O O7 0.301866 0.393495 0.796972
O O8 0.275641 0.656410 0.588069
O O9 0.315032 0.714881 0.891082
#
# Coordination Sequence:
#
# PCOD8164378 Si02
#       5
#     2   8   8   8   8
#     4  12  20  38  68 102 132 186 230 294 344 438
#     4  11  22  43  67 101 140 188 237 296 351 439
#     4  11  22  39  68  99 136 181 242 284 358 421
#     4  11  25  45  69 104 148 183 248 296 379 430
#     4  11  25  44  70 106 140 191 235 314 362 444
#
# _framework density 25.874184
#
# number of rings (size 3 to 8) (size 9 to 14) (size 15 to 20)
#    0.000    0.941    2.353    4.941    0.000    9.412 
#    0.000    3.529    0.000    0.000    0.000    0.000 
#    0.000    0.000    0.000    0.000    0.000    0.000 
#
# Total GULP energy -210673.863755 kJ/mol
# GULP energy per Si atom -12392.580221 kJ/mol
# Density = 2.581529 g / cm^3
# Si number density = 25.874184 Si / 1000 Ang^3
#
#
#
# Elastic Constant Matrix: (Units=GPa)
#
#
# Indices 1 2 3 4 5 6 
#
# 1 178.3374 18.3451 43.5427 0.0000 0.0000 0.0000
# 2 18.3451 90.7071 5.8463 0.0000 0.0000 0.0000
# 3 43.5427 5.8463 117.9770 0.0000 0.0000 0.0000
# 4 0.0000 0.0000 0.0000 35.0172 0.0000 0.0000
# 5 0.0000 0.0000 0.0000 0.0000 58.9078 0.0000
# 6 0.0000 0.0000 0.0000 0.0000 0.0000 28.0606
#
#
#
# Elastic Compliance Matrix: (Units=1/GPa)
#
#
# Indices 1 2 3 4 5 6 
#
# 1 0.006275 -0.001123 -0.002260 0.000000 0.000000 0.000000
# 2 -0.001123 0.011261 -0.000143 0.000000 0.000000 0.000000
# 3 -0.002260 -0.000143 0.009318 0.000000 0.000000 0.000000
# 4 0.000000 0.000000 0.000000 0.028557 0.000000 0.000000
# 5 0.000000 0.000000 0.000000 0.000000 0.016976 0.000000
# 6 0.000000 0.000000 0.000000 0.000000 0.000000 0.035637
#
#
# Mechanical properties :
#
#
# Convention : Reuss Voigt Hill
#
# Bulk Modulus (GPa) = 50.50699 58.05440 54.28069
# Shear Modulus (GPa) = 41.09236 45.68296 43.38766
#
# Velocity S-wave (km/s) = 3.98950 4.20644 4.09940
# Velocity P-wave (km/s) = 6.38624 6.78808 6.59022
#
# Compressibility (1/GPa) = 0.01979924
#
# Stress axis : x y z
#
# Youngs Moduli (GPa) = 159.36879 88.80253 107.32460
#
# Poissons Ratio (x) = 0.09976 0.24258
# Poissons Ratio (y) = 0.17903 0.01539
# Poissons Ratio (z) = 0.36021 0.01274
#
# Static dielectric constant tensor:
#      x y z
#    x 4.673650 0.000000 0.000000 
#    y 0.000000 4.433200 0.000000 
#    z 0.000000 0.000000 5.042970 
# 
# 
# High freq. dielectric constant tensor:
#      x y z
#    x 2.035290 0.000000 0.000000 
#    y 0.000000 2.017680 0.000000 
#    z 0.000000 0.000000 2.066020 
# 
# From -- ./inp_files/6691.got.cif
#   From: 2010.03.12/outbox.cif.g09.slc.cpg/sg23_4_cif.got.tgz:6691.got - 2010.04.14 02:50:06.
