data_PCOD8164452
_publ_section_title
;
Structure prediction by ZEFSAII (Michael W. Deem and Ramdas Pophale) SiO2 
 PCOD8164452
Probable space group: I 2 2 2
;
_chemical_formula_sum "Si O2"
_cell_formula_units_Z 32
_cell_length_a 10.997883
_cell_length_b 11.912573
_cell_length_c 10.906077
_cell_angle_alpha 90.000000
_cell_angle_beta 90.000000
_cell_angle_gamma 90.000000
_cell_volume 1428.838783
_symmetry_space_group_name_H-M "I 2 2 2"
_symmetry_group_IT_number 23
_symmetry_cell_setting 'orthorhombic'
loop_
_space_group_symop_operation_xyz
x,y,z
-x,-y,z
x,-y,-z
-x,y,-z
1/2+x,1/2+y,1/2+z
1/2-x,1/2-y,1/2+z
1/2+x,1/2-y,1/2-z
1/2-x,1/2+y,1/2-z
loop_
_atom_site_type_symbol
_atom_site_label
_atom_site_fract_x
_atom_site_fract_y
_atom_site_fract_z
Si Si1 0.000000 0.684203 0.000000
Si Si2 0.069360 0.599698 0.368235
Si Si3 0.692576 0.487002 0.253479
Si Si4 0.688690 0.000000 0.500000
Si Si5 0.514842 0.321517 0.728479
O O1 0.112044 0.607921 0.042047
O O2 0.039871 0.763076 0.890190
O O3 0.210522 0.559923 0.354147
O O4 0.058371 0.725397 0.320889
O O5 0.000000 0.500000 0.291019
O O6 0.000000 0.599192 0.500000
O O7 0.625809 0.596199 0.310369
O O8 0.596635 0.390852 0.215721
O O9 0.738392 0.530539 0.121914
#
# Coordination Sequence:
#
# PCOD8164452 Si02
#       5
#     4   8   8   4   8
#     4  11  24  43  70 100 148 195 231 296 364 432
#     4  11  26  46  74 106 147 186 244 295 363 425
#     4  11  27  46  72 111 145 190 246 299 359 437
#     4  11  24  43  74 102 148 187 243 296 352 432
#     4  11  27  46  73 109 147 194 239 295 373 422
#
# _framework density 22.395810000000001
#
# number of rings (size 3 to 8) (size 9 to 14) (size 15 to 20)
#    0.000    1.000    2.500    1.500   10.500    7.000 
#    0.000    0.000    0.000    0.000    0.000    0.000 
#    0.000    0.000    0.000    0.000    0.000    0.000 
#
# Total GULP energy -198210.885366 kJ/mol
# GULP energy per Si atom -12388.180335 kJ/mol
# Density = 2.234484 g / cm^3
# Si number density = 22.395810 Si / 1000 Ang^3
#
#
#
# Elastic Constant Matrix: (Units=GPa)
#
#
# Indices 1 2 3 4 5 6 
#
# 1 131.1599 66.0330 27.5114 0.0000 0.0000 0.0000
# 2 66.0330 169.3727 21.6419 0.0000 0.0000 0.0000
# 3 27.5114 21.6419 81.4643 0.0000 0.0000 0.0000
# 4 0.0000 0.0000 0.0000 27.7572 0.0000 0.0000
# 5 0.0000 0.0000 0.0000 0.0000 27.8876 0.0000
# 6 0.0000 0.0000 0.0000 0.0000 0.0000 14.1283
#
#
#
# Elastic Compliance Matrix: (Units=1/GPa)
#
#
# Indices 1 2 3 4 5 6 
#
# 1 0.009921 -0.003561 -0.002405 0.000000 0.000000 0.000000
# 2 -0.003561 0.007390 -0.000761 0.000000 0.000000 0.000000
# 3 -0.002405 -0.000761 0.013289 0.000000 0.000000 0.000000
# 4 0.000000 0.000000 0.000000 0.036027 0.000000 0.000000
# 5 0.000000 0.000000 0.000000 0.000000 0.035858 0.000000
# 6 0.000000 0.000000 0.000000 0.000000 0.000000 0.070780
#
#
# Mechanical properties :
#
#
# Convention : Reuss Voigt Hill
#
# Bulk Modulus (GPa) = 58.31444 68.04104 63.17774
# Shear Modulus (GPa) = 25.98306 31.74201 28.86253
#
# Velocity S-wave (km/s) = 3.40983 3.76881 3.59381
# Velocity P-wave (km/s) = 6.44959 7.02750 6.74474
#
# Compressibility (1/GPa) = 0.01714841
#
# Stress axis : x y z
#
# Youngs Moduli (GPa) = 100.79295 135.32621 75.24774
#
# Poissons Ratio (x) = 0.48186 0.18094
# Poissons Ratio (y) = 0.35890 0.05723
# Poissons Ratio (z) = 0.24237 0.10293
#
# Static dielectric constant tensor:
#      x y z
#    x 4.130230 0.000000 0.000000 
#    y 0.000000 4.383150 0.000000 
#    z 0.000000 0.000000 4.053950 
# 
# 
# High freq. dielectric constant tensor:
#      x y z
#    x 1.885260 0.000000 0.000000 
#    y 0.000000 1.910420 0.000000 
#    z 0.000000 0.000000 1.866860 
# 
# From -- ./inp_files/15293.got.cif
#   From: 2010.03.12/outbox.cif.g09.slc.cpg/sg23_8_cif.got.tgz:15293.got - 2010.04.14 02:50:06.
