data_PCOD8164888
_publ_section_title
;
Structure prediction by ZEFSAII (Michael W. Deem and Ramdas Pophale) SiO2 
 PCOD8164888
Probable space group: I 21 21 21
;
_chemical_formula_sum "Si O2"
_cell_formula_units_Z 48
_cell_length_a 14.292741
_cell_length_b 17.801321
_cell_length_c 8.984321
_cell_angle_alpha 90.000000
_cell_angle_beta 90.000000
_cell_angle_gamma 90.000000
_cell_volume 2285.877832
_symmetry_space_group_name_H-M "I 21 21 21"
_symmetry_group_IT_number 24
_symmetry_cell_setting 'orthorhombic'
loop_
_space_group_symop_operation_xyz
x,y,z
-x,1/2-y,z
x,-y,1/2-z
1/2-x,y,-z
1/2+x,1/2+y,1/2+z
1/2-x,-y,1/2+z
1/2+x,1/2-y,-z
-x,1/2+y,1/2-z
loop_
_atom_site_type_symbol
_atom_site_label
_atom_site_fract_x
_atom_site_fract_y
_atom_site_fract_z
Si Si1 0.750000 0.929995 0.000000
Si Si2 0.085348 0.831583 0.196319
Si Si3 0.861824 0.634739 0.503952
Si Si4 0.871603 0.000000 0.750000
Si Si5 0.983046 0.622976 0.780365
Si Si6 0.359716 0.035917 0.514524
Si Si7 0.903206 0.813519 0.046045
O O1 0.823458 0.873923 0.075673
O O2 0.696346 0.983501 0.112849
O O3 0.106474 0.812789 0.367571
O O4 0.119597 0.916142 0.162215
O O5 0.133164 0.771788 0.078548
O O6 0.974167 0.829131 0.180252
O O7 0.750000 0.642285 0.500000
O O8 0.917315 0.662507 0.653762
O O9 0.895048 0.549297 0.475150
O O10 0.936891 0.070621 0.792802
O O11 0.911444 0.572955 0.874841
O O12 0.040758 0.680651 0.887780
O O13 0.250000 0.036589 0.500000
#
# Coordination Sequence:
#
# PCOD8164888 Si02
#       7
#     4   8   8   4   8   8   8
#     4  10  22  40  66  88 116 156 216 252 304 362
#     4  10  21  38  59  86 126 161 199 242 304 361
#     4  11  21  35  61  97 126 154 201 254 302 354
#     4  10  20  38  62  92 116 154 202 264 302 350
#     4  10  19  38  61  88 126 155 199 253 310 363
#     4  10  19  33  59  93 124 162 196 237 295 367
#     4   9  22  42  60  84 118 167 207 240 303 378
#
# _framework density 20.998495999999999
#
# number of rings (size 3 to 8) (size 9 to 14) (size 15 to 20)
#    0.000    2.000    1.667    1.500    1.167    4.000 
#    3.000    6.667    9.167    0.000    0.000    0.000 
#    0.000    0.000    0.000    0.000    0.000    0.000 
#
# Total GULP energy -297316.165829 kJ/mol
# GULP energy per Si atom -12388.173576 kJ/mol
# Density = 2.095070 g / cm^3
# Si number density = 20.998496 Si / 1000 Ang^3
#
#
#
# Elastic Constant Matrix: (Units=GPa)
#
#
# Indices 1 2 3 4 5 6 
#
# 1 102.6438 23.3621 58.8507 0.0000 0.0000 0.0000
# 2 23.3621 61.7813 35.2659 0.0000 0.0000 0.0000
# 3 58.8507 35.2659 139.8851 0.0000 0.0000 0.0000
# 4 0.0000 0.0000 0.0000 98.6334 0.0000 0.0000
# 5 0.0000 0.0000 0.0000 0.0000 38.3002 0.0000
# 6 0.0000 0.0000 0.0000 0.0000 0.0000 -3.2386
#
#
#
# Elastic Compliance Matrix: (Units=1/GPa)
#
#
# Indices 1 2 3 4 5 6 
#
# 1 0.013070 -0.002107 -0.004968 0.000000 0.000000 0.000000
# 2 -0.002107 0.019247 -0.003966 0.000000 0.000000 0.000000
# 3 -0.004968 -0.003966 0.010238 0.000000 0.000000 0.000000
# 4 0.000000 0.000000 0.000000 0.010139 0.000000 0.000000
# 5 0.000000 0.000000 0.000000 0.000000 0.026110 0.000000
# 6 0.000000 0.000000 0.000000 0.000000 0.000000 -0.308776
#
#
# Mechanical properties :
#
#
# Convention : Reuss Voigt Hill
#
# Bulk Modulus (GPa) = 48.84070 59.91861 54.37966
# Shear Modulus (GPa) = -24.86729 39.19442 7.16357
#
# Velocity S-wave (km/s) = -3.44501 4.32503 1.84902
# Velocity P-wave (km/s) = 2.73596 7.31695 5.52373
#
# Compressibility (1/GPa) = 0.02047473
#
# Stress axis : x y z
#
# Youngs Moduli (GPa) = 76.51063 51.95734 97.67126
#
# Poissons Ratio (x) = 0.10946 0.48519
# Poissons Ratio (y) = 0.16119 0.38735
# Poissons Ratio (z) = 0.38007 0.20605
#
# Static dielectric constant tensor:
#      x y z
#    x 3.810680 0.000000 0.000000 
#    y 0.000000 4.072830 0.000000 
#    z 0.000000 0.000000 3.717290 
# 
# 
# High freq. dielectric constant tensor:
#      x y z
#    x 1.829130 0.000000 0.000000 
#    y 0.000000 1.811600 0.000000 
#    z 0.000000 0.000000 1.811310 
# 
# From -- ./inp_files/12844.got.cif
#   From: 2010.03.12/outbox.cif.g09.slc.cpg/sg24_7_cif.got.tgz:12844.got - 2010.04.14 03:06:53.
