data_PCOD8164100
_publ_section_title
;
Structure prediction by ZEFSAII (Michael W. Deem and Ramdas Pophale) SiO2 
 PCOD8164100
Probable space group: I 2 2 2
;
_chemical_formula_sum "Si O2"
_cell_formula_units_Z 48
_cell_length_a 12.508632
_cell_length_b 16.539961
_cell_length_c 10.136780
_cell_angle_alpha 90.000000
_cell_angle_beta 90.000000
_cell_angle_gamma 90.000000
_cell_volume 2097.221581
_symmetry_space_group_name_H-M "I 2 2 2"
_symmetry_group_IT_number 23
_symmetry_cell_setting 'orthorhombic'
loop_
_space_group_symop_operation_xyz
x,y,z
-x,-y,z
x,-y,-z
-x,y,-z
1/2+x,1/2+y,1/2+z
1/2-x,1/2-y,1/2+z
1/2+x,1/2-y,1/2-z
1/2-x,1/2+y,1/2-z
loop_
_atom_site_type_symbol
_atom_site_label
_atom_site_fract_x
_atom_site_fract_y
_atom_site_fract_z
Si Si1 0.336770 0.146597 0.383907
Si Si2 0.881649 0.482720 0.323459
Si Si3 0.688851 0.585859 0.516080
Si Si4 0.881889 0.815609 0.261285
Si Si5 0.615885 0.684993 0.270083
Si Si6 0.175346 0.644924 0.818364
O O1 0.389650 0.073920 0.304060
O O2 0.207283 0.151279 0.362706
O O3 0.395408 0.226344 0.331562
O O4 0.368904 0.129590 0.535053
O O5 0.811364 0.437260 0.437437
O O6 0.828122 0.566007 0.274391
O O7 0.000000 0.500000 0.378824
O O8 0.627116 0.500000 0.500000
O O9 0.637263 0.646524 0.618514
O O10 0.674656 0.628953 0.377523
O O11 0.884741 0.718305 0.255566
O O12 0.003392 0.843648 0.293140
O O13 0.703358 0.678177 0.154334
#
# Coordination Sequence:
#
# PCOD8164100 Si02
#       6
#     8   8   8   8   8   8
#     4  10  23  41  62  94 131 164 220 272 318 401
#     4  11  24  41  65  95 128 168 211 266 336 389
#     4  11  22  42  63  96 126 164 217 271 312 388
#     4  10  23  39  65  94 124 174 219 263 330 389
#     4  11  22  41  64  91 129 172 218 267 327 384
#     4  11  22  41  63  92 133 168 215 272 322 393
#
# _framework density 22.887422999999998
#
# number of rings (size 3 to 8) (size 9 to 14) (size 15 to 20)
#    0.000    1.333    3.333    2.000    0.000    5.000 
#    0.000    0.000    0.000    2.000    0.000    0.000 
#    0.000    0.000    0.000    0.000    0.000    0.000 
#
# Total GULP energy -297323.344557 kJ/mol
# GULP energy per Si atom -12388.472690 kJ/mol
# Density = 2.283533 g / cm^3
# Si number density = 22.887423 Si / 1000 Ang^3
#
#
#
# Elastic Constant Matrix: (Units=GPa)
#
#
# Indices 1 2 3 4 5 6 
#
# 1 125.1661 7.2892 -4.3304 0.0000 0.0000 0.0000
# 2 7.2892 129.9447 4.0698 0.0000 0.0000 0.0000
# 3 -4.3304 4.0698 37.2606 0.0000 0.0000 0.0000
# 4 0.0000 0.0000 0.0000 31.9739 0.0000 0.0000
# 5 0.0000 0.0000 0.0000 0.0000 4.2484 0.0000
# 6 0.0000 0.0000 0.0000 0.0000 0.0000 10.1949
#
#
#
# Elastic Compliance Matrix: (Units=1/GPa)
#
#
# Indices 1 2 3 4 5 6 
#
# 1 0.008052 -0.000483 0.000988 0.000000 0.000000 0.000000
# 2 -0.000483 0.007751 -0.000903 0.000000 0.000000 0.000000
# 3 0.000988 -0.000903 0.027051 0.000000 0.000000 0.000000
# 4 0.000000 0.000000 0.000000 0.031276 0.000000 0.000000
# 5 0.000000 0.000000 0.000000 0.000000 0.235383 0.000000
# 6 0.000000 0.000000 0.000000 0.000000 0.000000 0.098088
#
#
# Mechanical properties :
#
#
# Convention : Reuss Voigt Hill
#
# Bulk Modulus (GPa) = 23.77533 34.04765 28.91149
# Shear Modulus (GPa) = 11.83670 28.30628 20.07149
#
# Velocity S-wave (km/s) = 2.27661 3.52058 2.96457
# Velocity P-wave (km/s) = 4.16186 5.60664 4.93738
#
# Compressibility (1/GPa) = 0.04206040
#
# Stress axis : x y z
#
# Youngs Moduli (GPa) = 124.19758 129.01687 36.96657
#
# Poissons Ratio (x) = 0.06227 -0.03654
# Poissons Ratio (y) = 0.05994 0.03337
# Poissons Ratio (z) = -0.12277 0.11646
#
# Static dielectric constant tensor:
#      x y z
#    x 4.151450 0.000000 0.000000 
#    y 0.000000 4.371080 0.000000 
#    z 0.000000 0.000000 3.919500 
# 
# 
# High freq. dielectric constant tensor:
#      x y z
#    x 1.906700 0.000000 0.000000 
#    y 0.000000 1.912080 0.000000 
#    z 0.000000 0.000000 1.891670 
# 
# From -- ./inp_files/15747.got.cif
#   From: 2010.03.12/outbox.cif.g09.slc.cpg/sg23_8_cif.got.tgz:15747.got - 2010.04.14 02:50:06.
