data_PCOD8164094
_publ_section_title
;
Structure prediction by ZEFSAII (Michael W. Deem and Ramdas Pophale) SiO2 
 PCOD8164094
Probable space group: I 2 2 2
;
_chemical_formula_sum "Si O2"
_cell_formula_units_Z 60
_cell_length_a 11.203587
_cell_length_b 21.438889
_cell_length_c 11.614154
_cell_angle_alpha 90.000000
_cell_angle_beta 90.000000
_cell_angle_gamma 90.000000
_cell_volume 2789.632198
_symmetry_space_group_name_H-M "I 2 2 2"
_symmetry_group_IT_number 23
_symmetry_cell_setting 'orthorhombic'
loop_
_space_group_symop_operation_xyz
x,y,z
-x,-y,z
x,-y,-z
-x,y,-z
1/2+x,1/2+y,1/2+z
1/2-x,1/2-y,1/2+z
1/2+x,1/2-y,1/2-z
1/2-x,1/2+y,1/2-z
loop_
_atom_site_type_symbol
_atom_site_label
_atom_site_fract_x
_atom_site_fract_y
_atom_site_fract_z
Si Si1 0.709117 0.188460 0.069195
Si Si2 0.756348 0.610157 0.220465
Si Si3 0.000000 0.767375 0.500000
Si Si4 0.756170 0.866427 0.157278
Si Si5 0.380122 0.216621 0.326279
Si Si6 0.124676 0.599348 0.024679
Si Si7 0.501154 0.668517 0.766019
Si Si8 0.639912 0.979901 0.267248
O O1 0.670055 0.153735 0.188813
O O2 0.605135 0.217768 0.993510
O O3 0.790023 0.246791 0.094542
O O4 0.773769 0.141218 0.980087
O O5 0.618461 0.627112 0.242151
O O6 0.777979 0.539324 0.256045
O O7 0.797281 0.618606 0.086935
O O8 0.977831 0.815601 0.397781
O O9 0.686692 0.807297 0.211689
O O10 0.676151 0.928694 0.172502
O O11 0.887896 0.870282 0.215142
O O12 0.421882 0.158806 0.402644
O O13 0.488077 0.263792 0.296052
O O14 0.186099 0.549382 0.110199
O O15 0.000000 0.564893 0.000000
O O16 0.500000 0.000000 0.260828
#
# Coordination Sequence:
#
# PCOD8164094 Si02
#       8
#     8   8   4   8   8   8   8   8
#     4  11  25  40  67 101 142 179 227 283 347 426
#     4  11  26  43  67 102 135 187 235 283 349 405
#     4  12  22  38  64 102 146 174 220 294 342 422
#     4  11  25  45  65 100 136 186 229 280 358 404
#     4  10  23  38  62  99 136 176 214 278 342 420
#     4  11  23  38  70 101 134 178 229 285 342 406
#     4  11  25  42  68 101 144 182 228 284 352 428
#     4  11  25  47  69  97 134 178 240 294 333 410
#
# _framework density 21.508212
#
# number of rings (size 3 to 8) (size 9 to 14) (size 15 to 20)
#    0.000    1.067    4.000    1.200    9.333    2.667 
#    0.000    0.667    0.000    3.200    0.000    0.000 
#    0.000    0.000    0.000    0.000    0.000    0.000 
#
# Total GULP energy -371660.247884 kJ/mol
# GULP energy per Si atom -12388.674929 kJ/mol
# Density = 2.145926 g / cm^3
# Si number density = 21.508212 Si / 1000 Ang^3
#
#
#
# Elastic Constant Matrix: (Units=GPa)
#
#
# Indices 1 2 3 4 5 6 
#
# 1 71.7399 41.7669 26.7314 -0.0002 0.0000 0.0000
# 2 41.7669 100.9849 30.1686 0.0002 0.0001 0.0001
# 3 26.7314 30.1686 91.3383 0.0003 0.0000 0.0001
# 4 -0.0002 0.0002 0.0003 50.4060 0.0001 0.0001
# 5 0.0000 0.0001 0.0000 0.0001 22.8146 0.0001
# 6 0.0000 0.0001 0.0001 0.0001 0.0001 41.8335
#
#
#
# Elastic Compliance Matrix: (Units=1/GPa)
#
#
# Indices 1 2 3 4 5 6 
#
# 1 0.019232 -0.006959 -0.003330 0.000000 0.000000 0.000000
# 2 -0.006959 0.013505 -0.002424 0.000000 0.000000 0.000000
# 3 -0.003330 -0.002424 0.012723 0.000000 0.000000 0.000000
# 4 0.000000 0.000000 0.000000 0.019839 0.000000 0.000000
# 5 0.000000 0.000000 0.000000 0.000000 0.043832 0.000000
# 6 0.000000 0.000000 0.000000 0.000000 0.000000 0.023904
#
#
# Mechanical properties :
#
#
# Convention : Reuss Voigt Hill
#
# Bulk Modulus (GPa) = 49.91509 51.26631 50.59070
# Shear Modulus (GPa) = 30.27751 34.03722 32.15736
#
# Velocity S-wave (km/s) = 3.75603 3.98241 3.87087
# Velocity P-wave (km/s) = 6.48600 6.71070 6.59931
#
# Compressibility (1/GPa) = 0.02003402
#
# Stress axis : x y z
#
# Youngs Moduli (GPa) = 51.99733 74.04682 78.59529
#
# Poissons Ratio (x) = 0.51532 0.26171
# Poissons Ratio (y) = 0.36187 0.19050
# Poissons Ratio (z) = 0.17314 0.17948
#
# Static dielectric constant tensor:
#      x y z
#    x 3.739960 0.000000 0.000000 
#    y 0.000000 3.911040 0.000000 
#    z 0.000000 0.000000 4.043340 
# 
# 
# High freq. dielectric constant tensor:
#      x y z
#    x 1.829600 0.000000 0.000000 
#    y 0.000000 1.843760 0.000000 
#    z 0.000000 0.000000 1.855850 
# 
# From -- ./inp_files/15976.got.cif
#   From: 2010.03.12/outbox.cif.g09.slc.cpg/sg23_8_cif.got.tgz:15976.got - 2010.04.14 02:50:06.
