data_PCOD8164637
_publ_section_title
;
Structure prediction by ZEFSAII (Michael W. Deem and Ramdas Pophale) SiO2 
 PCOD8164637
Probable space group: I 21 21 21
;
_chemical_formula_sum "Si O2"
_cell_formula_units_Z 44
_cell_length_a 15.841524
_cell_length_b 15.583309
_cell_length_c 9.817395
_cell_angle_alpha 90.000000
_cell_angle_beta 90.000000
_cell_angle_gamma 90.000000
_cell_volume 2423.555151
_symmetry_space_group_name_H-M "I 21 21 21"
_symmetry_group_IT_number 24
_symmetry_cell_setting 'orthorhombic'
loop_
_space_group_symop_operation_xyz
x,y,z
-x,1/2-y,z
x,-y,1/2-z
1/2-x,y,-z
1/2+x,1/2+y,1/2+z
1/2-x,-y,1/2+z
1/2+x,1/2-y,-z
-x,1/2+y,1/2-z
loop_
_atom_site_type_symbol
_atom_site_label
_atom_site_fract_x
_atom_site_fract_y
_atom_site_fract_z
Si Si1 0.000000 0.750000 0.652865
Si Si2 0.757739 0.597171 0.216454
Si Si3 0.875970 0.352444 0.499507
Si Si4 0.481972 0.414958 0.336173
Si Si5 0.689897 0.744092 0.382028
Si Si6 0.825874 0.173108 0.598392
O O1 0.004542 0.834672 0.742490
O O2 0.090111 0.751283 0.571263
O O3 0.777594 0.500000 0.250000
O O4 0.688987 0.601019 0.099106
O O5 0.722935 0.647669 0.348976
O O6 0.845165 0.637810 0.156825
O O7 0.962634 0.404227 0.526403
O O8 0.880698 0.251303 0.535321
O O9 0.501048 0.500000 0.250000
O O10 0.384847 0.410685 0.385124
O O11 0.750000 0.781921 0.500000
O O12 0.707266 0.800180 0.247161
O O13 0.750000 0.147541 0.500000
#
# Coordination Sequence:
#
# PCOD8164637 Si02
#       6
#     4   8   8   8   8   8
#     4  10  20  36  52  76 114 144 190 234 286 358
#     4  10  19  28  48  83 113 144 176 233 293 358
#     4  10  17  33  53  80 113 146 189 232 290 351
#     4  11  20  33  60  87 107 149 197 246 285 347
#     4  10  20  33  53  79 110 151 188 240 297 349
#     4  10  18  39  58  80 109 152 204 238 283 352
#
# _framework density 18.155146999999999
#
# number of rings (size 3 to 8) (size 9 to 14) (size 15 to 20)
#    0.000    1.818    9.091    0.545    2.545    0.000 
#    0.000    5.455    0.000    1.091    0.000    0.000 
#    0.000    0.000    0.000    0.000    0.000    0.000 
#
# Total GULP energy -272545.709086 kJ/mol
# GULP energy per Si atom -12388.441322 kJ/mol
# Density = 1.811382 g / cm^3
# Si number density = 18.155147 Si / 1000 Ang^3
#
#
#
# Elastic Constant Matrix: (Units=GPa)
#
#
# Indices 1 2 3 4 5 6 
#
# 1 127.8830 18.1422 44.7873 0.0000 0.0000 0.0000
# 2 18.1422 63.4976 8.1456 0.0000 0.0000 0.0000
# 3 44.7873 8.1456 48.2172 0.0000 0.0000 0.0000
# 4 0.0000 0.0000 0.0000 9.1081 0.0000 0.0000
# 5 0.0000 0.0000 0.0000 0.0000 34.1576 0.0000
# 6 0.0000 0.0000 0.0000 0.0000 0.0000 23.9541
#
#
#
# Elastic Compliance Matrix: (Units=1/GPa)
#
#
# Indices 1 2 3 4 5 6 
#
# 1 0.011837 -0.002015 -0.010655 0.000000 0.000000 0.000000
# 2 -0.002015 0.016441 -0.000906 0.000000 0.000000 0.000000
# 3 -0.010655 -0.000906 0.030789 0.000000 0.000000 0.000000
# 4 0.000000 0.000000 0.000000 0.109792 0.000000 0.000000
# 5 0.000000 0.000000 0.000000 0.000000 0.029276 0.000000
# 6 0.000000 0.000000 0.000000 0.000000 0.000000 0.041747
#
#
# Mechanical properties :
#
#
# Convention : Reuss Voigt Hill
#
# Bulk Modulus (GPa) = 31.33217 42.41647 36.87432
# Shear Modulus (GPa) = 18.00696 24.67881 21.34288
#
# Velocity S-wave (km/s) = 3.15276 3.69091 3.43240
# Velocity P-wave (km/s) = 5.52709 6.44808 6.00527
#
# Compressibility (1/GPa) = 0.03191608
#
# Stress axis : x y z
#
# Youngs Moduli (GPa) = 84.48105 60.82517 32.47902
#
# Poissons Ratio (x) = 0.12258 0.34605
# Poissons Ratio (y) = 0.17025 0.02941
# Poissons Ratio (z) = 0.90011 0.05508
#
# Static dielectric constant tensor:
#      x y z
#    x 3.769730 0.000000 0.000000 
#    y 0.000000 3.220970 0.000000 
#    z 0.000000 0.000000 3.310730 
# 
# 
# High freq. dielectric constant tensor:
#      x y z
#    x 1.706330 0.000000 0.000000 
#    y 0.000000 1.681220 0.000000 
#    z 0.000000 0.000000 1.671010 
# 
# From -- ./inp_files/14083.got.cif
#   From: 2010.03.12/outbox.cif.g09.slc.cpg/sg24_8_cif.got.tgz:14083.got - 2010.04.14 03:06:53.
