data_PCOD8164069
_publ_section_title
;
Structure prediction by ZEFSAII (Michael W. Deem and Ramdas Pophale) SiO2 
 PCOD8164069
Probable space group: I 2 2 2
;
_chemical_formula_sum "Si O2"
_cell_formula_units_Z 60
_cell_length_a 11.030532
_cell_length_b 11.889079
_cell_length_c 22.409787
_cell_angle_alpha 90.000000
_cell_angle_beta 90.000000
_cell_angle_gamma 90.000000
_cell_volume 2938.883702
_symmetry_space_group_name_H-M "I 2 2 2"
_symmetry_group_IT_number 23
_symmetry_cell_setting 'orthorhombic'
loop_
_space_group_symop_operation_xyz
x,y,z
-x,-y,z
x,-y,-z
-x,y,-z
1/2+x,1/2+y,1/2+z
1/2-x,1/2-y,1/2+z
1/2+x,1/2-y,1/2-z
1/2-x,1/2+y,1/2-z
loop_
_atom_site_type_symbol
_atom_site_label
_atom_site_fract_x
_atom_site_fract_y
_atom_site_fract_z
Si Si1 0.635503 0.049938 0.384749
Si Si2 0.863853 0.243798 0.512601
Si Si3 0.788645 0.701953 0.353942
Si Si4 0.765298 0.204990 0.897405
Si Si5 0.037282 0.622502 0.323379
Si Si6 0.282021 0.500000 0.000000
Si Si7 0.203030 0.407421 0.780916
Si Si8 0.862152 0.980718 0.174816
O O1 0.653862 0.184090 0.385365
O O2 0.698724 0.995131 0.441791
O O3 0.500000 0.000000 0.384716
O O4 0.700917 0.015454 0.323440
O O5 0.812674 0.278603 0.576433
O O6 0.771481 0.301168 0.466391
O O7 0.866504 0.109726 0.501731
O O8 0.000000 0.288527 0.500000
O O9 0.714431 0.801365 0.324202
O O10 0.713499 0.589898 0.342274
O O11 0.918423 0.698717 0.321667
O O12 0.641577 0.190278 0.858918
O O13 0.853483 0.102192 0.881813
O O14 0.077627 0.604696 0.255134
O O15 0.000000 0.500000 0.351778
O O16 0.311271 0.421463 0.734074
O O17 0.000000 0.000000 0.189542
#
# Coordination Sequence:
#
# PCOD8164069 Si02
#       8
#     8   8   8   8   8   4   8   8
#     4  11  24  41  68  97 138 183 230 283 345 414
#     4  11  22  42  72 102 137 173 226 297 349 418
#     4  12  25  44  70 103 137 182 232 287 361 413
#     4  10  24  43  71 102 133 179 229 287 353 419
#     4  11  22  44  67  98 138 176 237 292 343 418
#     4  10  22  44  58 102 138 180 230 270 354 424
#     4  11  26  40  68  98 133 183 228 288 341 421
#     4  11  28  47  64  99 143 183 232 290 346 427
#
# _framework density 20.415915999999999
#
# number of rings (size 3 to 8) (size 9 to 14) (size 15 to 20)
#    0.000    1.067    5.333    0.800    7.467    0.533 
#    0.000    2.667    0.000    0.000    0.000    0.000 
#    0.000    0.000    0.000    0.000    0.000    0.000 
#
# Total GULP energy -371920.098548 kJ/mol
# GULP energy per Si atom -12397.336618 kJ/mol
# Density = 2.036945 g / cm^3
# Si number density = 20.415916 Si / 1000 Ang^3
#
#
#
# Elastic Constant Matrix: (Units=GPa)
#
#
# Indices 1 2 3 4 5 6 
#
# 1 107.6284 42.6272 43.3878 0.0000 0.0000 0.0000
# 2 42.6272 88.9112 53.0343 0.0000 0.0000 0.0000
# 3 43.3878 53.0343 150.1835 0.0000 0.0000 0.0000
# 4 0.0000 0.0000 0.0000 24.0865 0.0000 0.0000
# 5 0.0000 0.0000 0.0000 0.0000 35.3136 0.0000
# 6 0.0000 0.0000 0.0000 0.0000 0.0000 38.2478
#
#
#
# Elastic Compliance Matrix: (Units=1/GPa)
#
#
# Indices 1 2 3 4 5 6 
#
# 1 0.011839 -0.004606 -0.001794 0.000000 0.000000 0.000000
# 2 -0.004606 0.016040 -0.004334 0.000000 0.000000 0.000000
# 3 -0.001794 -0.004334 0.008707 0.000000 0.000000 0.000000
# 4 0.000000 0.000000 0.000000 0.041517 0.000000 0.000000
# 5 0.000000 0.000000 0.000000 0.000000 0.028318 0.000000
# 6 0.000000 0.000000 0.000000 0.000000 0.000000 0.026145
#
#
# Mechanical properties :
#
#
# Convention : Reuss Voigt Hill
#
# Bulk Modulus (GPa) = 66.14000 69.42466 67.78233
# Shear Modulus (GPa) = 31.43221 33.37448 32.40335
#
# Velocity S-wave (km/s) = 3.92802 4.04756 3.98824
# Velocity P-wave (km/s) = 7.28279 7.47815 7.38112
#
# Compressibility (1/GPa) = 0.01511944
#
# Stress axis : x y z
#
# Youngs Moduli (GPa) = 84.47015 62.34254 114.84923
#
# Poissons Ratio (x) = 0.28714 0.20600
# Poissons Ratio (y) = 0.38906 0.49772
# Poissons Ratio (z) = 0.15151 0.27017
#
# Static dielectric constant tensor:
#      x y z
#    x 3.743430 0.000000 0.000000 
#    y 0.000000 3.785220 0.000000 
#    z 0.000000 0.000000 3.872010 
# 
# 
# High freq. dielectric constant tensor:
#      x y z
#    x 1.799160 0.000000 0.000000 
#    y 0.000000 1.801430 0.000000 
#    z 0.000000 0.000000 1.808420 
# 
# From -- ./inp_files/15981.got.cif
#   From: 2010.03.12/outbox.cif.g09.slc.cpg/sg23_8_cif.got.tgz:15981.got - 2010.04.14 02:50:06.
