data_PCOD8164658
_publ_section_title
;
Structure prediction by ZEFSAII (Michael W. Deem and Ramdas Pophale) SiO2 
 PCOD8164658
Probable space group: I 21 21 21
;
_chemical_formula_sum "Si O2"
_cell_formula_units_Z 64
_cell_length_a 7.686193
_cell_length_b 27.799149
_cell_length_c 21.120338
_cell_angle_alpha 90.000000
_cell_angle_beta 90.000000
_cell_angle_gamma 90.000000
_cell_volume 4512.774689
_symmetry_space_group_name_H-M "I 21 21 21"
_symmetry_group_IT_number 24
_symmetry_cell_setting 'orthorhombic'
loop_
_space_group_symop_operation_xyz
x,y,z
-x,1/2-y,z
x,-y,1/2-z
1/2-x,y,-z
1/2+x,1/2+y,1/2+z
1/2-x,-y,1/2+z
1/2+x,1/2-y,-z
-x,1/2+y,1/2-z
loop_
_atom_site_type_symbol
_atom_site_label
_atom_site_fract_x
_atom_site_fract_y
_atom_site_fract_z
Si Si1 0.296551 0.695358 0.570106
Si Si2 0.806978 0.110950 0.845716
Si Si3 0.799929 0.481512 0.927305
Si Si4 0.000000 0.076801 0.230636
Si Si5 0.703449 0.304642 0.929894
Si Si6 0.193022 0.110950 0.845716
Si Si7 0.200071 0.481512 0.927305
Si Si8 0.000000 0.519595 0.150199
O O1 0.250000 0.677021 0.500000
O O2 0.200531 0.662916 0.621662
O O3 0.500000 0.690768 0.581639
O O4 0.230496 0.750000 0.578952
O O5 0.671444 0.107117 0.787952
O O6 1.000000 0.103266 0.817546
O O7 0.764506 0.071173 0.898838
O O8 0.764506 0.428827 0.898838
O O9 0.674329 0.519919 0.892646
O O10 0.000000 0.497699 0.917959
O O11 0.750000 0.478958 0.000000
O O12 1.000000 0.067336 0.306101
O O13 0.171445 0.107117 0.212048
O O14 1.000000 0.026605 0.194618
O O15 0.799468 0.337084 0.878338
O O16 0.750000 0.322979 0.000000
O O17 0.325671 0.519919 0.892646
O O18 0.250000 0.478958 0.000000
#
# Coordination Sequence:
#
# PCOD8164658 Si02
#       8
#     8   8   8   8   8   8   8   8
#     4  10  19  29  41  59  83 109 140 179 218 251
#     4  10  19  29  44  60  79 109 143 176 209 249
#     4  10  18  27  42  63  82 105 138 173 213 252
#     4   9  18  32  43  58  80 106 141 173 212 247
#     4  10  19  29  41  59  83 109 140 179 218 251
#     4  10  19  29  44  60  79 109 143 176 209 249
#     4  10  18  27  42  63  82 105 138 173 213 252
#     4   9  18  30  44  58  82 107 130 179 214 245
#
# _framework density 14.181962
#
# number of rings (size 3 to 8) (size 9 to 14) (size 15 to 20)
#    0.000    2.250    2.500    1.500    0.000    4.500 
#    0.000    5.000    0.000    0.000    0.000    0.000 
#    0.000    0.000    0.000    0.000    0.000    5.000 
#
# Total GULP energy -396781.401123 kJ/mol
# GULP energy per Si atom -12399.418785 kJ/mol
# Density = 1.414968 g / cm^3
# Si number density = 14.181962 Si / 1000 Ang^3
#
#
#
# Elastic Constant Matrix: (Units=GPa)
#
#
# Indices 1 2 3 4 5 6 
#
# 1 111.1095 29.1513 44.5107 0.0000 0.0000 0.0000
# 2 29.1513 46.4752 34.7460 0.0000 0.0000 0.0000
# 3 44.5107 34.7460 63.3190 -0.0001 0.0000 0.0000
# 4 0.0000 0.0000 -0.0001 22.2989 0.0000 0.0000
# 5 0.0000 0.0000 0.0000 0.0000 20.3125 0.0000
# 6 0.0000 0.0000 0.0000 0.0000 0.0000 12.9581
#
#
#
# Elastic Compliance Matrix: (Units=1/GPa)
#
#
# Indices 1 2 3 4 5 6 
#
# 1 0.012657 -0.002183 -0.007700 0.000000 0.000000 0.000000
# 2 -0.002183 0.036861 -0.018693 0.000000 0.000000 0.000000
# 3 -0.007700 -0.018693 0.031464 0.000000 0.000000 0.000000
# 4 0.000000 0.000000 0.000000 0.044845 0.000000 0.000000
# 5 0.000000 0.000000 0.000000 0.000000 0.049231 0.000000
# 6 0.000000 0.000000 0.000000 0.000000 0.000000 0.077172
#
#
# Mechanical properties :
#
#
# Convention : Reuss Voigt Hill
#
# Bulk Modulus (GPa) = 41.96244 48.63553 45.29898
# Shear Modulus (GPa) = 15.75670 18.61362 17.18516
#
# Velocity S-wave (km/s) = 3.33684 3.62675 3.48481
# Velocity P-wave (km/s) = 6.67074 7.20459 6.94280
#
# Compressibility (1/GPa) = 0.02383084
#
# Stress axis : x y z
#
# Youngs Moduli (GPa) = 79.00532 27.12864 31.78270
#
# Poissons Ratio (x) = 0.05921 0.24472
# Poissons Ratio (y) = 0.17244 0.59412
# Poissons Ratio (z) = 0.60834 0.50712
#
# Static dielectric constant tensor:
#      x y z
#    x 3.058610 0.000000 0.000000 
#    y 0.000000 2.583470 0.000000 
#    z 0.000000 0.000000 2.685640 
# 
# 
# High freq. dielectric constant tensor:
#      x y z
#    x 1.565520 0.000000 0.000000 
#    y 0.000000 1.499090 0.000000 
#    z 0.000000 0.000000 1.511330 
# 
# From -- ./inp_files/33038.got.cif
#   From: 2010.03.12/outbox.cif.g09.slc.cpg/sg24_17_cif.got.tgz:33038.got - 2010.04.14 03:06:53.
