data_PCOD8164923
_publ_section_title
;
Structure prediction by ZEFSAII (Michael W. Deem and Ramdas Pophale) SiO2 
 PCOD8164923
Probable space group: I 21 21 21
;
_chemical_formula_sum "Si O2"
_cell_formula_units_Z 40
_cell_length_a 15.080449
_cell_length_b 21.576887
_cell_length_c 5.901760
_cell_angle_alpha 90.000000
_cell_angle_beta 90.000000
_cell_angle_gamma 90.000000
_cell_volume 1920.368634
_symmetry_space_group_name_H-M "I 21 21 21"
_symmetry_group_IT_number 24
_symmetry_cell_setting 'orthorhombic'
loop_
_space_group_symop_operation_xyz
x,y,z
-x,1/2-y,z
x,-y,1/2-z
1/2-x,y,-z
1/2+x,1/2+y,1/2+z
1/2-x,-y,1/2+z
1/2+x,1/2-y,-z
-x,1/2+y,1/2-z
loop_
_atom_site_type_symbol
_atom_site_label
_atom_site_fract_x
_atom_site_fract_y
_atom_site_fract_z
Si Si1 0.536073 0.648051 0.893520
Si Si2 0.938595 0.940246 0.410074
Si Si3 0.750000 0.966960 0.500000
Si Si4 0.000000 0.750000 0.772563
Si Si5 0.598833 0.433612 0.232109
Si Si6 0.850171 0.311057 0.008974
O O1 0.464035 0.622897 0.718123
O O2 0.612673 0.687073 0.765067
O O3 0.483125 0.689859 0.073101
O O4 0.584231 0.590571 0.013982
O O5 0.840234 0.927480 0.506182
O O6 0.004428 0.949312 0.618980
O O7 0.943025 0.000000 0.250000
O O8 0.748879 0.000000 0.750000
O O9 0.912141 0.737024 0.626489
O O10 0.650884 0.500000 0.250000
O O11 0.650784 0.381171 0.091158
O O12 0.750000 0.285549 0.000000
#
# Coordination Sequence:
#
# PCOD8164923 Si02
#       6
#     8   8   4   4   8   8
#     4  10  21  39  69  87 124 172 217 275 333 414
#     4  10  19  34  61  88 131 172 215 269 337 403
#     4  10  22  34  58  92 136 180 218 274 334 406
#     4  10  22  42  72  88 126 174 232 270 340 406
#     4  10  19  35  60  95 128 171 211 261 343 412
#     4  10  23  42  66  97 128 172 219 283 343 403
#
# _framework density 20.829335
#
# number of rings (size 3 to 8) (size 9 to 14) (size 15 to 20)
#    0.000    2.000    2.000    1.200    2.800    3.200 
#    3.600    0.000   52.800    0.000    0.000    0.000 
#    0.000    0.000    0.000    0.000    0.000    0.000 
#
# Total GULP energy -247828.874813 kJ/mol
# GULP energy per Si atom -12391.443741 kJ/mol
# Density = 2.078193 g / cm^3
# Si number density = 20.829335 Si / 1000 Ang^3
#
#
#
# Elastic Constant Matrix: (Units=GPa)
#
#
# Indices 1 2 3 4 5 6 
#
# 1 141.4563 27.9460 43.8489 0.0000 0.0000 0.0000
# 2 27.9460 88.4009 31.0860 0.0000 0.0000 0.0000
# 3 43.8489 31.0860 124.4465 0.0000 0.0000 0.0000
# 4 0.0000 0.0000 0.0000 37.3315 0.0000 0.0000
# 5 0.0000 0.0000 0.0000 0.0000 15.5524 0.0000
# 6 0.0000 0.0000 0.0000 0.0000 0.0000 24.1187
#
#
#
# Elastic Compliance Matrix: (Units=1/GPa)
#
#
# Indices 1 2 3 4 5 6 
#
# 1 0.008168 -0.001721 -0.002448 0.000000 0.000000 0.000000
# 2 -0.001721 0.012764 -0.002582 0.000000 0.000000 0.000000
# 3 -0.002448 -0.002582 0.009543 0.000000 0.000000 0.000000
# 4 0.000000 0.000000 0.000000 0.026787 0.000000 0.000000
# 5 0.000000 0.000000 0.000000 0.000000 0.064299 0.000000
# 6 0.000000 0.000000 0.000000 0.000000 0.000000 0.041462
#
#
# Mechanical properties :
#
#
# Convention : Reuss Voigt Hill
#
# Bulk Modulus (GPa) = 58.91761 62.22949 60.57355
# Shear Modulus (GPa) = 27.44486 32.16203 29.80345
#
# Velocity S-wave (km/s) = 3.63382 3.93373 3.78675
# Velocity P-wave (km/s) = 6.77890 7.11148 6.94718
#
# Compressibility (1/GPa) = 0.01697285
#
# Stress axis : x y z
#
# Youngs Moduli (GPa) = 122.42507 78.34415 104.78751
#
# Poissons Ratio (x) = 0.13486 0.25653
# Poissons Ratio (y) = 0.21074 0.27055
# Poissons Ratio (z) = 0.29971 0.20228
#
# Static dielectric constant tensor:
#      x y z
#    x 3.650410 0.000000 0.000000 
#    y 0.000000 3.719610 0.000000 
#    z 0.000000 0.000000 4.095240 
# 
# 
# High freq. dielectric constant tensor:
#      x y z
#    x 1.790860 0.000000 0.000000 
#    y 0.000000 1.801480 0.000000 
#    z 0.000000 0.000000 1.836340 
# 
# From -- ./inp_files/3535.got.cif
#   From: 2010.03.12/outbox.cif.g09.slc.cpg/sg24_2_cif.got.tgz:3535.got - 2010.04.14 03:06:53.
