data_PCOD8164175
_publ_section_title
;
Structure prediction by ZEFSAII (Michael W. Deem and Ramdas Pophale) SiO2 
 PCOD8164175
Probable space group: I 2 2 2
;
_chemical_formula_sum "Si O2"
_cell_formula_units_Z 38
_cell_length_a 27.747422
_cell_length_b 6.297882
_cell_length_c 11.223013
_cell_angle_alpha 90.000000
_cell_angle_beta 90.000000
_cell_angle_gamma 90.000000
_cell_volume 1961.221405
_symmetry_space_group_name_H-M "I 2 2 2"
_symmetry_group_IT_number 23
_symmetry_cell_setting 'orthorhombic'
loop_
_space_group_symop_operation_xyz
x,y,z
-x,-y,z
x,-y,-z
-x,y,-z
1/2+x,1/2+y,1/2+z
1/2-x,1/2-y,1/2+z
1/2+x,1/2-y,1/2-z
1/2-x,1/2+y,1/2-z
loop_
_atom_site_type_symbol
_atom_site_label
_atom_site_fract_x
_atom_site_fract_y
_atom_site_fract_z
Si Si1 0.207896 0.493087 0.362302
Si Si2 0.340779 0.000000 0.500000
Si Si3 0.000000 0.000000 0.500000
Si Si4 0.547295 0.124450 0.882778
Si Si5 0.134191 0.252363 0.782323
Si Si6 0.811087 0.847830 0.181601
O O1 0.193201 0.500000 0.500000
O O2 0.181599 0.682922 0.292060
O O3 0.191125 0.267648 0.309139
O O4 0.264999 0.507105 0.343516
O O5 0.372905 0.130068 0.407711
O O6 0.310277 0.173571 0.575086
O O7 0.966269 0.861750 0.583615
O O8 0.587720 0.160651 0.785468
O O9 0.500000 0.000000 0.832400
O O10 0.566912 0.000000 0.000000
O O11 0.141331 0.000434 0.810302
#
# Coordination Sequence:
#
# PCOD8164175 Si02
#       6
#     8   4   2   8   8   8
#     4  11  23  36  57  86 120 158 208 250 299 360
#     4  10  24  40  60  80 124 164 211 251 308 358
#     4   8  18  36  62  90 126 152 188 264 320 356
#     4   9  20  39  63  93 125 157 200 255 311 367
#     4  11  22  39  61  87 120 165 203 252 306 367
#     4  11  23  39  57  87 120 166 205 256 303 356
#
# _framework density 19.375682000000001
#
# number of rings (size 3 to 8) (size 9 to 14) (size 15 to 20)
#    0.000    1.895    2.105    2.526    2.947    9.263 
#    0.000    0.526    0.000    0.000    0.000    0.000 
#    0.000    0.000    0.000    0.000    0.000    0.000 
#
# Total GULP energy -235449.434615 kJ/mol
# GULP energy per Si atom -12392.075506 kJ/mol
# Density = 1.933158 g / cm^3
# Si number density = 19.375682 Si / 1000 Ang^3
#
#
#
# Elastic Constant Matrix: (Units=GPa)
#
#
# Indices 1 2 3 4 5 6 
#
# 1 93.4532 47.8367 48.7991 0.0000 0.0000 0.0000
# 2 47.8367 140.2134 64.6678 0.0000 0.0000 0.0000
# 3 48.7991 64.6678 153.9609 0.0000 0.0000 0.0000
# 4 0.0000 0.0000 0.0000 25.6924 0.0000 0.0000
# 5 0.0000 0.0000 0.0000 0.0000 28.2968 0.0000
# 6 0.0000 0.0000 0.0000 0.0000 0.0000 15.3793
#
#
#
# Elastic Compliance Matrix: (Units=1/GPa)
#
#
# Indices 1 2 3 4 5 6 
#
# 1 0.014011 -0.003388 -0.003018 0.000000 0.000000 0.000000
# 2 -0.003388 0.009665 -0.002986 0.000000 0.000000 0.000000
# 3 -0.003018 -0.002986 0.008706 0.000000 0.000000 0.000000
# 4 0.000000 0.000000 0.000000 0.038922 0.000000 0.000000
# 5 0.000000 0.000000 0.000000 0.000000 0.035340 0.000000
# 6 0.000000 0.000000 0.000000 0.000000 0.000000 0.065023
#
#
# Mechanical properties :
#
#
# Convention : Reuss Voigt Hill
#
# Bulk Modulus (GPa) = 73.53877 78.91496 76.22687
# Shear Modulus (GPa) = 25.64349 28.96196 27.30272
#
# Velocity S-wave (km/s) = 3.64192 3.87040 3.75790
# Velocity P-wave (km/s) = 7.46468 7.79684 7.63256
#
# Compressibility (1/GPa) = 0.01359827
#
# Stress axis : x y z
#
# Youngs Moduli (GPa) = 71.37428 103.46655 114.86786
#
# Poissons Ratio (x) = 0.35057 0.34663
# Poissons Ratio (y) = 0.24184 0.34295
# Poissons Ratio (z) = 0.21538 0.30891
#
# Static dielectric constant tensor:
#      x y z
#    x 3.233070 0.000000 0.000000 
#    y 0.000000 3.782880 0.000000 
#    z 0.000000 0.000000 3.642400 
# 
# 
# High freq. dielectric constant tensor:
#      x y z
#    x 1.721340 0.000000 0.000000 
#    y 0.000000 1.772750 0.000000 
#    z 0.000000 0.000000 1.757990 
# 
# From -- ./inp_files/1727.got.cif
#   From: 2010.03.12/outbox.cif.g09.slc.cpg/sg23_1_cif.got.tgz:1727.got - 2010.04.14 02:50:06.
