data_PCOD8164104
_publ_section_title
;
Structure prediction by ZEFSAII (Michael W. Deem and Ramdas Pophale) SiO2 
 PCOD8164104
Probable space group: I 2 2 2
;
_chemical_formula_sum "Si O2"
_cell_formula_units_Z 56
_cell_length_a 12.379958
_cell_length_b 16.581111
_cell_length_c 13.676095
_cell_angle_alpha 90.000000
_cell_angle_beta 90.000000
_cell_angle_gamma 90.000000
_cell_volume 2807.339309
_symmetry_space_group_name_H-M "I 2 2 2"
_symmetry_group_IT_number 23
_symmetry_cell_setting 'orthorhombic'
loop_
_space_group_symop_operation_xyz
x,y,z
-x,-y,z
x,-y,-z
-x,y,-z
1/2+x,1/2+y,1/2+z
1/2-x,1/2-y,1/2+z
1/2+x,1/2-y,1/2-z
1/2-x,1/2+y,1/2-z
loop_
_atom_site_type_symbol
_atom_site_label
_atom_site_fract_x
_atom_site_fract_y
_atom_site_fract_z
Si Si1 0.790564 0.236286 0.419629
Si Si2 0.350021 0.140350 0.720552
Si Si3 0.620711 0.526763 0.398810
Si Si4 0.100256 0.676271 0.244628
Si Si5 0.746659 0.468291 0.216644
Si Si6 0.875911 0.917753 0.467446
Si Si7 0.795597 0.193758 0.110429
O O1 0.690157 0.206963 0.355854
O O2 0.880770 0.276294 0.347770
O O3 0.838073 0.161723 0.479107
O O4 0.746088 0.297759 0.499738
O O5 0.477752 0.150128 0.726661
O O6 0.306641 0.164270 0.826955
O O7 0.304690 0.052708 0.684155
O O8 0.500000 0.500000 0.396594
O O9 0.677488 0.500000 0.500000
O O10 0.681016 0.482652 0.313236
O O11 0.617033 0.622945 0.387291
O O12 0.159403 0.591756 0.245379
O O13 0.145092 0.727795 0.153316
O O14 0.659343 0.421648 0.146345
O O15 0.000000 0.925504 0.500000
O O16 0.815445 0.000000 0.500000
#
# Coordination Sequence:
#
# PCOD8164104 Si02
#       7
#     8   8   8   8   8   8   8
#     4  11  23  42  63  95 135 166 218 281 331 402
#     4  10  24  41  63  92 130 173 218 268 333 408
#     4  10  23  40  64  91 123 169 215 267 331 397
#     4  11  24  39  67  93 127 175 212 278 335 395
#     4  11  22  44  63  92 134 173 224 270 328 411
#     4  11  24  39  66  98 129 174 221 270 336 397
#     4  10  23  41  60  94 127 161 220 271 331 397
#
# _framework density 19.947714000000001
#
# number of rings (size 3 to 8) (size 9 to 14) (size 15 to 20)
#    0.000    1.429    2.857    1.286    4.000    5.143 
#    0.000    0.000    0.000    2.571    0.000    0.000 
#    0.000    0.000    0.000    0.000    0.000    0.000 
#
# Total GULP energy -346903.818171 kJ/mol
# GULP energy per Si atom -12389.422078 kJ/mol
# Density = 1.990231 g / cm^3
# Si number density = 19.947714 Si / 1000 Ang^3
#
#
#
# Elastic Constant Matrix: (Units=GPa)
#
#
# Indices 1 2 3 4 5 6 
#
# 1 107.0207 47.8605 58.5193 0.0000 0.0000 0.0000
# 2 47.8605 83.4027 39.9181 -0.0004 -0.0001 -0.0014
# 3 58.5193 39.9181 118.8933 -0.0003 -0.0001 -0.0018
# 4 0.0000 -0.0004 -0.0003 39.6304 -0.0001 -0.0010
# 5 0.0000 -0.0001 -0.0001 -0.0001 13.8981 0.0000
# 6 0.0000 -0.0014 -0.0018 -0.0010 0.0000 -36.4350
#
#
#
# Elastic Compliance Matrix: (Units=1/GPa)
#
#
# Indices 1 2 3 4 5 6 
#
# 1 0.014960 -0.006029 -0.005339 0.000000 0.000000 0.000001
# 2 -0.006029 0.016716 -0.002645 0.000000 0.000000 0.000000
# 3 -0.005339 -0.002645 0.011927 0.000000 0.000000 -0.000001
# 4 0.000000 0.000000 0.000000 0.025233 0.000000 -0.000001
# 5 0.000000 0.000000 0.000000 0.000000 0.071952 0.000000
# 6 0.000001 0.000000 -0.000001 -0.000001 0.000000 -0.027446
#
#
# Mechanical properties :
#
#
# Convention : Reuss Voigt Hill
#
# Bulk Modulus (GPa) = 64.19953 66.87917 65.53935
# Shear Modulus (GPa) = 34.11600 14.28662 24.20131
#
# Velocity S-wave (km/s) = 4.14003 2.67910 3.48693
# Velocity P-wave (km/s) = 7.42340 6.57040 7.00989
#
# Compressibility (1/GPa) = 0.01557644
#
# Stress axis : x y z
#
# Youngs Moduli (GPa) = 66.84662 59.82401 83.84628
#
# Poissons Ratio (x) = 0.36070 0.44764
# Poissons Ratio (y) = 0.40304 0.22174
# Poissons Ratio (z) = 0.35688 0.15821
#
# Static dielectric constant tensor:
#      x y z
#    x 3.020590 0.000000 0.000000 
#    y 0.000000 3.943560 0.000000 
#    z 0.000000 0.000000 4.511800 
# 
# 
# High freq. dielectric constant tensor:
#      x y z
#    x 1.766880 0.000000 0.000000 
#    y 0.000000 1.798770 0.000000 
#    z 0.000000 0.000000 1.788940 
# 
# From -- ./inp_files/20889.got.cif
#   From: 2010.03.12/outbox.cif.g09.slc.cpg/sg23_11_cif.got.tgz:20889.got - 2010.04.14 02:50:06.
