data_PCOD8164021
_publ_section_title
;
Structure prediction by ZEFSAII (Michael W. Deem and Ramdas Pophale) SiO2 
 PCOD8164021
Probable space group: I 2 2 2
;
_chemical_formula_sum "Si O2"
_cell_formula_units_Z 56
_cell_length_a 5.191749
_cell_length_b 16.529709
_cell_length_c 29.859831
_cell_angle_alpha 90.000000
_cell_angle_beta 90.000000
_cell_angle_gamma 90.000000
_cell_volume 2562.513968
_symmetry_space_group_name_H-M "I 2 2 2"
_symmetry_group_IT_number 23
_symmetry_cell_setting 'orthorhombic'
loop_
_space_group_symop_operation_xyz
x,y,z
-x,-y,z
x,-y,-z
-x,y,-z
1/2+x,1/2+y,1/2+z
1/2-x,1/2-y,1/2+z
1/2+x,1/2-y,1/2-z
1/2-x,1/2+y,1/2-z
loop_
_atom_site_type_symbol
_atom_site_label
_atom_site_fract_x
_atom_site_fract_y
_atom_site_fract_z
Si Si1 0.923944 0.909819 0.112844
Si Si2 0.570784 0.686503 0.074626
Si Si3 0.299100 0.786106 0.146248
Si Si4 0.770083 0.661008 0.527003
Si Si5 0.723588 0.210998 0.732190
Si Si6 0.393484 0.912107 0.799487
Si Si7 0.952946 0.593759 0.948121
O O1 0.724042 0.884803 0.074623
O O2 0.828819 0.913279 0.163570
O O3 0.128893 0.835650 0.110288
O O4 0.000000 0.000000 0.098808
O O5 0.519106 0.738892 0.119265
O O6 0.637469 0.746515 0.033819
O O7 0.331992 0.626276 0.064146
O O8 0.833260 0.637001 0.082846
O O9 0.159670 0.719708 0.178846
O O10 0.389178 0.854027 0.181092
O O11 0.500000 0.656258 0.500000
O O12 0.000000 0.617109 0.500000
O O13 0.519976 0.264171 0.759932
O O14 0.704005 0.119390 0.751095
O O15 0.500000 0.000000 0.790878
O O16 0.000000 0.500000 0.938035
O O17 0.000000 0.612463 0.000000
#
# Coordination Sequence:
#
# PCOD8164021 Si02
#       7
#     8   8   8   8   8   8   8
#     4  12  24  42  64  97 134 186 234 291 340 404
#     4  12  23  40  68  96 131 174 223 275 336 408
#     4  11  23  40  66 100 136 175 225 277 332 410
#     4  12  26  44  65  96 137 183 236 289 343 401
#     4  10  22  40  66  97 131 168 216 273 331 392
#     4  11  22  41  68  99 135 176 231 276 333 404
#     4  11  24  42  66  95 128 169 222 280 340 403
#
# _framework density 21.853539999999999
#
# number of rings (size 3 to 8) (size 9 to 14) (size 15 to 20)
#    0.000    0.714    4.286    4.714    0.000    1.429 
#    0.000    2.857    0.000    8.571    0.000    0.000 
#    0.000    0.000    0.000    0.000    0.000    0.000 
#
# Total GULP energy -346917.404560 kJ/mol
# GULP energy per Si atom -12389.907306 kJ/mol
# Density = 2.180380 g / cm^3
# Si number density = 21.853540 Si / 1000 Ang^3
#
#
#
# Elastic Constant Matrix: (Units=GPa)
#
#
# Indices 1 2 3 4 5 6 
#
# 1 114.8184 42.7608 31.6324 0.0000 0.0000 0.0000
# 2 42.7608 133.2474 62.2852 0.0000 0.0000 0.0000
# 3 31.6324 62.2852 90.9098 0.0000 0.0000 0.0000
# 4 0.0000 0.0000 0.0000 28.3474 0.0000 0.0000
# 5 0.0000 0.0000 0.0000 0.0000 37.0151 0.0000
# 6 0.0000 0.0000 0.0000 0.0000 0.0000 32.6081
#
#
#
# Elastic Compliance Matrix: (Units=1/GPa)
#
#
# Indices 1 2 3 4 5 6 
#
# 1 0.010111 -0.002354 -0.001905 0.000000 0.000000 0.000000
# 2 -0.002354 0.011589 -0.007121 0.000000 0.000000 0.000000
# 3 -0.001905 -0.007121 0.016542 0.000000 0.000000 0.000000
# 4 0.000000 0.000000 0.000000 0.035277 0.000000 0.000000
# 5 0.000000 0.000000 0.000000 0.000000 0.027016 0.000000
# 6 0.000000 0.000000 0.000000 0.000000 0.000000 0.030667
#
#
# Mechanical properties :
#
#
# Convention : Reuss Voigt Hill
#
# Bulk Modulus (GPa) = 64.59511 68.03693 66.31602
# Shear Modulus (GPa) = 31.42244 33.08059 32.25151
#
# Velocity S-wave (km/s) = 3.79603 3.89490 3.84579
# Velocity P-wave (km/s) = 6.98824 7.17131 7.08037
#
# Compressibility (1/GPa) = 0.01548105
#
# Stress axis : x y z
#
# Youngs Moduli (GPa) = 98.90174 86.28988 60.45397
#
# Poissons Ratio (x) = 0.20314 0.11518
# Poissons Ratio (y) = 0.23283 0.43048
# Poissons Ratio (z) = 0.18843 0.61445
#
# Static dielectric constant tensor:
#      x y z
#    x 4.024400 0.000000 0.000000 
#    y 0.000000 4.212790 0.000000 
#    z 0.000000 0.000000 4.073080 
# 
# 
# High freq. dielectric constant tensor:
#      x y z
#    x 1.863880 0.000000 0.000000 
#    y 0.000000 1.856090 0.000000 
#    z 0.000000 0.000000 1.853620 
# 
# From -- ./inp_files/29955.got.cif
#   From: 2010.03.12/outbox.cif.g09.slc.cpg/sg23_15_cif.got.tgz:29955.got - 2010.04.14 02:50:06.
