data_PCOD8164435
_publ_section_title
;
Structure prediction by ZEFSAII (Michael W. Deem and Ramdas Pophale) SiO2 
 PCOD8164435
Probable space group: I 2 2 2
;
_chemical_formula_sum "Si O2"
_cell_formula_units_Z 26
_cell_length_a 7.083817
_cell_length_b 4.990098
_cell_length_c 29.890542
_cell_angle_alpha 90.000000
_cell_angle_beta 90.000000
_cell_angle_gamma 90.000000
_cell_volume 1056.599007
_symmetry_space_group_name_H-M "I 2 2 2"
_symmetry_group_IT_number 23
_symmetry_cell_setting 'orthorhombic'
loop_
_space_group_symop_operation_xyz
x,y,z
-x,-y,z
x,-y,-z
-x,y,-z
1/2+x,1/2+y,1/2+z
1/2-x,1/2-y,1/2+z
1/2+x,1/2-y,1/2-z
1/2-x,1/2+y,1/2-z
loop_
_atom_site_type_symbol
_atom_site_label
_atom_site_fract_x
_atom_site_fract_y
_atom_site_fract_z
Si Si1 0.800303 0.395216 0.068483
Si Si2 0.285464 0.091979 0.123922
Si Si3 0.000000 0.000000 0.500000
Si Si4 0.293893 0.891819 0.776926
O O1 0.716060 0.623138 0.100097
O O2 0.644479 0.323572 0.030217
O O3 0.000000 0.500000 0.048237
O O4 0.838777 0.128407 0.097351
O O5 0.500000 0.000000 0.125162
O O6 0.199372 0.126974 0.173914
O O7 0.183699 0.100213 0.745383
O O8 0.500000 0.000000 0.783830
#
# Coordination Sequence:
#
# PCOD8164435 Si02
#       4
#     8   8   2   8
#     4  12  26  44  73 102 132 184 229 280 344 413
#     4  11  23  46  67  96 140 184 223 283 350 401
#     4  12  26  50  72 100 148 170 238 286 356 392
#     4  11  24  40  66  97 137 180 225 278 339 399
#
# _framework density 24.607257000000001
#
# number of rings (size 3 to 8) (size 9 to 14) (size 15 to 20)
#    0.000    0.615    3.077    4.154    0.000   14.769 
#    0.000    3.077    0.000    0.000    0.000    0.000 
#    0.000    0.000    0.000    0.000    0.000    0.000 
#
# Total GULP energy -161188.656577 kJ/mol
# GULP energy per Si atom -12399.127429 kJ/mol
# Density = 2.455125 g / cm^3
# Si number density = 24.607257 Si / 1000 Ang^3
#
#
#
# Elastic Constant Matrix: (Units=GPa)
#
#
# Indices 1 2 3 4 5 6 
#
# 1 96.1724 8.5019 43.0972 0.0000 0.0000 0.0000
# 2 8.5019 125.0953 56.3772 0.0000 0.0000 0.0000
# 3 43.0972 56.3772 178.8072 0.0000 0.0000 0.0000
# 4 0.0000 0.0000 0.0000 8.8486 0.0000 0.0000
# 5 0.0000 0.0000 0.0000 0.0000 19.1017 0.0000
# 6 0.0000 0.0000 0.0000 0.0000 0.0000 40.9524
#
#
#
# Elastic Compliance Matrix: (Units=1/GPa)
#
#
# Indices 1 2 3 4 5 6 
#
# 1 0.011690 0.000554 -0.002992 0.000000 0.000000 0.000000
# 2 0.000554 0.009344 -0.003080 0.000000 0.000000 0.000000
# 3 -0.002992 -0.003080 0.007285 0.000000 0.000000 0.000000
# 4 0.000000 0.000000 0.000000 0.113013 0.000000 0.000000
# 5 0.000000 0.000000 0.000000 0.000000 0.052351 0.000000
# 6 0.000000 0.000000 0.000000 0.000000 0.000000 0.024419
#
#
# Mechanical properties :
#
#
# Convention : Reuss Voigt Hill
#
# Bulk Modulus (GPa) = 57.86002 68.44749 63.15375
# Shear Modulus (GPa) = 21.28576 33.25376 27.26976
#
# Velocity S-wave (km/s) = 2.94431 3.68010 3.33258
# Velocity P-wave (km/s) = 5.92647 6.77745 6.36620
#
# Compressibility (1/GPa) = 0.01728309
#
# Stress axis : x y z
#
# Youngs Moduli (GPa) = 85.54382 107.01816 137.27101
#
# Poissons Ratio (x) = -0.05929 0.41075
# Poissons Ratio (y) = -0.04740 0.42276
# Poissons Ratio (z) = 0.25597 0.32959
#
# Static dielectric constant tensor:
#      x y z
#    x 4.430820 0.000000 0.000000 
#    y 0.000000 4.208190 0.000000 
#    z 0.000000 0.000000 5.097370 
# 
# 
# High freq. dielectric constant tensor:
#      x y z
#    x 1.993220 0.000000 0.000000 
#    y 0.000000 1.968720 0.000000 
#    z 0.000000 0.000000 1.984190 
# 
# From -- ./inp_files/4686.got.cif
#   From: 2010.03.12/outbox.cif.g09.slc.cpg/sg23_3_cif.got.tgz:4686.got - 2010.04.14 02:50:06.
