data_PCOD8164447
_publ_section_title
;
Structure prediction by ZEFSAII (Michael W. Deem and Ramdas Pophale) SiO2 
 PCOD8164447
Probable space group: I 2 2 2
;
_chemical_formula_sum "Si O2"
_cell_formula_units_Z 26
_cell_length_a 27.165647
_cell_length_b 8.399587
_cell_length_c 4.709161
_cell_angle_alpha 90.000000
_cell_angle_beta 90.000000
_cell_angle_gamma 90.000000
_cell_volume 1074.537371
_symmetry_space_group_name_H-M "I 2 2 2"
_symmetry_group_IT_number 23
_symmetry_cell_setting 'orthorhombic'
loop_
_space_group_symop_operation_xyz
x,y,z
-x,-y,z
x,-y,-z
-x,y,-z
1/2+x,1/2+y,1/2+z
1/2-x,1/2-y,1/2+z
1/2+x,1/2-y,1/2-z
1/2-x,1/2+y,1/2-z
loop_
_atom_site_type_symbol
_atom_site_label
_atom_site_fract_x
_atom_site_fract_y
_atom_site_fract_z
Si Si1 0.000000 0.000000 0.500000
Si Si2 0.731074 0.840415 0.149643
Si Si3 0.084236 0.154188 0.155672
Si Si4 0.118664 0.340825 0.650128
O O1 0.969151 0.114015 0.710711
O O2 0.762684 0.806196 0.430802
O O3 0.674685 0.863842 0.250461
O O4 0.751266 0.000000 0.000000
O O5 0.118693 0.200257 0.418035
O O6 0.084127 0.296120 0.920159
O O7 0.106971 0.000000 0.000000
O O8 0.097479 0.500000 0.500000
#
# Coordination Sequence:
#
# PCOD8164447 Si02
#       4
#     2   8   8   8
#     4  12  26  48  76 104 142 176 248 308 358 412
#     4  11  24  42  66  99 145 184 231 286 339 406
#     4  12  24  44  75  98 136 181 233 293 349 425
#     4  11  25  44  69 105 143 185 232 290 353 417
#
# _framework density 24.196458
#
# number of rings (size 3 to 8) (size 9 to 14) (size 15 to 20)
#    0.000    0.615    3.077    4.154    0.000   12.308 
#    0.000    0.769    6.769    0.000    0.000    0.000 
#    0.000    0.000    0.000    0.000    0.000    0.000 
#
# Total GULP energy -161164.742518 kJ/mol
# GULP energy per Si atom -12397.287886 kJ/mol
# Density = 2.414139 g / cm^3
# Si number density = 24.196458 Si / 1000 Ang^3
#
#
#
# Elastic Constant Matrix: (Units=GPa)
#
#
# Indices 1 2 3 4 5 6 
#
# 1 77.1723 45.5353 46.4490 -0.0010 -0.0015 -0.0006
# 2 45.5353 72.0592 35.5598 -0.0027 0.0009 -0.0024
# 3 46.4490 35.5598 162.3807 -0.0047 -0.0075 -0.0022
# 4 -0.0010 -0.0027 -0.0047 60.7136 -0.0049 -0.0009
# 5 -0.0015 0.0009 -0.0075 -0.0049 29.2390 -0.0013
# 6 -0.0006 -0.0024 -0.0022 -0.0009 -0.0013 30.8348
#
#
#
# Elastic Compliance Matrix: (Units=1/GPa)
#
#
# Indices 1 2 3 4 5 6 
#
# 1 0.022508 -0.012384 -0.003726 0.000000 0.000001 -0.000001
# 2 -0.012384 0.022373 -0.001357 0.000001 -0.000002 0.000001
# 3 -0.003726 -0.001357 0.007521 0.000000 0.000002 0.000000
# 4 0.000000 0.000001 0.000000 0.016471 0.000003 0.000000
# 5 0.000001 -0.000002 0.000002 0.000003 0.034201 0.000001
# 6 -0.000001 0.000001 0.000000 0.000000 0.000001 0.032431
#
#
# Mechanical properties :
#
#
# Convention : Reuss Voigt Hill
#
# Bulk Modulus (GPa) = 57.25004 62.96672 60.10838
# Shear Modulus (GPa) = 28.36668 36.42868 32.39768
#
# Velocity S-wave (km/s) = 3.42767 3.88434 3.66313
# Velocity P-wave (km/s) = 6.27512 6.79684 6.54118
#
# Compressibility (1/GPa) = 0.01746724
#
# Stress axis : x y z
#
# Youngs Moduli (GPa) = 44.42810 44.69679 132.95286
#
# Poissons Ratio (x) = 0.55354 0.49544
# Poissons Ratio (y) = 0.55022 0.18041
# Poissons Ratio (z) = 0.16556 0.06065
#
# Static dielectric constant tensor:
#      x y z
#    x 3.871310 0.000000 0.000000 
#    y 0.000000 4.627870 0.000000 
#    z 0.000000 0.000000 4.776050 
# 
# 
# High freq. dielectric constant tensor:
#      x y z
#    x 1.917870 0.000000 0.000000 
#    y 0.000000 1.963710 0.000000 
#    z 0.000000 0.000000 1.993650 
# 
# From -- ./inp_files/612.got.cif
#   From: 2010.03.12/outbox.cif.g09.slc.cpg/sg23_1_cif.got.tgz:612.got - 2010.04.14 02:50:06.
