data_PCOD8164645
_publ_section_title
;
Structure prediction by ZEFSAII (Michael W. Deem and Ramdas Pophale) SiO2 
 PCOD8164645
Probable space group: I 21 21 21
;
_chemical_formula_sum "Si O2"
_cell_formula_units_Z 60
_cell_length_a 15.990158
_cell_length_b 8.747084
_cell_length_c 22.417054
_cell_angle_alpha 90.000000
_cell_angle_beta 90.000000
_cell_angle_gamma 90.000000
_cell_volume 3135.411813
_symmetry_space_group_name_H-M "I 21 21 21"
_symmetry_group_IT_number 24
_symmetry_cell_setting 'orthorhombic'
loop_
_space_group_symop_operation_xyz
x,y,z
-x,1/2-y,z
x,-y,1/2-z
1/2-x,y,-z
1/2+x,1/2+y,1/2+z
1/2-x,-y,1/2+z
1/2+x,1/2-y,-z
-x,1/2+y,1/2-z
loop_
_atom_site_type_symbol
_atom_site_label
_atom_site_fract_x
_atom_site_fract_y
_atom_site_fract_z
Si Si1 0.139875 0.500000 0.750000
Si Si2 0.015105 0.070095 0.103893
Si Si3 0.806368 0.545963 0.343165
Si Si4 0.066631 0.383793 0.869900
Si Si5 0.699680 0.698405 0.441824
Si Si6 0.532098 0.423868 0.026235
Si Si7 0.726640 0.256082 0.729998
Si Si8 0.940881 0.893800 0.198329
O O1 0.083614 0.472411 0.808610
O O2 0.190655 0.345421 0.736247
O O3 0.096545 0.021534 0.141738
O O4 0.000000 0.250000 0.102698
O O5 0.938291 0.989081 0.136842
O O6 0.015376 0.998275 0.037448
O O7 0.764413 0.602102 0.403452
O O8 0.763544 0.389641 0.319455
O O9 0.797383 0.675423 0.293591
O O10 0.153735 0.326076 0.900601
O O11 0.020387 0.497421 0.918335
O O12 0.000000 0.250000 0.854671
O O13 0.750000 0.766559 0.500000
O O14 0.631405 0.575401 0.463826
O O15 0.500000 0.250000 0.023880
O O16 0.654412 0.142893 0.710366
O O17 0.000000 0.750000 0.192430
O O18 0.979114 0.000000 0.250000
#
# Coordination Sequence:
#
# PCOD8164645 Si02
#       8
#     4   8   8   8   8   8   8   8
#     4  12  22  44  66  88 120 158 202 258 308 352
#     4  11  21  33  59  85 118 157 197 238 294 351
#     4  11  21  38  57  88 120 156 198 244 302 351
#     4   9  21  41  62  91 118 148 202 254 300 354
#     4  10  17  34  64  89 114 151 197 248 297 351
#     4   8  18  36  57  88 112 145 200 245 285 358
#     4  11  24  37  57  87 123 158 198 247 295 356
#     4  12  22  36  53  81 122 162 197 236 285 353
#
# _framework density 19.136241999999999
#
# number of rings (size 3 to 8) (size 9 to 14) (size 15 to 20)
#    0.000    1.867    4.667    2.000    0.000    0.000 
#    4.800    0.000    5.867    0.000    0.000    0.000 
#    0.000    0.000    0.000    0.000    0.000    0.000 
#
# Total GULP energy -371769.958130 kJ/mol
# GULP energy per Si atom -12392.331938 kJ/mol
# Density = 1.909269 g / cm^3
# Si number density = 19.136242 Si / 1000 Ang^3
#
#
#
# Elastic Constant Matrix: (Units=GPa)
#
#
# Indices 1 2 3 4 5 6 
#
# 1 77.1356 21.8325 49.5221 0.0000 0.0000 0.0000
# 2 21.8325 53.0022 45.6596 0.0000 0.0000 0.0000
# 3 49.5221 45.6596 172.5708 0.0000 0.0000 0.0000
# 4 0.0000 0.0000 0.0000 26.3486 0.0000 0.0000
# 5 0.0000 0.0000 0.0000 0.0000 75.0373 0.0000
# 6 0.0000 0.0000 0.0000 0.0000 0.0000 14.6388
#
#
#
# Elastic Compliance Matrix: (Units=1/GPa)
#
#
# Indices 1 2 3 4 5 6 
#
# 1 0.016377 -0.003494 -0.003775 0.000000 0.000000 0.000000
# 2 -0.003494 0.025182 -0.005660 0.000000 0.000000 0.000000
# 3 -0.003775 -0.005660 0.008376 0.000000 0.000000 0.000000
# 4 0.000000 0.000000 0.000000 0.037953 0.000000 0.000000
# 5 0.000000 0.000000 0.000000 0.000000 0.013327 0.000000
# 6 0.000000 0.000000 0.000000 0.000000 0.000000 0.068311
#
#
# Mechanical properties :
#
#
# Convention : Reuss Voigt Hill
#
# Bulk Modulus (GPa) = 41.53425 59.63746 50.58585
# Shear Modulus (GPa) = 24.58094 35.58457 30.08275
#
# Velocity S-wave (km/s) = 3.58791 4.31691 3.96919
# Velocity P-wave (km/s) = 6.23825 7.48866 6.89187
#
# Compressibility (1/GPa) = 0.02407652
#
# Stress axis : x y z
#
# Youngs Moduli (GPa) = 61.06208 39.71022 119.39267
#
# Poissons Ratio (x) = 0.13873 0.45073
# Poissons Ratio (y) = 0.21333 0.67580
# Poissons Ratio (z) = 0.23052 0.22477
#
# Static dielectric constant tensor:
#      x y z
#    x 3.624290 0.000000 0.000000 
#    y 0.000000 3.174420 0.000000 
#    z 0.000000 0.000000 4.240110 
# 
# 
# High freq. dielectric constant tensor:
#      x y z
#    x 1.744670 0.000000 0.000000 
#    y 0.000000 1.702580 0.000000 
#    z 0.000000 0.000000 1.766770 
# 
# From -- ./inp_files/35837.got.cif
#   From: 2010.03.12/outbox.cif.g09.slc.cpg/sg24_18_cif.got.tgz:35837.got - 2010.04.14 03:06:53.
