data_PCOD8164308
_publ_section_title
;
Structure prediction by ZEFSAII (Michael W. Deem and Ramdas Pophale) SiO2 
 PCOD8164308
Probable space group: I 2 2 2
;
_chemical_formula_sum "Si O2"
_cell_formula_units_Z 40
_cell_length_a 7.596983
_cell_length_b 7.434202
_cell_length_c 27.417921
_cell_angle_alpha 90.000000
_cell_angle_beta 90.000000
_cell_angle_gamma 90.000000
_cell_volume 1548.495804
_symmetry_space_group_name_H-M "I 2 2 2"
_symmetry_group_IT_number 23
_symmetry_cell_setting 'orthorhombic'
loop_
_space_group_symop_operation_xyz
x,y,z
-x,-y,z
x,-y,-z
-x,y,-z
1/2+x,1/2+y,1/2+z
1/2-x,1/2-y,1/2+z
1/2+x,1/2-y,1/2-z
1/2-x,1/2+y,1/2-z
loop_
_atom_site_type_symbol
_atom_site_label
_atom_site_fract_x
_atom_site_fract_y
_atom_site_fract_z
Si Si1 0.305286 0.536072 0.688343
Si Si2 0.054660 0.292645 0.447289
Si Si3 0.537553 0.709613 0.446246
Si Si4 0.226754 0.775969 0.375212
Si Si5 0.200783 0.554311 0.205167
O O1 0.500000 0.500000 0.669330
O O2 0.192825 0.421113 0.649399
O O3 0.292391 0.458145 0.742609
O O4 0.263180 0.746191 0.685009
O O5 0.258162 0.258416 0.433457
O O6 0.000000 0.500000 0.445281
O O7 0.000000 0.216437 0.500000
O O8 0.936705 0.181481 0.409686
O O9 0.500000 0.500000 0.448024
O O10 0.500000 0.792042 0.500000
O O11 0.410879 0.798695 0.405374
O O12 0.212281 0.919095 0.332302
O O13 0.000000 0.500000 0.212884
#
# Coordination Sequence:
#
# PCOD8164308 Si02
#       5
#     8   8   8   8   8
#     4  12  25  51  76 111 159 207 267 335 399 478
#     4  11  21  39  71 119 155 208 279 325 398 486
#     4  11  20  40  71 115 159 206 269 335 401 474
#     4  12  25  44  80 114 159 215 262 331 405 471
#     4  12  26  49  75 110 160 206 271 328 405 477
#
# _framework density 25.831520000000001
#
# number of rings (size 3 to 8) (size 9 to 14) (size 15 to 20)
#    0.000    0.400    8.000    1.800    0.000    0.800 
#    7.200    0.000    0.000    3.000    0.000    1.400 
#    0.000    0.000    0.000    0.000    0.000    0.000 
#
# Total GULP energy -248053.958552 kJ/mol
# GULP energy per Si atom -12402.697928 kJ/mol
# Density = 2.577273 g / cm^3
# Si number density = 25.831520 Si / 1000 Ang^3
#
#
#
# Elastic Constant Matrix: (Units=GPa)
#
#
# Indices 1 2 3 4 5 6 
#
# 1 172.9618 22.5266 58.2634 0.0000 0.0000 0.0000
# 2 22.5266 105.1070 31.8254 0.0000 -0.0001 0.0000
# 3 58.2634 31.8254 175.4705 0.0000 -0.0001 0.0000
# 4 0.0000 0.0000 0.0000 14.4610 -0.0001 0.0000
# 5 0.0000 -0.0001 -0.0001 -0.0001 105.3577 0.0000
# 6 0.0000 0.0000 0.0000 0.0000 0.0000 22.4018
#
#
#
# Elastic Compliance Matrix: (Units=1/GPa)
#
#
# Indices 1 2 3 4 5 6 
#
# 1 0.006571 -0.000791 -0.002038 0.000000 0.000000 0.000000
# 2 -0.000791 0.010162 -0.001580 0.000000 0.000000 0.000000
# 3 -0.002038 -0.001580 0.006662 0.000000 0.000000 0.000000
# 4 0.000000 0.000000 0.000000 0.069152 0.000000 0.000000
# 5 0.000000 0.000000 0.000000 0.000000 0.009491 0.000000
# 6 0.000000 0.000000 0.000000 0.000000 0.000000 0.044639
#
#
# Mechanical properties :
#
#
# Convention : Reuss Voigt Hill
#
# Bulk Modulus (GPa) = 68.60636 75.41890 72.01263
# Shear Modulus (GPa) = 31.18043 51.17236 41.17640
#
# Velocity S-wave (km/s) = 3.47806 4.45568 3.99687
# Velocity P-wave (km/s) = 6.53804 7.46529 7.01700
#
# Compressibility (1/GPa) = 0.01457591
#
# Stress axis : x y z
#
# Youngs Moduli (GPa) = 152.17610 98.40374 150.09459
#
# Poissons Ratio (x) = 0.07785 0.30596
# Poissons Ratio (y) = 0.12039 0.23722
# Poissons Ratio (z) = 0.31021 0.15552
#
# Static dielectric constant tensor:
#      x y z
#    x 4.830170 0.000000 0.000000 
#    y 0.000000 -3.776400 0.000000 
#    z 0.000000 0.000000 5.118580 
# 
# 
# High freq. dielectric constant tensor:
#      x y z
#    x 2.031380 0.000000 0.000000 
#    y 0.000000 2.019790 0.000000 
#    z 0.000000 0.000000 2.062080 
# 
# From -- ./inp_files/27875.got.cif
#   From: 2010.03.12/outbox.cif.g09.slc.cpg/sg23_14_cif.got.tgz:27875.got - 2010.04.14 02:50:06.
