data_PCOD8164864
_publ_section_title
;
Structure prediction by ZEFSAII (Michael W. Deem and Ramdas Pophale) SiO2 
 PCOD8164864
Probable space group: I 21 21 21
;
_chemical_formula_sum "Si O2"
_cell_formula_units_Z 60
_cell_length_a 11.896431
_cell_length_b 22.322585
_cell_length_c 12.375940
_cell_angle_alpha 90.000000
_cell_angle_beta 90.000000
_cell_angle_gamma 90.000000
_cell_volume 3286.543391
_symmetry_space_group_name_H-M "I 21 21 21"
_symmetry_group_IT_number 24
_symmetry_cell_setting 'orthorhombic'
loop_
_space_group_symop_operation_xyz
x,y,z
-x,1/2-y,z
x,-y,1/2-z
1/2-x,y,-z
1/2+x,1/2+y,1/2+z
1/2-x,-y,1/2+z
1/2+x,1/2-y,-z
-x,1/2+y,1/2-z
loop_
_atom_site_type_symbol
_atom_site_label
_atom_site_fract_x
_atom_site_fract_y
_atom_site_fract_z
Si Si1 0.234448 0.387584 0.302053
Si Si2 0.677399 0.773722 0.103676
Si Si3 0.869879 0.427940 0.454858
Si Si4 0.503486 0.431620 0.756715
Si Si5 0.951566 0.930938 0.715579
Si Si6 0.750000 0.973730 0.000000
Si Si7 0.019589 0.538593 0.485924
Si Si8 0.952708 0.661227 0.883001
O O1 0.249600 0.316121 0.318366
O O2 0.320795 0.409914 0.209838
O O3 0.274668 0.428552 0.402037
O O4 0.103236 0.392478 0.276871
O O5 0.633156 0.712603 0.161270
O O6 0.568130 0.812108 0.071502
O O7 0.750000 0.756453 0.000000
O O8 0.750000 0.449496 0.500000
O O9 0.888754 0.420527 0.323369
O O10 0.896051 0.365135 0.510120
O O11 0.954607 0.476802 0.498613
O O12 0.463706 0.500000 0.750000
O O13 0.527950 0.421575 0.884711
O O14 0.998008 0.922774 0.594050
O O15 0.027409 0.888244 0.790719
O O16 0.961926 0.000000 0.750000
O O17 0.648368 0.018256 0.972424
#
# Coordination Sequence:
#
# PCOD8164864 Si02
#       8
#     8   8   8   8   8   4   8   8
#     4  11  18  29  54  88 118 149 176 236 300 355
#     4  10  19  32  55  81 112 141 180 240 304 333
#     4  11  21  36  53  74 113 153 190 233 278 336
#     4  10  20  34  51  83 119 151 185 236 289 345
#     4  11  19  32  52  80 115 156 193 229 284 343
#     4  12  16  28  56  84 124 144 178 234 296 360
#     4  11  21  34  52  84 117 156 194 224 291 353
#     4  10  21  35  51  83 110 142 195 240 275 349
#
# _framework density 18.256262
#
# number of rings (size 3 to 8) (size 9 to 14) (size 15 to 20)
#    0.000    1.333    6.000    3.200    0.000    0.000 
#    7.200    0.000    0.000    0.000    0.000   31.733 
#    0.000    0.000    0.000    0.000    0.000    0.000 
#
# Total GULP energy -371680.698685 kJ/mol
# GULP energy per Si atom -12389.356623 kJ/mol
# Density = 1.821471 g / cm^3
# Si number density = 18.256262 Si / 1000 Ang^3
#
#
#
# Elastic Constant Matrix: (Units=GPa)
#
#
# Indices 1 2 3 4 5 6 
#
# 1 69.5288 32.0774 33.8333 -0.0001 0.0000 0.0000
# 2 32.0774 91.5946 36.7656 -0.0005 0.0000 0.0002
# 3 33.8333 36.7656 126.7635 -0.0003 -0.0001 0.0002
# 4 -0.0001 -0.0005 -0.0003 21.5294 0.0000 0.0001
# 5 0.0000 0.0000 -0.0001 0.0000 24.6338 0.0000
# 6 0.0000 0.0002 0.0002 0.0001 0.0000 15.2741
#
#
#
# Elastic Compliance Matrix: (Units=1/GPa)
#
#
# Indices 1 2 3 4 5 6 
#
# 1 0.018391 -0.005060 -0.003441 0.000000 0.000000 0.000000
# 2 -0.005060 0.013748 -0.002637 0.000000 0.000000 0.000000
# 3 -0.003441 -0.002637 0.009572 0.000000 0.000000 0.000000
# 4 0.000000 0.000000 0.000000 0.046448 0.000000 0.000000
# 5 0.000000 0.000000 0.000000 0.000000 0.040595 0.000000
# 6 0.000000 0.000000 0.000000 0.000000 0.000000 0.065470
#
#
# Mechanical properties :
#
#
# Convention : Reuss Voigt Hill
#
# Bulk Modulus (GPa) = 51.45137 54.80438 53.12787
# Shear Modulus (GPa) = 22.42367 24.63483 23.52925
#
# Velocity S-wave (km/s) = 3.50847 3.67739 3.59392
# Velocity P-wave (km/s) = 6.68256 6.93654 6.81073
#
# Compressibility (1/GPa) = 0.01943583
#
# Stress axis : x y z
#
# Youngs Moduli (GPa) = 54.37360 72.73753 104.47157
#
# Poissons Ratio (x) = 0.36802 0.35951
# Poissons Ratio (y) = 0.27511 0.27549
# Poissons Ratio (z) = 0.18711 0.19181
#
# Static dielectric constant tensor:
#      x y z
#    x 3.449300 0.000000 0.000000 
#    y 0.000000 3.342510 0.000000 
#    z 0.000000 0.000000 3.602880 
# 
# 
# High freq. dielectric constant tensor:
#      x y z
#    x 1.702530 0.000000 0.000000 
#    y 0.000000 1.686490 0.000000 
#    z 0.000000 0.000000 1.693670 
# 
# From -- ./inp_files/20010.got.cif
#   From: 2010.03.12/outbox.cif.g09.slc.cpg/sg24_11_cif.got.tgz:20010.got - 2010.04.14 03:06:53.
