data_PCOD8164346
_publ_section_title
;
Structure prediction by ZEFSAII (Michael W. Deem and Ramdas Pophale) SiO2 
 PCOD8164346
Probable space group: I 2 2 2
;
_chemical_formula_sum "Si O2"
_cell_formula_units_Z 64
_cell_length_a 9.586702
_cell_length_b 10.803593
_cell_length_c 29.752989
_cell_angle_alpha 90.000000
_cell_angle_beta 90.000000
_cell_angle_gamma 90.000000
_cell_volume 3081.541665
_symmetry_space_group_name_H-M "I 2 2 2"
_symmetry_group_IT_number 23
_symmetry_cell_setting 'orthorhombic'
loop_
_space_group_symop_operation_xyz
x,y,z
-x,-y,z
x,-y,-z
-x,y,-z
1/2+x,1/2+y,1/2+z
1/2-x,1/2-y,1/2+z
1/2+x,1/2-y,1/2-z
1/2-x,1/2+y,1/2-z
loop_
_atom_site_type_symbol
_atom_site_label
_atom_site_fract_x
_atom_site_fract_y
_atom_site_fract_z
Si Si1 0.464503 0.859158 0.129970
Si Si2 0.670135 0.741783 0.783520
Si Si3 0.761811 0.787688 0.608550
Si Si4 0.452810 0.365860 0.277572
Si Si5 0.162402 0.033959 0.350920
Si Si6 0.001046 0.137045 0.120404
Si Si7 0.341811 0.143890 0.509599
Si Si8 0.247273 0.265077 0.920767
O O1 0.415493 0.814576 0.178676
O O2 0.586213 0.772536 0.110550
O O3 0.339601 0.852703 0.093618
O O4 0.500000 0.000000 0.135328
O O5 0.569153 0.727566 0.740748
O O6 0.800224 0.817526 0.762516
O O7 0.713467 0.608819 0.806295
O O8 0.657800 0.683700 0.626451
O O9 0.717032 0.824482 0.558316
O O10 0.752769 0.906594 0.641614
O O11 0.500000 0.500000 0.258542
O O12 0.434225 0.370605 0.330687
O O13 0.191936 0.116331 0.394786
O O14 0.000000 0.000000 0.347092
O O15 0.913626 0.236154 0.091701
O O16 0.000000 0.000000 0.098103
O O17 0.500000 0.188252 0.500000
O O18 0.242639 0.213739 0.473922
O O19 0.330327 0.000000 0.500000
#
# Coordination Sequence:
#
# PCOD8164346 Si02
#       8
#     8   8   8   8   8   8   8   8
#     4  11  25  45  69  95 137 186 227 273 341 419
#     4  11  25  45  70 102 139 177 227 291 342 414
#     4  12  24  40  73 102 129 188 225 276 358 407
#     4  11  26  44  69 101 139 181 227 286 344 415
#     4  11  21  42  65 100 136 170 214 281 348 405
#     4  11  24  44  66  94 135 183 231 273 341 412
#     4  11  23  39  64 103 138 168 225 291 349 410
#     4  11  21  44  66  94 140 171 223 288 338 407
#
# _framework density 20.768826000000001
#
# number of rings (size 3 to 8) (size 9 to 14) (size 15 to 20)
#    0.000    0.875    7.500    1.125    3.500    1.000 
#    0.000    6.250    0.000    0.000    0.000    0.000 
#    0.000    0.000    0.000    0.000    0.000    0.000 
#
# Total GULP energy -396678.777285 kJ/mol
# GULP energy per Si atom -12396.211790 kJ/mol
# Density = 2.072156 g / cm^3
# Si number density = 20.768826 Si / 1000 Ang^3
#
#
#
# Elastic Constant Matrix: (Units=GPa)
#
#
# Indices 1 2 3 4 5 6 
#
# 1 114.0178 48.7136 24.5024 0.0000 0.0000 0.0000
# 2 48.7136 115.2662 28.9993 0.0000 0.0000 0.0000
# 3 24.5024 28.9993 48.5995 0.0000 0.0000 0.0000
# 4 0.0000 0.0000 0.0000 13.5825 0.0000 0.0000
# 5 0.0000 0.0000 0.0000 0.0000 32.6324 0.0000
# 6 0.0000 0.0000 0.0000 0.0000 0.0000 44.3696
#
#
#
# Elastic Compliance Matrix: (Units=1/GPa)
#
#
# Indices 1 2 3 4 5 6 
#
# 1 0.011136 -0.003876 -0.003302 0.000000 0.000000 0.000000
# 2 -0.003876 0.011557 -0.004942 0.000000 0.000000 0.000000
# 3 -0.003302 -0.004942 0.025190 0.000000 0.000000 0.000000
# 4 0.000000 0.000000 0.000000 0.073624 0.000000 0.000000
# 5 0.000000 0.000000 0.000000 0.000000 0.030644 0.000000
# 6 0.000000 0.000000 0.000000 0.000000 0.000000 0.022538
#
#
# Mechanical properties :
#
#
# Convention : Reuss Voigt Hill
#
# Bulk Modulus (GPa) = 42.29429 53.59044 47.94237
# Shear Modulus (GPa) = 24.17687 29.82811 27.00249
#
# Velocity S-wave (km/s) = 3.41558 3.79383 3.60966
# Velocity P-wave (km/s) = 5.99696 6.71194 6.36450
#
# Compressibility (1/GPa) = 0.02364385
#
# Stress axis : x y z
#
# Youngs Moduli (GPa) = 89.79936 86.52922 39.69835
#
# Poissons Ratio (x) = 0.33535 0.13108
# Poissons Ratio (y) = 0.34802 0.19619
# Poissons Ratio (z) = 0.29650 0.42763
#
# Static dielectric constant tensor:
#      x y z
#    x 3.890230 0.000000 0.000000 
#    y 0.000000 3.970300 0.000000 
#    z 0.000000 0.000000 3.684570 
# 
# 
# High freq. dielectric constant tensor:
#      x y z
#    x 1.817430 0.000000 0.000000 
#    y 0.000000 1.816920 0.000000 
#    z 0.000000 0.000000 1.805320 
# 
# From -- ./inp_files/30339.got.cif
#   From: 2010.03.12/outbox.cif.g09.slc.cpg/sg23_16_cif.got.tgz:30339.got - 2010.04.14 02:50:06.
