data_PCOD8164049
_publ_section_title
;
Structure prediction by ZEFSAII (Michael W. Deem and Ramdas Pophale) SiO2 
 PCOD8164049
Probable space group: I 2 2 2
;
_chemical_formula_sum "Si O2"
_cell_formula_units_Z 38
_cell_length_a 7.028130
_cell_length_b 11.976869
_cell_length_c 22.210696
_cell_angle_alpha 90.000000
_cell_angle_beta 90.000000
_cell_angle_gamma 90.000000
_cell_volume 1869.585165
_symmetry_space_group_name_H-M "I 2 2 2"
_symmetry_group_IT_number 23
_symmetry_cell_setting 'orthorhombic'
loop_
_space_group_symop_operation_xyz
x,y,z
-x,-y,z
x,-y,-z
-x,y,-z
1/2+x,1/2+y,1/2+z
1/2-x,1/2-y,1/2+z
1/2+x,1/2-y,1/2-z
1/2-x,1/2+y,1/2-z
loop_
_atom_site_type_symbol
_atom_site_label
_atom_site_fract_x
_atom_site_fract_y
_atom_site_fract_z
Si Si1 0.462191 0.376843 0.801657
Si Si2 0.166136 0.906565 0.926011
Si Si3 0.670538 0.267842 0.316946
Si Si4 0.500000 0.212380 0.500000
Si Si5 0.500000 0.000000 0.000000
Si Si6 0.886836 0.387386 0.118128
O O1 0.500000 0.500000 0.774480
O O2 0.357034 0.301646 0.752072
O O3 0.653493 0.316335 0.823148
O O4 0.330457 0.393650 0.860245
O O5 0.200277 0.881831 0.855491
O O6 0.127320 0.789512 0.958025
O O7 0.367125 0.935165 0.954172
O O8 0.000000 0.000000 0.936366
O O9 0.482051 0.210491 0.342900
O O10 0.620051 0.135767 0.546227
O O11 0.000000 0.500000 0.131963
#
# Coordination Sequence:
#
# PCOD8164049 Si02
#       6
#     8   8   8   4   2   8
#     4  12  24  44  68 100 132 173 227 272 336 400
#     4  11  23  43  63  97 132 171 216 274 327 392
#     4  11  25  42  67  95 130 176 215 275 334 394
#     4  10  22  42  68  88 130 168 212 270 338 378
#     4  12  22  40  64  94 130 160 222 262 316 402
#     4  11  23  43  66  93 131 171 217 276 328 395
#
# _framework density 20.325362999999999
#
# number of rings (size 3 to 8) (size 9 to 14) (size 15 to 20)
#    0.000    0.842    6.316    0.947    2.947    0.000 
#    5.684    0.000    0.000    0.000    0.000    0.000 
#    0.000    0.000    0.000    0.000    0.000    0.000 
#
# Total GULP energy -235531.949021 kJ/mol
# GULP energy per Si atom -12396.418370 kJ/mol
# Density = 2.027910 g / cm^3
# Si number density = 20.325363 Si / 1000 Ang^3
#
#
#
# Elastic Constant Matrix: (Units=GPa)
#
#
# Indices 1 2 3 4 5 6 
#
# 1 100.6172 28.2065 22.6941 0.0000 0.0000 0.0000
# 2 28.2065 83.4344 25.9543 0.0000 0.0000 0.0000
# 3 22.6941 25.9543 101.9452 0.0000 0.0000 0.0000
# 4 0.0000 0.0000 0.0000 37.4751 0.0000 0.0000
# 5 0.0000 0.0000 0.0000 0.0000 22.3853 0.0000
# 6 0.0000 0.0000 0.0000 0.0000 0.0000 28.9235
#
#
#
# Elastic Compliance Matrix: (Units=1/GPa)
#
#
# Indices 1 2 3 4 5 6 
#
# 1 0.011234 -0.003280 -0.001666 0.000000 0.000000 0.000000
# 2 -0.003280 0.013974 -0.002828 0.000000 0.000000 0.000000
# 3 -0.001666 -0.002828 0.010900 0.000000 0.000000 0.000000
# 4 0.000000 0.000000 0.000000 0.026684 0.000000 0.000000
# 5 0.000000 0.000000 0.000000 0.000000 0.044672 0.000000
# 6 0.000000 0.000000 0.000000 0.000000 0.000000 0.034574
#
#
# Mechanical properties :
#
#
# Convention : Reuss Voigt Hill
#
# Bulk Modulus (GPa) = 48.63440 48.85629 48.74534
# Shear Modulus (GPa) = 30.40665 31.69956 31.05311
#
# Velocity S-wave (km/s) = 3.87201 3.95347 3.91295
# Velocity P-wave (km/s) = 6.63097 6.70292 6.66704
#
# Compressibility (1/GPa) = 0.02056158
#
# Stress axis : x y z
#
# Youngs Moduli (GPa) = 89.01740 71.56271 91.74416
#
# Poissons Ratio (x) = 0.23470 0.15283
# Poissons Ratio (y) = 0.29194 0.25941
# Poissons Ratio (z) = 0.14829 0.20235
#
# Static dielectric constant tensor:
#      x y z
#    x 3.542980 0.000000 0.000000 
#    y 0.000000 3.832260 0.000000 
#    z 0.000000 0.000000 3.850830 
# 
# 
# High freq. dielectric constant tensor:
#      x y z
#    x 1.787760 0.000000 0.000000 
#    y 0.000000 1.799510 0.000000 
#    z 0.000000 0.000000 1.804930 
# 
# From -- ./inp_files/28877.got.cif
#   From: 2010.03.12/outbox.cif.g09.slc.cpg/sg23_15_cif.got.tgz:28877.got - 2010.04.14 02:50:06.
