data_PCOD8164846
_publ_section_title
;
Structure prediction by ZEFSAII (Michael W. Deem and Ramdas Pophale) SiO2 
 PCOD8164846
Probable space group: I 21 21 21
;
_chemical_formula_sum "Si O2"
_cell_formula_units_Z 64
_cell_length_a 18.406309
_cell_length_b 10.199067
_cell_length_c 18.924475
_cell_angle_alpha 90.000000
_cell_angle_beta 90.000000
_cell_angle_gamma 90.000000
_cell_volume 3552.638300
_symmetry_space_group_name_H-M "I 21 21 21"
_symmetry_group_IT_number 24
_symmetry_cell_setting 'orthorhombic'
loop_
_space_group_symop_operation_xyz
x,y,z
-x,1/2-y,z
x,-y,1/2-z
1/2-x,y,-z
1/2+x,1/2+y,1/2+z
1/2-x,-y,1/2+z
1/2+x,1/2-y,-z
-x,1/2+y,1/2-z
loop_
_atom_site_type_symbol
_atom_site_label
_atom_site_fract_x
_atom_site_fract_y
_atom_site_fract_z
Si Si1 0.280920 0.018584 0.666819
Si Si2 0.274249 0.765795 0.397605
Si Si3 0.127658 0.737064 0.483335
Si Si4 0.583118 0.263240 0.491568
Si Si5 0.277064 0.733963 0.081834
Si Si6 0.076946 0.010104 0.084901
Si Si7 0.774461 0.014414 0.167828
Si Si8 0.084554 0.483905 0.413594
O O1 0.256911 0.158093 0.634526
O O2 0.365209 0.992508 0.648179
O O3 0.273075 0.000000 0.750000
O O4 0.228119 0.910266 0.634393
O O5 0.206107 0.744087 0.448157
O O6 0.353511 0.755572 0.434185
O O7 0.267581 0.650926 0.340853
O O8 0.090158 0.596451 0.473058
O O9 0.075176 0.849271 0.453427
O O10 0.500000 0.250000 0.465925
O O11 0.635468 0.249937 0.423512
O O12 0.598146 0.403483 0.526374
O O13 0.603617 0.154721 0.550710
O O14 0.261627 0.593937 0.117077
O O15 0.250000 0.744670 0.000000
O O16 0.997318 0.981051 0.117219
O O17 0.860437 0.017178 0.149818
O O18 0.765619 0.000000 0.250000
#
# Coordination Sequence:
#
# PCOD8164846 Si02
#       8
#     8   8   8   8   8   8   8   8
#     4  11  22  35  53  82 115 148 184 225 273 331
#     4   9  19  31  51  71 103 134 180 225 273 306
#     4   9  17  30  49  72  96 134 177 226 262 307
#     4  10  20  34  56  85 109 137 185 237 278 320
#     4  12  21  37  62  82 109 150 191 234 274 323
#     4  10  19  32  50  77 112 146 179 217 269 328
#     4  11  22  35  53  82 115 148 184 225 273 331
#     4  10  19  32  50  77 112 146 179 217 269 328
#
# _framework density 18.014779999999998
#
# number of rings (size 3 to 8) (size 9 to 14) (size 15 to 20)
#    0.000    1.750    2.500    2.625    3.500    0.500 
#    0.000    0.000    0.000    6.750    0.000    3.500 
#    0.000    0.000    0.000    0.000    0.000    0.000 
#
# Total GULP energy -396634.342412 kJ/mol
# GULP energy per Si atom -12394.823200 kJ/mol
# Density = 1.797378 g / cm^3
# Si number density = 18.014780 Si / 1000 Ang^3
#
#
#
# Elastic Constant Matrix: (Units=GPa)
#
#
# Indices 1 2 3 4 5 6 
#
# 1 47.2558 -8.2346 21.5980 0.0000 0.0000 0.0000
# 2 -8.2346 72.8517 -5.4082 0.0000 0.0000 0.0000
# 3 21.5980 -5.4082 64.3251 0.0000 0.0000 0.0000
# 4 0.0000 0.0000 0.0000 -37.4664 0.0000 0.0000
# 5 0.0000 0.0000 0.0000 0.0000 11.2733 0.0000
# 6 0.0000 0.0000 0.0000 0.0000 0.0000 5.2191
#
#
#
# Elastic Compliance Matrix: (Units=1/GPa)
#
#
# Indices 1 2 3 4 5 6 
#
# 1 0.025358 0.002248 -0.008325 0.000000 0.000000 0.000000
# 2 0.002248 0.014012 0.000423 0.000000 0.000000 0.000000
# 3 -0.008325 0.000423 0.018377 0.000000 0.000000 0.000000
# 4 0.000000 0.000000 0.000000 -0.026691 0.000000 0.000000
# 5 0.000000 0.000000 0.000000 0.000000 0.088705 0.000000
# 6 0.000000 0.000000 0.000000 0.000000 0.000000 0.191605
#
#
# Mechanical properties :
#
#
# Convention : Reuss Voigt Hill
#
# Bulk Modulus (GPa) = 21.53342 22.26036 21.89689
# Shear Modulus (GPa) = 14.78615 7.57037 11.17826
#
# Velocity S-wave (km/s) = 2.86803 2.05218 2.49370
# Velocity P-wave (km/s) = 4.79026 4.24250 4.52468
#
# Compressibility (1/GPa) = 0.04643944
#
# Stress axis : x y z
#
# Youngs Moduli (GPa) = 39.43490 71.36716 54.41599
#
# Poissons Ratio (x) = -0.16045 0.45303
# Poissons Ratio (y) = -0.08866 -0.02303
# Poissons Ratio (z) = 0.32831 -0.03020
#
# Static dielectric constant tensor:
#      x y z
#    x 3.446970 0.000000 0.000000 
#    y 0.000000 3.671280 0.000000 
#    z 0.000000 0.000000 3.076970 
# 
# 
# High freq. dielectric constant tensor:
#      x y z
#    x 1.691560 0.000000 0.000000 
#    y 0.000000 1.720650 0.000000 
#    z 0.000000 0.000000 1.661580 
# 
# From -- ./inp_files/31426.got.cif
#   From: 2010.03.12/outbox.cif.g09.slc.cpg/sg24_16_cif.got.tgz:31426.got - 2010.04.14 03:06:53.
