data_PCOD8164139
_publ_section_title
;
Structure prediction by ZEFSAII (Michael W. Deem and Ramdas Pophale) SiO2 
 PCOD8164139
Probable space group: I 2 2 2
;
_chemical_formula_sum "Si O2"
_cell_formula_units_Z 36
_cell_length_a 21.684492
_cell_length_b 11.459153
_cell_length_c 6.951781
_cell_angle_alpha 90.000000
_cell_angle_beta 90.000000
_cell_angle_gamma 90.000000
_cell_volume 1727.419639
_symmetry_space_group_name_H-M "I 2 2 2"
_symmetry_group_IT_number 23
_symmetry_cell_setting 'orthorhombic'
loop_
_space_group_symop_operation_xyz
x,y,z
-x,-y,z
x,-y,-z
-x,y,-z
1/2+x,1/2+y,1/2+z
1/2-x,1/2-y,1/2+z
1/2+x,1/2-y,1/2-z
1/2-x,1/2+y,1/2-z
loop_
_atom_site_type_symbol
_atom_site_label
_atom_site_fract_x
_atom_site_fract_y
_atom_site_fract_z
Si Si1 0.677316 0.775571 0.785910
Si Si2 0.288408 0.617095 0.887885
Si Si3 0.616442 0.633249 0.452480
Si Si4 0.051269 0.378842 0.382787
Si Si5 0.000000 0.294815 0.000000
O O1 0.720586 0.880736 0.709271
O O2 0.658516 0.682498 0.624362
O O3 0.617898 0.825149 0.891279
O O4 0.716352 0.717356 0.953761
O O5 0.344160 0.639118 0.741823
O O6 0.301354 0.500000 0.000000
O O7 0.597869 0.500000 0.500000
O O8 0.555149 0.711142 0.425402
O O9 0.055144 0.500000 0.500000
O O10 0.000000 0.302147 0.500000
O O11 0.026458 0.382134 0.163219
#
# Coordination Sequence:
#
# PCOD8164139 Si02
#       5
#     8   8   8   8   4
#     4  11  24  42  65  97 134 172 218 270 321 390
#     4  12  24  41  67  99 133 175 216 267 328 386
#     4  11  22  42  69  96 131 171 219 271 328 387
#     4  10  23  44  65  92 130 171 218 267 321 382
#     4  10  23  43  68  98 132 174 216 268 330 388
#
# _framework density 20.840330999999999
#
# number of rings (size 3 to 8) (size 9 to 14) (size 15 to 20)
#    0.000    1.111    4.444    1.667    0.000    4.444 
#   16.000    0.000    0.000    0.000    0.000    0.000 
#    0.000    0.000    0.000    0.000    0.000    0.000 
#
# Total GULP energy -223037.229106 kJ/mol
# GULP energy per Si atom -12390.957173 kJ/mol
# Density = 2.079290 g / cm^3
# Si number density = 20.840331 Si / 1000 Ang^3
#
#
#
# Elastic Constant Matrix: (Units=GPa)
#
#
# Indices 1 2 3 4 5 6 
#
# 1 151.5381 43.2051 56.6717 0.0000 0.0000 0.0000
# 2 43.2051 91.9547 55.3064 0.0000 0.0000 0.0000
# 3 56.6717 55.3064 110.4607 0.0000 0.0000 0.0000
# 4 0.0000 0.0000 0.0000 41.9109 0.0000 0.0000
# 5 0.0000 0.0000 0.0000 0.0000 41.8817 0.0000
# 6 0.0000 0.0000 0.0000 0.0000 0.0000 22.5471
#
#
#
# Elastic Compliance Matrix: (Units=1/GPa)
#
#
# Indices 1 2 3 4 5 6 
#
# 1 0.008401 -0.001939 -0.003339 0.000000 0.000000 0.000000
# 2 -0.001939 0.016008 -0.007021 0.000000 0.000000 0.000000
# 3 -0.003339 -0.007021 0.014281 0.000000 0.000000 0.000000
# 4 0.000000 0.000000 0.000000 0.023860 0.000000 0.000000
# 5 0.000000 0.000000 0.000000 0.000000 0.023877 0.000000
# 6 0.000000 0.000000 0.000000 0.000000 0.000000 0.044352
#
#
# Mechanical properties :
#
#
# Convention : Reuss Voigt Hill
#
# Bulk Modulus (GPa) = 70.95572 73.81334 72.38453
# Shear Modulus (GPa) = 31.23569 34.51929 32.87749
#
# Velocity S-wave (km/s) = 3.87565 4.07427 3.97620
# Velocity P-wave (km/s) = 7.35858 7.59133 7.47586
#
# Compressibility (1/GPa) = 0.01409330
#
# Stress axis : x y z
#
# Youngs Moduli (GPa) = 119.04041 62.46743 70.02154
#
# Poissons Ratio (x) = 0.12110 0.23382
# Poissons Ratio (y) = 0.23077 0.49159
# Poissons Ratio (z) = 0.39750 0.43856
#
# Static dielectric constant tensor:
#      x y z
#    x 4.432190 0.000000 0.000000 
#    y 0.000000 4.103060 0.000000 
#    z 0.000000 0.000000 4.041700 
# 
# 
# High freq. dielectric constant tensor:
#      x y z
#    x 1.834720 0.000000 0.000000 
#    y 0.000000 1.797740 0.000000 
#    z 0.000000 0.000000 1.835520 
# 
# From -- ./inp_files/1557.got.cif
#   From: 2010.03.12/outbox.cif.g09.slc.cpg/sg23_1_cif.got.tgz:1557.got - 2010.04.14 02:50:06.
