data_PCOD8164669
_publ_section_title
;
Structure prediction by ZEFSAII (Michael W. Deem and Ramdas Pophale) SiO2 
 PCOD8164669
Probable space group: I 21 21 21
;
_chemical_formula_sum "Si O2"
_cell_formula_units_Z 64
_cell_length_a 8.880485
_cell_length_b 20.888087
_cell_length_c 18.629476
_cell_angle_alpha 90.000000
_cell_angle_beta 90.000000
_cell_angle_gamma 90.000000
_cell_volume 3455.699675
_symmetry_space_group_name_H-M "I 21 21 21"
_symmetry_group_IT_number 24
_symmetry_cell_setting 'orthorhombic'
loop_
_space_group_symop_operation_xyz
x,y,z
-x,1/2-y,z
x,-y,1/2-z
1/2-x,y,-z
1/2+x,1/2+y,1/2+z
1/2-x,-y,1/2+z
1/2+x,1/2-y,-z
-x,1/2+y,1/2-z
loop_
_atom_site_type_symbol
_atom_site_label
_atom_site_fract_x
_atom_site_fract_y
_atom_site_fract_z
Si Si1 0.324067 0.250000 0.153145
Si Si2 0.678572 0.507847 0.923756
Si Si3 0.678572 0.007847 0.576244
Si Si4 0.826341 0.888354 0.185175
Si Si5 0.172108 0.750000 0.197915
Si Si6 0.321963 0.878807 0.652662
Si Si7 0.326341 0.888354 0.814825
Si Si8 0.821963 0.121193 0.152662
O O1 0.500000 0.250000 0.137865
O O2 0.288990 0.250000 0.237350
O O3 0.252901 0.185280 0.119492
O O4 0.252901 0.314720 0.119492
O O5 0.500000 0.514068 0.930101
O O6 0.727262 0.437816 0.896878
O O7 0.748332 0.560282 0.868326
O O8 0.750000 0.522162 0.000000
O O9 0.750000 0.022162 0.500000
O O10 0.727262 0.937816 0.603122
O O11 0.748332 0.060282 0.631674
O O12 0.802799 0.815806 0.153367
O O13 0.761135 0.891998 0.266208
O O14 0.000000 0.907196 0.189881
O O15 0.197201 0.815806 0.153367
O O16 0.000000 0.750000 0.228927
O O17 0.261135 0.891998 0.733792
O O18 0.500000 0.868870 0.653749
#
# Coordination Sequence:
#
# PCOD8164669 Si02
#       8
#     8   8   8   8   8   8   8   8
#     4  10  18  28  47  76 103 120 145 196 253 292
#     4  10  20  33  49  70  98 129 162 200 239 280
#     4  10  20  33  49  70  98 129 162 200 239 280
#     4   8  14  28  52  76  93 119 163 204 231 268
#     4   8  14  28  51  74  96 124 161 198 230 274
#     4   9  17  32  53  72  92 125 166 199 230 279
#     4   8  14  28  52  76  93 119 163 204 231 268
#     4   9  17  32  53  72  92 125 166 199 230 279
#
# _framework density 18.520130000000002
#
# number of rings (size 3 to 8) (size 9 to 14) (size 15 to 20)
#    0.000    3.000    0.000    3.375    0.000    4.000 
#    0.000    6.250    0.000    7.500    0.000    0.000 
#    0.000    0.000    0.000    0.000    0.000    0.000 
#
# Total GULP energy -396502.347496 kJ/mol
# GULP energy per Si atom -12390.698359 kJ/mol
# Density = 1.847798 g / cm^3
# Si number density = 18.520130 Si / 1000 Ang^3
#
#
#
# Elastic Constant Matrix: (Units=GPa)
#
#
# Indices 1 2 3 4 5 6 
#
# 1 34.0696 21.4678 5.9335 0.0000 0.0000 0.0000
# 2 21.4678 101.6430 10.5684 0.0000 0.0000 0.0000
# 3 5.9335 10.5684 42.0355 0.0000 0.0000 0.0000
# 4 0.0000 0.0000 0.0000 9.7483 0.0000 0.0000
# 5 0.0000 0.0000 0.0000 0.0000 21.5689 0.0000
# 6 0.0000 0.0000 0.0000 0.0000 0.0000 14.5830
#
#
#
# Elastic Compliance Matrix: (Units=1/GPa)
#
#
# Indices 1 2 3 4 5 6 
#
# 1 0.034246 -0.006911 -0.003096 0.000000 0.000000 0.000000
# 2 -0.006911 0.011497 -0.001915 0.000000 0.000000 0.000000
# 3 -0.003096 -0.001915 0.024708 0.000000 0.000000 0.000000
# 4 0.000000 0.000000 0.000000 0.102582 0.000000 0.000000
# 5 0.000000 0.000000 0.000000 0.000000 0.046363 0.000000
# 6 0.000000 0.000000 0.000000 0.000000 0.000000 0.068573
#
#
# Mechanical properties :
#
#
# Convention : Reuss Voigt Hill
#
# Bulk Modulus (GPa) = 21.45649 28.18748 24.82199
# Shear Modulus (GPa) = 15.27420 18.49859 16.88640
#
# Velocity S-wave (km/s) = 2.87494 3.16387 3.02286
# Velocity P-wave (km/s) = 4.75720 5.34787 5.06116
#
# Compressibility (1/GPa) = 0.04660594
#
# Stress axis : x y z
#
# Youngs Moduli (GPa) = 29.20076 86.97815 40.47277
#
# Poissons Ratio (x) = 0.60111 0.12532
# Poissons Ratio (y) = 0.20181 0.07751
# Poissons Ratio (z) = 0.09042 0.16657
#
# Static dielectric constant tensor:
#      x y z
#    x 2.969700 0.000000 0.000000 
#    y 0.000000 3.953030 0.000000 
#    z 0.000000 0.000000 3.136340 
# 
# 
# High freq. dielectric constant tensor:
#      x y z
#    x 1.676650 0.000000 0.000000 
#    y 0.000000 1.747260 0.000000 
#    z 0.000000 0.000000 1.676540 
# 
# From -- ./inp_files/32939.got.cif
#   From: 2010.03.12/outbox.cif.g09.slc.cpg/sg24_17_cif.got.tgz:32939.got - 2010.04.14 03:06:53.
