data_PCOD8164099
_publ_section_title
;
Structure prediction by ZEFSAII (Michael W. Deem and Ramdas Pophale) SiO2 
 PCOD8164099
Probable space group: I 2 2 2
;
_chemical_formula_sum "Si O2"
_cell_formula_units_Z 58
_cell_length_a 11.075177
_cell_length_b 17.102215
_cell_length_c 14.280223
_cell_angle_alpha 90.000000
_cell_angle_beta 90.000000
_cell_angle_gamma 90.000000
_cell_volume 2704.817870
_symmetry_space_group_name_H-M "I 2 2 2"
_symmetry_group_IT_number 23
_symmetry_cell_setting 'orthorhombic'
loop_
_space_group_symop_operation_xyz
x,y,z
-x,-y,z
x,-y,-z
-x,y,-z
1/2+x,1/2+y,1/2+z
1/2-x,1/2-y,1/2+z
1/2+x,1/2-y,1/2-z
1/2-x,1/2+y,1/2-z
loop_
_atom_site_type_symbol
_atom_site_label
_atom_site_fract_x
_atom_site_fract_y
_atom_site_fract_z
Si Si1 0.357217 0.305878 0.973687
Si Si2 0.637768 0.867164 0.185422
Si Si3 0.615315 0.458671 0.791407
Si Si4 0.298550 0.065425 0.376320
Si Si5 0.500000 0.000000 0.500000
Si Si6 0.280722 0.501828 0.603184
Si Si7 0.217562 0.196080 0.678511
Si Si8 0.867236 0.345733 0.648991
O O1 0.307047 0.376573 0.910758
O O2 0.330935 0.226164 0.917793
O O3 0.500000 0.316593 0.000000
O O4 0.271475 0.305056 0.065907
O O5 0.632790 0.910236 0.283233
O O6 0.692245 0.783326 0.209407
O O7 0.508847 0.855832 0.139369
O O8 0.714525 0.918316 0.112733
O O9 0.500000 0.500000 0.837776
O O10 0.731899 0.483199 0.853598
O O11 0.620248 0.490032 0.684589
O O12 0.607978 0.364229 0.794691
O O13 0.410666 0.056887 0.444878
O O14 0.341159 0.500000 0.500000
O O15 0.190019 0.574622 0.611478
O O16 0.332150 0.168919 0.741343
#
# Coordination Sequence:
#
# PCOD8164099 Si02
#       8
#     8   8   8   8   2   8   8   8
#     4  12  23  41  69  97 131 174 222 272 322 392
#     4  11  23  41  65  90 135 175 211 276 331 389
#     4  10  23  43  68  92 131 175 219 273 326 393
#     4  11  26  43  65 100 131 171 218 269 336 398
#     4  12  28  44  70  96 134 168 218 278 336 396
#     4  10  23  39  64  98 130 168 221 269 325 397
#     4  11  23  40  63  96 128 167 221 272 330 384
#     4  11  24  41  62  97 133 171 219 272 330 391
#
# _framework density 21.443218000000002
#
# number of rings (size 3 to 8) (size 9 to 14) (size 15 to 20)
#    0.000    1.103    2.759    2.897    7.724    0.828 
#    0.000    1.379    0.000    1.655    0.000    0.000 
#    0.000    0.000    0.000    0.000    0.000    0.000 
#
# Total GULP energy -359396.343379 kJ/mol
# GULP energy per Si atom -12392.977358 kJ/mol
# Density = 2.139441 g / cm^3
# Si number density = 21.443218 Si / 1000 Ang^3
#
#
#
# Elastic Constant Matrix: (Units=GPa)
#
#
# Indices 1 2 3 4 5 6 
#
# 1 60.4573 34.9789 22.6166 0.0000 0.0000 0.0000
# 2 34.9789 134.8107 16.4023 -0.0003 0.0000 0.0000
# 3 22.6166 16.4023 98.6394 -0.0008 -0.0001 0.0000
# 4 0.0000 -0.0003 -0.0008 25.1451 0.0000 0.0001
# 5 0.0000 0.0000 -0.0001 0.0000 22.2736 0.0000
# 6 0.0000 0.0000 0.0000 0.0001 0.0000 23.5806
#
#
#
# Elastic Compliance Matrix: (Units=1/GPa)
#
#
# Indices 1 2 3 4 5 6 
#
# 1 0.020880 -0.004935 -0.003967 0.000000 0.000000 0.000000
# 2 -0.004935 0.008737 -0.000321 0.000000 0.000000 0.000000
# 3 -0.003967 -0.000321 0.011101 0.000000 0.000000 0.000000
# 4 0.000000 0.000000 0.000000 0.039769 0.000000 0.000000
# 5 0.000000 0.000000 0.000000 0.000000 0.044896 0.000000
# 6 0.000000 0.000000 0.000000 0.000000 0.000000 0.042408
#
#
# Mechanical properties :
#
#
# Convention : Reuss Voigt Hill
#
# Bulk Modulus (GPa) = 44.89998 49.10033 47.00016
# Shear Modulus (GPa) = 25.81826 28.86051 27.33938
#
# Velocity S-wave (km/s) = 3.47368 3.67264 3.57454
# Velocity P-wave (km/s) = 6.08876 6.39780 6.24520
#
# Compressibility (1/GPa) = 0.02227172
#
# Stress axis : x y z
#
# Youngs Moduli (GPa) = 47.89324 114.45097 90.08270
#
# Poissons Ratio (x) = 0.56481 0.35734
# Poissons Ratio (y) = 0.23635 0.02895
# Poissons Ratio (z) = 0.18998 0.03678
#
# Static dielectric constant tensor:
#      x y z
#    x 3.677310 0.000000 0.000000 
#    y 0.000000 4.249400 0.000000 
#    z 0.000000 0.000000 4.127810 
# 
# 
# High freq. dielectric constant tensor:
#      x y z
#    x 1.815490 0.000000 0.000000 
#    y 0.000000 1.860980 0.000000 
#    z 0.000000 0.000000 1.856160 
# 
# From -- ./inp_files/21009.got.cif
#   From: 2010.03.12/outbox.cif.g09.slc.cpg/sg23_11_cif.got.tgz:21009.got - 2010.04.14 02:50:06.
