data_PCOD8164234
_publ_section_title
;
Structure prediction by ZEFSAII (Michael W. Deem and Ramdas Pophale) SiO2 
 PCOD8164234
Probable space group: I 2 2 2
;
_chemical_formula_sum "Si O2"
_cell_formula_units_Z 30
_cell_length_a 13.801579
_cell_length_b 15.035017
_cell_length_c 6.237625
_cell_angle_alpha 90.000000
_cell_angle_beta 90.000000
_cell_angle_gamma 90.000000
_cell_volume 1294.350694
_symmetry_space_group_name_H-M "I 2 2 2"
_symmetry_group_IT_number 23
_symmetry_cell_setting 'orthorhombic'
loop_
_space_group_symop_operation_xyz
x,y,z
-x,-y,z
x,-y,-z
-x,y,-z
1/2+x,1/2+y,1/2+z
1/2-x,1/2-y,1/2+z
1/2+x,1/2-y,1/2-z
1/2-x,1/2+y,1/2-z
loop_
_atom_site_type_symbol
_atom_site_label
_atom_site_fract_x
_atom_site_fract_y
_atom_site_fract_z
Si Si1 0.637729 0.576148 0.850643
Si Si2 0.345543 0.067578 0.186880
Si Si3 0.500000 0.000000 0.500000
Si Si4 0.500000 0.348700 0.500000
Si Si5 0.597538 0.257588 0.879952
O O1 0.741215 0.539114 0.774857
O O2 0.564745 0.589651 0.653634
O O3 0.591002 0.500000 0.000000
O O4 0.652656 0.665626 0.988973
O O5 0.430806 0.063876 0.361901
O O6 0.335712 0.170055 0.113006
O O7 0.375003 0.000000 0.000000
O O8 0.573597 0.288351 0.638133
O O9 0.500000 0.231260 0.000000
#
# Coordination Sequence:
#
# PCOD8164234 Si02
#       5
#     8   8   2   4   8
#     4  11  27  46  70 111 142 188 243 289 360 429
#     4  12  27  46  73 106 146 188 238 296 358 427
#     4  12  24  48  74 102 146 186 240 300 354 432
#     4  10  25  47  75  97 144 190 237 301 361 415
#     4  10  24  46  71 103 135 186 240 294 355 423
#
# _framework density 23.177643
#
# number of rings (size 3 to 8) (size 9 to 14) (size 15 to 20)
#    0.000    1.067    1.333    2.800    7.467    8.000 
#    0.000    0.000    0.000    0.000    0.000    0.000 
#    0.000    0.000    0.000    0.000    0.000    0.000 
#
# Total GULP energy -186084.943735 kJ/mol
# GULP energy per Si atom -12405.662916 kJ/mol
# Density = 2.312489 g / cm^3
# Si number density = 23.177643 Si / 1000 Ang^3
#
#
#
# Elastic Constant Matrix: (Units=GPa)
#
#
# Indices 1 2 3 4 5 6 
#
# 1 99.5448 36.6482 48.5736 0.0000 0.0000 0.0000
# 2 36.6482 151.8980 73.3178 0.0000 0.0000 0.0000
# 3 48.5736 73.3178 155.5837 0.0000 0.0000 0.0000
# 4 0.0000 0.0000 0.0000 36.0986 0.0000 0.0000
# 5 0.0000 0.0000 0.0000 0.0000 34.9585 0.0000
# 6 0.0000 0.0000 0.0000 0.0000 0.0000 26.9732
#
#
#
# Elastic Compliance Matrix: (Units=1/GPa)
#
#
# Indices 1 2 3 4 5 6 
#
# 1 0.012082 -0.001417 -0.003105 0.000000 0.000000 0.000000
# 2 -0.001417 0.008688 -0.003652 0.000000 0.000000 0.000000
# 3 -0.003105 -0.003652 0.009118 0.000000 0.000000 0.000000
# 4 0.000000 0.000000 0.000000 0.027702 0.000000 0.000000
# 5 0.000000 0.000000 0.000000 0.000000 0.028605 0.000000
# 6 0.000000 0.000000 0.000000 0.000000 0.000000 0.037074
#
#
# Mechanical properties :
#
#
# Convention : Reuss Voigt Hill
#
# Bulk Modulus (GPa) = 73.84613 80.45619 77.15116
# Shear Modulus (GPa) = 34.69135 36.17186 35.43160
#
# Velocity S-wave (km/s) = 3.87299 3.95477 3.91410
# Velocity P-wave (km/s) = 7.20626 7.45935 7.33390
#
# Compressibility (1/GPa) = 0.01354167
#
# Stress axis : x y z
#
# Youngs Moduli (GPa) = 82.76693 115.10416 109.67872
#
# Poissons Ratio (x) = 0.16305 0.34050
# Poissons Ratio (y) = 0.11724 0.40053
# Poissons Ratio (z) = 0.25695 0.42034
#
# Static dielectric constant tensor:
#      x y z
#    x 3.908780 0.000000 0.000000 
#    y 0.000000 4.053650 0.000000 
#    z 0.000000 0.000000 4.415550 
# 
# 
# High freq. dielectric constant tensor:
#      x y z
#    x 1.914580 0.000000 0.000000 
#    y 0.000000 1.920080 0.000000 
#    z 0.000000 0.000000 1.928800 
# 
# From -- ./inp_files/2957.got.cif
#   From: 2010.03.12/outbox.cif.g09.slc.cpg/sg23_2_cif.got.tgz:2957.got - 2010.04.14 02:50:06.
