data_PCOD8164952
_publ_section_title
;
Structure prediction by ZEFSAII (Michael W. Deem and Ramdas Pophale) SiO2 
 PCOD8164952
Probable space group: I 21 21 21
;
_chemical_formula_sum "Si O2"
_cell_formula_units_Z 64
_cell_length_a 27.392487
_cell_length_b 13.296040
_cell_length_c 9.171188
_cell_angle_alpha 90.000000
_cell_angle_beta 90.000000
_cell_angle_gamma 90.000000
_cell_volume 3340.253082
_symmetry_space_group_name_H-M "I 21 21 21"
_symmetry_group_IT_number 24
_symmetry_cell_setting 'orthorhombic'
loop_
_space_group_symop_operation_xyz
x,y,z
-x,1/2-y,z
x,-y,1/2-z
1/2-x,y,-z
1/2+x,1/2+y,1/2+z
1/2-x,-y,1/2+z
1/2+x,1/2-y,-z
-x,1/2+y,1/2-z
loop_
_atom_site_type_symbol
_atom_site_label
_atom_site_fract_x
_atom_site_fract_y
_atom_site_fract_z
Si Si1 0.951652 0.000000 0.578497
Si Si2 0.800830 0.788605 0.422244
Si Si3 0.199170 0.711395 0.077756
Si Si4 0.628239 0.612631 0.577426
Si Si5 0.650403 1.000000 0.920292
Si Si6 0.481162 0.140601 0.589759
Si Si7 0.981162 0.640601 0.410241
Si Si8 0.628239 0.387369 0.577426
O O1 0.898560 0.000000 0.510638
O O2 0.981582 0.904252 0.525702
O O3 0.946149 0.000000 0.750000
O O4 0.981582 0.095748 0.525702
O O5 0.750000 0.770127 0.500000
O O6 0.793630 0.778936 0.250000
O O7 0.836782 0.700921 0.483572
O O8 0.819896 0.899802 0.463382
O O9 0.180104 0.600198 0.036618
O O10 0.163218 0.799079 0.016428
O O11 0.250000 0.729873 0.000000
O O12 0.573203 0.633802 0.522637
O O13 0.644737 0.500000 0.525894
O O14 0.629230 0.619620 0.750000
O O15 0.637049 0.000000 0.750000
O O16 0.500000 0.250000 0.615040
O O17 0.482112 0.087004 0.750000
O O18 0.426797 0.133802 0.522637
O O19 0.000000 0.750000 0.384960
#
# Coordination Sequence:
#
# PCOD8164952 Si02
#       8
#     8   8   8   8   8   8   8   8
#     4  12  24  35  53  86 124 153 180 230 300 352
#     4  10  21  37  59  84 109 143 186 238 292 339
#     4  10  21  37  59  84 109 143 186 238 292 339
#     4   9  17  32  55  81 109 143 188 235 275 330
#     4  10  21  39  59  80 110 149 199 238 271 344
#     4  10  19  35  60  83 108 151 202 241 274 331
#     4  10  19  35  60  83 108 151 202 241 274 331
#     4   9  17  32  55  81 109 143 188 235 275 330
#
# _framework density 19.160225000000001
#
# number of rings (size 3 to 8) (size 9 to 14) (size 15 to 20)
#    0.000    2.000    1.250    3.000    0.000    6.000 
#    0.000    1.250    0.000    0.000    0.000    0.000 
#    0.000    0.000    0.000    0.000    0.000    0.000 
#
# Total GULP energy -396608.901990 kJ/mol
# GULP energy per Si atom -12394.028187 kJ/mol
# Density = 1.911661 g / cm^3
# Si number density = 19.160225 Si / 1000 Ang^3
#
#
#
# Elastic Constant Matrix: (Units=GPa)
#
#
# Indices 1 2 3 4 5 6 
#
# 1 142.8260 62.7049 44.4064 0.0000 0.0000 0.0000
# 2 62.7049 154.8583 22.5876 0.0000 0.0000 0.0000
# 3 44.4064 22.5876 40.3164 0.0000 0.0000 0.0000
# 4 0.0000 0.0000 0.0000 14.5283 0.0000 0.0000
# 5 0.0000 0.0000 0.0000 0.0000 44.0617 0.0000
# 6 0.0000 0.0000 0.0000 0.0000 0.0000 35.4466
#
#
#
# Elastic Compliance Matrix: (Units=1/GPa)
#
#
# Indices 1 2 3 4 5 6 
#
# 1 0.011926 -0.003172 -0.011358 0.000000 0.000000 0.000000
# 2 -0.003172 0.007876 -0.000919 0.000000 0.000000 0.000000
# 3 -0.011358 -0.000919 0.037829 0.000000 0.000000 0.000000
# 4 0.000000 0.000000 0.000000 0.068831 0.000000 0.000000
# 5 0.000000 0.000000 0.000000 0.000000 0.022695 0.000000
# 6 0.000000 0.000000 0.000000 0.000000 0.000000 0.028211
#
#
# Mechanical properties :
#
#
# Convention : Reuss Voigt Hill
#
# Bulk Modulus (GPa) = 37.40753 66.37760 51.89257
# Shear Modulus (GPa) = 23.02265 32.69410 27.85837
#
# Velocity S-wave (km/s) = 3.47015 4.13528 3.81723
# Velocity P-wave (km/s) = 5.96840 7.58415 6.82427
#
# Compressibility (1/GPa) = 0.02673258
#
# Stress axis : x y z
#
# Youngs Moduli (GPa) = 83.85303 126.96834 26.43480
#
# Poissons Ratio (x) = 0.40277 0.30025
# Poissons Ratio (y) = 0.26600 0.02428
# Poissons Ratio (z) = 0.95242 0.11663
#
# Static dielectric constant tensor:
#      x y z
#    x 3.579100 0.000000 0.000000 
#    y 0.000000 3.975180 0.000000 
#    z 0.000000 0.000000 3.109830 
# 
# 
# High freq. dielectric constant tensor:
#      x y z
#    x 1.751680 0.000000 0.000000 
#    y 0.000000 1.767500 0.000000 
#    z 0.000000 0.000000 1.702030 
# 
# From -- ./inp_files/16053.got.cif
#   From: 2010.03.12/outbox.cif.g09.slc.cpg/sg24_9_cif.got.tgz:16053.got - 2010.04.14 03:06:53.
