data_PCOD8164113
_publ_section_title
;
Structure prediction by ZEFSAII (Michael W. Deem and Ramdas Pophale) SiO2 
 PCOD8164113
Probable space group: I 2 2 2
;
_chemical_formula_sum "Si O2"
_cell_formula_units_Z 34
_cell_length_a 9.401052
_cell_length_b 7.868580
_cell_length_c 19.093172
_cell_angle_alpha 90.000000
_cell_angle_beta 90.000000
_cell_angle_gamma 90.000000
_cell_volume 1412.377871
_symmetry_space_group_name_H-M "I 2 2 2"
_symmetry_group_IT_number 23
_symmetry_cell_setting 'orthorhombic'
loop_
_space_group_symop_operation_xyz
x,y,z
-x,-y,z
x,-y,-z
-x,y,-z
1/2+x,1/2+y,1/2+z
1/2-x,1/2-y,1/2+z
1/2+x,1/2-y,1/2-z
1/2-x,1/2+y,1/2-z
loop_
_atom_site_type_symbol
_atom_site_label
_atom_site_fract_x
_atom_site_fract_y
_atom_site_fract_z
Si Si1 0.715443 0.680737 0.669997
Si Si2 0.342840 0.160890 0.875934
Si Si3 0.000000 0.500000 0.500000
Si Si4 0.830208 0.988009 0.580667
Si Si5 0.969212 0.680812 0.757184
O O1 0.734459 0.488940 0.643965
O O2 0.550160 0.685887 0.693239
O O3 0.802698 0.722167 0.743207
O O4 0.760106 0.817423 0.611500
O O5 0.263405 0.344315 0.880696
O O6 0.473382 0.171147 0.822490
O O7 0.406404 0.125898 0.952900
O O8 0.788545 0.000000 0.500000
O O9 0.000000 0.000000 0.593155
O O10 0.000000 0.500000 0.793694
#
# Coordination Sequence:
#
# PCOD8164113 Si02
#       5
#     8   8   2   8   8
#     4  11  23  42  61  94 137 173 218 279 329 405
#     4  11  21  36  60  95 129 169 216 277 342 381
#     4  12  16  40  62  88 142 150 218 304 324 368
#     4  11  21  34  62  98 128 169 227 285 338 381
#     4  10  23  41  62  96 134 175 225 269 335 398
#
# _framework density 24.072879
#
# number of rings (size 3 to 8) (size 9 to 14) (size 15 to 20)
#    0.000    1.176    5.882    2.824    6.588    0.000 
#    0.000    0.000    0.000    0.706    0.000    1.647 
#    0.000    0.000    0.000    0.000    0.000    0.000 
#
# Total GULP energy -210733.166118 kJ/mol
# GULP energy per Si atom -12396.068595 kJ/mol
# Density = 2.401809 g / cm^3
# Si number density = 24.072879 Si / 1000 Ang^3
#
#
#
# Elastic Constant Matrix: (Units=GPa)
#
#
# Indices 1 2 3 4 5 6 
#
# 1 47.9848 11.6516 10.2677 0.0000 0.0000 0.0000
# 2 11.6516 152.1905 19.0161 0.0000 0.0000 0.0000
# 3 10.2677 19.0161 64.1117 0.0000 0.0000 0.0000
# 4 0.0000 0.0000 0.0000 34.2947 0.0000 0.0000
# 5 0.0000 0.0000 0.0000 0.0000 14.4633 0.0000
# 6 0.0000 0.0000 0.0000 0.0000 0.0000 23.4674
#
#
#
# Elastic Compliance Matrix: (Units=1/GPa)
#
#
# Indices 1 2 3 4 5 6 
#
# 1 0.021817 -0.001281 -0.003114 0.000000 0.000000 0.000000
# 2 -0.001281 0.006899 -0.001841 0.000000 0.000000 0.000000
# 3 -0.003114 -0.001841 0.016643 0.000000 0.000000 0.000000
# 4 0.000000 0.000000 0.000000 0.029159 0.000000 0.000000
# 5 0.000000 0.000000 0.000000 0.000000 0.069141 0.000000
# 6 0.000000 0.000000 0.000000 0.000000 0.000000 0.042612
#
#
# Mechanical properties :
#
#
# Convention : Reuss Voigt Hill
#
# Bulk Modulus (GPa) = 30.40804 38.46197 34.43500
# Shear Modulus (GPa) = 23.84297 29.33519 26.58908
#
# Velocity S-wave (km/s) = 3.15055 3.49463 3.32704
# Velocity P-wave (km/s) = 5.08859 5.68289 5.39393
#
# Compressibility (1/GPa) = 0.03288604
#
# Stress axis : x y z
#
# Youngs Moduli (GPa) = 45.83507 144.95192 60.08683
#
# Poissons Ratio (x) = 0.18571 0.18712
# Poissons Ratio (y) = 0.05872 0.11062
# Poissons Ratio (z) = 0.14273 0.26687
#
# Static dielectric constant tensor:
#      x y z
#    x 3.829290 0.000000 0.000000 
#    y 0.000000 4.921420 0.000000 
#    z 0.000000 0.000000 4.213400 
# 
# 
# High freq. dielectric constant tensor:
#      x y z
#    x 1.910920 0.000000 0.000000 
#    y 0.000000 1.981660 0.000000 
#    z 0.000000 0.000000 1.954330 
# 
# From -- ./inp_files/11683.got.cif
#   From: 2010.03.12/outbox.cif.g09.slc.cpg/sg23_6_cif.got.tgz:11683.got - 2010.04.14 02:50:06.
