data_PCOD8164561
_publ_section_title
;
Structure prediction by ZEFSAII (Michael W. Deem and Ramdas Pophale) SiO2 
 PCOD8164561
Probable space group: I 2 2 2
;
_chemical_formula_sum "Si O2"
_cell_formula_units_Z 56
_cell_length_a 13.623240
_cell_length_b 28.760750
_cell_length_c 9.421350
_cell_angle_alpha 90.000000
_cell_angle_beta 90.000000
_cell_angle_gamma 90.000000
_cell_volume 3691.422480
_symmetry_space_group_name_H-M "I 2 2 2"
_symmetry_group_IT_number 23
_symmetry_cell_setting 'orthorhombic'
loop_
_space_group_symop_operation_xyz
x,y,z
-x,-y,z
x,-y,-z
-x,y,-z
1/2+x,1/2+y,1/2+z
1/2-x,1/2-y,1/2+z
1/2+x,1/2-y,1/2-z
1/2-x,1/2+y,1/2-z
loop_
_atom_site_type_symbol
_atom_site_label
_atom_site_fract_x
_atom_site_fract_y
_atom_site_fract_z
Si Si1 0.776556 0.681564 0.834809
Si Si2 0.888063 0.225460 0.165700
Si Si3 0.883276 0.500000 0.339314
Si Si4 0.611935 0.274540 0.334292
Si Si5 0.723442 0.818437 0.665202
Si Si6 0.114109 0.411780 0.164592
Si Si7 0.885890 0.411780 0.164590
O O1 0.851798 0.722771 0.796402
O O2 0.675581 0.687348 0.749118
O O3 0.826510 0.633627 0.788160
O O4 0.750586 0.681766 0.000006
O O5 0.824416 0.187348 0.249106
O O6 0.999998 0.220913 0.216036
O O7 0.876940 0.215243 0.999996
O O8 0.842732 0.500000 0.500000
O O9 0.844794 0.545635 0.257872
O O10 0.844794 0.454364 0.257872
O O11 0.000000 0.500000 0.336609
O O12 0.648201 0.222771 0.296391
O O13 0.673487 0.866373 0.711847
O O14 0.999999 0.402117 0.194800
O O15 0.130965 0.423964 0.000001
#
# Coordination Sequence:
#
# PCOD8164561 Si02
#       7
#     8   8   8   8   8   8   8
#     4   9  17  28  43  63  84 109 143 176 204 239
#     4   9  17  29  43  60  85 114 141 171 207 245
#     4   9  17  27  39  59  86 111 136 169 207 246
#     4   9  17  29  43  60  85 114 141 171 207 245
#     4   9  17  28  43  63  84 109 143 176 204 239
#     4   9  16  27  43  61  83 112 142 170 203 245
#     4   9  16  27  43  61  83 112 142 170 203 245
#
# _framework density 15.170304
#
# number of rings (size 3 to 8) (size 9 to 14) (size 15 to 20)
#    0.000    3.000    0.000    1.286    0.000    6.857 
#    0.000    0.000    0.000    5.143    0.000    1.000 
#    0.000    8.000    0.000    0.000    0.000    0.000 
#
# Total GULP energy -347213.778314 kJ/mol
# GULP energy per Si atom -12400.492083 kJ/mol
# Density = 1.513578 g / cm^3
# Si number density = 15.170304 Si / 1000 Ang^3
#
#
#
# Elastic Constant Matrix: (Units=GPa)
#
#
# Indices 1 2 3 4 5 6 
#
# 1 98.4713 56.7850 46.8083 0.0000 -0.0001 0.0000
# 2 56.7850 127.2986 60.8440 0.0002 -0.0002 -0.0001
# 3 46.8083 60.8440 65.2672 -0.0007 -0.0021 -0.0004
# 4 0.0000 0.0002 -0.0007 26.4578 -0.0002 -0.0001
# 5 -0.0001 -0.0002 -0.0021 -0.0002 24.5991 0.0002
# 6 0.0000 -0.0001 -0.0004 -0.0001 0.0002 23.6924
#
#
#
# Elastic Compliance Matrix: (Units=1/GPa)
#
#
# Indices 1 2 3 4 5 6 
#
# 1 0.016012 -0.002983 -0.008703 0.000000 -0.000001 0.000000
# 2 -0.002983 0.014724 -0.011587 0.000000 -0.000001 0.000000
# 3 -0.008703 -0.011587 0.032365 0.000001 0.000003 0.000000
# 4 0.000000 0.000000 0.000001 0.037796 0.000000 0.000000
# 5 -0.000001 -0.000001 0.000003 0.000000 0.040652 0.000000
# 6 0.000000 0.000000 0.000000 0.000000 0.000000 0.042208
#
#
# Mechanical properties :
#
#
# Convention : Reuss Voigt Hill
#
# Bulk Modulus (GPa) = 60.40223 68.87909 64.64066
# Shear Modulus (GPa) = 21.20243 23.38985 22.29614
#
# Velocity S-wave (km/s) = 3.74254 3.93086 3.83786
# Velocity P-wave (km/s) = 7.65363 8.13048 7.89565
#
# Compressibility (1/GPa) = 0.01655568
#
# Stress axis : x y z
#
# Youngs Moduli (GPa) = 62.45168 67.91417 30.89765
#
# Poissons Ratio (x) = 0.20260 0.26890
# Poissons Ratio (y) = 0.18630 0.35801
# Poissons Ratio (z) = 0.54350 0.78693
#
# Static dielectric constant tensor:
#      x y z
#    x 2.759750 0.000000 0.000000 
#    y 0.000000 2.936980 0.000000 
#    z 0.000000 0.000000 2.941990 
# 
# 
# High freq. dielectric constant tensor:
#      x y z
#    x 1.551900 0.000000 0.000000 
#    y 0.000000 1.576670 0.000000 
#    z 0.000000 0.000000 1.582720 
# 
# From -- ./inp_files/10418.got.cif
#   From: 2010.03.12/outbox.cif.g09.slc.cpg/sg23_6_cif.got.tgz:10418.got - 2010.04.14 02:50:06.
