data_PCOD8164061
_publ_section_title
;
Structure prediction by ZEFSAII (Michael W. Deem and Ramdas Pophale) SiO2 
 PCOD8164061
Probable space group: I 2 2 2
;
_chemical_formula_sum "Si O2"
_cell_formula_units_Z 30
_cell_length_a 7.227439
_cell_length_b 7.225976
_cell_length_c 30.213656
_cell_angle_alpha 90.000000
_cell_angle_beta 90.000000
_cell_angle_gamma 90.000000
_cell_volume 1577.917272
_symmetry_space_group_name_H-M "I 2 2 2"
_symmetry_group_IT_number 23
_symmetry_cell_setting 'orthorhombic'
loop_
_space_group_symop_operation_xyz
x,y,z
-x,-y,z
x,-y,-z
-x,y,-z
1/2+x,1/2+y,1/2+z
1/2-x,1/2-y,1/2+z
1/2+x,1/2-y,1/2-z
1/2-x,1/2+y,1/2-z
loop_
_atom_site_type_symbol
_atom_site_label
_atom_site_fract_x
_atom_site_fract_y
_atom_site_fract_z
Si Si1 0.233044 0.766696 0.809909
Si Si2 0.354933 0.354866 0.915140
Si Si3 0.500000 0.500000 0.758267
Si Si4 0.000000 0.000000 0.500000
Si Si5 0.000000 0.500000 0.369023
Si Si6 0.000000 0.500000 0.130871
O O1 0.376537 0.622712 0.790227
O O2 0.129578 0.869676 0.770546
O O3 0.338661 0.917884 0.838862
O O4 0.082095 0.661477 0.839005
O O5 0.500000 0.500000 0.892679
O O6 0.149729 0.405675 0.900657
O O7 0.405660 0.149708 0.900563
O O8 0.370956 0.370784 0.968680
#
# Coordination Sequence:
#
# PCOD8164061 Si02
#       6
#     8   8   4   2   4   4
#     4  12  23  39  60  91 125 173 215 271 310 382
#     4  10  22  43  64 100 126 165 202 263 314 377
#     4  12  24  39  56  90 130 164 218 270 326 349
#     4   8  20  46  64  96 140 160 192 272 316 370
#     4  12  22  42  68  92 130 170 218 256 320 378
#     4  12  22  42  68  92 130 170 218 256 320 378
#
# _framework density 19.012404
#
# number of rings (size 3 to 8) (size 9 to 14) (size 15 to 20)
#    0.800    0.000    2.667    6.400    0.000    1.067 
#    0.000    0.000    0.000    3.200    0.000    0.000 
#    0.000    0.000    0.000    0.000    0.000    0.000 
#
# Total GULP energy -186033.695834 kJ/mol
# GULP energy per Si atom -12402.246389 kJ/mol
# Density = 1.896913 g / cm^3
# Si number density = 19.012404 Si / 1000 Ang^3
#
#
#
# Elastic Constant Matrix: (Units=GPa)
#
#
# Indices 1 2 3 4 5 6 
#
# 1 118.2010 96.0154 71.4642 0.0000 0.0000 0.0000
# 2 96.0154 114.2298 69.6715 0.0000 0.0000 0.0000
# 3 71.4642 69.6715 137.8186 0.0000 0.0000 0.0000
# 4 0.0000 0.0000 0.0000 -21.3302 0.0000 0.0000
# 5 0.0000 0.0000 0.0000 0.0000 -15.5128 0.0000
# 6 0.0000 0.0000 0.0000 0.0000 0.0000 55.0721
#
#
#
# Elastic Compliance Matrix: (Units=1/GPa)
#
#
# Indices 1 2 3 4 5 6 
#
# 1 0.027973 -0.021203 -0.003786 0.000000 0.000000 0.000000
# 2 -0.021203 0.028729 -0.003529 0.000000 0.000000 0.000000
# 3 -0.003786 -0.003529 0.011003 0.000000 0.000000 0.000000
# 4 0.000000 0.000000 0.000000 -0.046882 0.000000 0.000000
# 5 0.000000 0.000000 0.000000 0.000000 -0.064463 0.000000
# 6 0.000000 0.000000 0.000000 0.000000 0.000000 0.018158
#
#
# Mechanical properties :
#
#
# Convention : Reuss Voigt Hill
#
# Bulk Modulus (GPa) = 93.73194 93.83906 93.78550
# Shear Modulus (GPa) = 142.41515 12.51904 77.46709
#
# Velocity S-wave (km/s) = 8.66424 2.56885 6.39015
# Velocity P-wave (km/s) = 12.22700 7.63299 10.19220
#
# Compressibility (1/GPa) = 0.01066872
#
# Stress axis : x y z
#
# Youngs Moduli (GPa) = 35.74937 34.80861 90.88468
#
# Poissons Ratio (x) = 0.73805 0.34410
# Poissons Ratio (y) = 0.75799 0.32069
# Poissons Ratio (z) = 0.13535 0.12283
#
# Static dielectric constant tensor:
#      x y z
#    x 3.659770 0.000000 0.000000 
#    y 0.000000 3.651770 0.000000 
#    z 0.000000 0.000000 3.450560 
# 
# 
# High freq. dielectric constant tensor:
#      x y z
#    x 1.749930 0.000000 0.000000 
#    y 0.000000 1.749830 0.000000 
#    z 0.000000 0.000000 1.742110 
# 
# From -- ./inp_files/29816.got.cif
#   From: 2010.03.12/outbox.cif.g09.slc.cpg/sg23_15_cif.got.tgz:29816.got - 2010.04.14 02:50:06.
