data_PCOD8164115
_publ_section_title
;
Structure prediction by ZEFSAII (Michael W. Deem and Ramdas Pophale) SiO2 
 PCOD8164115
Probable space group: I 2 2 2
;
_chemical_formula_sum "Si O2"
_cell_formula_units_Z 60
_cell_length_a 11.423111
_cell_length_b 21.839350
_cell_length_c 11.491685
_cell_angle_alpha 90.000000
_cell_angle_beta 90.000000
_cell_angle_gamma 90.000000
_cell_volume 2866.868800
_symmetry_space_group_name_H-M "I 2 2 2"
_symmetry_group_IT_number 23
_symmetry_cell_setting 'orthorhombic'
loop_
_space_group_symop_operation_xyz
x,y,z
-x,-y,z
x,-y,-z
-x,y,-z
1/2+x,1/2+y,1/2+z
1/2-x,1/2-y,1/2+z
1/2+x,1/2-y,1/2-z
1/2-x,1/2+y,1/2-z
loop_
_atom_site_type_symbol
_atom_site_label
_atom_site_fract_x
_atom_site_fract_y
_atom_site_fract_z
Si Si1 0.000000 0.160258 0.000000
Si Si2 0.831927 0.836655 0.604841
Si Si3 0.092767 0.834016 0.656277
Si Si4 0.260253 0.921430 0.759299
Si Si5 0.302837 0.940516 0.260303
Si Si6 0.794662 0.069446 0.015726
Si Si7 0.012182 0.619199 0.138053
Si Si8 0.879203 0.742295 0.166026
O O1 0.100764 0.115582 0.951651
O O2 0.058496 0.203290 0.096140
O O3 0.859623 0.846893 0.470929
O O4 0.772273 0.896648 0.657163
O O5 0.746119 0.778158 0.614727
O O6 0.953611 0.826127 0.670153
O O7 0.133534 0.892418 0.732249
O O8 0.146083 0.770390 0.706155
O O9 0.277799 0.913804 0.898488
O O10 0.356015 0.884337 0.684592
O O11 0.259597 0.991063 0.716388
O O12 0.438308 0.933562 0.296775
O O13 0.294056 0.924737 0.123794
O O14 0.843433 0.000000 0.000000
O O15 0.966296 0.685573 0.174112
O O16 0.000000 0.610090 0.000000
#
# Coordination Sequence:
#
# PCOD8164115 Si02
#       8
#     4   8   8   8   8   8   8   8
#     4  12  21  40  70  94 125 184 214 272 340 394
#     4  10  25  45  61  95 133 166 219 274 331 398
#     4  11  24  42  65  92 130 170 215 275 327 398
#     4  11  23  41  68  98 129 175 227 269 339 396
#     4  10  23  43  66  95 134 174 216 282 333 396
#     4  10  23  41  64 100 135 170 226 281 332 404
#     4  11  24  43  65  99 135 175 227 280 329 406
#     4  11  24  40  67  93 127 174 214 270 328 401
#
# _framework density 20.928757000000001
#
# number of rings (size 3 to 8) (size 9 to 14) (size 15 to 20)
#    0.000    1.333    2.000    3.000    1.867    5.867 
#    0.000    3.333    0.000    0.000    0.000    0.000 
#    0.000    0.000    0.000    0.000    0.000    0.000 
#
# Total GULP energy -371952.615695 kJ/mol
# GULP energy per Si atom -12398.420523 kJ/mol
# Density = 2.088112 g / cm^3
# Si number density = 20.928757 Si / 1000 Ang^3
#
#
#
# Elastic Constant Matrix: (Units=GPa)
#
#
# Indices 1 2 3 4 5 6 
#
# 1 101.4794 51.9145 44.9477 -0.0001 0.0000 0.0000
# 2 51.9145 122.2859 54.7522 0.0001 -0.0001 0.0000
# 3 44.9477 54.7522 114.9807 0.0002 -0.0002 -0.0001
# 4 -0.0001 0.0001 0.0002 36.1380 -0.0001 0.0000
# 5 0.0000 -0.0001 -0.0002 -0.0001 29.1217 0.0000
# 6 0.0000 0.0000 -0.0001 0.0000 0.0000 37.2820
#
#
#
# Elastic Compliance Matrix: (Units=1/GPa)
#
#
# Indices 1 2 3 4 5 6 
#
# 1 0.013471 -0.004272 -0.003232 0.000000 0.000000 0.000000
# 2 -0.004272 0.011748 -0.003924 0.000000 0.000000 0.000000
# 3 -0.003232 -0.003924 0.011829 0.000000 0.000000 0.000000
# 4 0.000000 0.000000 0.000000 0.027672 0.000000 0.000000
# 5 0.000000 0.000000 0.000000 0.000000 0.034339 0.000000
# 6 0.000000 0.000000 0.000000 0.000000 0.000000 0.026823
#
#
# Mechanical properties :
#
#
# Convention : Reuss Voigt Hill
#
# Bulk Modulus (GPa) = 70.46083 71.33053 70.89568
# Shear Modulus (GPa) = 32.57997 32.98378 32.78187
#
# Velocity S-wave (km/s) = 3.94979 3.97420 3.96201
# Velocity P-wave (km/s) = 7.38520 7.43071 7.40799
#
# Compressibility (1/GPa) = 0.01419228
#
# Stress axis : x y z
#
# Youngs Moduli (GPa) = 74.23309 85.11923 84.53645
#
# Poissons Ratio (x) = 0.36362 0.27321
# Poissons Ratio (y) = 0.31712 0.33175
# Poissons Ratio (z) = 0.23991 0.33404
#
# Static dielectric constant tensor:
#      x y z
#    x 4.062810 0.000000 0.000000 
#    y 0.000000 3.874240 0.000000 
#    z 0.000000 0.000000 3.946200 
# 
# 
# High freq. dielectric constant tensor:
#      x y z
#    x 1.817720 0.000000 0.000000 
#    y 0.000000 1.827320 0.000000 
#    z 0.000000 0.000000 1.831390 
# 
# From -- ./inp_files/15964.got.cif
#   From: 2010.03.12/outbox.cif.g09.slc.cpg/sg23_8_cif.got.tgz:15964.got - 2010.04.14 02:50:06.
