data_PCOD8164893
_publ_section_title
;
Structure prediction by ZEFSAII (Michael W. Deem and Ramdas Pophale) SiO2 
 PCOD8164893
Probable space group: I 21 21 21
;
_chemical_formula_sum "Si O2"
_cell_formula_units_Z 60
_cell_length_a 11.538209
_cell_length_b 18.063797
_cell_length_c 14.263311
_cell_angle_alpha 90.000000
_cell_angle_beta 90.000000
_cell_angle_gamma 90.000000
_cell_volume 2972.814408
_symmetry_space_group_name_H-M "I 21 21 21"
_symmetry_group_IT_number 24
_symmetry_cell_setting 'orthorhombic'
loop_
_space_group_symop_operation_xyz
x,y,z
-x,1/2-y,z
x,-y,1/2-z
1/2-x,y,-z
1/2+x,1/2+y,1/2+z
1/2-x,-y,1/2+z
1/2+x,1/2-y,-z
-x,1/2+y,1/2-z
loop_
_atom_site_type_symbol
_atom_site_label
_atom_site_fract_x
_atom_site_fract_y
_atom_site_fract_z
Si Si1 0.246545 0.682678 0.390067
Si Si2 0.714286 0.387177 0.595240
Si Si3 0.529552 0.899270 0.674674
Si Si4 0.458787 0.563333 0.882396
Si Si5 0.750000 0.954767 0.000000
Si Si6 0.724513 0.661548 0.698932
Si Si7 0.118035 0.541668 0.651207
Si Si8 0.858088 0.475342 0.856324
O O1 0.250000 0.698670 0.500000
O O2 0.117754 0.652915 0.377606
O O3 0.262055 0.757623 0.332267
O O4 0.345777 0.628202 0.347339
O O5 0.750000 0.342732 0.500000
O O6 0.576956 0.396816 0.590599
O O7 0.750772 0.344243 0.689450
O O8 0.783450 0.465187 0.586527
O O9 0.579683 0.913227 0.778590
O O10 0.408351 0.857024 0.678927
O O11 0.517818 0.975262 0.616457
O O12 0.360045 0.590206 0.957622
O O13 0.713459 0.006021 0.085357
O O14 0.800396 0.605114 0.637370
O O15 0.126938 0.500000 0.750000
O O16 0.990180 0.531018 0.607014
O O17 0.857260 0.500000 0.750000
#
# Coordination Sequence:
#
# PCOD8164893 Si02
#       8
#     8   8   8   8   4   8   8   8
#     4  12  24  40  57  89 124 161 198 246 304 368
#     4  10  19  36  65  92 118 154 206 255 300 350
#     4  10  19  39  60  86 119 161 202 247 298 360
#     4  10  19  33  64  91 119 151 200 258 299 351
#     4  12  20  34  54  92 122 144 194 244 304 354
#     4  10  22  40  59  85 126 161 202 247 301 362
#     4  11  22  38  61  85 121 157 195 245 305 360
#     4   9  19  37  59  88 118 156 199 245 299 356
#
# _framework density 20.182894000000001
#
# number of rings (size 3 to 8) (size 9 to 14) (size 15 to 20)
#    0.000    1.600    3.333    2.000    0.000    1.067 
#    7.200    0.000    5.867    0.000   13.867    0.000 
#    0.000    0.000    0.000    0.000    0.000    0.000 
#
# Total GULP energy -371898.282823 kJ/mol
# GULP energy per Si atom -12396.609427 kJ/mol
# Density = 2.013696 g / cm^3
# Si number density = 20.182894 Si / 1000 Ang^3
#
#
#
# Elastic Constant Matrix: (Units=GPa)
#
#
# Indices 1 2 3 4 5 6 
#
# 1 102.8635 27.1791 39.3361 -0.0001 0.0000 0.0000
# 2 27.1791 89.4494 37.9041 0.0000 0.0000 0.0000
# 3 39.3361 37.9041 116.0468 0.0000 0.0000 0.0000
# 4 -0.0001 0.0000 0.0000 20.7187 0.0000 0.0000
# 5 0.0000 0.0000 0.0000 0.0000 34.1710 0.0000
# 6 0.0000 0.0000 0.0000 0.0000 0.0000 15.8482
#
#
#
# Elastic Compliance Matrix: (Units=1/GPa)
#
#
# Indices 1 2 3 4 5 6 
#
# 1 0.011512 -0.002141 -0.003203 0.000000 0.000000 0.000000
# 2 -0.002141 0.013373 -0.003643 0.000000 0.000000 0.000000
# 3 -0.003203 -0.003643 0.010893 0.000000 0.000000 0.000000
# 4 0.000000 0.000000 0.000000 0.048265 0.000000 0.000000
# 5 0.000000 0.000000 0.000000 0.000000 0.029265 0.000000
# 6 0.000000 0.000000 0.000000 0.000000 0.000000 0.063099
#
#
# Mechanical properties :
#
#
# Convention : Reuss Voigt Hill
#
# Bulk Modulus (GPa) = 56.16141 57.46648 56.81395
# Shear Modulus (GPa) = 24.96071 27.74360 26.35216
#
# Velocity S-wave (km/s) = 3.52053 3.71160 3.61732
# Velocity P-wave (km/s) = 6.66424 6.84855 6.75702
#
# Compressibility (1/GPa) = 0.01780582
#
# Stress axis : x y z
#
# Youngs Moduli (GPa) = 86.86500 74.77494 91.80466
#
# Poissons Ratio (x) = 0.16007 0.29405
# Poissons Ratio (y) = 0.18595 0.33440
# Poissons Ratio (z) = 0.27823 0.27237
#
# Static dielectric constant tensor:
#      x y z
#    x 3.913610 0.000000 0.000000 
#    y 0.000000 3.416710 0.000000 
#    z 0.000000 0.000000 3.639770 
# 
# 
# High freq. dielectric constant tensor:
#      x y z
#    x 1.802770 0.000000 0.000000 
#    y 0.000000 1.749210 0.000000 
#    z 0.000000 0.000000 1.798690 
# 
# From -- ./inp_files/25980.got.cif
#   From: 2010.03.12/outbox.cif.g09.slc.cpg/sg24_13_cif.got.tgz:25980.got - 2010.04.14 03:06:53.
