data_PCOD8164917
_publ_section_title
;
Structure prediction by ZEFSAII (Michael W. Deem and Ramdas Pophale) SiO2 
 PCOD8164917
Probable space group: I 21 21 21
;
_chemical_formula_sum "Si O2"
_cell_formula_units_Z 56
_cell_length_a 16.324396
_cell_length_b 20.451099
_cell_length_c 8.147307
_cell_angle_alpha 90.000000
_cell_angle_beta 90.000000
_cell_angle_gamma 90.000000
_cell_volume 2719.993422
_symmetry_space_group_name_H-M "I 21 21 21"
_symmetry_group_IT_number 24
_symmetry_cell_setting 'orthorhombic'
loop_
_space_group_symop_operation_xyz
x,y,z
-x,1/2-y,z
x,-y,1/2-z
1/2-x,y,-z
1/2+x,1/2+y,1/2+z
1/2-x,-y,1/2+z
1/2+x,1/2-y,-z
-x,1/2+y,1/2-z
loop_
_atom_site_type_symbol
_atom_site_label
_atom_site_fract_x
_atom_site_fract_y
_atom_site_fract_z
Si Si1 0.698104 0.864897 0.649674
Si Si2 0.687272 0.053240 0.375460
Si Si3 0.963706 0.925380 0.420642
Si Si4 0.939124 0.310567 0.941359
Si Si5 0.475103 0.573827 0.955609
Si Si6 0.598430 0.257555 0.740628
Si Si7 0.932331 0.306619 0.586088
O O1 0.750000 0.834216 0.500000
O O2 0.761621 0.891549 0.781806
O O3 0.635857 0.919934 0.574557
O O4 0.641809 0.811469 0.738495
O O5 0.750000 0.017019 0.500000
O O6 0.616758 0.088327 0.480960
O O7 0.649977 0.000000 0.250000
O O8 0.989180 0.908750 0.234401
O O9 0.006610 0.875931 0.545856
O O10 0.992338 0.996803 0.479554
O O11 0.879653 0.303123 0.100537
O O12 0.000000 0.250000 0.947698
O O13 0.889746 0.309963 0.767277
O O14 0.533265 0.620359 0.060045
O O15 0.500000 0.250000 0.726719
O O16 0.628167 0.289618 0.566906
O O17 0.000000 0.250000 0.596772
#
# Coordination Sequence:
#
# PCOD8164917 Si02
#       7
#     8   8   8   8   8   8   8
#     4  12  24  38  56  81 117 162 209 246 296 361
#     4  12  25  37  49  76 119 168 210 241 286 358
#     4  11  20  38  54  78 118 161 204 245 297 349
#     4  10  19  34  59  80 102 150 199 244 304 345
#     4  11  23  35  54  79 115 163 202 249 294 350
#     4  10  19  40  58  74 109 152 196 257 300 339
#     4  10  21  34  55  79 103 148 202 245 303 343
#
# _framework density 20.588284000000002
#
# number of rings (size 3 to 8) (size 9 to 14) (size 15 to 20)
#    0.000    1.143    5.714    3.000    4.000    0.000 
#    0.000    0.000    0.000    0.000    0.000    0.000 
#    0.000    0.000   19.429    0.429    0.571    1.286 
#
# Total GULP energy -346914.103157 kJ/mol
# GULP energy per Si atom -12389.789398 kJ/mol
# Density = 2.054142 g / cm^3
# Si number density = 20.588284 Si / 1000 Ang^3
#
#
#
# Elastic Constant Matrix: (Units=GPa)
#
#
# Indices 1 2 3 4 5 6 
#
# 1 14.0602 19.4360 10.3961 0.0000 0.0000 0.0000
# 2 19.4360 116.2123 39.1525 0.0000 0.0000 0.0000
# 3 10.3961 39.1525 171.2624 0.0000 0.0000 0.0000
# 4 0.0000 0.0000 0.0000 9.8237 0.0000 0.0000
# 5 0.0000 0.0000 0.0000 0.0000 19.6343 0.0000
# 6 0.0000 0.0000 0.0000 0.0000 0.0000 15.9956
#
#
#
# Elastic Compliance Matrix: (Units=1/GPa)
#
#
# Indices 1 2 3 4 5 6 
#
# 1 0.093319 -0.014842 -0.002272 0.000000 0.000000 0.000000
# 2 -0.014842 0.011684 -0.001770 0.000000 0.000000 0.000000
# 3 -0.002272 -0.001770 0.006382 0.000000 0.000000 0.000000
# 4 0.000000 0.000000 0.000000 0.101795 0.000000 0.000000
# 5 0.000000 0.000000 0.000000 0.000000 0.050931 0.000000
# 6 0.000000 0.000000 0.000000 0.000000 0.000000 0.062517
#
#
# Mechanical properties :
#
#
# Convention : Reuss Voigt Hill
#
# Bulk Modulus (GPa) = 13.58388 48.83379 31.20883
# Shear Modulus (GPa) = 12.85569 24.59408 18.72489
#
# Velocity S-wave (km/s) = 2.50155 3.46000 3.01905
# Velocity P-wave (km/s) = 3.86728 6.30340 5.22918
#
# Compressibility (1/GPa) = 0.07361667
#
# Stress axis : x y z
#
# Youngs Moduli (GPa) = 10.71596 85.59075 156.70197
#
# Poissons Ratio (x) = 1.27032 0.35598
# Poissons Ratio (y) = 0.15904 0.27737
# Poissons Ratio (z) = 0.02434 0.15150
#
# Static dielectric constant tensor:
#      x y z
#    x 3.122050 0.000000 0.000000 
#    y 0.000000 3.649470 0.000000 
#    z 0.000000 0.000000 5.039360 
# 
# 
# High freq. dielectric constant tensor:
#      x y z
#    x 1.718210 0.000000 0.000000 
#    y 0.000000 1.803210 0.000000 
#    z 0.000000 0.000000 1.844880 
# 
# From -- ./inp_files/13128.got.cif
#   From: 2010.03.12/outbox.cif.g09.slc.cpg/sg24_7_cif.got.tgz:13128.got - 2010.04.14 03:06:53.
