data_PCOD8164525
_publ_section_title
;
Structure prediction by ZEFSAII (Michael W. Deem and Ramdas Pophale) SiO2 
 PCOD8164525
Probable space group: I 2 2 2
;
_chemical_formula_sum "Si O2"
_cell_formula_units_Z 48
_cell_length_a 17.523139
_cell_length_b 13.815253
_cell_length_c 9.247150
_cell_angle_alpha 90.000000
_cell_angle_beta 90.000000
_cell_angle_gamma 90.000000
_cell_volume 2238.611091
_symmetry_space_group_name_H-M "I 2 2 2"
_symmetry_group_IT_number 23
_symmetry_cell_setting 'orthorhombic'
loop_
_space_group_symop_operation_xyz
x,y,z
-x,-y,z
x,-y,-z
-x,y,-z
1/2+x,1/2+y,1/2+z
1/2-x,1/2-y,1/2+z
1/2+x,1/2-y,1/2-z
1/2-x,1/2+y,1/2-z
loop_
_atom_site_type_symbol
_atom_site_label
_atom_site_fract_x
_atom_site_fract_y
_atom_site_fract_z
Si Si1 0.047070 0.173639 0.630380
Si Si2 0.812904 0.303705 0.894525
Si Si3 0.668741 0.500000 0.500000
Si Si4 0.735831 0.999672 0.729833
Si Si5 0.440284 0.665408 0.379819
Si Si6 0.175601 0.299113 0.765092
Si Si7 0.144638 0.000000 0.500000
O O1 0.095251 0.255652 0.712410
O O2 0.000000 0.223230 0.500000
O O3 0.986545 0.126152 0.741653
O O4 0.096325 0.086271 0.567182
O O5 0.811147 0.416668 0.853377
O O6 0.890488 0.258108 0.830947
O O7 0.740128 0.253253 0.826287
O O8 0.812797 0.283333 0.065194
O O9 0.722798 0.542039 0.373139
O O10 0.615762 0.415797 0.440562
O O11 0.678163 0.086317 0.770437
O O12 0.801496 0.044007 0.625522
O O13 0.500000 0.698816 0.500000
#
# Coordination Sequence:
#
# PCOD8164525 Si02
#       7
#     8   8   4   8   8   8   4
#     4  12  27  44  70 105 147 188 229 294 367 434
#     4  12  25  46  71 103 144 189 242 299 347 433
#     4  12  25  42  68 110 141 180 230 308 363 430
#     4  12  24  43  78 106 138 187 249 294 354 416
#     4  12  25  45  67 101 147 187 229 289 365 431
#     4  12  24  47  72 103 144 188 244 293 354 432
#     4  12  23  46  68 108 145 186 230 302 369 428
#
# _framework density 21.441865
#
# number of rings (size 3 to 8) (size 9 to 14) (size 15 to 20)
#    0.000    0.000    6.667    3.500    2.333    1.333 
#    0.000    0.833    0.000    1.000    0.000    0.000 
#    0.000    0.000    0.000    0.000    0.000    0.000 
#
# Total GULP energy -297659.708674 kJ/mol
# GULP energy per Si atom -12402.487861 kJ/mol
# Density = 2.139306 g / cm^3
# Si number density = 21.441865 Si / 1000 Ang^3
#
#
#
# Elastic Constant Matrix: (Units=GPa)
#
#
# Indices 1 2 3 4 5 6 
#
# 1 97.6259 58.2408 55.8892 0.0000 0.0000 0.0000
# 2 58.2408 147.4619 45.9704 0.0000 0.0000 0.0000
# 3 55.8892 45.9704 140.4682 0.0000 0.0000 0.0000
# 4 0.0000 0.0000 0.0000 27.3291 0.0000 0.0000
# 5 0.0000 0.0000 0.0000 0.0000 37.8965 0.0000
# 6 0.0000 0.0000 0.0000 0.0000 0.0000 7.2983
#
#
#
# Elastic Compliance Matrix: (Units=1/GPa)
#
#
# Indices 1 2 3 4 5 6 
#
# 1 0.015789 -0.004763 -0.004723 0.000000 0.000000 0.000000
# 2 -0.004763 0.008989 -0.001047 0.000000 0.000000 0.000000
# 3 -0.004723 -0.001047 0.009341 0.000000 0.000000 0.000000
# 4 0.000000 0.000000 0.000000 0.036591 0.000000 0.000000
# 5 0.000000 0.000000 0.000000 0.000000 0.026388 0.000000
# 6 0.000000 0.000000 0.000000 0.000000 0.000000 0.137019
#
#
# Mechanical properties :
#
#
# Convention : Reuss Voigt Hill
#
# Bulk Modulus (GPa) = 76.61419 78.41743 77.51581
# Shear Modulus (GPa) = 19.26534 29.53516 24.40025
#
# Velocity S-wave (km/s) = 3.00074 3.71543 3.37704
# Velocity P-wave (km/s) = 6.91481 7.42007 7.17189
#
# Compressibility (1/GPa) = 0.01305241
#
# Stress axis : x y z
#
# Youngs Moduli (GPa) = 63.33589 111.24690 107.05774
#
# Poissons Ratio (x) = 0.52992 0.50565
# Poissons Ratio (y) = 0.30170 0.11204
# Poissons Ratio (z) = 0.29914 0.11642
#
# Static dielectric constant tensor:
#      x y z
#    x 4.211790 0.000000 0.000000 
#    y 0.000000 4.086220 0.000000 
#    z 0.000000 0.000000 4.318790 
# 
# 
# High freq. dielectric constant tensor:
#      x y z
#    x 1.838600 0.000000 0.000000 
#    y 0.000000 1.829540 0.000000 
#    z 0.000000 0.000000 1.868330 
# 
# From -- ./inp_files/11073.got.cif
#   From: 2010.03.12/outbox.cif.g09.slc.cpg/sg23_6_cif.got.tgz:11073.got - 2010.04.14 02:50:06.
