data_PCOD8164993
_publ_section_title
;
Structure prediction by ZEFSAII (Michael W. Deem and Ramdas Pophale) SiO2 
 PCOD8164993
Probable space group: I 21 21 21
;
_chemical_formula_sum "Si O2"
_cell_formula_units_Z 44
_cell_length_a 10.766151
_cell_length_b 12.270453
_cell_length_c 16.447674
_cell_angle_alpha 90.000000
_cell_angle_beta 90.000000
_cell_angle_gamma 90.000000
_cell_volume 2172.829017
_symmetry_space_group_name_H-M "I 21 21 21"
_symmetry_group_IT_number 24
_symmetry_cell_setting 'orthorhombic'
loop_
_space_group_symop_operation_xyz
x,y,z
-x,1/2-y,z
x,-y,1/2-z
1/2-x,y,-z
1/2+x,1/2+y,1/2+z
1/2-x,-y,1/2+z
1/2+x,1/2-y,-z
-x,1/2+y,1/2-z
loop_
_atom_site_type_symbol
_atom_site_label
_atom_site_fract_x
_atom_site_fract_y
_atom_site_fract_z
Si Si1 0.960752 0.520082 0.476172
Si Si2 0.418446 0.911319 0.820220
Si Si3 0.250000 0.173060 0.000000
Si Si4 0.182668 0.680040 0.203503
Si Si5 0.811135 0.134014 0.109549
Si Si6 0.832858 0.072921 0.571243
O O1 0.878410 0.456353 0.408609
O O2 0.868425 0.599547 0.524355
O O3 0.058447 0.592043 0.424777
O O4 0.023898 0.435239 0.540818
O O5 0.330240 0.810237 0.797504
O O6 0.561688 0.876587 0.834779
O O7 0.402152 0.000000 0.750000
O O8 0.281376 0.245498 0.921723
O O9 0.189210 0.635837 0.293978
O O10 0.305954 0.642446 0.153050
O O11 0.702132 0.053851 0.081987
O O12 0.750000 0.127208 0.500000
#
# Coordination Sequence:
#
# PCOD8164993 Si02
#       6
#     8   8   4   8   8   8
#     4  11  22  39  58  93 134 161 212 259 310 379
#     4  11  20  35  59  95 130 153 206 269 310 364
#     4  12  24  36  62  96 126 174 198 270 320 356
#     4  11  21  35  64  96 120 165 206 261 321 361
#     4  11  20  36  63  96 125 159 212 262 312 372
#     4  10  19  37  60  91 124 158 206 253 309 380
#
# _framework density 20.250097
#
# number of rings (size 3 to 8) (size 9 to 14) (size 15 to 20)
#    0.000    1.091    8.182    2.182    2.545    0.000 
#    1.636    0.000    0.000    8.727    4.727    0.000 
#    0.000    0.000    0.000    0.000    0.000    0.000 
#
# Total GULP energy -272741.802077 kJ/mol
# GULP energy per Si atom -12397.354640 kJ/mol
# Density = 2.020401 g / cm^3
# Si number density = 20.250097 Si / 1000 Ang^3
#
#
#
# Elastic Constant Matrix: (Units=GPa)
#
#
# Indices 1 2 3 4 5 6 
#
# 1 51.5281 28.3638 36.6197 0.0000 0.0000 0.0000
# 2 28.3638 92.2004 31.5868 0.0000 0.0000 0.0000
# 3 36.6197 31.5868 99.8079 0.0000 0.0000 0.0000
# 4 0.0000 0.0000 0.0000 35.7357 0.0000 0.0000
# 5 0.0000 0.0000 0.0000 0.0000 13.7618 0.0000
# 6 0.0000 0.0000 0.0000 0.0000 0.0000 26.1501
#
#
#
# Elastic Compliance Matrix: (Units=1/GPa)
#
#
# Indices 1 2 3 4 5 6 
#
# 1 0.028844 -0.005886 -0.008720 0.000000 0.000000 0.000000
# 2 -0.005886 0.013366 -0.002070 0.000000 0.000000 0.000000
# 3 -0.008720 -0.002070 0.013874 0.000000 0.000000 0.000000
# 4 0.000000 0.000000 0.000000 0.027983 0.000000 0.000000
# 5 0.000000 0.000000 0.000000 0.000000 0.072665 0.000000
# 6 0.000000 0.000000 0.000000 0.000000 0.000000 0.038241
#
#
# Mechanical properties :
#
#
# Convention : Reuss Voigt Hill
#
# Bulk Modulus (GPa) = 43.99314 48.51968 46.25641
# Shear Modulus (GPa) = 21.19518 24.92727 23.06122
#
# Velocity S-wave (km/s) = 3.23874 3.51233 3.37830
# Velocity P-wave (km/s) = 5.97980 6.36088 6.17328
#
# Compressibility (1/GPa) = 0.02273082
#
# Stress axis : x y z
#
# Youngs Moduli (GPa) = 34.66925 74.81700 72.07757
#
# Poissons Ratio (x) = 0.44037 0.62853
# Poissons Ratio (y) = 0.20406 0.14923
# Poissons Ratio (z) = 0.30232 0.15490
#
# Static dielectric constant tensor:
#      x y z
#    x 3.362560 0.000000 0.000000 
#    y 0.000000 3.745690 0.000000 
#    z 0.000000 0.000000 3.721400 
# 
# 
# High freq. dielectric constant tensor:
#      x y z
#    x 1.747390 0.000000 0.000000 
#    y 0.000000 1.793510 0.000000 
#    z 0.000000 0.000000 1.794550 
# 
# From -- ./inp_files/30166.got.cif
#   From: 2010.03.12/outbox.cif.g09.slc.cpg/sg24_16_cif.got.tgz:30166.got - 2010.04.14 03:06:53.
