data_PCOD8164263
_publ_section_title
;
Structure prediction by ZEFSAII (Michael W. Deem and Ramdas Pophale) SiO2 
 PCOD8164263
Probable space group: I 2 2 2
;
_chemical_formula_sum "Si O2"
_cell_formula_units_Z 30
_cell_length_a 14.868800
_cell_length_b 10.626540
_cell_length_c 7.920679
_cell_angle_alpha 90.000000
_cell_angle_beta 90.000000
_cell_angle_gamma 90.000000
_cell_volume 1251.498156
_symmetry_space_group_name_H-M "I 2 2 2"
_symmetry_group_IT_number 23
_symmetry_cell_setting 'orthorhombic'
loop_
_space_group_symop_operation_xyz
x,y,z
-x,-y,z
x,-y,-z
-x,y,-z
1/2+x,1/2+y,1/2+z
1/2-x,1/2-y,1/2+z
1/2+x,1/2-y,1/2-z
1/2-x,1/2+y,1/2-z
loop_
_atom_site_type_symbol
_atom_site_label
_atom_site_fract_x
_atom_site_fract_y
_atom_site_fract_z
Si Si1 0.202577 0.902014 0.845807
Si Si2 0.881683 0.735248 0.590488
Si Si3 0.331942 0.500000 0.000000
Si Si4 0.440828 0.200114 0.737537
Si Si5 0.000000 0.500000 0.000000
O O1 0.280846 0.798634 0.858967
O O2 0.109102 0.823961 0.836114
O O3 0.224594 0.976582 0.672186
O O4 0.198249 0.000000 0.000000
O O5 0.893557 0.879586 0.534282
O O6 0.904638 0.656021 0.420930
O O7 0.950992 0.719514 0.744538
O O8 0.431076 0.084081 0.610118
#
# Coordination Sequence:
#
# PCOD8164263 Si02
#       5
#     8   8   4   8   2
#     4  11  27  47  78 112 150 200 255 314 381 468
#     4  10  25  50  73 110 149 200 250 311 392 456
#     4  10  26  48  80 102 156 192 248 312 384 458
#     4  10  27  48  75 107 151 198 251 318 392 459
#     4  12  28  44  74 110 152 192 260 316 386 470
#
# _framework density 23.971268999999999
#
# number of rings (size 3 to 8) (size 9 to 14) (size 15 to 20)
#    0.000    1.600    0.000    0.000   14.933   11.733 
#    0.000    0.000    0.000    0.000    0.000    0.000 
#    0.000    0.000    0.000    0.000    0.000    0.000 
#
# Total GULP energy -185915.909438 kJ/mol
# GULP energy per Si atom -12394.393963 kJ/mol
# Density = 2.391671 g / cm^3
# Si number density = 23.971269 Si / 1000 Ang^3
#
#
#
# Elastic Constant Matrix: (Units=GPa)
#
#
# Indices 1 2 3 4 5 6 
#
# 1 123.2747 57.4556 58.4059 0.0000 0.0000 0.0000
# 2 57.4556 128.5957 85.5912 0.0000 0.0000 0.0000
# 3 58.4059 85.5912 164.3488 0.0000 0.0000 0.0000
# 4 0.0000 0.0000 0.0000 50.2733 0.0000 0.0000
# 5 0.0000 0.0000 0.0000 0.0000 28.7512 0.0000
# 6 0.0000 0.0000 0.0000 0.0000 0.0000 20.0920
#
#
#
# Elastic Compliance Matrix: (Units=1/GPa)
#
#
# Indices 1 2 3 4 5 6 
#
# 1 0.010659 -0.003430 -0.002002 0.000000 0.000000 0.000000
# 2 -0.003430 0.013006 -0.005554 0.000000 0.000000 0.000000
# 3 -0.002002 -0.005554 0.009689 0.000000 0.000000 0.000000
# 4 0.000000 0.000000 0.000000 0.019891 0.000000 0.000000
# 5 0.000000 0.000000 0.000000 0.000000 0.034781 0.000000
# 6 0.000000 0.000000 0.000000 0.000000 0.000000 0.049771
#
#
# Mechanical properties :
#
#
# Convention : Reuss Voigt Hill
#
# Bulk Modulus (GPa) = 87.86349 91.01384 89.43866
# Shear Modulus (GPa) = 30.56938 34.14106 32.35522
#
# Velocity S-wave (km/s) = 3.57494 3.77802 3.67788
# Velocity P-wave (km/s) = 7.33304 7.55523 7.44497
#
# Compressibility (1/GPa) = 0.01138129
#
# Stress axis : x y z
#
# Youngs Moduli (GPa) = 93.81743 76.88949 103.21486
#
# Poissons Ratio (x) = 0.26374 0.20659
# Poissons Ratio (y) = 0.32181 0.57328
# Poissons Ratio (z) = 0.18778 0.42706
#
# Static dielectric constant tensor:
#      x y z
#    x 3.977670 0.000000 0.000000 
#    y 0.000000 4.255910 0.000000 
#    z 0.000000 0.000000 4.697070 
# 
# 
# High freq. dielectric constant tensor:
#      x y z
#    x 1.934110 0.000000 0.000000 
#    y 0.000000 1.951980 0.000000 
#    z 0.000000 0.000000 1.972760 
# 
# From -- ./inp_files/9257.got.cif
#   From: 2010.03.12/outbox.cif.g09.slc.cpg/sg23_5_cif.got.tgz:9257.got - 2010.04.14 02:50:06.
