data_PCOD8164062
_publ_section_title
;
Structure prediction by ZEFSAII (Michael W. Deem and Ramdas Pophale) SiO2 
 PCOD8164062
Probable space group: I 2 2 2
;
_chemical_formula_sum "Si O2"
_cell_formula_units_Z 64
_cell_length_a 11.149025
_cell_length_b 16.474186
_cell_length_c 17.211167
_cell_angle_alpha 90.000000
_cell_angle_beta 90.000000
_cell_angle_gamma 90.000000
_cell_volume 3161.194174
_symmetry_space_group_name_H-M "I 2 2 2"
_symmetry_group_IT_number 23
_symmetry_cell_setting 'orthorhombic'
loop_
_space_group_symop_operation_xyz
x,y,z
-x,-y,z
x,-y,-z
-x,y,-z
1/2+x,1/2+y,1/2+z
1/2-x,1/2-y,1/2+z
1/2+x,1/2-y,1/2-z
1/2-x,1/2+y,1/2-z
loop_
_atom_site_type_symbol
_atom_site_label
_atom_site_fract_x
_atom_site_fract_y
_atom_site_fract_z
Si Si1 0.567196 0.329769 0.579835
Si Si2 0.705079 0.861700 0.133016
Si Si3 0.279793 0.539994 0.654032
Si Si4 0.135969 0.913839 0.472974
Si Si5 0.067438 0.337470 0.347586
Si Si6 0.081242 0.926600 0.304194
Si Si7 0.202072 0.256904 0.476802
Si Si8 0.914905 0.795110 0.222799
O O1 0.500000 0.342196 0.500000
O O2 0.611633 0.418503 0.606963
O O3 0.681577 0.271776 0.575406
O O4 0.478473 0.285475 0.639634
O O5 0.567611 0.869491 0.158170
O O6 0.778746 0.822926 0.204887
O O7 0.762405 0.950398 0.118850
O O8 0.713097 0.809129 0.055058
O O9 0.153903 0.585572 0.645964
O O10 0.320901 0.540353 0.743556
O O11 0.150386 0.897557 0.380927
O O12 0.204928 0.839140 0.511340
O O13 0.000000 0.910225 0.500000
O O14 0.193676 0.000000 0.500000
O O15 0.085670 0.282652 0.425389
O O16 0.096922 0.288611 0.269061
O O17 0.994558 0.856421 0.273251
O O18 0.000000 0.000000 0.333219
#
# Coordination Sequence:
#
# PCOD8164062 Si02
#       8
#     8   8   8   8   8   8   8   8
#     4  10  22  43  64  96 130 167 218 263 321 390
#     4  12  23  42  67  93 131 173 213 264 329 385
#     4  10  25  41  63  98 131 171 215 267 323 394
#     4  11  22  38  65  99 126 165 215 280 323 377
#     4  11  26  42  65  92 133 172 215 263 331 393
#     4  11  20  39  61  96 130 161 218 271 323 379
#     4  11  24  42  65  97 129 171 213 268 328 387
#     4  11  24  40  65  95 125 176 211 267 320 387
#
# _framework density 20.245514
#
# number of rings (size 3 to 8) (size 9 to 14) (size 15 to 20)
#    0.000    1.125    3.750    3.000    7.000    2.000 
#    2.250    2.500    0.000    0.375    0.000    0.000 
#    0.000    0.000    0.000    0.000    0.000    0.000 
#
# Total GULP energy -396830.937510 kJ/mol
# GULP energy per Si atom -12400.966797 kJ/mol
# Density = 2.019943 g / cm^3
# Si number density = 20.245514 Si / 1000 Ang^3
#
#
#
# Elastic Constant Matrix: (Units=GPa)
#
#
# Indices 1 2 3 4 5 6 
#
# 1 68.4586 11.1655 19.2745 0.0003 0.0000 0.0000
# 2 11.1655 108.5905 37.0346 0.0035 0.0000 0.0000
# 3 19.2745 37.0346 116.2653 -0.0005 0.0000 0.0000
# 4 0.0003 0.0035 -0.0005-9655.0065 -0.0002 0.0001
# 5 0.0000 0.0000 0.0000 -0.0002 27.3727 0.0000
# 6 0.0000 0.0000 0.0000 0.0001 0.0000 22.9161
#
#
#
# Elastic Compliance Matrix: (Units=1/GPa)
#
#
# Indices 1 2 3 4 5 6 
#
# 1 0.015384 -0.000799 -0.002296 0.000000 0.000000 0.000000
# 2 -0.000799 0.010373 -0.003172 0.000000 0.000000 0.000000
# 3 -0.002296 -0.003172 0.009992 0.000000 0.000000 0.000000
# 4 0.000000 0.000000 0.000000 -0.000104 0.000000 0.000000
# 5 0.000000 0.000000 0.000000 0.000000 0.036533 0.000000
# 6 0.000000 0.000000 0.000000 0.000000 0.000000 0.043637
#
#
# Mechanical properties :
#
#
# Convention : Reuss Voigt Hill
#
# Bulk Modulus (GPa) = 43.07381 47.58483 45.32932
# Shear Modulus (GPa) = 36.74128 -1905.88755 -934.57313
#
# Velocity S-wave (km/s) = 4.26465 -30.71533 -21.50865
# Velocity P-wave (km/s) = 6.75067 35.13337 24.38013
#
# Compressibility (1/GPa) = 0.02321596
#
# Stress axis : x y z
#
# Youngs Moduli (GPa) = 65.00231 96.40664 100.08092
#
# Poissons Ratio (x) = 0.07701 0.22978
# Poissons Ratio (y) = 0.05192 0.31742
# Poissons Ratio (z) = 0.14924 0.30577
#
# Static dielectric constant tensor:
#      x y z
#    x 201.235010 -0.000020 -0.000010 
#    y -0.000020 3.747690 0.000000 
#    z -0.000010 0.000000 3.855950 
# 
# 
# High freq. dielectric constant tensor:
#      x y z
#    x 1.786900 0.000000 0.000000 
#    y 0.000000 1.787590 0.000000 
#    z 0.000000 0.000000 1.801630 
# 
# From -- ./inp_files/24428.got.cif
#   From: 2010.03.12/outbox.cif.g09.slc.cpg/sg23_13_cif.got.tgz:24428.got - 2010.04.14 02:50:06.
