data_PCOD8164215
_publ_section_title
;
Structure prediction by ZEFSAII (Michael W. Deem and Ramdas Pophale) SiO2 
 PCOD8164215
Probable space group: I 2 2 2
;
_chemical_formula_sum "Si O2"
_cell_formula_units_Z 46
_cell_length_a 7.559855
_cell_length_b 15.071542
_cell_length_c 19.141887
_cell_angle_alpha 90.000000
_cell_angle_beta 90.000000
_cell_angle_gamma 90.000000
_cell_volume 2181.001187
_symmetry_space_group_name_H-M "I 2 2 2"
_symmetry_group_IT_number 23
_symmetry_cell_setting 'orthorhombic'
loop_
_space_group_symop_operation_xyz
x,y,z
-x,-y,z
x,-y,-z
-x,y,-z
1/2+x,1/2+y,1/2+z
1/2-x,1/2-y,1/2+z
1/2+x,1/2-y,1/2-z
1/2-x,1/2+y,1/2-z
loop_
_atom_site_type_symbol
_atom_site_label
_atom_site_fract_x
_atom_site_fract_y
_atom_site_fract_z
Si Si1 0.741972 0.827899 0.796451
Si Si2 0.000000 0.500000 0.500000
Si Si3 0.363617 0.656987 0.284180
Si Si4 0.313114 0.454736 0.933430
Si Si5 0.801766 0.495657 0.786674
Si Si6 0.000000 0.201666 0.500000
Si Si7 0.428609 0.850939 0.898820
O O1 0.672762 0.731500 0.774294
O O2 0.749119 0.893705 0.728788
O O3 0.621025 0.861533 0.860982
O O4 0.946591 0.825711 0.820133
O O5 0.887974 0.435768 0.448558
O O6 0.340457 0.559907 0.250207
O O7 0.219927 0.662444 0.342993
O O8 0.500000 0.500000 0.916096
O O9 0.188994 0.472572 0.867189
O O10 0.353304 0.353637 0.956044
O O11 0.219247 0.500000 0.000000
O O12 0.000000 0.500000 0.755419
O O13 0.904345 0.262850 0.443919
#
# Coordination Sequence:
#
# PCOD8164215 Si02
#       7
#     8   2   8   8   8   4   8
#     4  12  24  41  69 100 134 172 220 286 333 400
#     4  10  24  44  68  92 138 190 212 288 314 426
#     4  12  24  41  66 102 135 171 222 282 338 397
#     4   9  20  36  59  85 121 168 209 247 322 383
#     4  12  23  40  63  97 134 171 218 276 332 395
#     4   9  21  39  65  86 126 176 205 273 307 401
#     4  11  22  43  67  94 132 171 231 257 344 382
#
# _framework density 21.091229999999999
#
# number of rings (size 3 to 8) (size 9 to 14) (size 15 to 20)
#    0.000    1.217    3.478    3.652    4.870    0.348 
#    0.000    4.348    7.652    0.000    0.000    0.000 
#    0.000    0.000    0.000    0.000    0.000    0.000 
#
# Total GULP energy -285016.572991 kJ/mol
# GULP energy per Si atom -12392.024913 kJ/mol
# Density = 2.104323 g / cm^3
# Si number density = 21.091230 Si / 1000 Ang^3
#
#
#
# Elastic Constant Matrix: (Units=GPa)
#
#
# Indices 1 2 3 4 5 6 
#
# 1 105.2078 6.7963 7.3477 0.0000 0.0000 0.0000
# 2 6.7963 122.8344 25.0721 0.0000 0.0000 0.0000
# 3 7.3477 25.0721 82.6019 0.0000 0.0000 0.0000
# 4 0.0000 0.0000 0.0000 55.3027 0.0000 0.0000
# 5 0.0000 0.0000 0.0000 0.0000 10.1804 0.0000
# 6 0.0000 0.0000 0.0000 0.0000 0.0000 30.0892
#
#
#
# Elastic Compliance Matrix: (Units=1/GPa)
#
#
# Indices 1 2 3 4 5 6 
#
# 1 0.009581 -0.000380 -0.000737 0.000000 0.000000 0.000000
# 2 -0.000380 0.008694 -0.002605 0.000000 0.000000 0.000000
# 3 -0.000737 -0.002605 0.012963 0.000000 0.000000 0.000000
# 4 0.000000 0.000000 0.000000 0.018082 0.000000 0.000000
# 5 0.000000 0.000000 0.000000 0.000000 0.098228 0.000000
# 6 0.000000 0.000000 0.000000 0.000000 0.000000 0.033235
#
#
# Mechanical properties :
#
#
# Convention : Reuss Voigt Hill
#
# Bulk Modulus (GPa) = 42.02768 43.23068 42.62918
# Shear Modulus (GPa) = 25.48987 37.20968 31.34977
#
# Velocity S-wave (km/s) = 3.48020 4.20482 3.85955
# Velocity P-wave (km/s) = 6.00990 6.64195 6.33382
#
# Compressibility (1/GPa) = 0.02379384
#
# Stress axis : x y z
#
# Youngs Moduli (GPa) = 104.37323 115.02486 77.14549
#
# Poissons Ratio (x) = 0.04367 0.05686
# Poissons Ratio (y) = 0.03963 0.20097
# Poissons Ratio (z) = 0.07692 0.29964
#
# Static dielectric constant tensor:
#      x y z
#    x 3.703540 0.000000 0.000000 
#    y 0.000000 4.214950 0.000000 
#    z 0.000000 0.000000 4.026970 
# 
# 
# High freq. dielectric constant tensor:
#      x y z
#    x 1.804440 0.000000 0.000000 
#    y 0.000000 1.843990 0.000000 
#    z 0.000000 0.000000 1.827540 
# 
# From -- ./inp_files/26182.got.cif
#   From: 2010.03.12/outbox.cif.g09.slc.cpg/sg23_14_cif.got.tgz:26182.got - 2010.04.14 02:50:06.
