data_PCOD8164422
_publ_section_title
;
Structure prediction by ZEFSAII (Michael W. Deem and Ramdas Pophale) SiO2 
 PCOD8164422
Probable space group: I 2 2 2
;
_chemical_formula_sum "Si O2"
_cell_formula_units_Z 36
_cell_length_a 4.855873
_cell_length_b 11.310739
_cell_length_c 28.941385
_cell_angle_alpha 90.000000
_cell_angle_beta 90.000000
_cell_angle_gamma 90.000000
_cell_volume 1589.562510
_symmetry_space_group_name_H-M "I 2 2 2"
_symmetry_group_IT_number 23
_symmetry_cell_setting 'orthorhombic'
loop_
_space_group_symop_operation_xyz
x,y,z
-x,-y,z
x,-y,-z
-x,y,-z
1/2+x,1/2+y,1/2+z
1/2-x,1/2-y,1/2+z
1/2+x,1/2-y,1/2-z
1/2-x,1/2+y,1/2-z
loop_
_atom_site_type_symbol
_atom_site_label
_atom_site_fract_x
_atom_site_fract_y
_atom_site_fract_z
Si Si1 0.621896 0.307798 0.393807
Si Si2 0.000000 0.000000 0.818552
Si Si3 0.246850 0.075486 0.652194
Si Si4 0.402068 0.134284 0.951151
Si Si5 0.774638 0.171485 0.252835
O O1 0.626980 0.398961 0.351203
O O2 0.592274 0.172141 0.379184
O O3 0.417775 0.347463 0.436174
O O4 0.934615 0.302777 0.410763
O O5 0.220375 0.066861 0.785631
O O6 0.106350 0.129260 0.697916
O O7 0.500000 0.000000 0.670193
O O8 0.000000 0.000000 0.627071
O O9 0.500000 0.000000 0.952016
O O10 0.500000 0.191280 0.000000
O O11 0.964485 0.283333 0.239501
#
# Coordination Sequence:
#
# PCOD8164422 Si02
#       5
#     8   4   8   8   8
#     4  12  25  42  70 103 137 177 230 289 343 421
#     4  12  26  40  69 100 142 178 237 282 346 402
#     4  12  26  46  66  94 137 194 239 282 338 402
#     4  11  23  43  70 105 141 170 210 282 373 435
#     4  12  27  42  62  94 140 188 230 285 336 397
#
# _framework density 22.647742999999998
#
# number of rings (size 3 to 8) (size 9 to 14) (size 15 to 20)
#    0.000    0.222    5.556    3.333    3.111    3.556 
#    0.000    0.000    0.000   10.000    0.000    0.000 
#    0.000    0.000    0.000    0.000    0.000    0.000 
#
# Total GULP energy -223016.924150 kJ/mol
# GULP energy per Si atom -12389.829119 kJ/mol
# Density = 2.259620 g / cm^3
# Si number density = 22.647743 Si / 1000 Ang^3
#
#
#
# Elastic Constant Matrix: (Units=GPa)
#
#
# Indices 1 2 3 4 5 6 
#
# 1 89.0650 31.4343 13.3130 0.0000 0.0000 0.0000
# 2 31.4343 112.4865 38.7179 0.0000 0.0000 0.0000
# 3 13.3130 38.7179 96.9535 0.0000 0.0000 0.0000
# 4 0.0000 0.0000 0.0000 19.5021 0.0000 0.0000
# 5 0.0000 0.0000 0.0000 0.0000 25.5996 0.0000
# 6 0.0000 0.0000 0.0000 0.0000 0.0000 42.9806
#
#
#
# Elastic Compliance Matrix: (Units=1/GPa)
#
#
# Indices 1 2 3 4 5 6 
#
# 1 0.012468 -0.003356 -0.000372 0.000000 0.000000 0.000000
# 2 -0.003356 0.011210 -0.004016 0.000000 0.000000 0.000000
# 3 -0.000372 -0.004016 0.011969 0.000000 0.000000 0.000000
# 4 0.000000 0.000000 0.000000 0.051277 0.000000 0.000000
# 5 0.000000 0.000000 0.000000 0.000000 0.039063 0.000000
# 6 0.000000 0.000000 0.000000 0.000000 0.000000 0.023266
#
#
# Mechanical properties :
#
#
# Convention : Reuss Voigt Hill
#
# Bulk Modulus (GPa) = 49.60463 51.71502 50.65983
# Shear Modulus (GPa) = 29.16128 31.95245 30.55686
#
# Velocity S-wave (km/s) = 3.59221 3.76020 3.67716
# Velocity P-wave (km/s) = 6.25744 6.46036 6.35971
#
# Compressibility (1/GPa) = 0.02015941
#
# Stress axis : x y z
#
# Youngs Moduli (GPa) = 80.20634 89.20530 83.54935
#
# Poissons Ratio (x) = 0.29939 0.03106
# Poissons Ratio (y) = 0.26919 0.33552
# Poissons Ratio (z) = 0.02981 0.35824
#
# Static dielectric constant tensor:
#      x y z
#    x 3.404880 0.000000 0.000000 
#    y 0.000000 4.585460 0.000000 
#    z 0.000000 0.000000 4.215730 
# 
# 
# High freq. dielectric constant tensor:
#      x y z
#    x 1.896000 0.000000 0.000000 
#    y 0.000000 1.893490 0.000000 
#    z 0.000000 0.000000 1.882370 
# 
# From -- ./inp_files/28854.got.cif
#   From: 2010.03.12/outbox.cif.g09.slc.cpg/sg23_15_cif.got.tgz:28854.got - 2010.04.14 02:50:06.
