data_PCOD8164918
_publ_section_title
;
Structure prediction by ZEFSAII (Michael W. Deem and Ramdas Pophale) SiO2 
 PCOD8164918
Probable space group: I 21 21 21
;
_chemical_formula_sum "Si O2"
_cell_formula_units_Z 40
_cell_length_a 15.969662
_cell_length_b 12.720160
_cell_length_c 9.137734
_cell_angle_alpha 90.000000
_cell_angle_beta 90.000000
_cell_angle_gamma 90.000000
_cell_volume 1856.208726
_symmetry_space_group_name_H-M "I 21 21 21"
_symmetry_group_IT_number 24
_symmetry_cell_setting 'orthorhombic'
loop_
_space_group_symop_operation_xyz
x,y,z
-x,1/2-y,z
x,-y,1/2-z
1/2-x,y,-z
1/2+x,1/2+y,1/2+z
1/2-x,-y,1/2+z
1/2+x,1/2-y,-z
-x,1/2+y,1/2-z
loop_
_atom_site_type_symbol
_atom_site_label
_atom_site_fract_x
_atom_site_fract_y
_atom_site_fract_z
Si Si1 0.216478 0.087666 0.653644
Si Si2 0.825958 0.073814 0.108795
Si Si3 0.511908 0.461730 0.915073
Si Si4 0.070779 0.178046 0.516462
Si Si5 0.367208 0.198680 0.795189
O O1 0.250000 0.041254 0.500000
O O2 0.154212 0.185162 0.616668
O O3 0.293460 0.119117 0.756336
O O4 0.168431 0.000000 0.750000
O O5 0.823868 0.196629 0.146689
O O6 0.916664 0.057129 0.031976
O O7 0.815040 0.000000 0.250000
O O8 0.750000 0.046203 0.000000
O O9 0.510011 0.500000 0.750000
O O10 0.549560 0.553696 0.015625
O O11 0.569862 0.355917 0.914261
O O12 0.083971 0.226544 0.354948
O O13 0.000000 0.250000 0.592266
#
# Coordination Sequence:
#
# PCOD8164918 Si02
#       5
#     8   8   8   8   8
#     4  10  21  37  61  90 118 153 200 259 311 357
#     4  11  24  39  60  88 122 162 202 249 304 371
#     4   9  18  36  62  86 114 157 206 247 289 360
#     4  10  19  34  59  88 121 158 196 244 309 375
#     4  10  19  36  62  88 114 154 210 259 298 353
#
# _framework density 21.549302000000001
#
# number of rings (size 3 to 8) (size 9 to 14) (size 15 to 20)
#    0.000    2.000    0.000    7.200    0.000    6.400 
#    0.000    3.000    0.000    0.000    0.000    0.000 
#    0.000    0.000    0.000    0.000    0.000    0.000 
#
# Total GULP energy -247859.908728 kJ/mol
# GULP energy per Si atom -12392.995436 kJ/mol
# Density = 2.150025 g / cm^3
# Si number density = 21.549302 Si / 1000 Ang^3
#
#
#
# Elastic Constant Matrix: (Units=GPa)
#
#
# Indices 1 2 3 4 5 6 
#
# 1 148.9428 35.4959 48.6042 0.0000 0.0000 0.0000
# 2 35.4959 98.0128 35.9287 0.0000 0.0000 0.0000
# 3 48.6042 35.9287 47.1754 0.0000 0.0000 0.0000
# 4 0.0000 0.0000 0.0000 17.4921 0.0000 0.0000
# 5 0.0000 0.0000 0.0000 0.0000 28.2303 0.0000
# 6 0.0000 0.0000 0.0000 0.0000 0.0000 23.3501
#
#
#
# Elastic Compliance Matrix: (Units=1/GPa)
#
#
# Indices 1 2 3 4 5 6 
#
# 1 0.010118 0.000218 -0.010590 0.000000 0.000000 0.000000
# 2 0.000218 0.014159 -0.011008 0.000000 0.000000 0.000000
# 3 -0.010590 -0.011008 0.040492 0.000000 0.000000 0.000000
# 4 0.000000 0.000000 0.000000 0.057169 0.000000 0.000000
# 5 0.000000 0.000000 0.000000 0.000000 0.035423 0.000000
# 6 0.000000 0.000000 0.000000 0.000000 0.000000 0.042826
#
#
# Mechanical properties :
#
#
# Convention : Reuss Voigt Hill
#
# Bulk Modulus (GPa) = 45.43726 59.35429 52.39578
# Shear Modulus (GPa) = 19.97729 25.42132 22.69930
#
# Velocity S-wave (km/s) = 3.04805 3.43838 3.24908
# Velocity P-wave (km/s) = 5.78952 6.58533 6.20020
#
# Compressibility (1/GPa) = 0.02200837
#
# Stress axis : x y z
#
# Youngs Moduli (GPa) = 98.83370 70.62616 24.69608
#
# Poissons Ratio (x) = -0.01538 0.26154
# Poissons Ratio (y) = -0.02153 0.27185
# Poissons Ratio (z) = 1.04669 0.77745
#
# Static dielectric constant tensor:
#      x y z
#    x 4.238590 0.000000 0.000000 
#    y 0.000000 3.782770 0.000000 
#    z 0.000000 0.000000 3.527640 
# 
# 
# High freq. dielectric constant tensor:
#      x y z
#    x 1.866130 0.000000 0.000000 
#    y 0.000000 1.839490 0.000000 
#    z 0.000000 0.000000 1.796620 
# 
# From -- ./inp_files/13819.got.cif
#   From: 2010.03.12/outbox.cif.g09.slc.cpg/sg24_7_cif.got.tgz:13819.got - 2010.04.14 03:06:53.
