data_PCOD8164902
_publ_section_title
;
Structure prediction by ZEFSAII (Michael W. Deem and Ramdas Pophale) SiO2 
 PCOD8164902
Probable space group: I 21 21 21
;
_chemical_formula_sum "Si O2"
_cell_formula_units_Z 64
_cell_length_a 15.551337
_cell_length_b 8.989664
_cell_length_c 20.809989
_cell_angle_alpha 90.000000
_cell_angle_beta 90.000000
_cell_angle_gamma 90.000000
_cell_volume 2909.263398
_symmetry_space_group_name_H-M "I 21 21 21"
_symmetry_group_IT_number 24
_symmetry_cell_setting 'orthorhombic'
loop_
_space_group_symop_operation_xyz
x,y,z
-x,1/2-y,z
x,-y,1/2-z
1/2-x,y,-z
1/2+x,1/2+y,1/2+z
1/2-x,-y,1/2+z
1/2+x,1/2-y,-z
-x,1/2+y,1/2-z
loop_
_atom_site_type_symbol
_atom_site_label
_atom_site_fract_x
_atom_site_fract_y
_atom_site_fract_z
Si Si1 0.352538 0.857257 0.999967
Si Si2 0.852239 0.827782 0.122852
Si Si3 0.647582 0.827729 0.122803
Si Si4 0.849033 0.158065 0.872656
Si Si5 0.852620 0.332542 0.249146
Si Si6 0.404385 0.810143 0.500058
Si Si7 0.151287 0.341888 0.127293
Si Si8 0.647130 0.332539 0.249188
O O1 0.384369 0.765858 0.938063
O O2 0.402371 0.012472 0.999940
O O3 0.250000 0.884836 0.000000
O O4 0.384461 0.765872 0.061850
O O5 0.749910 0.832864 0.121453
O O6 0.886550 0.751013 0.187560
O O7 0.891149 0.994885 0.119341
O O8 0.613233 0.750864 0.187475
O O9 0.608606 0.994796 0.119326
O O10 0.750150 0.134210 0.855485
O O11 0.891253 0.247561 0.813160
O O12 0.856290 0.252222 0.937218
O O13 0.888831 0.500000 0.250000
O O14 0.890965 0.247745 0.186740
O O15 0.749875 0.335268 0.247210
O O16 0.500000 0.750000 0.500384
O O17 0.355740 0.752102 0.562656
O O18 0.610922 0.500000 0.250000
#
# Coordination Sequence:
#
# PCOD8164902 Si02
#       8
#     8   8   8   8   8   8   8   8
#     4  10  19  34  57  82 109 140 177 218 264 320
#     4   9  17  30  53  86 113 135 171 219 265 312
#     4   9  17  30  53  86 113 135 171 219 265 312
#     4  10  19  34  56  79 106 140 178 219 266 319
#     4   9  16  27  49  83 115 138 167 213 264 312
#     4  12  25  38  52  74 106 140 179 226 270 318
#     4  10  19  34  56  79 106 140 178 219 266 319
#     4   9  16  27  49  83 115 138 167 213 264 312
#
# _framework density 21.998695000000001
#
# number of rings (size 3 to 8) (size 9 to 14) (size 15 to 20)
#    0.000    2.250    0.000    4.125    0.000    9.000 
#    0.000    2.500    0.000    9.000    0.000    0.000 
#    0.000    0.000    0.000    0.000    0.000    0.000 
#
# Total GULP energy -396828.008327 kJ/mol
# GULP energy per Si atom -12400.875260 kJ/mol
# Density = 2.194862 g / cm^3
# Si number density = 21.998695 Si / 1000 Ang^3
#
#
#
# Elastic Constant Matrix: (Units=GPa)
#
#
# Indices 1 2 3 4 5 6 
#
# 1 16.4416 12.4566 -2.6777 0.0000 0.0000 0.0000
# 2 12.4566 245.6336 120.6119 0.0000 0.0000 0.0000
# 3 -2.6777 120.6119 229.2323 0.0000 0.0000 0.0000
# 4 0.0000 0.0000 0.0000 49.8923 0.0000 0.0000
# 5 0.0000 0.0000 0.0000 0.0000 -3.3718 0.0000
# 6 0.0000 0.0000 0.0000 0.0000 0.0000 10.5815
#
#
#
# Elastic Compliance Matrix: (Units=1/GPa)
#
#
# Indices 1 2 3 4 5 6 
#
# 1 0.065126 -0.004957 0.003369 0.000000 0.000000 0.000000
# 2 -0.004957 0.005867 -0.003145 0.000000 0.000000 0.000000
# 3 0.003369 -0.003145 0.006056 0.000000 0.000000 0.000000
# 4 0.000000 0.000000 0.000000 0.020043 0.000000 0.000000
# 5 0.000000 0.000000 0.000000 0.000000 -0.296581 0.000000
# 6 0.000000 0.000000 0.000000 0.000000 0.000000 0.094505
#
#
# Mechanical properties :
#
#
# Convention : Reuss Voigt Hill
#
# Bulk Modulus (GPa) = 14.79659 83.56546 49.18102
# Shear Modulus (GPa) = -68.50098 35.48152 -16.50973
#
# Velocity S-wave (km/s) = -5.58626 4.02044 -2.74247
# Velocity P-wave (km/s) = 5.90488 7.72146 3.51805
#
# Compressibility (1/GPa) = 0.06758316
#
# Stress axis : x y z
#
# Youngs Moduli (GPa) = 15.35495 170.45765 165.11728
#
# Poissons Ratio (x) = 0.84493 -0.55625
# Poissons Ratio (y) = 0.07611 0.51923
# Poissons Ratio (z) = -0.05173 0.53603
#
# Static dielectric constant tensor:
#      x y z
#    x 3.190750 0.000000 0.000000 
#    y 0.000000 4.283790 0.000000 
#    z 0.000000 0.000000 4.332800 
# 
# 
# High freq. dielectric constant tensor:
#      x y z
#    x 1.802570 0.000000 0.000000 
#    y 0.000000 1.885790 0.000000 
#    z 0.000000 0.000000 1.882070 
# 
# From -- ./inp_files/33996.got.cif
#   From: 2010.03.12/outbox.cif.g09.slc.cpg/sg24_17_cif.got.tgz:33996.got - 2010.04.14 03:06:53.
