data_PCOD8164426
_publ_section_title
;
Structure prediction by ZEFSAII (Michael W. Deem and Ramdas Pophale) SiO2 
 PCOD8164426
Probable space group: I 2 2 2
;
_chemical_formula_sum "Si O2"
_cell_formula_units_Z 40
_cell_length_a 6.792097
_cell_length_b 12.329848
_cell_length_c 21.858331
_cell_angle_alpha 90.000000
_cell_angle_beta 90.000000
_cell_angle_gamma 90.000000
_cell_volume 1830.537375
_symmetry_space_group_name_H-M "I 2 2 2"
_symmetry_group_IT_number 23
_symmetry_cell_setting 'orthorhombic'
loop_
_space_group_symop_operation_xyz
x,y,z
-x,-y,z
x,-y,-z
-x,y,-z
1/2+x,1/2+y,1/2+z
1/2-x,1/2-y,1/2+z
1/2+x,1/2-y,1/2-z
1/2-x,1/2+y,1/2-z
loop_
_atom_site_type_symbol
_atom_site_label
_atom_site_fract_x
_atom_site_fract_y
_atom_site_fract_z
Si Si1 0.562106 0.115824 0.287929
Si Si2 0.530827 0.624074 0.417295
Si Si3 0.281370 0.759565 0.172883
Si Si4 0.397586 0.385006 0.111039
Si Si5 0.293376 0.778953 0.978355
O O1 0.632426 0.197606 0.235989
O O2 0.365269 0.160486 0.318126
O O3 0.726901 0.101709 0.339417
O O4 0.500000 0.000000 0.259482
O O5 0.500000 0.500000 0.435719
O O6 0.652784 0.640258 0.355062
O O7 0.304178 0.666731 0.417040
O O8 0.644660 0.699351 0.466329
O O9 0.453576 0.712355 0.130248
O O10 0.500000 0.500000 0.103065
O O11 0.320998 0.346651 0.043555
O O12 0.500000 0.831440 0.000000
#
# Coordination Sequence:
#
# PCOD8164426 Si02
#       5
#     8   8   8   8   8
#     4  12  26  45  73 105 142 189 240 297 361 422
#     4  11  26  45  70 104 142 183 237 297 352 428
#     4  12  25  45  71 105 144 185 240 301 350 433
#     4  12  25  44  73 102 143 187 237 296 361 422
#     4  11  23  44  69 100 139 181 234 290 352 421
#
# _framework density 21.851506000000001
#
# number of rings (size 3 to 8) (size 9 to 14) (size 15 to 20)
#    0.000    0.400    8.000    1.200    0.000    6.000 
#    0.000    0.000    4.400    0.000    0.000    0.000 
#    0.000    0.000    0.000    0.000    0.000    0.000 
#
# Total GULP energy -247761.425926 kJ/mol
# GULP energy per Si atom -12388.071296 kJ/mol
# Density = 2.180177 g / cm^3
# Si number density = 21.851506 Si / 1000 Ang^3
#
#
#
# Elastic Constant Matrix: (Units=GPa)
#
#
# Indices 1 2 3 4 5 6 
#
# 1 120.2762 50.7472 22.9440 0.0000 0.0000 0.0000
# 2 50.7472 134.4925 41.3791 0.0000 0.0000 0.0000
# 3 22.9440 41.3791 64.4556 0.0000 0.0000 0.0000
# 4 0.0000 0.0000 0.0000 15.5856 0.0000 0.0000
# 5 0.0000 0.0000 0.0000 0.0000 43.0337 0.0000
# 6 0.0000 0.0000 0.0000 0.0000 0.0000 38.6423
#
#
#
# Elastic Compliance Matrix: (Units=1/GPa)
#
#
# Indices 1 2 3 4 5 6 
#
# 1 0.009991 -0.003334 -0.001416 0.000000 0.000000 0.000000
# 2 -0.003334 0.010378 -0.005476 0.000000 0.000000 0.000000
# 3 -0.001416 -0.005476 0.019534 0.000000 0.000000 0.000000
# 4 0.000000 0.000000 0.000000 0.064162 0.000000 0.000000
# 5 0.000000 0.000000 0.000000 0.000000 0.023238 0.000000
# 6 0.000000 0.000000 0.000000 0.000000 0.000000 0.025878
#
#
# Mechanical properties :
#
#
# Convention : Reuss Voigt Hill
#
# Bulk Modulus (GPa) = 51.41038 61.04054 56.22546
# Shear Modulus (GPa) = 27.75982 33.06257 30.41120
#
# Velocity S-wave (km/s) = 3.56811 3.89402 3.73462
# Velocity P-wave (km/s) = 6.36816 6.94354 6.66207
#
# Compressibility (1/GPa) = 0.01945132
#
# Stress axis : x y z
#
# Youngs Moduli (GPa) = 100.08915 96.35653 51.19318
#
# Poissons Ratio (x) = 0.32127 0.07249
# Poissons Ratio (y) = 0.33372 0.28032
# Poissons Ratio (z) = 0.14173 0.52762
#
# Static dielectric constant tensor:
#      x y z
#    x 4.972210 0.000000 0.000000 
#    y 0.000000 3.846930 0.000000 
#    z 0.000000 0.000000 3.977020 
# 
# 
# High freq. dielectric constant tensor:
#      x y z
#    x 1.887750 0.000000 0.000000 
#    y 0.000000 1.849940 0.000000 
#    z 0.000000 0.000000 1.854100 
# 
# From -- ./inp_files/13894.got.cif
#   From: 2010.03.12/outbox.cif.g09.slc.cpg/sg23_7_cif.got.tgz:13894.got - 2010.04.14 02:50:06.
