data_PCOD8164126
_publ_section_title
;
Structure prediction by ZEFSAII (Michael W. Deem and Ramdas Pophale) SiO2 
 PCOD8164126
Probable space group: I 2 2 2
;
_chemical_formula_sum "Si O2"
_cell_formula_units_Z 56
_cell_length_a 12.492377
_cell_length_b 11.947280
_cell_length_c 18.540965
_cell_angle_alpha 90.000000
_cell_angle_beta 90.000000
_cell_angle_gamma 90.000000
_cell_volume 2767.237652
_symmetry_space_group_name_H-M "I 2 2 2"
_symmetry_group_IT_number 23
_symmetry_cell_setting 'orthorhombic'
loop_
_space_group_symop_operation_xyz
x,y,z
-x,-y,z
x,-y,-z
-x,y,-z
1/2+x,1/2+y,1/2+z
1/2-x,1/2-y,1/2+z
1/2+x,1/2-y,1/2-z
1/2-x,1/2+y,1/2-z
loop_
_atom_site_type_symbol
_atom_site_label
_atom_site_fract_x
_atom_site_fract_y
_atom_site_fract_z
Si Si1 0.271019 0.629452 0.927313
Si Si2 0.338224 0.318896 0.650609
Si Si3 0.281298 0.889245 0.585256
Si Si4 0.794219 0.072588 0.165375
Si Si5 0.436018 0.614223 0.804542
Si Si6 0.855719 0.753905 0.305192
Si Si7 0.052500 0.796151 0.076803
O O1 0.211785 0.746644 0.913572
O O2 0.197063 0.522236 0.905510
O O3 0.379901 0.621632 0.882253
O O4 0.290303 0.629566 0.013133
O O5 0.284574 0.440592 0.656715
O O6 0.311312 0.256832 0.724232
O O7 0.465534 0.321584 0.638804
O O8 0.209206 0.848197 0.651164
O O9 0.397214 0.828751 0.581050
O O10 0.854892 0.116214 0.237276
O O11 0.675468 0.129659 0.165890
O O12 0.853153 0.116262 0.093142
O O13 0.500000 0.500000 0.797621
O O14 0.517779 0.719819 0.804647
O O15 0.000000 0.820819 0.000000
#
# Coordination Sequence:
#
# PCOD8164126 Si02
#       7
#     8   8   8   8   8   8   8
#     4  11  23  40  64  91 131 169 206 263 326 385
#     4  12  22  39  64  92 128 171 210 257 327 385
#     4  10  23  42  61  96 131 163 210 269 321 378
#     4  11  23  39  64  93 131 166 216 272 315 389
#     4  12  20  39  67  92 120 168 220 265 317 390
#     4  11  23  40  62  92 127 161 213 271 315 375
#     4  11  22  40  64  96 125 171 212 262 323 381
#
# _framework density 20.236787
#
# number of rings (size 3 to 8) (size 9 to 14) (size 15 to 20)
#    0.000    0.857    7.143    0.429    0.000    2.286 
#    0.000    0.714    3.143    0.000    0.000    2.000 
#    0.000    0.000    0.000    0.000    0.000    0.000 
#
# Total GULP energy -347080.302881 kJ/mol
# GULP energy per Si atom -12395.725103 kJ/mol
# Density = 2.019073 g / cm^3
# Si number density = 20.236787 Si / 1000 Ang^3
#
#
#
# Elastic Constant Matrix: (Units=GPa)
#
#
# Indices 1 2 3 4 5 6 
#
# 1 48.9343 42.1070 19.2779 0.0000 0.0000 0.0000
# 2 42.1070 122.5219 25.6136 0.0000 0.0000 0.0000
# 3 19.2779 25.6136 88.2002 0.0000 0.0000 0.0000
# 4 0.0000 0.0000 0.0000 27.4391 0.0000 0.0000
# 5 0.0000 0.0000 0.0000 0.0000 34.4336 0.0000
# 6 0.0000 0.0000 0.0000 0.0000 0.0000 30.3509
#
#
#
# Elastic Compliance Matrix: (Units=1/GPa)
#
#
# Indices 1 2 3 4 5 6 
#
# 1 0.030176 -0.009573 -0.003816 0.000000 0.000000 0.000000
# 2 -0.009573 0.011726 -0.001313 0.000000 0.000000 0.000000
# 3 -0.003816 -0.001313 0.012553 0.000000 0.000000 0.000000
# 4 0.000000 0.000000 0.000000 0.036444 0.000000 0.000000
# 5 0.000000 0.000000 0.000000 0.000000 0.029041 0.000000
# 6 0.000000 0.000000 0.000000 0.000000 0.000000 0.032948
#
#
# Mechanical properties :
#
#
# Convention : Reuss Voigt Hill
#
# Bulk Modulus (GPa) = 39.91631 48.18372 44.05002
# Shear Modulus (GPa) = 26.22708 29.95526 28.09117
#
# Velocity S-wave (km/s) = 3.60392 3.85156 3.72980
# Velocity P-wave (km/s) = 6.08975 6.60613 6.35319
#
# Compressibility (1/GPa) = 0.02505241
#
# Stress axis : x y z
#
# Youngs Moduli (GPa) = 33.13890 85.27913 79.66154
#
# Poissons Ratio (x) = 0.81637 0.30395
# Poissons Ratio (y) = 0.31724 0.10459
# Poissons Ratio (z) = 0.12644 0.11197
#
# Static dielectric constant tensor:
#      x y z
#    x 3.671670 0.000000 0.000000 
#    y 0.000000 3.705150 0.000000 
#    z 0.000000 0.000000 3.780910 
# 
# 
# High freq. dielectric constant tensor:
#      x y z
#    x 1.767080 0.000000 0.000000 
#    y 0.000000 1.788960 0.000000 
#    z 0.000000 0.000000 1.804640 
# 
# From -- ./inp_files/26714.got.cif
#   From: 2010.03.12/outbox.cif.g09.slc.cpg/sg23_14_cif.got.tgz:26714.got - 2010.04.14 02:50:06.
