data_PCOD8164898
_publ_section_title
;
Structure prediction by ZEFSAII (Michael W. Deem and Ramdas Pophale) SiO2 
 PCOD8164898
Probable space group: I 21 21 21
;
_chemical_formula_sum "Si O2"
_cell_formula_units_Z 64
_cell_length_a 13.748851
_cell_length_b 14.720055
_cell_length_c 17.677229
_cell_angle_alpha 90.000000
_cell_angle_beta 90.000000
_cell_angle_gamma 90.000000
_cell_volume 3577.585537
_symmetry_space_group_name_H-M "I 21 21 21"
_symmetry_group_IT_number 24
_symmetry_cell_setting 'orthorhombic'
loop_
_space_group_symop_operation_xyz
x,y,z
-x,1/2-y,z
x,-y,1/2-z
1/2-x,y,-z
1/2+x,1/2+y,1/2+z
1/2-x,-y,1/2+z
1/2+x,1/2-y,-z
-x,1/2+y,1/2-z
loop_
_atom_site_type_symbol
_atom_site_label
_atom_site_fract_x
_atom_site_fract_y
_atom_site_fract_z
Si Si1 0.764913 0.584038 0.301962
Si Si2 0.998021 0.075985 0.992364
Si Si3 0.315878 0.610687 0.571092
Si Si4 0.079452 0.628033 0.806002
Si Si5 0.866482 0.062844 0.855609
Si Si6 0.904012 0.296542 0.102579
Si Si7 0.140698 0.175396 0.677546
Si Si8 0.827015 0.474175 0.566164
O O1 0.800688 0.500000 0.250000
O O2 0.859220 0.632394 0.337658
O O3 0.707030 0.655965 0.250641
O O4 0.694007 0.548651 0.368663
O O5 0.919917 0.057933 0.061116
O O6 0.069015 0.155168 0.022769
O O7 0.930755 0.109123 0.922315
O O8 0.064999 0.990597 0.968641
O O9 0.250000 0.588796 0.500000
O O10 0.250754 0.573373 0.639851
O O11 0.327572 0.718600 0.582014
O O12 0.112544 0.544355 0.857059
O O13 0.104124 0.613831 0.719362
O O14 0.134245 0.717164 0.837290
O O15 0.964257 0.633834 0.807724
O O16 0.000000 0.250000 0.139464
O O17 0.181413 0.126443 0.602017
O O18 0.750000 0.483532 0.500000
#
# Coordination Sequence:
#
# PCOD8164898 Si02
#       8
#     8   8   8   8   8   8   8   8
#     4  10  21  34  56  80 111 146 188 232 291 334
#     4  10  19  34  53  80 112 145 181 222 280 338
#     4   9  20  33  50  80 112 143 171 220 276 345
#     4  10  20  35  58  81 111 149 184 230 284 327
#     4  10  19  36  58  80 115 145 183 224 284 341
#     4  10  20  35  54  80 114 143 182 226 281 333
#     4  10  21  36  54  85 113 142 192 239 279 334
#     4  11  20  34  58  81 111 149 185 236 285 335
#
# _framework density 17.88916
#
# number of rings (size 3 to 8) (size 9 to 14) (size 15 to 20)
#    0.000    2.000    2.500    1.500    5.250    0.000 
#   15.750    1.875   16.500    0.000    3.250    0.000 
#    0.000    0.000    0.000    0.000    0.000    0.000 
#
# Total GULP energy -396601.872137 kJ/mol
# GULP energy per Si atom -12393.808504 kJ/mol
# Density = 1.784844 g / cm^3
# Si number density = 17.889160 Si / 1000 Ang^3
#
#
#
# Elastic Constant Matrix: (Units=GPa)
#
#
# Indices 1 2 3 4 5 6 
#
# 1 84.6828 40.6100 36.0306 0.0000 0.0000 0.0000
# 2 40.6100 88.6609 30.3593 0.0000 0.0000 0.0000
# 3 36.0306 30.3593 71.3903 0.0000 0.0000 0.0000
# 4 0.0000 0.0000 0.0000 20.1650 0.0000 0.0000
# 5 0.0000 0.0000 0.0000 0.0000 19.5669 0.0000
# 6 0.0000 0.0000 0.0000 0.0000 0.0000 30.0313
#
#
#
# Elastic Compliance Matrix: (Units=1/GPa)
#
#
# Indices 1 2 3 4 5 6 
#
# 1 0.017225 -0.005750 -0.006248 0.000000 0.000000 0.000000
# 2 -0.005750 0.015121 -0.003528 0.000000 0.000000 0.000000
# 3 -0.006248 -0.003528 0.018661 0.000000 0.000000 0.000000
# 4 0.000000 0.000000 0.000000 0.049591 0.000000 0.000000
# 5 0.000000 0.000000 0.000000 0.000000 0.051107 0.000000
# 6 0.000000 0.000000 0.000000 0.000000 0.000000 0.033299
#
#
# Mechanical properties :
#
#
# Convention : Reuss Voigt Hill
#
# Bulk Modulus (GPa) = 50.11481 50.97041 50.54261
# Shear Modulus (GPa) = 22.45103 23.13489 22.79296
#
# Velocity S-wave (km/s) = 3.54645 3.60006 3.57336
# Velocity P-wave (km/s) = 6.69661 6.77014 6.73348
#
# Compressibility (1/GPa) = 0.01995418
#
# Stress axis : x y z
#
# Youngs Moduli (GPa) = 58.05650 66.13404 53.58699
#
# Poissons Ratio (x) = 0.38028 0.33481
# Poissons Ratio (y) = 0.33383 0.18907
# Poissons Ratio (z) = 0.36273 0.23333
#
# Static dielectric constant tensor:
#      x y z
#    x 3.674570 0.000000 0.000000 
#    y 0.000000 3.309520 0.000000 
#    z 0.000000 0.000000 3.314590 
# 
# 
# High freq. dielectric constant tensor:
#      x y z
#    x 1.699490 0.000000 0.000000 
#    y 0.000000 1.678100 0.000000 
#    z 0.000000 0.000000 1.681100 
# 
# From -- ./inp_files/30936.got.cif
#   From: 2010.03.12/outbox.cif.g09.slc.cpg/sg24_16_cif.got.tgz:30936.got - 2010.04.14 03:06:53.
