data_PCOD8164767
_publ_section_title
;
Structure prediction by ZEFSAII (Michael W. Deem and Ramdas Pophale) SiO2 
 PCOD8164767
Probable space group: I 21 21 21
;
_chemical_formula_sum "Si O2"
_cell_formula_units_Z 56
_cell_length_a 12.278520
_cell_length_b 22.015615
_cell_length_c 11.610104
_cell_angle_alpha 90.000000
_cell_angle_beta 90.000000
_cell_angle_gamma 90.000000
_cell_volume 3138.433666
_symmetry_space_group_name_H-M "I 21 21 21"
_symmetry_group_IT_number 24
_symmetry_cell_setting 'orthorhombic'
loop_
_space_group_symop_operation_xyz
x,y,z
-x,1/2-y,z
x,-y,1/2-z
1/2-x,y,-z
1/2+x,1/2+y,1/2+z
1/2-x,-y,1/2+z
1/2+x,1/2-y,-z
-x,1/2+y,1/2-z
loop_
_atom_site_type_symbol
_atom_site_label
_atom_site_fract_x
_atom_site_fract_y
_atom_site_fract_z
Si Si1 0.373250 0.941556 0.460100
Si Si2 0.343666 0.168938 0.917410
Si Si3 0.250000 0.297945 0.500000
Si Si4 0.096847 0.960323 0.137217
Si Si5 0.795756 0.601575 0.765600
Si Si6 0.905054 0.710236 0.891736
Si Si7 0.533371 0.840788 0.897859
Si Si8 0.000000 0.750000 0.297335
O O1 0.250000 0.932816 0.500000
O O2 0.423909 0.879427 0.515083
O O3 0.371039 0.940487 0.319893
O O4 0.421487 0.002007 0.517987
O O5 0.296187 0.138224 0.802175
O O6 0.405118 0.229160 0.881490
O O7 0.250000 0.193939 0.000000
O O8 0.298802 0.252908 0.402127
O O9 0.154667 0.341476 0.452049
O O10 0.224574 0.938683 0.143896
O O11 0.007384 0.908251 0.128189
O O12 0.070512 0.000000 0.250000
O O13 0.878107 0.647622 0.827795
O O14 0.000000 0.750000 0.828300
O O15 0.947630 0.693270 0.019444
O O16 0.541381 0.806175 0.777808
#
# Coordination Sequence:
#
# PCOD8164767 Si02
#       8
#     8   8   4   8   8   8   8   4
#     4   9  19  34  46  78 110 137 177 220 286 334
#     4   9  19  34  51  78 111 142 178 225 274 335
#     4  10  18  36  50  76 118 130 178 244 268 322
#     4  12  20  33  54  83 106 146 185 233 282 338
#     4  10  19  32  53  75 114 144 172 232 281 337
#     4  10  20  34  51  81 112 139 181 220 290 340
#     4  11  22  31  57  84 105 146 185 234 277 338
#     4  12  16  36  56  82 108 144 190 220 284 338
#
# _framework density 17.843295000000001
#
# number of rings (size 3 to 8) (size 9 to 14) (size 15 to 20)
#    0.000    2.000    6.429    1.714    2.000    0.000 
#    5.143    0.000    0.000    3.429    3.714    0.000 
#    0.000    0.000    0.000    0.000    0.000    0.000 
#
# Total GULP energy -346940.734067 kJ/mol
# GULP energy per Si atom -12390.740502 kJ/mol
# Density = 1.780268 g / cm^3
# Si number density = 17.843295 Si / 1000 Ang^3
#
#
#
# Elastic Constant Matrix: (Units=GPa)
#
#
# Indices 1 2 3 4 5 6 
#
# 1 72.5382 54.0760 36.5660 0.0000 0.0000 0.0000
# 2 54.0760 126.6803 56.6717 -0.0001 0.0000 0.0000
# 3 36.5660 56.6717 74.8937 -0.0001 0.0000 0.0000
# 4 0.0000 -0.0001 -0.0001 38.3950 0.0000 0.0000
# 5 0.0000 0.0000 0.0000 0.0000 19.8749 0.0000
# 6 0.0000 0.0000 0.0000 0.0000 0.0000 36.9169
#
#
#
# Elastic Compliance Matrix: (Units=1/GPa)
#
#
# Indices 1 2 3 4 5 6 
#
# 1 0.021568 -0.006797 -0.005387 0.000000 0.000000 0.000000
# 2 -0.006797 0.014075 -0.007332 0.000000 0.000000 0.000000
# 3 -0.005387 -0.007332 0.021531 0.000000 0.000000 0.000000
# 4 0.000000 0.000000 0.000000 0.026045 0.000000 0.000000
# 5 0.000000 0.000000 0.000000 0.000000 0.050315 0.000000
# 6 0.000000 0.000000 0.000000 0.000000 0.000000 0.027088
#
#
# Mechanical properties :
#
#
# Convention : Reuss Voigt Hill
#
# Bulk Modulus (GPa) = 55.12169 63.19329 59.15749
# Shear Modulus (GPa) = 24.30688 27.49060 25.89874
#
# Velocity S-wave (km/s) = 3.69486 3.92939 3.81393
# Velocity P-wave (km/s) = 7.01155 7.48862 7.25401
#
# Compressibility (1/GPa) = 0.01814168
#
# Stress axis : x y z
#
# Youngs Moduli (GPa) = 46.36391 71.04568 46.44470
#
# Poissons Ratio (x) = 0.48288 0.25022
# Poissons Ratio (y) = 0.31513 0.34055
# Poissons Ratio (z) = 0.24978 0.52093
#
# Static dielectric constant tensor:
#      x y z
#    x 3.064850 0.000000 0.000000 
#    y 0.000000 3.539570 0.000000 
#    z 0.000000 0.000000 3.529460 
# 
# 
# High freq. dielectric constant tensor:
#      x y z
#    x 1.643100 0.000000 0.000000 
#    y 0.000000 1.696050 0.000000 
#    z 0.000000 0.000000 1.690980 
# 
# From -- ./inp_files/20126.got.cif
#   From: 2010.03.12/outbox.cif.g09.slc.cpg/sg24_11_cif.got.tgz:20126.got - 2010.04.14 03:06:53.
