data_PCOD8164639
_publ_section_title
;
Structure prediction by ZEFSAII (Michael W. Deem and Ramdas Pophale) SiO2 
 PCOD8164639
Probable space group: I 21 21 21
;
_chemical_formula_sum "Si O2"
_cell_formula_units_Z 40
_cell_length_a 13.840727
_cell_length_b 26.307508
_cell_length_c 4.698699
_cell_angle_alpha 90.000000
_cell_angle_beta 90.000000
_cell_angle_gamma 90.000000
_cell_volume 1710.866957
_symmetry_space_group_name_H-M "I 21 21 21"
_symmetry_group_IT_number 24
_symmetry_cell_setting 'orthorhombic'
loop_
_space_group_symop_operation_xyz
x,y,z
-x,1/2-y,z
x,-y,1/2-z
1/2-x,y,-z
1/2+x,1/2+y,1/2+z
1/2-x,-y,1/2+z
1/2+x,1/2-y,-z
-x,1/2+y,1/2-z
loop_
_atom_site_type_symbol
_atom_site_label
_atom_site_fract_x
_atom_site_fract_y
_atom_site_fract_z
Si Si1 0.750000 0.251031 0.000000
Si Si2 0.541466 0.444152 0.671939
Si Si3 0.660423 0.098134 0.679790
Si Si4 0.085330 0.121025 0.831558
Si Si5 0.615883 0.163871 0.179250
Si Si6 0.750000 0.320002 0.500000
O O1 0.659988 0.219186 0.123180
O O2 0.797076 0.284890 0.253770
O O3 0.579635 0.500000 0.750000
O O4 0.425592 0.442316 0.717510
O O5 0.555956 0.429532 0.344213
O O6 0.603337 0.402511 0.854879
O O7 0.750000 0.073078 0.500000
O O8 0.631036 0.149261 0.508368
O O9 0.675038 0.121179 0.996935
O O10 0.175102 0.146524 0.678803
O O11 0.999304 0.162123 0.871795
#
# Coordination Sequence:
#
# PCOD8164639 Si02
#       6
#     4   8   8   8   8   4
#     4  12  22  38  66  95 126 165 228 264 310 410
#     4  10  21  39  65  92 123 168 218 264 321 400
#     4  10  17  33  58  90 129 166 199 249 320 383
#     4  10  23  43  62  89 133 168 207 273 343 369
#     4  10  20  36  61  89 127 172 202 255 324 386
#     4  12  26  42  64  93 128 171 222 288 316 374
#
# _framework density 23.379957000000001
#
# number of rings (size 3 to 8) (size 9 to 14) (size 15 to 20)
#    0.000    1.600    2.000    3.000    0.000    0.800 
#    0.000   10.000    0.000    0.000    0.000    0.000 
#    0.000    0.000    0.000    0.000    0.000    0.000 
#
# Total GULP energy -247768.893791 kJ/mol
# GULP energy per Si atom -12388.444690 kJ/mol
# Density = 2.332674 g / cm^3
# Si number density = 23.379957 Si / 1000 Ang^3
#
#
#
# Elastic Constant Matrix: (Units=GPa)
#
#
# Indices 1 2 3 4 5 6 
#
# 1 101.7062 33.4397 18.7533 -0.1233 -0.0902 0.0446
# 2 33.4397 88.6529 13.6927 -0.3705 -0.0354 0.0167
# 3 18.7533 13.6927 75.9964 -0.7847 0.6422 0.0507
# 4 -0.1233 -0.3705 -0.7847 21.2242 0.0061 0.0388
# 5 -0.0902 -0.0354 0.6422 0.0061 40.9930 -0.3170
# 6 0.0446 0.0167 0.0507 0.0388 -0.3170 7.2096
#
#
#
# Elastic Compliance Matrix: (Units=1/GPa)
#
#
# Indices 1 2 3 4 5 6 
#
# 1 0.011548 -0.004028 -0.002125 -0.000082 0.000055 -0.000044
# 2 -0.004028 0.013008 -0.001348 0.000154 0.000024 0.000004
# 3 -0.002125 -0.001348 0.013933 0.000479 -0.000225 -0.000094
# 4 -0.000082 0.000154 0.000479 0.047136 -0.000017 -0.000258
# 5 0.000055 0.000024 -0.000225 -0.000017 0.024406 0.001074
# 6 -0.000044 0.000004 -0.000094 -0.000258 0.001074 0.138754
#
#
# Mechanical properties :
#
#
# Convention : Reuss Voigt Hill
#
# Bulk Modulus (GPa) = 42.57856 44.23632 43.40744
# Shear Modulus (GPa) = 18.40819 27.25002 22.82910
#
# Velocity S-wave (km/s) = 2.80902 3.41769 3.12819
# Velocity P-wave (km/s) = 5.36394 5.87672 5.62618
#
# Compressibility (1/GPa) = 0.02348600
#
# Stress axis : x y z
#
# Youngs Moduli (GPa) = 86.59146 76.87423 71.77301
#
# Poissons Ratio (x) = 0.30966 0.15254
# Poissons Ratio (y) = 0.34880 0.09678
# Poissons Ratio (z) = 0.18403 0.10366
#
# Static dielectric constant tensor:
#      x y z
#    x 3.962330 -0.000280 -0.000560 
#    y -0.000280 3.760860 -0.000400 
#    z -0.000560 -0.000400 4.965230 
# 
# 
# High freq. dielectric constant tensor:
#      x y z
#    x 1.907700 0.000000 0.000000 
#    y 0.000000 1.888610 -0.000030 
#    z 0.000000 -0.000030 1.956010 
# 
# From -- ./inp_files/3536.got.cif
#   From: 2010.03.12/outbox.cif.g09.slc.cpg/sg24_2_cif.got.tgz:3536.got - 2010.04.14 03:06:53.
