data_PCOD8164999
_publ_section_title
;
Structure prediction by ZEFSAII (Michael W. Deem and Ramdas Pophale) SiO2 
 PCOD8164999
Probable space group: I 21 21 21
;
_chemical_formula_sum "Si O2"
_cell_formula_units_Z 48
_cell_length_a 14.286544
_cell_length_b 17.189303
_cell_length_c 9.796475
_cell_angle_alpha 90.000000
_cell_angle_beta 90.000000
_cell_angle_gamma 90.000000
_cell_volume 2405.776535
_symmetry_space_group_name_H-M "I 21 21 21"
_symmetry_group_IT_number 24
_symmetry_cell_setting 'orthorhombic'
loop_
_space_group_symop_operation_xyz
x,y,z
-x,1/2-y,z
x,-y,1/2-z
1/2-x,y,-z
1/2+x,1/2+y,1/2+z
1/2-x,-y,1/2+z
1/2+x,1/2-y,-z
-x,1/2+y,1/2-z
loop_
_atom_site_type_symbol
_atom_site_label
_atom_site_fract_x
_atom_site_fract_y
_atom_site_fract_z
Si Si1 0.140938 0.578000 0.471118
Si Si2 0.036524 0.591862 0.738014
Si Si3 0.031180 0.335048 0.260881
Si Si4 0.853588 0.574102 0.155659
Si Si5 0.142923 0.395558 0.499208
Si Si6 0.349544 0.924278 0.159149
O O1 0.250000 0.596601 0.500000
O O2 0.076274 0.613589 0.590692
O O3 0.104109 0.621931 0.338500
O O4 0.127595 0.485260 0.452233
O O5 0.023844 0.500000 0.750000
O O6 0.933168 0.627807 0.772931
O O7 0.111526 0.620296 0.847047
O O8 0.084544 0.336340 0.405299
O O9 0.000000 0.250000 0.211965
O O10 0.932141 0.375846 0.273401
O O11 0.846738 0.500000 0.250000
O O12 0.751953 0.618218 0.159968
O O13 0.878333 0.553826 0.997559
O O14 0.250000 0.371496 0.500000
O O15 0.337057 0.000000 0.250000
#
# Coordination Sequence:
#
# PCOD8164999 Si02
#       6
#     8   8   8   8   8   8
#     4  10  21  39  66  87 118 154 210 270 306 355
#     4   9  17  31  56  89 113 140 186 255 309 347
#     4  12  25  40  55  89 127 168 199 241 313 381
#     4  10  20  36  61  85 116 155 196 250 295 349
#     4  10  19  37  64  92 112 153 211 268 314 349
#     4   9  18  33  57  92 116 138 191 242 299 356
#
# _framework density 19.951979000000001
#
# number of rings (size 3 to 8) (size 9 to 14) (size 15 to 20)
#    0.000    2.000    1.667    2.500    4.667    2.667 
#    3.000    2.500    0.000    0.000    0.000    0.000 
#    0.000    0.000    0.000    0.000    0.000    0.000 
#
# Total GULP energy -297346.290746 kJ/mol
# GULP energy per Si atom -12389.428781 kJ/mol
# Density = 1.990657 g / cm^3
# Si number density = 19.951979 Si / 1000 Ang^3
#
#
#
# Elastic Constant Matrix: (Units=GPa)
#
#
# Indices 1 2 3 4 5 6 
#
# 1 165.7491 19.7789 35.9165 0.0000 0.0000 0.0000
# 2 19.7789 34.3997 8.0790 0.0000 0.0000 0.0000
# 3 35.9165 8.0790 85.0045 0.0000 0.0000 0.0000
# 4 0.0000 0.0000 0.0000 9.1188 0.0000 0.0000
# 5 0.0000 0.0000 0.0000 0.0000 43.6238 0.0000
# 6 0.0000 0.0000 0.0000 0.0000 0.0000 8.8532
#
#
#
# Elastic Compliance Matrix: (Units=1/GPa)
#
#
# Indices 1 2 3 4 5 6 
#
# 1 0.007012 -0.003412 -0.002639 0.000000 0.000000 0.000000
# 2 -0.003412 0.031394 -0.001542 0.000000 0.000000 0.000000
# 3 -0.002639 -0.001542 0.013025 0.000000 0.000000 0.000000
# 4 0.000000 0.000000 0.000000 0.109664 0.000000 0.000000
# 5 0.000000 0.000000 0.000000 0.000000 0.022923 0.000000
# 6 0.000000 0.000000 0.000000 0.000000 0.000000 0.112954
#
#
# Mechanical properties :
#
#
# Convention : Reuss Voigt Hill
#
# Bulk Modulus (GPa) = 27.58900 45.85579 36.72239
# Shear Modulus (GPa) = 15.42067 27.07775 21.24921
#
# Velocity S-wave (km/s) = 2.78310 3.68794 3.26700
# Velocity P-wave (km/s) = 4.91785 6.41619 5.71633
#
# Compressibility (1/GPa) = 0.03624633
#
# Stress axis : x y z
#
# Youngs Moduli (GPa) = 142.61006 31.85316 76.77261
#
# Poissons Ratio (x) = 0.10869 0.20256
# Poissons Ratio (y) = 0.48660 0.11839
# Poissons Ratio (z) = 0.37628 0.04912
#
# Static dielectric constant tensor:
#      x y z
#    x 4.722810 0.000000 0.000000 
#    y 0.000000 2.941810 0.000000 
#    z 0.000000 0.000000 3.827380 
# 
# 
# High freq. dielectric constant tensor:
#      x y z
#    x 1.816160 0.000000 0.000000 
#    y 0.000000 1.703900 0.000000 
#    z 0.000000 0.000000 1.791190 
# 
# From -- ./inp_files/12823.got.cif
#   From: 2010.03.12/outbox.cif.g09.slc.cpg/sg24_7_cif.got.tgz:12823.got - 2010.04.14 03:06:53.
