data_PCOD8164513
_publ_section_title
;
Structure prediction by ZEFSAII (Michael W. Deem and Ramdas Pophale) SiO2 
 PCOD8164513
Probable space group: I 2 2 2
;
_chemical_formula_sum "Si O2"
_cell_formula_units_Z 48
_cell_length_a 8.888744
_cell_length_b 17.478280
_cell_length_c 13.173685
_cell_angle_alpha 90.000000
_cell_angle_beta 90.000000
_cell_angle_gamma 90.000000
_cell_volume 2046.663128
_symmetry_space_group_name_H-M "I 2 2 2"
_symmetry_group_IT_number 23
_symmetry_cell_setting 'orthorhombic'
loop_
_space_group_symop_operation_xyz
x,y,z
-x,-y,z
x,-y,-z
-x,y,-z
1/2+x,1/2+y,1/2+z
1/2-x,1/2-y,1/2+z
1/2+x,1/2-y,1/2-z
1/2-x,1/2+y,1/2-z
loop_
_atom_site_type_symbol
_atom_site_label
_atom_site_fract_x
_atom_site_fract_y
_atom_site_fract_z
Si Si1 0.897679 0.769118 0.589350
Si Si2 0.534567 0.887203 0.170656
Si Si3 0.500000 0.000000 0.500000
Si Si4 0.300487 0.372569 0.272523
Si Si5 0.724514 0.093132 0.636693
Si Si6 0.000000 0.000000 0.701547
Si Si7 0.843834 0.753933 0.947442
Si Si8 0.500000 0.000000 0.000000
O O1 0.987759 0.703299 0.648892
O O2 0.826736 0.833024 0.662775
O O3 0.763159 0.719555 0.538853
O O4 0.000000 0.806737 0.500000
O O5 0.368751 0.905515 0.216120
O O6 0.666162 0.903604 0.248809
O O7 0.584141 0.940499 0.075259
O O8 0.396338 0.948160 0.568451
O O9 0.406456 0.445961 0.276297
O O10 0.357718 0.318499 0.362573
O O11 0.739792 0.179840 0.599003
O O12 0.885652 0.050272 0.631931
O O13 0.000000 0.732699 0.000000
#
# Coordination Sequence:
#
# PCOD8164513 Si02
#       8
#     8   8   2   8   8   4   8   2
#     4  12  25  45  77 113 145 206 270 318 386 475
#     4  12  25  49  76 108 151 214 258 319 396 481
#     4  12  26  50  72 106 152 204 266 312 392 488
#     4  12  27  51  75 112 163 199 261 335 394 471
#     4  12  27  48  75 111 155 206 260 324 403 469
#     4  12  30  47  75 118 154 202 250 339 405 448
#     4  12  26  46  79 115 152 208 265 324 396 479
#     4  12  22  44  80 104 148 190 278 306 376 478
#
# _framework density 23.452808000000001
#
# number of rings (size 3 to 8) (size 9 to 14) (size 15 to 20)
#    0.000    0.000    5.000    4.500    4.667    0.333 
#    3.000    0.000    0.000    0.000    0.000    0.000 
#    0.000    0.000    0.000    0.000    0.000    0.000 
#
# Total GULP energy -297491.526634 kJ/mol
# GULP energy per Si atom -12395.480276 kJ/mol
# Density = 2.339943 g / cm^3
# Si number density = 23.452808 Si / 1000 Ang^3
#
#
#
# Elastic Constant Matrix: (Units=GPa)
#
#
# Indices 1 2 3 4 5 6 
#
# 1 133.4996 28.9326 33.3143 0.0000 0.0000 0.0000
# 2 28.9326 108.1881 18.9006 -0.0001 0.0000 0.0001
# 3 33.3143 18.9006 109.0300 -0.0002 0.0000 0.0002
# 4 0.0000 -0.0001 -0.0002 32.5596 0.0000 0.0001
# 5 0.0000 0.0000 0.0000 0.0000 45.8153 0.0000
# 6 0.0000 0.0001 0.0002 0.0001 0.0000 50.1928
#
#
#
# Elastic Compliance Matrix: (Units=1/GPa)
#
#
# Indices 1 2 3 4 5 6 
#
# 1 0.008460 -0.001867 -0.002261 0.000000 0.000000 0.000000
# 2 -0.001867 0.009944 -0.001153 0.000000 0.000000 0.000000
# 3 -0.002261 -0.001153 0.010063 0.000000 0.000000 0.000000
# 4 0.000000 0.000000 0.000000 0.030713 0.000000 0.000000
# 5 0.000000 0.000000 0.000000 0.000000 0.021827 0.000000
# 6 0.000000 0.000000 0.000000 0.000000 0.000000 0.019923
#
#
# Mechanical properties :
#
#
# Convention : Reuss Voigt Hill
#
# Bulk Modulus (GPa) = 55.85722 57.00141 56.42932
# Shear Modulus (GPa) = 42.56764 43.68488 43.12626
#
# Velocity S-wave (km/s) = 4.26494 4.32055 4.29284
# Velocity P-wave (km/s) = 6.93697 7.01762 6.97741
#
# Compressibility (1/GPa) = 0.01790279
#
# Stress axis : x y z
#
# Youngs Moduli (GPa) = 118.20874 100.56308 99.37783
#
# Poissons Ratio (x) = 0.18778 0.22471
# Poissons Ratio (y) = 0.22073 0.11461
# Poissons Ratio (z) = 0.26729 0.11598
#
# Static dielectric constant tensor:
#      x y z
#    x 4.325660 0.000000 0.000000 
#    y 0.000000 4.320750 0.000000 
#    z 0.000000 0.000000 4.308380 
# 
# 
# High freq. dielectric constant tensor:
#      x y z
#    x 1.933560 0.000000 0.000000 
#    y 0.000000 1.939370 0.000000 
#    z 0.000000 0.000000 1.935250 
# 
# From -- ./inp_files/20058.got.cif
#   From: 2010.03.12/outbox.cif.g09.slc.cpg/sg23_11_cif.got.tgz:20058.got - 2010.04.14 02:50:06.
