data_PCOD8164232
_publ_section_title
;
Structure prediction by ZEFSAII (Michael W. Deem and Ramdas Pophale) SiO2 
 PCOD8164232
Probable space group: I 2 2 2
;
_chemical_formula_sum "Si O2"
_cell_formula_units_Z 48
_cell_length_a 13.581532
_cell_length_b 17.605557
_cell_length_c 8.863032
_cell_angle_alpha 90.000000
_cell_angle_beta 90.000000
_cell_angle_gamma 90.000000
_cell_volume 2119.243444
_symmetry_space_group_name_H-M "I 2 2 2"
_symmetry_group_IT_number 23
_symmetry_cell_setting 'orthorhombic'
loop_
_space_group_symop_operation_xyz
x,y,z
-x,-y,z
x,-y,-z
-x,y,-z
1/2+x,1/2+y,1/2+z
1/2-x,1/2-y,1/2+z
1/2+x,1/2-y,1/2-z
1/2-x,1/2+y,1/2-z
loop_
_atom_site_type_symbol
_atom_site_label
_atom_site_fract_x
_atom_site_fract_y
_atom_site_fract_z
Si Si1 0.743118 0.310189 0.444260
Si Si2 0.313779 0.588752 0.969719
Si Si3 0.905608 0.631166 0.397210
Si Si4 0.403191 0.083433 0.564376
Si Si5 0.136796 0.803749 0.244541
Si Si6 0.088992 0.195777 0.302383
O O1 0.808788 0.383363 0.498389
O O2 0.819820 0.248844 0.378092
O O3 0.682117 0.277272 0.586580
O O4 0.663406 0.335821 0.323192
O O5 0.200124 0.616523 0.998867
O O6 0.334392 0.609543 0.793645
O O7 0.328101 0.500000 0.000000
O O8 0.395474 0.636516 0.061882
O O9 0.908076 0.580598 0.246814
O O10 0.886745 0.718504 0.349306
O O11 0.000000 0.615565 0.500000
O O12 0.500000 0.128992 0.500000
O O13 0.410866 0.000000 0.500000
O O14 0.019699 0.800402 0.235946
#
# Coordination Sequence:
#
# PCOD8164232 Si02
#       6
#     8   8   8   8   8   8
#     4  12  23  41  65  98 139 174 220 297 344 408
#     4  11  23  43  70  95 136 187 232 282 344 428
#     4  12  23  40  70 107 137 175 232 296 352 414
#     4  10  24  46  71 100 136 185 235 285 358 439
#     4  12  23  42  64 100 136 179 233 284 354 411
#     4  12  25  41  65 103 139 178 232 290 345 415
#
# _framework density 22.649591999999998
#
# number of rings (size 3 to 8) (size 9 to 14) (size 15 to 20)
#    0.000    0.500    6.667    1.000    2.333    4.000 
#    0.000    2.500    0.000    2.000    0.000    0.000 
#    0.000    0.000    0.000    0.000    0.000    0.000 
#
# Total GULP energy -297325.586076 kJ/mol
# GULP energy per Si atom -12388.566087 kJ/mol
# Density = 2.259804 g / cm^3
# Si number density = 22.649592 Si / 1000 Ang^3
#
#
#
# Elastic Constant Matrix: (Units=GPa)
#
#
# Indices 1 2 3 4 5 6 
#
# 1 167.2510 6.4613 40.5438 0.0000 0.0000 0.0000
# 2 6.4613 62.9873 27.0202 0.0000 0.0000 0.0000
# 3 40.5438 27.0202 115.4740 0.0000 0.0000 0.0000
# 4 0.0000 0.0000 0.0000 32.1652 0.0000 0.0000
# 5 0.0000 0.0000 0.0000 0.0000 49.2589 0.0000
# 6 0.0000 0.0000 0.0000 0.0000 0.0000 18.4743
#
#
#
# Elastic Compliance Matrix: (Units=1/GPa)
#
#
# Indices 1 2 3 4 5 6 
#
# 1 0.006542 0.000349 -0.002379 0.000000 0.000000 0.000000
# 2 0.000349 0.017666 -0.004256 0.000000 0.000000 0.000000
# 3 -0.002379 -0.004256 0.010491 0.000000 0.000000 0.000000
# 4 0.000000 0.000000 0.000000 0.031090 0.000000 0.000000
# 5 0.000000 0.000000 0.000000 0.000000 0.020301 0.000000
# 6 0.000000 0.000000 0.000000 0.000000 0.000000 0.054129
#
#
# Mechanical properties :
#
#
# Convention : Reuss Voigt Hill
#
# Bulk Modulus (GPa) = 45.19187 54.86255 50.02721
# Shear Modulus (GPa) = 31.21742 38.09214 34.65478
#
# Velocity S-wave (km/s) = 3.71654 4.10543 3.91582
# Velocity P-wave (km/s) = 6.19781 6.83722 6.52535
#
# Compressibility (1/GPa) = 0.02212787
#
# Stress axis : x y z
#
# Youngs Moduli (GPa) = 152.85420 56.60485 95.31845
#
# Poissons Ratio (x) = -0.01977 0.22674
# Poissons Ratio (y) = -0.05340 0.40572
# Poissons Ratio (z) = 0.36360 0.24094
#
# Static dielectric constant tensor:
#      x y z
#    x 5.216630 0.000000 0.000000 
#    y 0.000000 3.651320 0.000000 
#    z 0.000000 0.000000 4.329650 
# 
# 
# High freq. dielectric constant tensor:
#      x y z
#    x 1.929480 0.000000 0.000000 
#    y 0.000000 1.840320 0.000000 
#    z 0.000000 0.000000 1.901540 
# 
# From -- ./inp_files/9935.got.cif
#   From: 2010.03.12/outbox.cif.g09.slc.cpg/sg23_5_cif.got.tgz:9935.got - 2010.04.14 02:50:06.
