data_PCOD8164881
_publ_section_title
;
Structure prediction by ZEFSAII (Michael W. Deem and Ramdas Pophale) SiO2 
 PCOD8164881
Probable space group: I 21 21 21
;
_chemical_formula_sum "Si O2"
_cell_formula_units_Z 56
_cell_length_a 14.128557
_cell_length_b 9.243889
_cell_length_c 21.200766
_cell_angle_alpha 90.000000
_cell_angle_beta 90.000000
_cell_angle_gamma 90.000000
_cell_volume 2768.879670
_symmetry_space_group_name_H-M "I 21 21 21"
_symmetry_group_IT_number 24
_symmetry_cell_setting 'orthorhombic'
loop_
_space_group_symop_operation_xyz
x,y,z
-x,1/2-y,z
x,-y,1/2-z
1/2-x,y,-z
1/2+x,1/2+y,1/2+z
1/2-x,-y,1/2+z
1/2+x,1/2-y,-z
-x,1/2+y,1/2-z
loop_
_atom_site_type_symbol
_atom_site_label
_atom_site_fract_x
_atom_site_fract_y
_atom_site_fract_z
Si Si1 0.950608 0.896110 0.055727
Si Si2 0.570650 0.366347 0.895434
Si Si3 0.248175 0.286110 0.425553
Si Si4 0.413090 0.507318 0.420683
Si Si5 0.271673 0.973346 0.375228
Si Si6 0.155679 0.222408 0.975855
Si Si7 0.959082 0.587502 0.688227
O O1 0.849774 0.868561 0.088544
O O2 0.000000 0.750000 0.035207
O O3 0.945931 0.987540 0.992082
O O4 0.015917 0.981245 0.105090
O O5 0.500000 0.250000 0.861661
O O6 0.671548 0.391132 0.860857
O O7 0.585831 0.309571 0.966777
O O8 0.250000 0.246781 0.500000
O O9 0.331194 0.393904 0.403947
O O10 0.255873 0.145341 0.381185
O O11 0.384663 0.676911 0.419996
O O12 0.496884 0.496534 0.370277
O O13 0.312981 0.927416 0.443321
O O14 0.345036 0.924699 0.320584
O O15 0.250000 0.305282 0.000000
O O16 0.989276 0.500000 0.750000
O O17 0.000000 0.750000 0.693657
#
# Coordination Sequence:
#
# PCOD8164881 Si02
#       7
#     8   8   8   8   8   8   8
#     4  11  21  33  54  92 132 167 202 234 297 389
#     4  11  21  33  58  90 126 166 200 242 304 384
#     4  10  22  35  55  91 134 173 203 237 305 388
#     4  11  23  37  58  85 125 169 205 259 309 368
#     4  11  23  39  58  86 124 165 204 263 310 367
#     4  10  19  33  55  85 126 165 200 237 304 379
#     4  12  29  47  67  89 116 162 228 278 323 363
#
# _framework density 20.224786999999999
#
# number of rings (size 3 to 8) (size 9 to 14) (size 15 to 20)
#    0.000    1.143    4.286    3.429   10.000    0.000 
#    0.000    0.000    0.000    0.000    3.714    0.000 
#    0.000    0.000    0.000    0.000    0.000    0.000 
#
# Total GULP energy -347050.601984 kJ/mol
# GULP energy per Si atom -12394.664357 kJ/mol
# Density = 2.017875 g / cm^3
# Si number density = 20.224787 Si / 1000 Ang^3
#
#
#
# Elastic Constant Matrix: (Units=GPa)
#
#
# Indices 1 2 3 4 5 6 
#
# 1 145.5066 56.6365 28.6548 0.0000 0.0000 0.0000
# 2 56.6365 109.6154 22.6320 0.0000 0.0000 0.0000
# 3 28.6548 22.6320 39.0186 0.0000 0.0000 0.0000
# 4 0.0000 0.0000 0.0000 16.5192 0.0000 0.0000
# 5 0.0000 0.0000 0.0000 0.0000 16.7059 0.0000
# 6 0.0000 0.0000 0.0000 0.0000 0.0000 31.7507
#
#
#
# Elastic Compliance Matrix: (Units=1/GPa)
#
#
# Indices 1 2 3 4 5 6 
#
# 1 0.009271 -0.003845 -0.004578 0.000000 0.000000 0.000000
# 2 -0.003845 0.011958 -0.004113 0.000000 0.000000 0.000000
# 3 -0.004578 -0.004113 0.031377 0.000000 0.000000 0.000000
# 4 0.000000 0.000000 0.000000 0.060536 0.000000 0.000000
# 5 0.000000 0.000000 0.000000 0.000000 0.059859 0.000000
# 6 0.000000 0.000000 0.000000 0.000000 0.000000 0.031495
#
#
# Mechanical properties :
#
#
# Convention : Reuss Voigt Hill
#
# Bulk Modulus (GPa) = 36.31839 56.66525 46.49182
# Shear Modulus (GPa) = 20.94284 25.40965 23.17625
#
# Velocity S-wave (km/s) = 3.22142 3.54837 3.38884
# Velocity P-wave (km/s) = 5.64208 6.69824 6.19272
#
# Compressibility (1/GPa) = 0.02753426
#
# Stress axis : x y z
#
# Youngs Moduli (GPa) = 107.86731 83.62274 31.87098
#
# Poissons Ratio (x) = 0.32151 0.14591
# Poissons Ratio (y) = 0.41472 0.13108
# Poissons Ratio (z) = 0.49384 0.34392
#
# Static dielectric constant tensor:
#      x y z
#    x 4.083220 0.000000 0.000000 
#    y 0.000000 3.816960 0.000000 
#    z 0.000000 0.000000 3.032500 
# 
# 
# High freq. dielectric constant tensor:
#      x y z
#    x 1.816210 0.000000 0.000000 
#    y 0.000000 1.805180 0.000000 
#    z 0.000000 0.000000 1.710360 
# 
# From -- ./inp_files/27540.got.cif
#   From: 2010.03.12/outbox.cif.g09.slc.cpg/sg24_14_cif.got.tgz:27540.got - 2010.04.14 03:06:53.
