data_PCOD8164274
_publ_section_title
;
Structure prediction by ZEFSAII (Michael W. Deem and Ramdas Pophale) SiO2 
 PCOD8164274
Probable space group: I 2 2 2
;
_chemical_formula_sum "Si O2"
_cell_formula_units_Z 60
_cell_length_a 24.207672
_cell_length_b 5.701776
_cell_length_c 19.336416
_cell_angle_alpha 90.000000
_cell_angle_beta 90.000000
_cell_angle_gamma 90.000000
_cell_volume 2668.942139
_symmetry_space_group_name_H-M "I 2 2 2"
_symmetry_group_IT_number 23
_symmetry_cell_setting 'orthorhombic'
loop_
_space_group_symop_operation_xyz
x,y,z
-x,-y,z
x,-y,-z
-x,y,-z
1/2+x,1/2+y,1/2+z
1/2-x,1/2-y,1/2+z
1/2+x,1/2-y,1/2-z
1/2-x,1/2+y,1/2-z
loop_
_atom_site_type_symbol
_atom_site_label
_atom_site_fract_x
_atom_site_fract_y
_atom_site_fract_z
Si Si1 0.735237 0.164434 0.434945
Si Si2 0.819685 0.972575 0.224017
Si Si3 0.500000 0.500000 0.240166
Si Si4 0.922715 0.313679 0.815589
Si Si5 0.341738 0.984735 0.923506
Si Si6 0.601628 0.210991 0.794325
Si Si7 0.615108 0.747674 0.538166
Si Si8 0.262446 0.270570 0.844252
O O1 0.789655 0.316724 0.430053
O O2 0.678226 0.309961 0.439144
O O3 0.742732 0.000000 0.500000
O O4 0.730566 0.005753 0.365930
O O5 0.838882 0.173764 0.278242
O O6 0.782650 0.061920 0.159596
O O7 0.875843 0.878244 0.194061
O O8 0.785439 0.780477 0.266329
O O9 0.480568 0.713967 0.288262
O O10 0.551042 0.603324 0.194714
O O11 0.910536 0.547033 0.771910
O O12 0.925393 0.325526 0.898693
O O13 0.389508 0.915689 0.868472
O O14 0.313604 0.225894 0.896795
O O15 0.369455 0.000000 0.000000
O O16 0.595205 0.500000 0.500000
O O17 0.615317 0.000000 0.500000
#
# Coordination Sequence:
#
# PCOD8164274 Si02
#       8
#     8   8   4   8   8   8   8   8
#     4  11  23  38  59  93 144 194 229 266 329 415
#     4  11  24  35  62  96 137 178 234 281 334 406
#     4  10  26  46  81  95 126 160 242 304 384 428
#     4  11  24  46  72  97 130 178 227 299 361 427
#     4  12  23  39  63  98 143 186 233 280 350 424
#     4  11  23  45  69 102 126 178 237 304 363 428
#     4  11  27  44  68 104 151 195 236 282 350 436
#     4  12  23  37  56  99 140 186 231 280 328 412
#
# _framework density 22.480816000000001
#
# number of rings (size 3 to 8) (size 9 to 14) (size 15 to 20)
#    0.000    0.800    4.000    3.200   11.200    0.000 
#    0.000    0.333    0.000    2.400    0.000    0.000 
#    0.000    0.000    0.000    0.000    0.000    0.000 
#
# Total GULP energy -371665.967934 kJ/mol
# GULP energy per Si atom -12388.865598 kJ/mol
# Density = 2.242965 g / cm^3
# Si number density = 22.480816 Si / 1000 Ang^3
#
#
#
# Elastic Constant Matrix: (Units=GPa)
#
#
# Indices 1 2 3 4 5 6 
#
# 1 73.4612 9.7095 29.9174 0.0000 0.0000 0.0000
# 2 9.7095 71.7817 24.2079 0.0000 0.0000 0.0000
# 3 29.9174 24.2079 123.6689 0.0000 0.0000 0.0000
# 4 0.0000 0.0000 0.0000 38.8764 0.0000 0.0000
# 5 0.0000 0.0000 0.0000 0.0000 24.2664 0.0000
# 6 0.0000 0.0000 0.0000 0.0000 0.0000 38.3052
#
#
#
# Elastic Compliance Matrix: (Units=1/GPa)
#
#
# Indices 1 2 3 4 5 6 
#
# 1 0.015151 -0.000871 -0.003495 0.000000 0.000000 0.000000
# 2 -0.000871 0.014966 -0.002719 0.000000 0.000000 0.000000
# 3 -0.003495 -0.002719 0.009464 0.000000 0.000000 0.000000
# 4 0.000000 0.000000 0.000000 0.025723 0.000000 0.000000
# 5 0.000000 0.000000 0.000000 0.000000 0.041209 0.000000
# 6 0.000000 0.000000 0.000000 0.000000 0.000000 0.026106
#
#
# Mechanical properties :
#
#
# Convention : Reuss Voigt Hill
#
# Bulk Modulus (GPa) = 39.35199 44.06460 41.70829
# Shear Modulus (GPa) = 32.20444 33.96139 33.08292
#
# Velocity S-wave (km/s) = 3.78898 3.89097 3.84031
# Velocity P-wave (km/s) = 6.05678 6.31108 6.18523
#
# Compressibility (1/GPa) = 0.02541168
#
# Stress axis : x y z
#
# Youngs Moduli (GPa) = 66.00227 66.81887 105.66617
#
# Poissons Ratio (x) = 0.05818 0.36928
# Poissons Ratio (y) = 0.05747 0.28729
# Poissons Ratio (z) = 0.23067 0.18167
#
# Static dielectric constant tensor:
#      x y z
#    x 3.954900 0.000000 0.000000 
#    y 0.000000 4.206430 0.000000 
#    z 0.000000 0.000000 4.026220 
# 
# 
# High freq. dielectric constant tensor:
#      x y z
#    x 1.863120 0.000000 0.000000 
#    y 0.000000 1.895110 0.000000 
#    z 0.000000 0.000000 1.888590 
# 
# From -- ./inp_files/27380.got.cif
#   From: 2010.03.12/outbox.cif.g09.slc.cpg/sg23_14_cif.got.tgz:27380.got - 2010.04.14 02:50:06.
