data_PCOD8164622
_publ_section_title
;
Structure prediction by ZEFSAII (Michael W. Deem and Ramdas Pophale) SiO2 
 PCOD8164622
Probable space group: I 21 21 21
;
_chemical_formula_sum "Si O2"
_cell_formula_units_Z 60
_cell_length_a 13.760654
_cell_length_b 22.758469
_cell_length_c 11.119868
_cell_angle_alpha 90.000000
_cell_angle_beta 90.000000
_cell_angle_gamma 90.000000
_cell_volume 3482.424824
_symmetry_space_group_name_H-M "I 21 21 21"
_symmetry_group_IT_number 24
_symmetry_cell_setting 'orthorhombic'
loop_
_space_group_symop_operation_xyz
x,y,z
-x,1/2-y,z
x,-y,1/2-z
1/2-x,y,-z
1/2+x,1/2+y,1/2+z
1/2-x,-y,1/2+z
1/2+x,1/2-y,-z
-x,1/2+y,1/2-z
loop_
_atom_site_type_symbol
_atom_site_label
_atom_site_fract_x
_atom_site_fract_y
_atom_site_fract_z
Si Si1 0.940158 0.573854 0.357193
Si Si2 0.029014 0.911128 0.611420
Si Si3 0.395194 0.500000 0.250000
Si Si4 0.771867 0.564578 0.707269
Si Si5 0.009903 0.317089 0.691014
Si Si6 0.348093 0.402017 0.427951
Si Si7 0.842133 0.367838 0.560534
Si Si8 0.021346 0.938335 0.098727
O O1 0.990146 0.606528 0.471567
O O2 0.825952 0.590665 0.350629
O O3 0.989737 0.592376 0.230532
O O4 0.959979 0.506121 0.383016
O O5 0.139874 0.935005 0.612526
O O6 0.013237 0.853475 0.689775
O O7 0.961999 0.964402 0.656894
O O8 0.330824 0.453367 0.327186
O O9 0.744655 0.500000 0.750000
O O10 0.809117 0.602346 0.817860
O O11 0.928008 0.322534 0.588050
O O12 0.000000 0.250000 0.730683
O O13 0.111662 0.342019 0.635607
O O14 0.250000 0.387519 0.500000
O O15 0.425873 0.425865 0.522368
O O16 0.750000 0.335110 0.500000
O O17 0.881930 0.415950 0.467431
#
# Coordination Sequence:
#
# PCOD8164622 Si02
#       8
#     8   8   4   8   8   8   8   8
#     4  11  18  27  45  76 114 144 164 197 254 323
#     4  10  19  31  49  72 108 140 173 214 258 318
#     4  10  18  34  52  74 106 142 176 212 278 320
#     4  11  17  24  43  75 112 145 162 185 240 318
#     4   9  21  37  56  77  94 136 189 225 268 316
#     4  10  21  37  57  79 108 139 182 231 268 321
#     4  10  17  30  48  73 105 135 162 212 259 304
#     4  10  19  30  45  77 116 139 167 202 253 322
#
# _framework density 17.229375000000001
#
# number of rings (size 3 to 8) (size 9 to 14) (size 15 to 20)
#    0.000    1.867    4.667    2.000    0.000    1.600 
#    0.000    0.000    0.000    3.200    6.933    0.000 
#    0.000    0.000    0.000    0.000    0.000    0.000 
#
# Total GULP energy -371714.166487 kJ/mol
# GULP energy per Si atom -12390.472216 kJ/mol
# Density = 1.719016 g / cm^3
# Si number density = 17.229375 Si / 1000 Ang^3
#
#
#
# Elastic Constant Matrix: (Units=GPa)
#
#
# Indices 1 2 3 4 5 6 
#
# 1 72.2413 20.2127 30.2489 -0.0001 0.0000 0.0000
# 2 20.2127 72.8876 20.2928 0.0002 0.0002 0.0001
# 3 30.2489 20.2928 109.5535 0.0007 0.0008 0.0005
# 4 -0.0001 0.0002 0.0007 12.3759 0.0005 0.0003
# 5 0.0000 0.0002 0.0008 0.0005 35.7922 0.0001
# 6 0.0000 0.0001 0.0005 0.0003 0.0001 11.7754
#
#
#
# Elastic Compliance Matrix: (Units=1/GPa)
#
#
# Indices 1 2 3 4 5 6 
#
# 1 0.016447 -0.003476 -0.003897 0.000000 0.000000 0.000000
# 2 -0.003476 0.015200 -0.001856 0.000000 0.000000 0.000000
# 3 -0.003897 -0.001856 0.010548 -0.000001 0.000000 0.000000
# 4 0.000000 0.000000 -0.000001 0.080802 -0.000001 -0.000002
# 5 0.000000 0.000000 0.000000 -0.000001 0.027939 0.000000
# 6 0.000000 0.000000 0.000000 -0.000002 0.000000 0.084923
#
#
# Mechanical properties :
#
#
# Convention : Reuss Voigt Hill
#
# Bulk Modulus (GPa) = 42.12842 44.02126 43.07484
# Shear Modulus (GPa) = 19.06726 24.25056 21.65891
#
# Velocity S-wave (km/s) = 3.33028 3.75575 3.54940
# Velocity P-wave (km/s) = 6.26835 6.66432 6.46937
#
# Compressibility (1/GPa) = 0.02373694
#
# Stress axis : x y z
#
# Youngs Moduli (GPa) = 60.80167 65.78790 94.80632
#
# Poissons Ratio (x) = 0.22867 0.36949
# Poissons Ratio (y) = 0.21134 0.17595
# Poissons Ratio (z) = 0.23696 0.12209
#
# Static dielectric constant tensor:
#      x y z
#    x 3.266970 0.000000 0.000000 
#    y 0.000000 2.679110 0.000000 
#    z 0.000000 0.000000 3.701270 
# 
# 
# High freq. dielectric constant tensor:
#      x y z
#    x 1.653830 0.000000 0.000000 
#    y 0.000000 1.614140 0.000000 
#    z 0.000000 0.000000 1.685460 
# 
# From -- ./inp_files/21149.got.cif
#   From: 2010.03.12/outbox.cif.g09.slc.cpg/sg24_11_cif.got.tgz:21149.got - 2010.04.14 03:06:53.
