data_PCOD8164761
_publ_section_title
;
Structure prediction by ZEFSAII (Michael W. Deem and Ramdas Pophale) SiO2 
 PCOD8164761
Probable space group: I 21 21 21
;
_chemical_formula_sum "Si O2"
_cell_formula_units_Z 36
_cell_length_a 9.811825
_cell_length_b 8.874358
_cell_length_c 19.961732
_cell_angle_alpha 90.000000
_cell_angle_beta 90.000000
_cell_angle_gamma 90.000000
_cell_volume 1738.140819
_symmetry_space_group_name_H-M "I 21 21 21"
_symmetry_group_IT_number 24
_symmetry_cell_setting 'orthorhombic'
loop_
_space_group_symop_operation_xyz
x,y,z
-x,1/2-y,z
x,-y,1/2-z
1/2-x,y,-z
1/2+x,1/2+y,1/2+z
1/2-x,-y,1/2+z
1/2+x,1/2-y,-z
-x,1/2+y,1/2-z
loop_
_atom_site_type_symbol
_atom_site_label
_atom_site_fract_x
_atom_site_fract_y
_atom_site_fract_z
Si Si1 0.248881 0.143346 0.183360
Si Si2 0.116692 0.639988 0.876916
Si Si3 0.497684 0.000000 0.250000
Si Si4 0.648781 0.176204 0.061206
Si Si5 0.354738 0.184442 0.675696
O O1 0.264275 0.258883 0.123164
O O2 0.175759 0.222572 0.246372
O O3 0.403309 0.102870 0.203210
O O4 0.161833 0.994982 0.163083
O O5 0.090594 0.596644 0.799360
O O6 0.125865 0.500302 0.926981
O O7 0.256038 0.732266 0.876211
O O8 0.000000 0.750000 0.904756
O O9 0.500000 0.250000 0.049540
O O10 0.750000 0.204316 0.000000
O O11 0.500000 0.250000 0.656422
#
# Coordination Sequence:
#
# PCOD8164761 Si02
#       5
#     8   8   4   8   8
#     4  10  21  40  64  98 135 164 220 278 342 399
#     4  12  21  39  69  98 125 167 228 277 338 405
#     4  10  18  34  72 102 120 156 216 302 322 384
#     4  12  27  45  65  92 131 184 230 271 325 404
#     4  10  22  37  64 103 136 163 202 288 366 387
#
# _framework density 20.711786
#
# number of rings (size 3 to 8) (size 9 to 14) (size 15 to 20)
#    0.000    1.333    6.667    1.333    0.000    8.000 
#    0.000    5.556    0.000    0.000    0.000    0.000 
#    0.000    0.000    0.000    0.000    0.000    0.000 
#
# Total GULP energy -223166.075275 kJ/mol
# GULP energy per Si atom -12398.115293 kJ/mol
# Density = 2.066464 g / cm^3
# Si number density = 20.711786 Si / 1000 Ang^3
#
#
#
# Elastic Constant Matrix: (Units=GPa)
#
#
# Indices 1 2 3 4 5 6 
#
# 1 141.3311 50.4395 21.1030 0.0000 0.0000 0.0000
# 2 50.4395 98.9078 32.2754 0.0000 0.0000 0.0000
# 3 21.1030 32.2754 63.2140 0.0000 0.0000 0.0000
# 4 0.0000 0.0000 0.0000 17.8727 0.0000 0.0000
# 5 0.0000 0.0000 0.0000 0.0000 16.1454 0.0000
# 6 0.0000 0.0000 0.0000 0.0000 0.0000 23.8291
#
#
#
# Elastic Compliance Matrix: (Units=1/GPa)
#
#
# Indices 1 2 3 4 5 6 
#
# 1 0.008681 -0.004177 -0.000765 0.000000 0.000000 0.000000
# 2 -0.004177 0.014142 -0.005826 0.000000 0.000000 0.000000
# 3 -0.000765 -0.005826 0.019049 0.000000 0.000000 0.000000
# 4 0.000000 0.000000 0.000000 0.055951 0.000000 0.000000
# 5 0.000000 0.000000 0.000000 0.000000 0.061937 0.000000
# 6 0.000000 0.000000 0.000000 0.000000 0.000000 0.041966
#
#
# Mechanical properties :
#
#
# Convention : Reuss Voigt Hill
#
# Bulk Modulus (GPa) = 49.17581 56.78764 52.98173
# Shear Modulus (GPa) = 21.73530 24.87843 23.30687
#
# Velocity S-wave (km/s) = 3.24299 3.46955 3.35818
# Velocity P-wave (km/s) = 6.14956 6.59757 6.37750
#
# Compressibility (1/GPa) = 0.02033520
#
# Stress axis : x y z
#
# Youngs Moduli (GPa) = 115.19944 70.71284 52.49544
#
# Poissons Ratio (x) = 0.29538 0.04017
# Poissons Ratio (y) = 0.48120 0.30583
# Poissons Ratio (z) = 0.08815 0.41197
#
# Static dielectric constant tensor:
#      x y z
#    x 3.772860 0.000000 0.000000 
#    y 0.000000 3.846860 0.000000 
#    z 0.000000 0.000000 3.452550 
# 
# 
# High freq. dielectric constant tensor:
#      x y z
#    x 1.811570 0.000000 0.000000 
#    y 0.000000 1.820740 0.000000 
#    z 0.000000 0.000000 1.776880 
# 
# From -- ./inp_files/32492.got.cif
#   From: 2010.03.12/outbox.cif.g09.slc.cpg/sg24_17_cif.got.tgz:32492.got - 2010.04.14 03:06:53.
