data_PCOD8164520
_publ_section_title
;
Structure prediction by ZEFSAII (Michael W. Deem and Ramdas Pophale) SiO2 
 PCOD8164520
Probable space group: I 2 2 2
;
_chemical_formula_sum "Si O2"
_cell_formula_units_Z 64
_cell_length_a 28.991106
_cell_length_b 8.948123
_cell_length_c 12.161983
_cell_angle_alpha 90.000000
_cell_angle_beta 90.000000
_cell_angle_gamma 90.000000
_cell_volume 3155.012768
_symmetry_space_group_name_H-M "I 2 2 2"
_symmetry_group_IT_number 23
_symmetry_cell_setting 'orthorhombic'
loop_
_space_group_symop_operation_xyz
x,y,z
-x,-y,z
x,-y,-z
-x,y,-z
1/2+x,1/2+y,1/2+z
1/2-x,1/2-y,1/2+z
1/2+x,1/2-y,1/2-z
1/2-x,1/2+y,1/2-z
loop_
_atom_site_type_symbol
_atom_site_label
_atom_site_fract_x
_atom_site_fract_y
_atom_site_fract_z
Si Si1 0.643186 0.180111 0.879514
Si Si2 0.717227 0.377863 0.806997
Si Si3 0.314458 0.866785 0.416744
Si Si4 0.186376 0.830639 0.584098
Si Si5 0.452214 0.318404 0.868612
Si Si6 0.370789 0.864758 0.215508
Si Si7 0.054530 0.839696 0.374764
Si Si8 0.725075 0.358318 0.560589
O O1 0.690106 0.220836 0.814745
O O2 0.596651 0.245709 0.822566
O O3 0.638393 0.001193 0.870579
O O4 0.648417 0.261685 0.998892
O O5 0.770434 0.360499 0.835240
O O6 0.690977 0.489477 0.895048
O O7 0.711328 0.421106 0.679895
O O8 0.360546 0.900357 0.344038
O O9 0.317266 0.712986 0.489653
O O10 0.308769 0.000000 0.500000
O O11 0.167402 0.764428 0.697278
O O12 0.237456 0.773753 0.558934
O O13 0.422118 0.198927 0.800903
O O14 0.504584 0.298302 0.823976
O O15 0.434570 0.487338 0.850286
O O16 0.449040 0.292299 0.998153
O O17 0.746945 0.500000 0.500000
#
# Coordination Sequence:
#
# PCOD8164520 Si02
#       8
#     8   8   8   8   8   8   8   8
#     4  12  23  36  57  91 118 166 200 253 306 382
#     4  12  25  40  59  80 119 170 213 255 314 373
#     4  12  24  42  59  85 123 169 213 269 319 375
#     4  12  23  37  56  84 119 162 210 256 302 376
#     4   9  19  37  58  91 118 169 190 246 309 386
#     4  12  24  36  60  87 128 159 210 255 316 370
#     4   9  19  36  61  84 129 159 199 235 312 390
#     4  12  25  39  59  83 113 158 217 264 310 358
#
# _framework density 20.285177999999998
#
# number of rings (size 3 to 8) (size 9 to 14) (size 15 to 20)
#    0.000    0.750    5.000    4.500    1.750    0.500 
#    0.000    1.250    0.000    0.000    0.000    6.125 
#    0.000    9.000    0.000    0.000    0.000    0.000 
#
# Total GULP energy -396463.955468 kJ/mol
# GULP energy per Si atom -12389.498608 kJ/mol
# Density = 2.023901 g / cm^3
# Si number density = 20.285178 Si / 1000 Ang^3
#
#
#
# Elastic Constant Matrix: (Units=GPa)
#
#
# Indices 1 2 3 4 5 6 
#
# 1 98.6610 47.3275 26.5752 0.0000 0.0000 0.0000
# 2 47.3275 88.3148 26.8241 0.0000 0.0000 0.0000
# 3 26.5752 26.8241 88.8489 0.0000 0.0000 0.0000
# 4 0.0000 0.0000 0.0000 18.9550 0.0000 0.0000
# 5 0.0000 0.0000 0.0000 0.0000 18.5410 0.0000
# 6 0.0000 0.0000 0.0000 0.0000 0.0000 27.3013
#
#
#
# Elastic Compliance Matrix: (Units=1/GPa)
#
#
# Indices 1 2 3 4 5 6 
#
# 1 0.013995 -0.006857 -0.002116 0.000000 0.000000 0.000000
# 2 -0.006857 0.015826 -0.002727 0.000000 0.000000 0.000000
# 3 -0.002116 -0.002727 0.012711 0.000000 0.000000 0.000000
# 4 0.000000 0.000000 0.000000 0.052757 0.000000 0.000000
# 5 0.000000 0.000000 0.000000 0.000000 0.053935 0.000000
# 6 0.000000 0.000000 0.000000 0.000000 0.000000 0.036628
#
#
# Mechanical properties :
#
#
# Convention : Reuss Voigt Hill
#
# Bulk Modulus (GPa) = 52.26726 53.03090 52.64908
# Shear Modulus (GPa) = 23.18795 24.63264 23.91029
#
# Velocity S-wave (km/s) = 3.38464 3.48849 3.43696
# Velocity P-wave (km/s) = 6.41066 6.51348 6.46228
#
# Compressibility (1/GPa) = 0.01913244
#
# Stress axis : x y z
#
# Youngs Moduli (GPa) = 71.45396 63.18644 78.67083
#
# Poissons Ratio (x) = 0.43329 0.16645
# Poissons Ratio (y) = 0.48998 0.21453
# Poissons Ratio (z) = 0.15118 0.17231
#
# Static dielectric constant tensor:
#      x y z
#    x 3.837710 0.000000 0.000000 
#    y 0.000000 3.747970 0.000000 
#    z 0.000000 0.000000 3.748440 
# 
# 
# High freq. dielectric constant tensor:
#      x y z
#    x 1.772400 0.000000 0.000000 
#    y 0.000000 1.802140 0.000000 
#    z 0.000000 0.000000 1.763710 
# 
# From -- ./inp_files/18795.got.cif
#   From: 2010.03.12/outbox.cif.g09.slc.cpg/sg23_10_cif.got.tgz:18795.got - 2010.04.14 02:50:06.
