data_PCOD8164420
_publ_section_title
;
Structure prediction by ZEFSAII (Michael W. Deem and Ramdas Pophale) SiO2 
 PCOD8164420
Probable space group: I 2 2 2
;
_chemical_formula_sum "Si O2"
_cell_formula_units_Z 44
_cell_length_a 9.236138
_cell_length_b 7.054542
_cell_length_c 28.413684
_cell_angle_alpha 90.000000
_cell_angle_beta 90.000000
_cell_angle_gamma 90.000000
_cell_volume 1851.342550
_symmetry_space_group_name_H-M "I 2 2 2"
_symmetry_group_IT_number 23
_symmetry_cell_setting 'orthorhombic'
loop_
_space_group_symop_operation_xyz
x,y,z
-x,-y,z
x,-y,-z
-x,y,-z
1/2+x,1/2+y,1/2+z
1/2-x,1/2-y,1/2+z
1/2+x,1/2-y,1/2-z
1/2-x,1/2+y,1/2-z
loop_
_atom_site_type_symbol
_atom_site_label
_atom_site_fract_x
_atom_site_fract_y
_atom_site_fract_z
Si Si1 0.490259 0.776844 0.552106
Si Si2 0.500000 0.000000 0.897947
Si Si3 0.718387 0.282176 0.899325
Si Si4 0.202385 0.831762 0.798367
Si Si5 0.112707 0.740941 0.207779
Si Si6 0.733606 0.298973 0.116575
O O1 0.500000 0.685914 0.500000
O O2 0.626911 0.712373 0.582529
O O3 0.345412 0.707678 0.578746
O O4 0.500000 0.000000 0.548134
O O5 0.400288 0.850604 0.926696
O O6 0.609373 0.854554 0.870072
O O7 0.707519 0.229208 0.844164
O O8 0.676719 0.503111 0.906443
O O9 0.313856 0.823400 0.755674
O O10 0.060368 0.697850 0.789766
O O11 0.141746 0.041005 0.803410
O O12 0.183003 0.630613 0.163548
#
# Coordination Sequence:
#
# PCOD8164420 Si02
#       6
#     8   4   8   8   8   8
#     4   9  20  43  76 105 132 176 233 289 343 407
#     4  12  26  42  65  92 144 176 218 274 339 406
#     4  11  23  43  69  98 134 180 227 281 344 401
#     4  11  24  40  62  93 135 176 224 278 336 403
#     4  11  24  40  62  93 135 176 224 278 336 403
#     4  11  23  43  69  98 134 180 227 281 344 401
#
# _framework density 23.766537
#
# number of rings (size 3 to 8) (size 9 to 14) (size 15 to 20)
#    0.000    1.273    3.636    1.636    2.545    2.909 
#    0.000    3.636    0.000    4.364    0.000    0.000 
#    0.000    0.000    0.000    0.000    0.000    0.000 
#
# Total GULP energy -272605.648439 kJ/mol
# GULP energy per Si atom -12391.165838 kJ/mol
# Density = 2.371244 g / cm^3
# Si number density = 23.766537 Si / 1000 Ang^3
#
#
#
# Elastic Constant Matrix: (Units=GPa)
#
#
# Indices 1 2 3 4 5 6 
#
# 1 149.1556 51.3797 39.5601 0.0000 0.0000 0.0000
# 2 51.3797 99.7668 5.2049 0.0000 0.0000 0.0000
# 3 39.5601 5.2049 126.1664 0.0000 0.0000 0.0000
# 4 0.0000 0.0000 0.0000 0.7913 0.0000 0.0000
# 5 0.0000 0.0000 0.0000 0.0000 28.5957 0.0000
# 6 0.0000 0.0000 0.0000 0.0000 0.0000 42.3314
#
#
#
# Elastic Compliance Matrix: (Units=1/GPa)
#
#
# Indices 1 2 3 4 5 6 
#
# 1 0.008937 -0.004466 -0.002618 0.000000 0.000000 0.000000
# 2 -0.004466 0.012277 0.000894 -0.000001 0.000000 0.000000
# 3 -0.002618 0.000894 0.008710 0.000000 0.000000 0.000000
# 4 0.000000 -0.000001 0.000000 1.263719 0.000000 0.000000
# 5 0.000000 0.000000 0.000000 0.000000 0.034970 0.000000
# 6 0.000000 0.000000 0.000000 0.000000 0.000000 0.023623
#
#
# Mechanical properties :
#
#
# Convention : Reuss Voigt Hill
#
# Bulk Modulus (GPa) = 57.00098 63.04204 60.02151
# Shear Modulus (GPa) = 3.64840 32.93994 18.29417
#
# Velocity S-wave (km/s) = 1.24033 3.72691 2.77744
# Velocity P-wave (km/s) = 5.10755 6.71588 5.96615
#
# Compressibility (1/GPa) = 0.01754356
#
# Stress axis : x y z
#
# Youngs Moduli (GPa) = 111.89171 81.45479 114.80965
#
# Poissons Ratio (x) = 0.36378 0.30058
# Poissons Ratio (y) = 0.49971 -0.10263
# Poissons Ratio (z) = 0.29294 -0.07281
#
# Static dielectric constant tensor:
#      x y z
#    x 4.460380 0.000000 0.000000 
#    y 0.000000 4.410160 0.000000 
#    z 0.000000 0.000000 4.016040 
# 
# 
# High freq. dielectric constant tensor:
#      x y z
#    x 1.949840 0.000000 0.000000 
#    y 0.000000 1.963950 0.000000 
#    z 0.000000 0.000000 1.899210 
# 
# From -- ./inp_files/30156.got.cif
#   From: 2010.03.12/outbox.cif.g09.slc.cpg/sg23_16_cif.got.tgz:30156.got - 2010.04.14 02:50:06.
