data_PCOD8164413
_publ_section_title
;
Structure prediction by ZEFSAII (Michael W. Deem and Ramdas Pophale) SiO2 
 PCOD8164413
Probable space group: I 2 2 2
;
_chemical_formula_sum "Si O2"
_cell_formula_units_Z 56
_cell_length_a 9.574027
_cell_length_b 15.754577
_cell_length_c 16.218858
_cell_angle_alpha 90.000000
_cell_angle_beta 90.000000
_cell_angle_gamma 90.000000
_cell_volume 2446.367320
_symmetry_space_group_name_H-M "I 2 2 2"
_symmetry_group_IT_number 23
_symmetry_cell_setting 'orthorhombic'
loop_
_space_group_symop_operation_xyz
x,y,z
-x,-y,z
x,-y,-z
-x,y,-z
1/2+x,1/2+y,1/2+z
1/2-x,1/2-y,1/2+z
1/2+x,1/2-y,1/2-z
1/2-x,1/2+y,1/2-z
loop_
_atom_site_type_symbol
_atom_site_label
_atom_site_fract_x
_atom_site_fract_y
_atom_site_fract_z
Si Si1 0.013725 0.399562 0.097962
Si Si2 0.350961 0.852453 0.911725
Si Si3 0.351223 0.523082 0.337834
Si Si4 0.462424 0.583756 0.168651
Si Si5 0.763763 0.710985 0.838724
Si Si6 0.659255 0.877961 0.902066
Si Si7 0.222052 0.193435 0.669366
O O1 0.159073 0.368025 0.135169
O O2 0.000000 0.500000 0.117107
O O3 0.904388 0.341597 0.148045
O O4 0.000000 0.382952 0.000000
O O5 0.214018 0.889814 0.868960
O O6 0.500413 0.871371 0.866917
O O7 0.329735 0.750722 0.907958
O O8 0.353319 0.894339 0.001319
O O9 0.500000 0.500000 0.382097
O O10 0.377972 0.537792 0.242140
O O11 0.234724 0.451775 0.352402
O O12 0.500000 0.500000 0.111746
O O13 0.359830 0.650518 0.126769
O O14 0.598326 0.633102 0.201490
O O15 0.754500 0.794422 0.894071
O O16 0.739171 0.742067 0.744131
#
# Coordination Sequence:
#
# PCOD8164413 Si02
#       7
#     8   8   8   8   8   8   8
#     4  11  27  49  74 107 147 196 248 304 370 439
#     4  11  24  44  67 101 141 197 236 292 371 439
#     4  11  24  43  66 101 142 181 235 291 356 434
#     4  11  23  42  65 100 137 179 233 289 354 420
#     4  12  23  44  70 107 137 183 243 294 368 428
#     4  11  25  43  69  99 145 188 242 295 362 447
#     4  12  24  45  72 102 147 184 241 303 362 441
#
# _framework density 22.891083999999999
#
# number of rings (size 3 to 8) (size 9 to 14) (size 15 to 20)
#    0.000    0.714    2.857    5.143    2.000    2.286 
#    0.000    0.000    0.000    3.429    0.000    0.000 
#    0.000    0.000    0.000    0.000    0.000    0.000 
#
# Total GULP energy -346933.974109 kJ/mol
# GULP energy per Si atom -12390.499075 kJ/mol
# Density = 2.283898 g / cm^3
# Si number density = 22.891084 Si / 1000 Ang^3
#
#
#
# Elastic Constant Matrix: (Units=GPa)
#
#
# Indices 1 2 3 4 5 6 
#
# 1 148.4319 58.0565 23.1242 0.0000 0.0000 0.0000
# 2 58.0565 144.0891 29.4441 0.0000 0.0000 0.0000
# 3 23.1242 29.4441 60.9912 0.0000 0.0000 0.0000
# 4 0.0000 0.0000 0.0000 1.5453 0.0000 0.0000
# 5 0.0000 0.0000 0.0000 0.0000 26.6783 0.0000
# 6 0.0000 0.0000 0.0000 0.0000 0.0000 60.8631
#
#
#
# Elastic Compliance Matrix: (Units=1/GPa)
#
#
# Indices 1 2 3 4 5 6 
#
# 1 0.008148 -0.002942 -0.001669 0.000000 0.000000 0.000000
# 2 -0.002942 0.008762 -0.003115 0.000000 0.000000 0.000000
# 3 -0.001669 -0.003115 0.018532 0.000000 0.000000 0.000000
# 4 0.000000 0.000000 0.000000 0.647128 0.000000 0.000000
# 5 0.000000 0.000000 0.000000 0.000000 0.037484 0.000000
# 6 0.000000 0.000000 0.000000 0.000000 0.000000 0.016430
#
#
# Mechanical properties :
#
#
# Convention : Reuss Voigt Hill
#
# Bulk Modulus (GPa) = 50.02203 63.86240 56.94222
# Shear Modulus (GPa) = 6.59111 34.00983 20.30047
#
# Velocity S-wave (km/s) = 1.69870 3.85869 2.98120
# Velocity P-wave (km/s) = 5.07416 6.91459 6.06460
#
# Compressibility (1/GPa) = 0.01999119
#
# Stress axis : x y z
#
# Youngs Moduli (GPa) = 122.73318 114.13009 53.96032
#
# Poissons Ratio (x) = 0.33576 0.09006
# Poissons Ratio (y) = 0.36106 0.16806
# Poissons Ratio (z) = 0.20483 0.35546
#
# Static dielectric constant tensor:
#      x y z
#    x 4.574990 0.000000 0.000000 
#    y 0.000000 4.701240 0.000000 
#    z 0.000000 0.000000 3.820940 
# 
# 
# High freq. dielectric constant tensor:
#      x y z
#    x 1.919930 0.000000 0.000000 
#    y 0.000000 1.934340 0.000000 
#    z 0.000000 0.000000 1.869690 
# 
# From -- ./inp_files/26271.got.cif
#   From: 2010.03.12/outbox.cif.g09.slc.cpg/sg23_14_cif.got.tgz:26271.got - 2010.04.14 02:50:06.
