data_PCOD8164816
_publ_section_title
;
Structure prediction by ZEFSAII (Michael W. Deem and Ramdas Pophale) SiO2 
 PCOD8164816
Probable space group: I 21 21 21
;
_chemical_formula_sum "Si O2"
_cell_formula_units_Z 40
_cell_length_a 8.868898
_cell_length_b 16.006825
_cell_length_c 12.768587
_cell_angle_alpha 90.000000
_cell_angle_beta 90.000000
_cell_angle_gamma 90.000000
_cell_volume 1812.665617
_symmetry_space_group_name_H-M "I 21 21 21"
_symmetry_group_IT_number 24
_symmetry_cell_setting 'orthorhombic'
loop_
_space_group_symop_operation_xyz
x,y,z
-x,1/2-y,z
x,-y,1/2-z
1/2-x,y,-z
1/2+x,1/2+y,1/2+z
1/2-x,-y,1/2+z
1/2+x,1/2-y,-z
-x,1/2+y,1/2-z
loop_
_atom_site_type_symbol
_atom_site_label
_atom_site_fract_x
_atom_site_fract_y
_atom_site_fract_z
Si Si1 0.487696 0.009480 0.080977
Si Si2 0.427481 0.669337 0.989370
Si Si3 0.078900 0.667569 0.462544
Si Si4 0.734763 0.500000 0.750000
Si Si5 0.726735 0.000000 0.250000
Si Si6 0.474450 0.627630 0.768060
O O1 0.332514 0.008536 0.144702
O O2 0.624480 0.035397 0.156966
O O3 0.488687 0.082564 0.993599
O O4 0.508003 0.918042 0.032272
O O5 0.500000 0.750000 0.050060
O O6 0.483652 0.684514 0.870248
O O7 0.250000 0.672156 0.000000
O O8 0.250000 0.663639 0.500000
O O9 0.000000 0.750000 0.512119
O O10 0.070058 0.676904 0.336964
O O11 0.633199 0.581897 0.754540
O O12 0.833988 0.930918 0.200769
#
# Coordination Sequence:
#
# PCOD8164816 Si02
#       6
#     8   8   8   4   4   8
#     4  11  23  47  73  96 142 184 230 275 350 417
#     4  12  27  46  73 103 138 185 233 286 347 415
#     4  12  27  46  73 103 138 185 233 286 347 415
#     4  10  26  40  74 110 136 182 230 294 334 408
#     4  10  18  42  72 100 122 186 232 270 336 414
#     4  11  23  44  69 101 144 173 233 291 339 402
#
# _framework density 22.066946999999999
#
# number of rings (size 3 to 8) (size 9 to 14) (size 15 to 20)
#    0.000    0.800    4.000    3.600    5.600    1.600 
#    0.000    5.000    0.000    0.000    0.000    0.000 
#    0.000    0.000    0.000    0.000    0.000    0.000 
#
# Total GULP energy -247934.219922 kJ/mol
# GULP energy per Si atom -12396.710996 kJ/mol
# Density = 2.201672 g / cm^3
# Si number density = 22.066947 Si / 1000 Ang^3
#
#
#
# Elastic Constant Matrix: (Units=GPa)
#
#
# Indices 1 2 3 4 5 6 
#
# 1 146.2918 55.0444 48.9828 0.0000 0.0000 0.0000
# 2 55.0444 156.2726 30.1268 0.0001 0.0000 0.0000
# 3 48.9828 30.1268 102.3637 0.0003 0.0000 0.0000
# 4 0.0000 0.0001 0.0003 7.7996 0.0000 0.0000
# 5 0.0000 0.0000 0.0000 0.0000 18.7603 0.0000
# 6 0.0000 0.0000 0.0000 0.0000 0.0000 3.8217
#
#
#
# Elastic Compliance Matrix: (Units=1/GPa)
#
#
# Indices 1 2 3 4 5 6 
#
# 1 0.008956 -0.002469 -0.003559 0.000000 0.000000 0.000000
# 2 -0.002469 0.007464 -0.001016 0.000000 0.000000 0.000000
# 3 -0.003559 -0.001016 0.011771 0.000000 0.000000 0.000000
# 4 0.000000 0.000000 0.000000 0.128212 0.000000 0.000000
# 5 0.000000 0.000000 0.000000 0.000000 0.053304 0.000000
# 6 0.000000 0.000000 0.000000 0.000000 0.000000 0.261662
#
#
# Mechanical properties :
#
#
# Convention : Reuss Voigt Hill
#
# Bulk Modulus (GPa) = 70.89660 74.80401 72.85030
# Shear Modulus (GPa) = 10.20081 24.12794 17.16437
#
# Velocity S-wave (km/s) = 2.15237 3.31024 2.79199
# Velocity P-wave (km/s) = 6.19473 6.97012 6.59383
#
# Compressibility (1/GPa) = 0.01410505
#
# Stress axis : x y z
#
# Youngs Moduli (GPa) = 111.65478 133.96998 84.95363
#
# Poissons Ratio (x) = 0.33071 0.30236
# Poissons Ratio (y) = 0.27562 0.08628
# Poissons Ratio (z) = 0.39740 0.13606
#
# Static dielectric constant tensor:
#      x y z
#    x 3.998870 0.000000 0.000000 
#    y 0.000000 4.369520 0.000000 
#    z 0.000000 0.000000 4.090570 
# 
# 
# High freq. dielectric constant tensor:
#      x y z
#    x 1.878440 0.000000 0.000000 
#    y 0.000000 1.874590 0.000000 
#    z 0.000000 0.000000 1.871400 
# 
# From -- ./inp_files/18252.got.cif
#   From: 2010.03.12/outbox.cif.g09.slc.cpg/sg24_10_cif.got.tgz:18252.got - 2010.04.14 03:06:53.
