data_PCOD8164051
_publ_section_title
;
Structure prediction by ZEFSAII (Michael W. Deem and Ramdas Pophale) SiO2 
 PCOD8164051
Probable space group: I 2 2 2
;
_chemical_formula_sum "Si O2"
_cell_formula_units_Z 40
_cell_length_a 8.174644
_cell_length_b 9.020188
_cell_length_c 23.384690
_cell_angle_alpha 90.000000
_cell_angle_beta 90.000000
_cell_angle_gamma 90.000000
_cell_volume 1724.312811
_symmetry_space_group_name_H-M "I 2 2 2"
_symmetry_group_IT_number 23
_symmetry_cell_setting 'orthorhombic'
loop_
_space_group_symop_operation_xyz
x,y,z
-x,-y,z
x,-y,-z
-x,y,-z
1/2+x,1/2+y,1/2+z
1/2-x,1/2-y,1/2+z
1/2+x,1/2-y,1/2-z
1/2-x,1/2+y,1/2-z
loop_
_atom_site_type_symbol
_atom_site_label
_atom_site_fract_x
_atom_site_fract_y
_atom_site_fract_z
Si Si1 0.561431 0.838671 0.777900
Si Si2 0.816914 0.728866 0.978255
Si Si3 0.687986 0.045967 0.113195
Si Si4 0.736381 0.742944 0.669900
Si Si5 0.688705 0.450922 0.922827
O O1 0.697029 0.853396 0.828940
O O2 0.615267 0.743871 0.723390
O O3 0.417075 0.747903 0.805575
O O4 0.500000 0.000000 0.757935
O O5 0.757933 0.874177 0.943275
O O6 0.808293 0.586752 0.937188
O O7 0.696651 0.684632 0.030872
O O8 0.000000 0.757248 0.000000
O O9 0.500000 0.000000 0.101713
O O10 0.794351 0.898783 0.128224
O O11 0.727094 0.894344 0.634720
O O12 0.500000 0.500000 0.917030
#
# Coordination Sequence:
#
# PCOD8164051 Si02
#       5
#     8   8   8   8   8
#     4   9  21  40  64  97 131 169 213 265 325 383
#     4  11  24  43  66  98 134 170 220 281 337 386
#     4   9  21  43  67  97 132 174 219 263 327 400
#     4  10  22  42  68  96 129 171 219 267 322 387
#     4  11  23  40  67  98 129 181 231 266 324 400
#
# _framework density 23.197647
#
# number of rings (size 3 to 8) (size 9 to 14) (size 15 to 20)
#    0.000    2.400    0.000    4.800    0.000   10.400 
#    0.000   11.000    0.000    2.400    0.000    0.000 
#    0.000    0.000    0.000    0.000    0.000    0.000 
#
# Total GULP energy -247793.205878 kJ/mol
# GULP energy per Si atom -12389.660294 kJ/mol
# Density = 2.314485 g / cm^3
# Si number density = 23.197647 Si / 1000 Ang^3
#
#
#
# Elastic Constant Matrix: (Units=GPa)
#
#
# Indices 1 2 3 4 5 6 
#
# 1 54.0114 39.3794 35.7579 0.0000 0.0000 0.0000
# 2 39.3794 83.8244 69.5224 0.0000 0.0001 0.0000
# 3 35.7579 69.5224 112.5812 0.0000 0.0001 0.0000
# 4 0.0000 0.0000 0.0000 -188.8551 0.0001 0.0000
# 5 0.0000 0.0001 0.0001 0.0001 2940.2018 0.0000
# 6 0.0000 0.0000 0.0000 0.0000 0.0000 28.4065
#
#
#
# Elastic Compliance Matrix: (Units=1/GPa)
#
#
# Indices 1 2 3 4 5 6 
#
# 1 0.028299 -0.011971 -0.001596 0.000000 0.000000 0.000000
# 2 -0.011971 0.029518 -0.014426 0.000000 0.000000 0.000000
# 3 -0.001596 -0.014426 0.018298 0.000000 0.000000 0.000000
# 4 0.000000 0.000000 0.000000 -0.005295 0.000000 0.000000
# 5 0.000000 0.000000 0.000000 0.000000 0.000340 0.000000
# 6 0.000000 0.000000 0.000000 0.000000 0.000000 0.035203
#
#
# Mechanical properties :
#
#
# Convention : Reuss Voigt Hill
#
# Bulk Modulus (GPa) = 49.67891 59.97072 54.82482
# Shear Modulus (GPa) = 29.57535 563.00112 296.28823
#
# Velocity S-wave (km/s) = 3.57449 15.59565 11.31374
# Velocity P-wave (km/s) = 6.20467 18.71383 13.94104
#
# Compressibility (1/GPa) = 0.02012927
#
# Stress axis : x y z
#
# Youngs Moduli (GPa) = 35.33691 33.87721 54.65044
#
# Poissons Ratio (x) = 0.40554 0.08722
# Poissons Ratio (y) = 0.42301 0.78841
# Poissons Ratio (z) = 0.05640 0.48873
#
# Static dielectric constant tensor:
#      x y z
#    x 4.226720 0.000000 0.000000 
#    y 0.000000 -6.145910 0.000000 
#    z 0.000000 0.000000 4.432490 
# 
# 
# High freq. dielectric constant tensor:
#      x y z
#    x 1.892940 0.000000 0.000000 
#    y 0.000000 1.913290 0.000000 
#    z 0.000000 0.000000 1.930230 
# 
# From -- ./inp_files/27874.got.cif
#   From: 2010.03.12/outbox.cif.g09.slc.cpg/sg23_14_cif.got.tgz:27874.got - 2010.04.14 02:50:06.
