data_PCOD8164798
_publ_section_title
;
Structure prediction by ZEFSAII (Michael W. Deem and Ramdas Pophale) SiO2 
 PCOD8164798
Probable space group: I 21 21 21
;
_chemical_formula_sum "Si O2"
_cell_formula_units_Z 52
_cell_length_a 10.431382
_cell_length_b 17.058849
_cell_length_c 15.640669
_cell_angle_alpha 90.000000
_cell_angle_beta 90.000000
_cell_angle_gamma 90.000000
_cell_volume 2783.215920
_symmetry_space_group_name_H-M "I 21 21 21"
_symmetry_group_IT_number 24
_symmetry_cell_setting 'orthorhombic'
loop_
_space_group_symop_operation_xyz
x,y,z
-x,1/2-y,z
x,-y,1/2-z
1/2-x,y,-z
1/2+x,1/2+y,1/2+z
1/2-x,-y,1/2+z
1/2+x,1/2-y,-z
-x,1/2+y,1/2-z
loop_
_atom_site_type_symbol
_atom_site_label
_atom_site_fract_x
_atom_site_fract_y
_atom_site_fract_z
Si Si1 0.484218 0.008059 0.626719
Si Si2 0.870878 0.922724 0.695285
Si Si3 0.015901 0.841235 0.835379
Si Si4 0.000000 0.750000 0.162231
Si Si5 0.290329 0.866899 0.901968
Si Si6 0.404036 0.609511 0.737203
Si Si7 0.612677 0.031097 0.455028
O O1 0.350078 0.053426 0.638356
O O2 0.597841 0.051467 0.680331
O O3 0.509093 0.013576 0.526979
O O4 0.488374 0.920243 0.667180
O O5 0.974156 0.863350 0.738008
O O6 0.732915 0.882311 0.692985
O O7 0.865392 0.000000 0.750000
O O8 0.899778 0.950888 0.599268
O O9 0.928823 0.891206 0.902270
O O10 0.000000 0.750000 0.854971
O O11 0.166462 0.856488 0.843563
O O12 0.105114 0.796024 0.104426
O O13 0.070020 0.694620 0.228343
O O14 0.250000 0.875461 0.000000
O O15 0.750000 0.044886 0.500000
#
# Coordination Sequence:
#
# PCOD8164798 Si02
#       7
#     8   8   8   4   8   8   8
#     4  10  19  36  57  82 115 156 201 246 295 358
#     4  10  19  36  61  86 114 157 207 247 298 360
#     4  11  24  38  58  92 129 162 195 257 322 376
#     4  10  24  38  60  86 118 170 200 242 316 380
#     4  11  23  39  54  90 129 160 201 249 320 378
#     4  10  18  38  59  85 116 151 206 250 293 370
#     4  11  20  37  63  90 115 158 209 257 301 367
#
# _framework density 18.683423000000001
#
# number of rings (size 3 to 8) (size 9 to 14) (size 15 to 20)
#    0.000    1.538    4.615    1.846    1.077    1.846 
#   16.615    0.000    1.692    0.000    0.000    0.000 
#    0.000    0.000    0.000    0.000    0.000    0.000 
#
# Total GULP energy -322135.192273 kJ/mol
# GULP energy per Si atom -12389.815087 kJ/mol
# Density = 1.864090 g / cm^3
# Si number density = 18.683423 Si / 1000 Ang^3
#
#
#
# Elastic Constant Matrix: (Units=GPa)
#
#
# Indices 1 2 3 4 5 6 
#
# 1 121.2249 28.3607 41.2410 0.0000 0.0000 0.0000
# 2 28.3607 50.0525 47.5976 0.0000 0.0000 0.0000
# 3 41.2410 47.5976 102.9932 0.0000 0.0000 0.0000
# 4 0.0000 0.0000 0.0000 33.5272 0.0000 0.0000
# 5 0.0000 0.0000 0.0000 0.0000 24.2095 0.0000
# 6 0.0000 0.0000 0.0000 0.0000 0.0000 28.3282
#
#
#
# Elastic Compliance Matrix: (Units=1/GPa)
#
#
# Indices 1 2 3 4 5 6 
#
# 1 0.009840 -0.003262 -0.002432 0.000000 0.000000 0.000000
# 2 -0.003262 0.036725 -0.015666 0.000000 0.000000 0.000000
# 3 -0.002432 -0.015666 0.017923 0.000000 0.000000 0.000000
# 4 0.000000 0.000000 0.000000 0.029827 0.000000 0.000000
# 5 0.000000 0.000000 0.000000 0.000000 0.041306 0.000000
# 6 0.000000 0.000000 0.000000 0.000000 0.000000 0.035301
#
#
# Mechanical properties :
#
#
# Convention : Reuss Voigt Hill
#
# Bulk Modulus (GPa) = 45.94146 56.51880 51.23013
# Shear Modulus (GPa) = 22.63486 27.68441 25.15964
#
# Velocity S-wave (km/s) = 3.48443 3.85354 3.67363
# Velocity P-wave (km/s) = 6.38992 7.07928 6.74342
#
# Compressibility (1/GPa) = 0.02176683
#
# Stress axis : x y z
#
# Youngs Moduli (GPa) = 101.62715 27.22940 55.79339
#
# Poissons Ratio (x) = 0.08883 0.13572
# Poissons Ratio (y) = 0.33154 0.87405
# Poissons Ratio (z) = 0.24721 0.42657
#
# Static dielectric constant tensor:
#      x y z
#    x -7.112380 0.000000 0.000000 
#    y 0.000000 3.706740 0.000000 
#    z 0.000000 0.000000 3.818660 
# 
# 
# High freq. dielectric constant tensor:
#      x y z
#    x 1.726570 0.000000 0.000000 
#    y 0.000000 1.706420 0.000000 
#    z 0.000000 0.000000 1.721490 
# 
# From -- ./inp_files/29634.got.cif
#   From: 2010.03.12/outbox.cif.g09.slc.cpg/sg24_15_cif.got.tgz:29634.got - 2010.04.14 03:06:53.
