data_PCOD8164059
_publ_section_title
;
Structure prediction by ZEFSAII (Michael W. Deem and Ramdas Pophale) SiO2 
 PCOD8164059
Probable space group: I 2 2 2
;
_chemical_formula_sum "Si O2"
_cell_formula_units_Z 48
_cell_length_a 15.486347
_cell_length_b 17.865865
_cell_length_c 7.695253
_cell_angle_alpha 90.000000
_cell_angle_beta 90.000000
_cell_angle_gamma 90.000000
_cell_volume 2129.099398
_symmetry_space_group_name_H-M "I 2 2 2"
_symmetry_group_IT_number 23
_symmetry_cell_setting 'orthorhombic'
loop_
_space_group_symop_operation_xyz
x,y,z
-x,-y,z
x,-y,-z
-x,y,-z
1/2+x,1/2+y,1/2+z
1/2-x,1/2-y,1/2+z
1/2+x,1/2-y,1/2-z
1/2-x,1/2+y,1/2-z
loop_
_atom_site_type_symbol
_atom_site_label
_atom_site_fract_x
_atom_site_fract_y
_atom_site_fract_z
Si Si1 0.000000 0.247207 0.000000
Si Si2 0.500000 0.000000 0.500000
Si Si3 0.712406 0.335070 0.988991
Si Si4 0.388458 0.374338 0.337693
Si Si5 0.884065 0.374602 0.861053
Si Si6 0.253348 0.668081 0.373636
Si Si7 0.600299 0.088187 0.996590
Si Si8 0.000000 0.000000 0.000000
O O1 0.950829 0.196805 0.140590
O O2 0.067399 0.297691 0.102337
O O3 0.444535 0.947721 0.374814
O O4 0.641578 0.374277 0.864566
O O5 0.800556 0.383128 0.980239
O O6 0.731315 0.253366 0.913665
O O7 0.690024 0.335112 0.194401
O O8 0.309807 0.369356 0.474661
O O9 0.440384 0.450386 0.373426
O O10 0.854409 0.373462 0.662396
O O11 0.161117 0.623575 0.345425
O O12 0.500000 0.113573 0.000000
O O13 0.609483 0.000000 0.000000
#
# Coordination Sequence:
#
# PCOD8164059 Si02
#       8
#     4   2   8   8   8   8   8   2
#     4  10  22  42  74 100 136 182 236 296 344 428
#     4  10  24  34  66  94 140 180 218 274 352 420
#     4  12  24  44  72 105 138 180 241 305 359 423
#     4  11  24  50  74 104 143 189 243 295 371 432
#     4  11  22  42  62  98 138 177 225 281 349 415
#     4  12  24  43  72 108 138 185 242 301 362 428
#     4  11  26  41  61  99 144 184 225 281 356 433
#     4  10  28  54  78 102 154 204 240 310 374 462
#
# _framework density 22.544744000000001
#
# number of rings (size 3 to 8) (size 9 to 14) (size 15 to 20)
#    0.000    0.833    5.000    1.000   10.500    0.000 
#    0.000    4.167    0.000    0.000    0.000    0.000 
#    0.000    0.000    0.000    0.000    0.000    0.000 
#
# Total GULP energy -297535.083157 kJ/mol
# GULP energy per Si atom -12397.295132 kJ/mol
# Density = 2.249343 g / cm^3
# Si number density = 22.544744 Si / 1000 Ang^3
#
#
#
# Elastic Constant Matrix: (Units=GPa)
#
#
# Indices 1 2 3 4 5 6 
#
# 1 91.7058 27.9924 13.8263 0.0000 0.0000 0.0000
# 2 27.9924 98.3674 13.3798 0.0000 0.0000 0.0000
# 3 13.8263 13.3798 119.4665 0.0000 0.0000 0.0000
# 4 0.0000 0.0000 0.0000 18.2863 0.0000 0.0000
# 5 0.0000 0.0000 0.0000 0.0000 36.5748 0.0000
# 6 0.0000 0.0000 0.0000 0.0000 0.0000 160.1709
#
#
#
# Elastic Compliance Matrix: (Units=1/GPa)
#
#
# Indices 1 2 3 4 5 6 
#
# 1 0.012065 -0.003293 -0.001027 0.000000 0.000000 0.000000
# 2 -0.003293 0.011222 -0.000876 0.000000 0.000000 0.000000
# 3 -0.001027 -0.000876 0.008588 0.000000 0.000000 0.000000
# 4 0.000000 0.000000 0.000000 0.054686 0.000000 0.000000
# 5 0.000000 0.000000 0.000000 0.000000 0.027341 0.000000
# 6 0.000000 0.000000 0.000000 0.000000 0.000000 0.006243
#
#
# Mechanical properties :
#
#
# Convention : Reuss Voigt Hill
#
# Bulk Modulus (GPa) = 46.55215 46.65961 46.60588
# Shear Modulus (GPa) = 36.31127 59.96249 48.13688
#
# Velocity S-wave (km/s) = 4.01762 5.16283 4.62580
# Velocity P-wave (km/s) = 6.49733 7.50208 7.01771
#
# Compressibility (1/GPa) = 0.02148129
#
# Stress axis : x y z
#
# Youngs Moduli (GPa) = 82.88675 89.10818 116.44793
#
# Poissons Ratio (x) = 0.29348 0.11964
# Poissons Ratio (y) = 0.27299 0.10197
# Poissons Ratio (z) = 0.08516 0.07803
#
# Static dielectric constant tensor:
#      x y z
#    x 4.300850 0.000000 0.000000 
#    y 0.000000 4.139490 0.000000 
#    z 0.000000 0.000000 4.068060 
# 
# 
# High freq. dielectric constant tensor:
#      x y z
#    x 1.894750 0.000000 0.000000 
#    y 0.000000 1.886860 0.000000 
#    z 0.000000 0.000000 1.888450 
# 
# From -- ./inp_files/10022.got.cif
#   From: 2010.03.12/outbox.cif.g09.slc.cpg/sg23_6_cif.got.tgz:10022.got - 2010.04.14 02:50:06.
