data_PCOD8164995
_publ_section_title
;
Structure prediction by ZEFSAII (Michael W. Deem and Ramdas Pophale) SiO2 
 PCOD8164995
Probable space group: I 21 21 21
;
_chemical_formula_sum "Si O2"
_cell_formula_units_Z 52
_cell_length_a 14.765788
_cell_length_b 18.938899
_cell_length_c 9.591829
_cell_angle_alpha 90.000000
_cell_angle_beta 90.000000
_cell_angle_gamma 90.000000
_cell_volume 2682.333567
_symmetry_space_group_name_H-M "I 21 21 21"
_symmetry_group_IT_number 24
_symmetry_cell_setting 'orthorhombic'
loop_
_space_group_symop_operation_xyz
x,y,z
-x,1/2-y,z
x,-y,1/2-z
1/2-x,y,-z
1/2+x,1/2+y,1/2+z
1/2-x,-y,1/2+z
1/2+x,1/2-y,-z
-x,1/2+y,1/2-z
loop_
_atom_site_type_symbol
_atom_site_label
_atom_site_fract_x
_atom_site_fract_y
_atom_site_fract_z
Si Si1 0.968621 0.586715 0.111696
Si Si2 0.930250 0.573377 0.423642
Si Si3 0.199990 0.734552 0.708128
Si Si4 0.250000 0.853303 0.500000
Si Si5 0.379816 0.314570 0.692845
Si Si6 0.356127 0.199977 0.475560
Si Si7 0.560585 0.187558 0.000812
O O1 0.920921 0.595135 0.261911
O O2 0.962500 0.506793 0.059955
O O3 0.073280 0.613849 0.131866
O O4 0.913519 0.628597 0.992980
O O5 0.835341 0.593868 0.494393
O O6 0.008838 0.613824 0.507400
O O7 0.247426 0.802234 0.634845
O O8 0.270681 0.682019 0.787423
O O9 0.130809 0.766158 0.822767
O O10 0.150315 0.685043 0.595258
O O11 0.401724 0.251750 0.587495
O O12 0.417655 0.292524 0.842474
O O13 0.250000 0.184807 0.500000
O O14 0.500000 0.250000 0.063743
#
# Coordination Sequence:
#
# PCOD8164995 Si02
#       7
#     8   8   8   4   8   8   8
#     4  10  21  39  59  83 122 167 207 243 303 379
#     4  10  22  36  60  87 119 167 205 248 306 388
#     4  11  21  35  63  94 118 153 204 264 309 354
#     4  12  20  38  56  90 126 156 198 254 314 372
#     4  10  19  37  61  84 115 161 209 249 299 363
#     4  10  21  34  57  89 115 152 199 248 303 357
#     4  11  18  34  60  89 117 153 203 253 308 367
#
# _framework density 19.386105000000001
#
# number of rings (size 3 to 8) (size 9 to 14) (size 15 to 20)
#    0.000    1.538    3.077    4.154    1.077    1.231 
#    0.000    0.000    0.000   22.154    0.000    0.000 
#    0.000    0.000    0.000    0.000    0.000    0.000 
#
# Total GULP energy -322250.269433 kJ/mol
# GULP energy per Si atom -12394.241132 kJ/mol
# Density = 1.934198 g / cm^3
# Si number density = 19.386105 Si / 1000 Ang^3
#
#
#
# Elastic Constant Matrix: (Units=GPa)
#
#
# Indices 1 2 3 4 5 6 
#
# 1 106.0898 82.5290 40.9332 0.0000 0.0000 0.0000
# 2 82.5290 136.7237 48.0849 0.0000 0.0000 0.0000
# 3 40.9332 48.0849 82.1735 0.0000 0.0000 0.0000
# 4 0.0000 0.0000 0.0000 18.8687 0.0000 0.0000
# 5 0.0000 0.0000 0.0000 0.0000 32.1605 0.0000
# 6 0.0000 0.0000 0.0000 0.0000 0.0000 29.6893
#
#
#
# Elastic Compliance Matrix: (Units=1/GPa)
#
#
# Indices 1 2 3 4 5 6 
#
# 1 0.018484 -0.009971 -0.003373 0.000000 0.000000 0.000000
# 2 -0.009971 0.014588 -0.003570 0.000000 0.000000 0.000000
# 3 -0.003373 -0.003570 0.015938 0.000000 0.000000 0.000000
# 4 0.000000 0.000000 0.000000 0.052998 0.000000 0.000000
# 5 0.000000 0.000000 0.000000 0.000000 0.031094 0.000000
# 6 0.000000 0.000000 0.000000 0.000000 0.000000 0.033682
#
#
# Mechanical properties :
#
#
# Convention : Reuss Voigt Hill
#
# Bulk Modulus (GPa) = 65.86053 74.23123 70.04588
# Shear Modulus (GPa) = 24.31052 26.37304 25.34178
#
# Velocity S-wave (km/s) = 3.54505 3.69237 3.61946
# Velocity P-wave (km/s) = 7.12765 7.52012 7.32651
#
# Compressibility (1/GPa) = 0.01518360
#
# Stress axis : x y z
#
# Youngs Moduli (GPa) = 54.10081 68.54870 62.74244
#
# Poissons Ratio (x) = 0.68351 0.21161
# Poissons Ratio (y) = 0.53945 0.22396
# Poissons Ratio (z) = 0.18247 0.24469
#
# Static dielectric constant tensor:
#      x y z
#    x 3.641030 0.000000 0.000000 
#    y 0.000000 3.395120 0.000000 
#    z 0.000000 0.000000 3.574920 
# 
# 
# High freq. dielectric constant tensor:
#      x y z
#    x 1.757710 0.000000 0.000000 
#    y 0.000000 1.727570 0.000000 
#    z 0.000000 0.000000 1.751910 
# 
# From -- ./inp_files/13065.got.cif
#   From: 2010.03.12/outbox.cif.g09.slc.cpg/sg24_7_cif.got.tgz:13065.got - 2010.04.14 03:06:53.
