data_PCOD8164716
_publ_section_title
;
Structure prediction by ZEFSAII (Michael W. Deem and Ramdas Pophale) SiO2 
 PCOD8164716
Probable space group: I 21 21 21
;
_chemical_formula_sum "Si O2"
_cell_formula_units_Z 52
_cell_length_a 14.413001
_cell_length_b 9.007370
_cell_length_c 22.172837
_cell_angle_alpha 90.000000
_cell_angle_beta 90.000000
_cell_angle_gamma 90.000000
_cell_volume 2878.549380
_symmetry_space_group_name_H-M "I 21 21 21"
_symmetry_group_IT_number 24
_symmetry_cell_setting 'orthorhombic'
loop_
_space_group_symop_operation_xyz
x,y,z
-x,1/2-y,z
x,-y,1/2-z
1/2-x,y,-z
1/2+x,1/2+y,1/2+z
1/2-x,-y,1/2+z
1/2+x,1/2-y,-z
-x,1/2+y,1/2-z
loop_
_atom_site_type_symbol
_atom_site_label
_atom_site_fract_x
_atom_site_fract_y
_atom_site_fract_z
Si Si1 0.748367 0.433581 0.928910
Si Si2 0.387368 0.256275 0.141643
Si Si3 0.359977 0.000000 0.750000
Si Si4 0.745955 0.023008 0.820421
Si Si5 0.088372 0.159283 0.732393
Si Si6 0.397736 0.776004 0.651689
Si Si7 0.748745 0.307859 0.654138
O O1 0.844258 0.360249 0.905369
O O2 0.661255 0.344459 0.902703
O O3 0.736319 0.605961 0.909114
O O4 0.750000 0.424472 0.000000
O O5 0.500000 0.250000 0.134759
O O6 0.334555 0.416509 0.139455
O O7 0.354085 0.211711 0.208910
O O8 0.417896 0.890826 0.706766
O O9 0.299109 0.894427 0.791440
O O10 0.655649 0.128639 0.825510
O O11 0.773081 0.000000 0.750000
O O12 0.717732 0.863799 0.849882
O O13 0.143827 0.177415 0.670871
O O14 0.000000 0.250000 0.717539
O O15 0.050470 0.000000 0.750000
O O16 0.500000 0.750000 0.624790
#
# Coordination Sequence:
#
# PCOD8164716 Si02
#       7
#     8   8   4   8   8   8   8
#     4  10  22  42  60  76 112 163 206 241 274 320
#     4  10  21  34  55  88 118 149 186 228 290 352
#     4  10  18  32  54  78 116 146 174 236 296 354
#     4  11  20  34  56  87 121 147 177 229 296 360
#     4  11  20  29  49  83 123 146 174 224 286 355
#     4  10  22  37  59  90 114 151 193 238 296 349
#     4  11  19  34  52  79 115 148 191 230 283 345
#
# _framework density 18.064654999999998
#
# number of rings (size 3 to 8) (size 9 to 14) (size 15 to 20)
#    0.000    1.538    5.385    0.923    5.385    0.615 
#    0.000    5.385    0.000    3.692    0.000    0.000 
#    0.000    0.000    0.000    0.000    0.000    0.000 
#
# Total GULP energy -322090.825984 kJ/mol
# GULP energy per Si atom -12388.108692 kJ/mol
# Density = 1.802354 g / cm^3
# Si number density = 18.064655 Si / 1000 Ang^3
#
#
#
# Elastic Constant Matrix: (Units=GPa)
#
#
# Indices 1 2 3 4 5 6 
#
# 1 106.1855 45.1973 39.6478 0.0000 0.0000 0.0000
# 2 45.1973 136.2789 30.7816 0.0000 0.0000 0.0000
# 3 39.6478 30.7816 93.4661 0.0000 0.0000 0.0000
# 4 0.0000 0.0000 0.0000 16.1776 0.0000 0.0000
# 5 0.0000 0.0000 0.0000 0.0000 15.9247 0.0000
# 6 0.0000 0.0000 0.0000 0.0000 0.0000 18.5499
#
#
#
# Elastic Compliance Matrix: (Units=1/GPa)
#
#
# Indices 1 2 3 4 5 6 
#
# 1 0.012319 -0.003139 -0.004192 0.000000 0.000000 0.000000
# 2 -0.003139 0.008727 -0.001543 0.000000 0.000000 0.000000
# 3 -0.004192 -0.001543 0.012985 0.000000 0.000000 0.000000
# 4 0.000000 0.000000 0.000000 0.061814 0.000000 0.000000
# 5 0.000000 0.000000 0.000000 0.000000 0.062796 0.000000
# 6 0.000000 0.000000 0.000000 0.000000 0.000000 0.053909
#
#
# Mechanical properties :
#
#
# Convention : Reuss Voigt Hill
#
# Bulk Modulus (GPa) = 61.40751 63.02043 62.21397
# Shear Modulus (GPa) = 21.21125 24.81737 23.01431
#
# Velocity S-wave (km/s) = 3.43036 3.71051 3.57318
# Velocity P-wave (km/s) = 7.05385 7.30198 7.17899
#
# Compressibility (1/GPa) = 0.01628465
#
# Stress axis : x y z
#
# Youngs Moduli (GPa) = 81.17812 114.58272 77.01015
#
# Poissons Ratio (x) = 0.35964 0.32281
# Poissons Ratio (y) = 0.25479 0.11881
# Poissons Ratio (z) = 0.34028 0.17678
#
# Static dielectric constant tensor:
#      x y z
#    x 3.130370 0.000000 0.000000 
#    y 0.000000 3.807620 0.000000 
#    z 0.000000 0.000000 2.997340 
# 
# 
# High freq. dielectric constant tensor:
#      x y z
#    x 1.693980 0.000000 0.000000 
#    y 0.000000 1.718010 0.000000 
#    z 0.000000 0.000000 1.656980 
# 
# From -- ./inp_files/25015.got.cif
#   From: 2010.03.12/outbox.cif.g09.slc.cpg/sg24_13_cif.got.tgz:25015.got - 2010.04.14 03:06:53.
