data_PCOD8164261
_publ_section_title
;
Structure prediction by ZEFSAII (Michael W. Deem and Ramdas Pophale) SiO2 
 PCOD8164261
Probable space group: I 2 2 2
;
_chemical_formula_sum "Si O2"
_cell_formula_units_Z 40
_cell_length_a 18.278419
_cell_length_b 10.806239
_cell_length_c 8.967453
_cell_angle_alpha 90.000000
_cell_angle_beta 90.000000
_cell_angle_gamma 90.000000
_cell_volume 1771.259963
_symmetry_space_group_name_H-M "I 2 2 2"
_symmetry_group_IT_number 23
_symmetry_cell_setting 'orthorhombic'
loop_
_space_group_symop_operation_xyz
x,y,z
-x,-y,z
x,-y,-z
-x,y,-z
1/2+x,1/2+y,1/2+z
1/2-x,1/2-y,1/2+z
1/2+x,1/2-y,1/2-z
1/2-x,1/2+y,1/2-z
loop_
_atom_site_type_symbol
_atom_site_label
_atom_site_fract_x
_atom_site_fract_y
_atom_site_fract_z
Si Si1 0.839437 0.173042 0.715496
Si Si2 0.887609 0.930199 0.848525
Si Si3 0.999207 0.236506 0.668266
Si Si4 0.500000 0.000000 0.735944
Si Si5 0.285900 0.234107 0.483222
Si Si6 0.118218 0.500000 0.000000
O O1 0.916561 0.241181 0.726443
O O2 0.798206 0.205933 0.561522
O O3 0.855376 0.026757 0.728771
O O4 0.786558 0.223857 0.845563
O O5 0.819748 0.842545 0.883711
O O6 0.954533 0.853125 0.776589
O O7 0.914873 0.000000 0.000000
O O8 0.000000 0.184166 0.500000
O O9 0.025871 0.379918 0.669183
O O10 0.431999 0.043996 0.636302
O O11 0.332156 0.112684 0.448867
#
# Coordination Sequence:
#
# PCOD8164261 Si02
#       6
#     8   8   8   4   8   4
#     4  11  27  44  71 103 145 192 236 299 369 432
#     4  10  25  48  74 103 143 193 242 306 365 440
#     4  12  26  46  73 111 146 187 245 306 370 432
#     4  11  23  44  72 108 137 187 246 304 363 421
#     4  11  25  45  69 104 140 191 244 296 367 439
#     4  11  22  40  76  94 137 190 246 296 355 436
#
# _framework density 22.582792999999999
#
# number of rings (size 3 to 8) (size 9 to 14) (size 15 to 20)
#    0.000    1.000    4.000    0.900    5.600    7.200 
#    0.000    2.000    0.000    0.000    0.000    0.000 
#    0.000    0.000    0.000    0.000    0.000    0.000 
#
# Total GULP energy -248017.070312 kJ/mol
# GULP energy per Si atom -12400.853516 kJ/mol
# Density = 2.253139 g / cm^3
# Si number density = 22.582793 Si / 1000 Ang^3
#
#
#
# Elastic Constant Matrix: (Units=GPa)
#
#
# Indices 1 2 3 4 5 6 
#
# 1 104.8775 43.7034 33.0361 0.0000 0.0000 0.0000
# 2 43.7034 147.4319 43.1298 0.0000 0.0000 0.0000
# 3 33.0361 43.1298 82.8405 0.0000 0.0000 0.0000
# 4 0.0000 0.0000 0.0000 30.8060 0.0000 0.0000
# 5 0.0000 0.0000 0.0000 0.0000 27.9172 0.0000
# 6 0.0000 0.0000 0.0000 0.0000 0.0000 22.4457
#
#
#
# Elastic Compliance Matrix: (Units=1/GPa)
#
#
# Indices 1 2 3 4 5 6 
#
# 1 0.011617 -0.002464 -0.003350 0.000000 0.000000 0.000000
# 2 -0.002464 0.008524 -0.003455 0.000000 0.000000 0.000000
# 3 -0.003350 -0.003455 0.015206 0.000000 0.000000 0.000000
# 4 0.000000 0.000000 0.000000 0.032461 0.000000 0.000000
# 5 0.000000 0.000000 0.000000 0.000000 0.035820 0.000000
# 6 0.000000 0.000000 0.000000 0.000000 0.000000 0.044552
#
#
# Mechanical properties :
#
#
# Convention : Reuss Voigt Hill
#
# Bulk Modulus (GPa) = 59.49189 63.87653 61.68421
# Shear Modulus (GPa) = 29.01552 30.58581 29.80067
#
# Velocity S-wave (km/s) = 3.58837 3.68419 3.63660
# Velocity P-wave (km/s) = 6.60073 6.81503 6.70873
#
# Compressibility (1/GPa) = 0.01680901
#
# Stress axis : x y z
#
# Youngs Moduli (GPa) = 86.08239 117.31701 65.76184
#
# Poissons Ratio (x) = 0.28902 0.22031
# Poissons Ratio (y) = 0.21207 0.22723
# Poissons Ratio (z) = 0.28838 0.40538
#
# Static dielectric constant tensor:
#      x y z
#    x 3.872970 0.000000 0.000000 
#    y 0.000000 4.251390 0.000000 
#    z 0.000000 0.000000 4.171550 
# 
# 
# High freq. dielectric constant tensor:
#      x y z
#    x 1.883680 0.000000 0.000000 
#    y 0.000000 1.908510 0.000000 
#    z 0.000000 0.000000 1.882140 
# 
# From -- ./inp_files/11847.got.cif
#   From: 2010.03.12/outbox.cif.g09.slc.cpg/sg23_6_cif.got.tgz:11847.got - 2010.04.14 02:50:06.
