data_PCOD8164172
_publ_section_title
;
Structure prediction by ZEFSAII (Michael W. Deem and Ramdas Pophale) SiO2 
 PCOD8164172
Probable space group: I 2 2 2
;
_chemical_formula_sum "Si O2"
_cell_formula_units_Z 36
_cell_length_a 8.657472
_cell_length_b 8.982635
_cell_length_c 20.997639
_cell_angle_alpha 90.000000
_cell_angle_beta 90.000000
_cell_angle_gamma 90.000000
_cell_volume 1632.921523
_symmetry_space_group_name_H-M "I 2 2 2"
_symmetry_group_IT_number 23
_symmetry_cell_setting 'orthorhombic'
loop_
_space_group_symop_operation_xyz
x,y,z
-x,-y,z
x,-y,-z
-x,y,-z
1/2+x,1/2+y,1/2+z
1/2-x,1/2-y,1/2+z
1/2+x,1/2-y,1/2-z
1/2-x,1/2+y,1/2-z
loop_
_atom_site_type_symbol
_atom_site_label
_atom_site_fract_x
_atom_site_fract_y
_atom_site_fract_z
Si Si1 0.473594 0.326432 0.426524
Si Si2 0.500000 0.000000 0.000000
Si Si3 0.556584 0.335073 0.796859
Si Si4 0.000000 0.000000 0.500000
Si Si5 0.632465 0.247495 0.084533
Si Si6 0.414686 0.157648 0.683817
O O1 0.500000 0.500000 0.413579
O O2 0.500000 0.286365 0.500000
O O3 0.311764 0.265549 0.397693
O O4 0.596050 0.231702 0.386100
O O5 0.390039 0.101276 0.957756
O O6 0.500000 0.500000 0.805073
O O7 0.482245 0.239982 0.854917
O O8 0.507561 0.265195 0.730538
O O9 0.739491 0.349899 0.794563
O O10 0.892406 0.898027 0.455642
O O11 0.500000 0.000000 0.683021
#
# Coordination Sequence:
#
# PCOD8164172 Si02
#       6
#     8   2   8   2   8   8
#     4  11  26  45  70 103 147 185 236 289 357 421
#     4  10  24  38  70 102 144 186 236 278 360 414
#     4  12  26  48  72 100 141 182 240 292 357 430
#     4  10  24  42  70 106 144 182 244 282 364 414
#     4  11  24  43  72 103 145 189 238 294 355 426
#     4  12  28  46  73 103 137 185 234 294 360 422
#
# _framework density 22.046374
#
# number of rings (size 3 to 8) (size 9 to 14) (size 15 to 20)
#    0.000    0.667    1.111    6.000   10.889    0.444 
#    0.000    0.000    0.000    0.000    0.000    0.000 
#    0.000    0.000    0.000    0.000    0.000    0.000 
#
# Total GULP energy -223248.411538 kJ/mol
# GULP energy per Si atom -12402.689530 kJ/mol
# Density = 2.199620 g / cm^3
# Si number density = 22.046374 Si / 1000 Ang^3
#
#
#
# Elastic Constant Matrix: (Units=GPa)
#
#
# Indices 1 2 3 4 5 6 
#
# 1 154.4686 47.4172 41.1070 0.0000 0.0000 0.0000
# 2 47.4172 91.2447 33.7667 0.0000 0.0000 0.0000
# 3 41.1070 33.7667 108.7367 0.0000 0.0000 0.0000
# 4 0.0000 0.0000 0.0000 69.1158 0.0000 0.0000
# 5 0.0000 0.0000 0.0000 0.0000 36.7077 0.0000
# 6 0.0000 0.0000 0.0000 0.0000 0.0000 35.3781
#
#
#
# Elastic Compliance Matrix: (Units=1/GPa)
#
#
# Indices 1 2 3 4 5 6 
#
# 1 0.008061 -0.003459 -0.001973 0.000000 0.000000 0.000000
# 2 -0.003459 0.013867 -0.002999 0.000000 0.000000 0.000000
# 3 -0.001973 -0.002999 0.010874 0.000000 0.000000 0.000000
# 4 0.000000 0.000000 0.000000 0.014468 0.000000 0.000000
# 5 0.000000 0.000000 0.000000 0.000000 0.027242 0.000000
# 6 0.000000 0.000000 0.000000 0.000000 0.000000 0.028266
#
#
# Mechanical properties :
#
#
# Convention : Reuss Voigt Hill
#
# Bulk Modulus (GPa) = 62.73530 66.55910 64.64720
# Shear Modulus (GPa) = 40.01544 43.71759 41.86651
#
# Velocity S-wave (km/s) = 4.26497 4.45790 4.36250
# Velocity P-wave (km/s) = 7.26437 7.53347 7.40015
#
# Compressibility (1/GPa) = 0.01593999
#
# Stress axis : x y z
#
# Youngs Moduli (GPa) = 124.05993 72.11583 91.96542
#
# Poissons Ratio (x) = 0.24942 0.18147
# Poissons Ratio (y) = 0.42908 0.27576
# Poissons Ratio (z) = 0.24480 0.21624
#
# Static dielectric constant tensor:
#      x y z
#    x 4.129380 0.000000 0.000000 
#    y 0.000000 4.159670 0.000000 
#    z 0.000000 0.000000 4.191110 
# 
# 
# High freq. dielectric constant tensor:
#      x y z
#    x 1.877820 0.000000 0.000000 
#    y 0.000000 1.881040 0.000000 
#    z 0.000000 0.000000 1.881420 
# 
# From -- ./inp_files/6742.got.cif
#   From: 2010.03.12/outbox.cif.g09.slc.cpg/sg23_4_cif.got.tgz:6742.got - 2010.04.14 02:50:06.
