data_PCOD8164887
_publ_section_title
;
Structure prediction by ZEFSAII (Michael W. Deem and Ramdas Pophale) SiO2 
 PCOD8164887
Probable space group: I 21 21 21
;
_chemical_formula_sum "Si O2"
_cell_formula_units_Z 56
_cell_length_a 12.002903
_cell_length_b 20.027773
_cell_length_c 11.311956
_cell_angle_alpha 90.000000
_cell_angle_beta 90.000000
_cell_angle_gamma 90.000000
_cell_volume 2719.297128
_symmetry_space_group_name_H-M "I 21 21 21"
_symmetry_group_IT_number 24
_symmetry_cell_setting 'orthorhombic'
loop_
_space_group_symop_operation_xyz
x,y,z
-x,1/2-y,z
x,-y,1/2-z
1/2-x,y,-z
1/2+x,1/2+y,1/2+z
1/2-x,-y,1/2+z
1/2+x,1/2-y,-z
-x,1/2+y,1/2-z
loop_
_atom_site_type_symbol
_atom_site_label
_atom_site_fract_x
_atom_site_fract_y
_atom_site_fract_z
Si Si1 0.385650 0.726395 0.899815
Si Si2 0.844989 0.246570 0.668034
Si Si3 0.250000 0.936127 0.500000
Si Si4 0.227386 0.500000 0.250000
Si Si5 0.356691 0.957168 0.858509
Si Si6 0.592233 0.098105 0.292972
Si Si7 0.849896 0.386362 0.764017
Si Si8 0.911693 0.078429 0.433922
O O1 0.500000 0.750000 0.838992
O O2 0.287576 0.756942 0.822304
O O3 0.357789 0.648053 0.895032
O O4 0.385128 0.753671 0.033320
O O5 0.890439 0.177652 0.721219
O O6 0.887871 0.310396 0.739319
O O7 0.300229 0.890694 0.395749
O O8 0.345058 0.986513 0.542025
O O9 0.310461 0.438343 0.217417
O O10 0.148316 0.481326 0.361994
O O11 0.241666 0.916833 0.828667
O O12 0.457019 0.910728 0.903111
O O13 0.400408 0.000000 0.750000
O O14 0.468885 0.075824 0.247638
O O15 0.606855 0.070424 0.426658
#
# Coordination Sequence:
#
# PCOD8164887 Si02
#       8
#     8   8   4   4   8   8   8   8
#     4  10  19  33  59  92 122 159 206 273 326 383
#     4  10  20  38  59  92 122 160 216 262 330 384
#     4  10  24  40  60  96 126 160 214 258 314 386
#     4  12  24  38  60  90 130 178 208 264 326 378
#     4  10  21  37  61  91 120 159 204 261 326 388
#     4  11  24  39  65  92 127 168 217 266 324 393
#     4  11  23  41  66  93 125 168 210 269 329 389
#     4  11  21  40  60  91 131 163 212 270 324 387
#
# _framework density 20.593557000000001
#
# number of rings (size 3 to 8) (size 9 to 14) (size 15 to 20)
#    0.000    1.429    2.143    4.286    5.000    2.286 
#    0.000    0.000    3.143    8.571    0.000    0.000 
#    0.000    0.000    0.000    0.000    0.000    0.000 
#
# Total GULP energy -346932.724478 kJ/mol
# GULP energy per Si atom -12390.454446 kJ/mol
# Density = 2.054669 g / cm^3
# Si number density = 20.593557 Si / 1000 Ang^3
#
#
#
# Elastic Constant Matrix: (Units=GPa)
#
#
# Indices 1 2 3 4 5 6 
#
# 1 150.4023 26.4319 23.1053 0.0000 0.0000 0.0000
# 2 26.4319 94.8952 46.6471 0.0001 0.0000 0.0000
# 3 23.1053 46.6471 64.4232 0.0003 0.0001 0.0000
# 4 0.0000 0.0001 0.0003 30.9213 0.0000 0.0000
# 5 0.0000 0.0000 0.0001 0.0000 11.2538 0.0000
# 6 0.0000 0.0000 0.0000 0.0000 0.0000 30.8614
#
#
#
# Elastic Compliance Matrix: (Units=1/GPa)
#
#
# Indices 1 2 3 4 5 6 
#
# 1 0.007114 -0.001129 -0.001734 0.000000 0.000000 0.000000
# 2 -0.001129 0.016541 -0.011572 0.000000 0.000000 0.000000
# 3 -0.001734 -0.011572 0.024523 0.000000 0.000000 0.000000
# 4 0.000000 0.000000 0.000000 0.032340 0.000000 0.000000
# 5 0.000000 0.000000 0.000000 0.000000 0.088859 0.000000
# 6 0.000000 0.000000 0.000000 0.000000 0.000000 0.032403
#
#
# Mechanical properties :
#
#
# Convention : Reuss Voigt Hill
#
# Bulk Modulus (GPa) = 51.79179 55.78770 53.78975
# Shear Modulus (GPa) = 21.08957 28.84308 24.96632
#
# Velocity S-wave (km/s) = 3.20361 3.74650 3.48564
# Velocity P-wave (km/s) = 6.23604 6.77228 6.50968
#
# Compressibility (1/GPa) = 0.01930808
#
# Stress axis : x y z
#
# Youngs Moduli (GPa) = 140.57549 60.45700 40.77827
#
# Poissons Ratio (x) = 0.06827 0.07070
# Poissons Ratio (y) = 0.15874 0.47187
# Poissons Ratio (z) = 0.24371 0.69959
#
# Static dielectric constant tensor:
#      x y z
#    x 4.013850 0.000000 0.000000 
#    y 0.000000 3.638350 0.000000 
#    z 0.000000 0.000000 3.283830 
# 
# 
# High freq. dielectric constant tensor:
#      x y z
#    x 1.837380 0.000000 0.000000 
#    y 0.000000 1.803980 0.000000 
#    z 0.000000 0.000000 1.759740 
# 
# From -- ./inp_files/19968.got.cif
#   From: 2010.03.12/outbox.cif.g09.slc.cpg/sg24_10_cif.got.tgz:19968.got - 2010.04.14 03:06:53.
