data_PCOD8164216
_publ_section_title
;
Structure prediction by ZEFSAII (Michael W. Deem and Ramdas Pophale) SiO2 
 PCOD8164216
Probable space group: I 2 2 2
;
_chemical_formula_sum "Si O2"
_cell_formula_units_Z 56
_cell_length_a 12.491039
_cell_length_b 13.622183
_cell_length_c 14.384698
_cell_angle_alpha 90.000000
_cell_angle_beta 90.000000
_cell_angle_gamma 90.000000
_cell_volume 2447.631440
_symmetry_space_group_name_H-M "I 2 2 2"
_symmetry_group_IT_number 23
_symmetry_cell_setting 'orthorhombic'
loop_
_space_group_symop_operation_xyz
x,y,z
-x,-y,z
x,-y,-z
-x,y,-z
1/2+x,1/2+y,1/2+z
1/2-x,1/2-y,1/2+z
1/2+x,1/2-y,1/2-z
1/2-x,1/2+y,1/2-z
loop_
_atom_site_type_symbol
_atom_site_label
_atom_site_fract_x
_atom_site_fract_y
_atom_site_fract_z
Si Si1 0.165867 0.087815 0.196766
Si Si2 0.631293 0.805821 0.266319
Si Si3 0.678047 0.904214 0.453437
Si Si4 0.616459 0.288299 0.470529
Si Si5 0.917193 0.919848 0.389724
Si Si6 0.775064 0.125511 0.137706
Si Si7 0.962615 0.301421 0.600810
O O1 0.259503 0.159724 0.223325
O O2 0.083058 0.068442 0.278773
O O3 0.218160 0.987246 0.163687
O O4 0.099979 0.152903 0.124096
O O5 0.611124 0.867716 0.362155
O O6 0.653746 0.691948 0.292082
O O7 0.540579 0.822747 0.188505
O O8 0.683316 0.814471 0.528410
O O9 0.797756 0.937017 0.427078
O O10 0.622575 0.000000 0.500000
O O11 0.500000 0.254829 0.500000
O O12 0.675491 0.365854 0.535898
O O13 0.958710 0.813751 0.418199
O O14 0.000000 0.000000 0.430690
O O15 0.651255 0.157298 0.133614
O O16 0.000000 0.347790 0.500000
#
# Coordination Sequence:
#
# PCOD8164216 Si02
#       7
#     8   8   8   8   8   8   8
#     4  11  24  43  68 102 141 190 250 304 377 451
#     4  10  24  44  69 102 142 196 241 305 388 445
#     4  10  24  47  69 108 147 185 250 308 381 463
#     4  11  25  42  70 102 145 191 243 308 375 455
#     4  11  25  42  71 107 139 191 249 314 379 436
#     4  11  24  47  65 105 149 185 252 314 368 462
#     4  12  25  45  74 104 147 197 249 312 388 454
#
# _framework density 22.879261
#
# number of rings (size 3 to 8) (size 9 to 14) (size 15 to 20)
#    0.000    1.143    4.286    2.143    8.000    3.714 
#    0.000    5.000    0.000    0.000    0.000    0.000 
#    0.000    0.000    0.000    0.000    0.000    0.000 
#
# Total GULP energy -347011.406316 kJ/mol
# GULP energy per Si atom -12393.264511 kJ/mol
# Density = 2.282719 g / cm^3
# Si number density = 22.879261 Si / 1000 Ang^3
#
#
#
# Elastic Constant Matrix: (Units=GPa)
#
#
# Indices 1 2 3 4 5 6 
#
# 1 72.7597 4.0051 53.8088 0.0000 0.0000 0.0000
# 2 4.0051 116.1074 63.7328 0.0000 0.0000 0.0000
# 3 53.8088 63.7328 124.2127 0.0000 0.0000 0.0000
# 4 0.0000 0.0000 0.0000 -17.8930 0.0000 0.0000
# 5 0.0000 0.0000 0.0000 0.0000 32.3272 0.0000
# 6 0.0000 0.0000 0.0000 0.0000 0.0000 -31.1067
#
#
#
# Elastic Compliance Matrix: (Units=1/GPa)
#
#
# Indices 1 2 3 4 5 6 
#
# 1 0.023381 0.006617 -0.013524 0.000000 0.000000 0.000000
# 2 0.006617 0.013862 -0.009979 0.000000 0.000000 0.000000
# 3 -0.013524 -0.009979 0.019029 0.000000 0.000000 0.000000
# 4 0.000000 0.000000 0.000000 -0.055888 0.000000 0.000000
# 5 0.000000 0.000000 0.000000 0.000000 0.030934 0.000000
# 6 0.000000 0.000000 0.000000 0.000000 0.000000 -0.032147
#
#
# Mechanical properties :
#
#
# Convention : Reuss Voigt Hill
#
# Bulk Modulus (GPa) = 44.44310 61.79700 53.12005
# Shear Modulus (GPa) = 123.63344 9.43439 66.53392
#
# Velocity S-wave (km/s) = 7.35898 2.03286 5.39848
# Velocity P-wave (km/s) = 9.57462 5.70778 7.88201
#
# Compressibility (1/GPa) = 0.02250068
#
# Stress axis : x y z
#
# Youngs Moduli (GPa) = 42.76998 72.13962 52.55081
#
# Poissons Ratio (x) = -0.47733 0.71068
# Poissons Ratio (y) = -0.28300 0.52440
# Poissons Ratio (z) = 0.57840 0.71987
#
# Static dielectric constant tensor:
#      x y z
#    x 4.217380 0.000000 0.000000 
#    y 0.000000 4.070290 0.000000 
#    z 0.000000 0.000000 5.360680 
# 
# 
# High freq. dielectric constant tensor:
#      x y z
#    x 1.902150 0.000000 0.000000 
#    y 0.000000 1.902430 0.000000 
#    z 0.000000 0.000000 1.917250 
# 
# From -- ./inp_files/20897.got.cif
#   From: 2010.03.12/outbox.cif.g09.slc.cpg/sg23_11_cif.got.tgz:20897.got - 2010.04.14 02:50:06.
