data_PCOD8164753
_publ_section_title
;
Structure prediction by ZEFSAII (Michael W. Deem and Ramdas Pophale) SiO2 
 PCOD8164753
Probable space group: I 21 21 21
;
_chemical_formula_sum "Si O2"
_cell_formula_units_Z 24
_cell_length_a 13.782249
_cell_length_b 7.955792
_cell_length_c 10.018676
_cell_angle_alpha 90.000000
_cell_angle_beta 90.000000
_cell_angle_gamma 90.000000
_cell_volume 1098.534863
_symmetry_space_group_name_H-M "I 21 21 21"
_symmetry_group_IT_number 24
_symmetry_cell_setting 'orthorhombic'
loop_
_space_group_symop_operation_xyz
x,y,z
-x,1/2-y,z
x,-y,1/2-z
1/2-x,y,-z
1/2+x,1/2+y,1/2+z
1/2-x,-y,1/2+z
1/2+x,1/2-y,-z
-x,1/2+y,1/2-z
loop_
_atom_site_type_symbol
_atom_site_label
_atom_site_fract_x
_atom_site_fract_y
_atom_site_fract_z
Si Si1 0.722306 0.812307 0.294239
Si Si2 0.919469 0.615371 0.871687
Si Si3 0.893026 0.304025 0.038543
O O1 0.679301 0.708728 0.170443
O O2 0.821930 0.721389 0.336596
O O3 0.644197 0.810969 0.415115
O O4 0.745793 0.000000 0.250000
O O5 0.960130 0.500000 0.750000
O O6 0.000000 0.750000 0.913669
O O7 0.893377 0.500055 0.998050
O O8 0.000000 0.250000 0.081619
#
# Coordination Sequence:
#
# PCOD8164753 Si02
#       3
#     8   8   8
#     4  10  20  38  62  86 116 156 197 241 291 347
#     4  10  18  34  62  90 116 153 199 243 285 344
#     4  10  21  38  59  88 118 151 198 242 287 351
#
# _framework density 21.847282
#
# number of rings (size 3 to 8) (size 9 to 14) (size 15 to 20)
#    0.000    2.000    0.000    7.000    0.000    0.000 
#    0.000   45.000    0.000    0.000    0.000    0.000 
#    0.000    0.000    0.000    0.000    0.000    0.000 
#
# Total GULP energy -148838.176028 kJ/mol
# GULP energy per Si atom -12403.181336 kJ/mol
# Density = 2.179756 g / cm^3
# Si number density = 21.847282 Si / 1000 Ang^3
#
#
#
# Elastic Constant Matrix: (Units=GPa)
#
#
# Indices 1 2 3 4 5 6 
#
# 1 191.2772 83.7537 61.9356 0.0000 0.0000 0.0000
# 2 83.7537 187.5212 66.8362 0.0000 0.0000 0.0000
# 3 61.9356 66.8362 53.8569 0.0000 0.0000 0.0000
# 4 0.0000 0.0000 0.0000 30.9029 0.0000 0.0000
# 5 0.0000 0.0000 0.0000 0.0000 15.2753 0.0000
# 6 0.0000 0.0000 0.0000 0.0000 0.0000 38.3216
#
#
#
# Elastic Compliance Matrix: (Units=1/GPa)
#
#
# Indices 1 2 3 4 5 6 
#
# 1 0.008361 -0.000551 -0.008932 0.000000 0.000000 0.000000
# 2 -0.000551 0.009599 -0.011278 0.000000 0.000000 0.000000
# 3 -0.008932 -0.011278 0.042836 0.000000 0.000000 0.000000
# 4 0.000000 0.000000 0.000000 0.032359 0.000000 0.000000
# 5 0.000000 0.000000 0.000000 0.000000 0.065465 0.000000
# 6 0.000000 0.000000 0.000000 0.000000 0.000000 0.026095
#
#
# Mechanical properties :
#
#
# Convention : Reuss Voigt Hill
#
# Bulk Modulus (GPa) = 51.88465 95.30070 73.59268
# Shear Modulus (GPa) = 21.49044 31.57528 26.53286
#
# Velocity S-wave (km/s) = 3.13975 3.80580 3.48870
# Velocity P-wave (km/s) = 6.07819 7.93903 7.07010
#
# Compressibility (1/GPa) = 0.01927352
#
# Stress axis : x y z
#
# Youngs Moduli (GPa) = 119.59683 104.18206 23.34511
#
# Poissons Ratio (x) = 0.05741 0.20851
# Poissons Ratio (y) = 0.06590 0.26329
# Poissons Ratio (z) = 1.06822 1.17498
#
# Static dielectric constant tensor:
#      x y z
#    x 3.928030 0.000000 0.000000 
#    y 0.000000 4.063240 0.000000 
#    z 0.000000 0.000000 3.533340 
# 
# 
# High freq. dielectric constant tensor:
#      x y z
#    x 1.863910 0.000000 0.000000 
#    y 0.000000 1.867580 0.000000 
#    z 0.000000 0.000000 1.813640 
# 
# From -- ./inp_files/2909.got.cif
#   From: 2010.03.12/outbox.cif.g09.slc.cpg/sg24_2_cif.got.tgz:2909.got - 2010.04.14 03:06:53.
