data_PCOD8164416
_publ_section_title
;
Structure prediction by ZEFSAII (Michael W. Deem and Ramdas Pophale) SiO2 
 PCOD8164416
Probable space group: I 2 2 2
;
_chemical_formula_sum "Si O2"
_cell_formula_units_Z 52
_cell_length_a 24.695566
_cell_length_b 9.409354
_cell_length_c 9.621413
_cell_angle_alpha 90.000000
_cell_angle_beta 90.000000
_cell_angle_gamma 90.000000
_cell_volume 2235.721222
_symmetry_space_group_name_H-M "I 2 2 2"
_symmetry_group_IT_number 23
_symmetry_cell_setting 'orthorhombic'
loop_
_space_group_symop_operation_xyz
x,y,z
-x,-y,z
x,-y,-z
-x,y,-z
1/2+x,1/2+y,1/2+z
1/2-x,1/2-y,1/2+z
1/2+x,1/2-y,1/2-z
1/2-x,1/2+y,1/2-z
loop_
_atom_site_type_symbol
_atom_site_label
_atom_site_fract_x
_atom_site_fract_y
_atom_site_fract_z
Si Si1 0.500000 0.500000 0.000000
Si Si2 0.097407 0.039503 0.855915
Si Si3 0.773519 0.854547 0.582535
Si Si4 0.500000 0.000000 0.500000
Si Si5 0.067943 0.208885 0.321241
Si Si6 0.780580 0.875166 0.898248
Si Si7 0.869139 0.646723 0.548584
Si Si8 0.541277 0.185283 0.730357
O O1 0.539203 0.597162 0.916161
O O2 0.155387 0.112613 0.876476
O O3 0.057650 0.149471 0.780628
O O4 0.102491 0.885469 0.785575
O O5 0.069252 0.000000 0.000000
O O6 0.752540 0.882068 0.742602
O O7 0.731701 0.771258 0.481767
O O8 0.826901 0.759215 0.610109
O O9 0.787621 0.000000 0.500000
O O10 0.542769 0.095210 0.588509
O O11 0.111780 0.297255 0.401365
O O12 0.022731 0.318881 0.265323
O O13 0.759213 0.000000 0.000000
O O14 0.840812 0.500000 0.500000
O O15 0.919406 0.617775 0.653205
#
# Coordination Sequence:
#
# PCOD8164416 Si02
#       8
#     2   8   8   2   8   8   8   8
#     4  12  20  36  68 108 138 192 246 298 356 428
#     4  11  23  42  70 103 141 187 240 305 370 452
#     4  12  26  48  79 109 147 194 254 319 387 460
#     4  12  28  40  60  92 150 204 236 308 364 452
#     4  12  22  40  71 106 146 193 245 304 362 449
#     4  11  25  49  75 108 147 186 250 319 389 455
#     4  12  26  43  71 106 147 194 250 312 370 445
#     4  12  23  44  63  99 150 191 254 293 374 447
#
# _framework density 23.258714999999999
#
# number of rings (size 3 to 8) (size 9 to 14) (size 15 to 20)
#    0.000    0.308    4.615    4.154    1.077    2.462 
#    1.385    0.000    0.000    0.000    0.000    0.000 
#    0.000    0.000    0.000    0.000    0.000    0.000 
#
# Total GULP energy -322192.919396 kJ/mol
# GULP energy per Si atom -12392.035361 kJ/mol
# Density = 2.320578 g / cm^3
# Si number density = 23.258715 Si / 1000 Ang^3
#
#
#
# Elastic Constant Matrix: (Units=GPa)
#
#
# Indices 1 2 3 4 5 6 
#
# 1 83.1742 21.6075 23.5183 0.0000 0.0000 0.0000
# 2 21.6075 115.6675 54.6039 0.0000 0.0000 0.0000
# 3 23.5183 54.6039 160.2067 0.0000 0.0000 0.0000
# 4 0.0000 0.0000 0.0000 58.8603 0.0000 0.0000
# 5 0.0000 0.0000 0.0000 0.0000 26.1206 0.0000
# 6 0.0000 0.0000 0.0000 0.0000 0.0000 29.7196
#
#
#
# Elastic Compliance Matrix: (Units=1/GPa)
#
#
# Indices 1 2 3 4 5 6 
#
# 1 0.012850 -0.001800 -0.001273 0.000000 0.000000 0.000000
# 2 -0.001800 0.010555 -0.003333 0.000000 0.000000 0.000000
# 3 -0.001273 -0.003333 0.007565 0.000000 0.000000 0.000000
# 4 0.000000 0.000000 0.000000 0.016989 0.000000 0.000000
# 5 0.000000 0.000000 0.000000 0.000000 0.038284 0.000000
# 6 0.000000 0.000000 0.000000 0.000000 0.000000 0.033648
#
#
# Mechanical properties :
#
#
# Convention : Reuss Voigt Hill
#
# Bulk Modulus (GPa) = 55.07050 62.05642 58.56346
# Shear Modulus (GPa) = 36.03426 40.22802 38.13114
#
# Velocity S-wave (km/s) = 3.94036 4.16334 4.05339
# Velocity P-wave (km/s) = 6.66563 7.06046 6.86589
#
# Compressibility (1/GPa) = 0.01815854
#
# Stress axis : x y z
#
# Youngs Moduli (GPa) = 77.81842 94.73943 132.18825
#
# Poissons Ratio (x) = 0.17049 0.16829
# Poissons Ratio (y) = 0.14004 0.44064
# Poissons Ratio (z) = 0.09907 0.31581
#
# Static dielectric constant tensor:
#      x y z
#    x 3.943930 0.000000 0.000000 
#    y 0.000000 8.001910 0.000000 
#    z 0.000000 0.000000 4.673690 
# 
# 
# High freq. dielectric constant tensor:
#      x y z
#    x 1.902330 0.000000 0.000000 
#    y 0.000000 1.933020 0.000000 
#    z 0.000000 0.000000 1.937690 
# 
# From -- ./inp_files/13041.got.cif
#   From: 2010.03.12/outbox.cif.g09.slc.cpg/sg23_7_cif.got.tgz:13041.got - 2010.04.14 02:50:06.
