data_PCOD8164095
_publ_section_title
;
Structure prediction by ZEFSAII (Michael W. Deem and Ramdas Pophale) SiO2 
 PCOD8164095
Probable space group: I 2 2 2
;
_chemical_formula_sum "Si O2"
_cell_formula_units_Z 40
_cell_length_a 22.810862
_cell_length_b 9.201095
_cell_length_c 8.611890
_cell_angle_alpha 90.000000
_cell_angle_beta 90.000000
_cell_angle_gamma 90.000000
_cell_volume 1807.505743
_symmetry_space_group_name_H-M "I 2 2 2"
_symmetry_group_IT_number 23
_symmetry_cell_setting 'orthorhombic'
loop_
_space_group_symop_operation_xyz
x,y,z
-x,-y,z
x,-y,-z
-x,y,-z
1/2+x,1/2+y,1/2+z
1/2-x,1/2-y,1/2+z
1/2+x,1/2-y,1/2-z
1/2-x,1/2+y,1/2-z
loop_
_atom_site_type_symbol
_atom_site_label
_atom_site_fract_x
_atom_site_fract_y
_atom_site_fract_z
Si Si1 0.293663 0.326437 0.748164
Si Si2 0.647968 0.500000 0.000000
Si Si3 0.944937 0.107124 0.263643
Si Si4 0.944887 0.569391 0.671441
Si Si5 0.817607 0.500280 0.684427
Si Si6 0.128130 0.000000 0.000000
O O1 0.313595 0.374118 0.920237
O O2 0.226083 0.372298 0.735572
O O3 0.297185 0.152229 0.741072
O O4 0.331563 0.400139 0.610542
O O5 0.609149 0.432963 0.868561
O O6 0.963739 0.263352 0.324002
O O7 0.916920 0.105304 0.091807
O O8 0.000000 0.000000 0.281874
O O9 0.942894 0.500000 0.500000
O O10 0.882183 0.538960 0.751813
O O11 0.000000 0.500000 0.764055
O O12 0.819112 0.500000 0.500000
#
# Coordination Sequence:
#
# PCOD8164095 Si02
#       6
#     8   4   8   8   8   4
#     4  11  25  43  73 103 145 188 238 305 357 431
#     4  10  23  38  70 104 133 180 244 292 358 410
#     4  11  24  43  74 100 139 187 243 294 353 430
#     4  10  24  42  67 100 141 181 237 294 350 419
#     4  11  25  44  70 102 147 185 241 294 365 423
#     4  10  25  46  70 102 145 182 244 292 372 428
#
# _framework density 22.129943999999998
#
# number of rings (size 3 to 8) (size 9 to 14) (size 15 to 20)
#    0.000    1.400    1.000    3.000   19.600    0.000 
#    0.000    0.000    0.000    0.000    0.000    0.000 
#    0.000    0.000    0.000    0.000    0.000    0.000 
#
# Total GULP energy -247875.682344 kJ/mol
# GULP energy per Si atom -12393.784117 kJ/mol
# Density = 2.207958 g / cm^3
# Si number density = 22.129944 Si / 1000 Ang^3
#
#
#
# Elastic Constant Matrix: (Units=GPa)
#
#
# Indices 1 2 3 4 5 6 
#
# 1 203.8037 74.7743 32.5036 0.0000 0.0000 0.0000
# 2 74.7743 166.5387 20.0750 0.0000 0.0000 0.0000
# 3 32.5036 20.0750 75.8868 0.0000 0.0000 0.0000
# 4 0.0000 0.0000 0.0000 23.9741 0.0000 0.0000
# 5 0.0000 0.0000 0.0000 0.0000 -12.8448 0.0000
# 6 0.0000 0.0000 0.0000 0.0000 0.0000 31.8719
#
#
#
# Elastic Compliance Matrix: (Units=1/GPa)
#
#
# Indices 1 2 3 4 5 6 
#
# 1 0.006146 -0.002522 -0.001965 0.000000 0.000000 0.000000
# 2 -0.002522 0.007238 -0.000834 0.000000 0.000000 0.000000
# 3 -0.001965 -0.000834 0.014240 0.000000 0.000000 0.000000
# 4 0.000000 0.000000 0.000000 0.041712 0.000000 0.000000
# 5 0.000000 0.000000 0.000000 0.000000 -0.077852 0.000000
# 6 0.000000 0.000000 0.000000 0.000000 0.000000 0.031376
#
#
# Mechanical properties :
#
#
# Convention : Reuss Voigt Hill
#
# Bulk Modulus (GPa) = 58.89347 77.88166 68.38757
# Shear Modulus (GPa) = 127.67713 29.85865 78.76789
#
# Velocity S-wave (km/s) = 7.60392 3.67719 5.97249
# Velocity P-wave (km/s) = 10.18642 7.30056 8.86175
#
# Compressibility (1/GPa) = 0.01697981
#
# Stress axis : x y z
#
# Youngs Moduli (GPa) = 162.72009 138.16505 70.22550
#
# Poissons Ratio (x) = 0.34851 0.13799
# Poissons Ratio (y) = 0.41045 0.05859
# Poissons Ratio (z) = 0.31974 0.11527
#
# Static dielectric constant tensor:
#      x y z
#    x 4.933660 0.000000 0.000000 
#    y 0.000000 5.564880 0.000000 
#    z 0.000000 0.000000 4.744860 
# 
# 
# High freq. dielectric constant tensor:
#      x y z
#    x 1.898800 0.000000 0.000000 
#    y 0.000000 1.871330 0.000000 
#    z 0.000000 0.000000 1.853650 
# 
# From -- ./inp_files/12439.got.cif
#   From: 2010.03.12/outbox.cif.g09.slc.cpg/sg23_7_cif.got.tgz:12439.got - 2010.04.14 02:50:06.
