data_PCOD8164895
_publ_section_title
;
Structure prediction by ZEFSAII (Michael W. Deem and Ramdas Pophale) SiO2 
 PCOD8164895
Probable space group: I 21 21 21
;
_chemical_formula_sum "Si O2"
_cell_formula_units_Z 60
_cell_length_a 11.313142
_cell_length_b 17.381912
_cell_length_c 16.865282
_cell_angle_alpha 90.000000
_cell_angle_beta 90.000000
_cell_angle_gamma 90.000000
_cell_volume 3316.457166
_symmetry_space_group_name_H-M "I 21 21 21"
_symmetry_group_IT_number 24
_symmetry_cell_setting 'orthorhombic'
loop_
_space_group_symop_operation_xyz
x,y,z
-x,1/2-y,z
x,-y,1/2-z
1/2-x,y,-z
1/2+x,1/2+y,1/2+z
1/2-x,-y,1/2+z
1/2+x,1/2-y,-z
-x,1/2+y,1/2-z
loop_
_atom_site_type_symbol
_atom_site_label
_atom_site_fract_x
_atom_site_fract_y
_atom_site_fract_z
Si Si1 0.492750 0.358784 0.913733
Si Si2 0.948743 0.001524 0.868438
Si Si3 0.475364 0.166274 0.093641
Si Si4 0.797705 0.936535 0.190132
Si Si5 0.235526 0.860732 0.327961
Si Si6 0.124688 0.492487 0.464946
Si Si7 0.879004 0.218173 0.230630
Si Si8 0.849454 0.500000 0.750000
O O1 0.617943 0.379257 0.875721
O O2 0.423822 0.437655 0.915003
O O3 0.415643 0.301408 0.859961
O O4 0.503859 0.323535 0.000585
O O5 0.838274 0.963458 0.822891
O O6 0.956793 0.969392 0.959513
O O7 0.943056 0.096257 0.871282
O O8 0.067427 0.975805 0.823979
O O9 0.500000 0.250000 0.133715
O O10 0.339372 0.146785 0.108394
O O11 0.860685 0.928457 0.103688
O O12 0.815103 0.852311 0.226136
O O13 0.854698 0.000000 0.250000
O O14 0.219179 0.784692 0.274177
O O15 0.264281 0.929052 0.267482
O O16 0.250000 0.518173 0.500000
O O17 0.000000 0.250000 0.273474
#
# Coordination Sequence:
#
# PCOD8164895 Si02
#       8
#     8   8   8   8   8   8   8   4
#     4  10  19  34  49  78 114 144 177 219 272 347
#     4   9  20  35  54  80 111 141 188 230 269 341
#     4  10  20  32  51  76 112 147 176 221 282 337
#     4  11  19  33  60  80 108 147 183 231 279 324
#     4  10  22  33  51  75 107 149 185 226 274 338
#     4   9  19  33  55  87 109 142 186 228 280 333
#     4  10  22  35  51  81 114 138 187 232 276 339
#     4  10  20  38  54  78 112 148 190 228 278 332
#
# _framework density 18.091595000000002
#
# number of rings (size 3 to 8) (size 9 to 14) (size 15 to 20)
#    0.000    2.133    2.000    1.600    1.867    3.200 
#    0.000    1.333    0.000    4.800    0.000    0.000 
#    0.000    0.000    0.000    0.000    0.000    0.000 
#
# Total GULP energy -371705.427677 kJ/mol
# GULP energy per Si atom -12390.180923 kJ/mol
# Density = 1.805042 g / cm^3
# Si number density = 18.091595 Si / 1000 Ang^3
#
#
#
# Elastic Constant Matrix: (Units=GPa)
#
#
# Indices 1 2 3 4 5 6 
#
# 1 72.9538 52.6125 39.0510 0.0000 0.0000 0.0000
# 2 52.6125 119.7464 47.6497 0.0000 0.0000 0.0000
# 3 39.0510 47.6497 70.4870 0.0000 0.0000 0.0000
# 4 0.0000 0.0000 0.0000 26.6825 0.0000 0.0000
# 5 0.0000 0.0000 0.0000 0.0000 22.2770 0.0000
# 6 0.0000 0.0000 0.0000 0.0000 0.0000 32.1273
#
#
#
# Elastic Compliance Matrix: (Units=1/GPa)
#
#
# Indices 1 2 3 4 5 6 
#
# 1 0.023005 -0.006889 -0.008088 0.000000 0.000000 0.000000
# 2 -0.006889 0.013487 -0.005301 0.000000 0.000000 0.000000
# 3 -0.008088 -0.005301 0.022251 0.000000 0.000000 0.000000
# 4 0.000000 0.000000 0.000000 0.037478 0.000000 0.000000
# 5 0.000000 0.000000 0.000000 0.000000 0.044889 0.000000
# 6 0.000000 0.000000 0.000000 0.000000 0.000000 0.031126
#
#
# Mechanical properties :
#
#
# Convention : Reuss Voigt Hill
#
# Bulk Modulus (GPa) = 54.98262 60.20153 57.59207
# Shear Modulus (GPa) = 22.84619 24.47563 23.66091
#
# Velocity S-wave (km/s) = 3.55745 3.68213 3.62033
# Velocity P-wave (km/s) = 6.87977 7.17117 7.02698
#
# Compressibility (1/GPa) = 0.01818757
#
# Stress axis : x y z
#
# Youngs Moduli (GPa) = 43.46874 74.14489 44.94143
#
# Poissons Ratio (x) = 0.51080 0.36349
# Poissons Ratio (y) = 0.29947 0.23822
# Poissons Ratio (z) = 0.35158 0.39302
#
# Static dielectric constant tensor:
#      x y z
#    x 3.385580 0.000000 0.000000 
#    y 0.000000 3.309930 0.000000 
#    z 0.000000 0.000000 3.499390 
# 
# 
# High freq. dielectric constant tensor:
#      x y z
#    x 1.697870 0.000000 0.000000 
#    y 0.000000 1.686290 0.000000 
#    z 0.000000 0.000000 1.697460 
# 
# From -- ./inp_files/21024.got.cif
#   From: 2010.03.12/outbox.cif.g09.slc.cpg/sg24_11_cif.got.tgz:21024.got - 2010.04.14 03:06:53.
