data_PCOD8164450
_publ_section_title
;
Structure prediction by ZEFSAII (Michael W. Deem and Ramdas Pophale) SiO2 
 PCOD8164450
Probable space group: I 2 2 2
;
_chemical_formula_sum "Si O2"
_cell_formula_units_Z 60
_cell_length_a 11.499637
_cell_length_b 11.555838
_cell_length_c 21.077074
_cell_angle_alpha 90.000000
_cell_angle_beta 90.000000
_cell_angle_gamma 90.000000
_cell_volume 2800.888992
_symmetry_space_group_name_H-M "I 2 2 2"
_symmetry_group_IT_number 23
_symmetry_cell_setting 'orthorhombic'
loop_
_space_group_symop_operation_xyz
x,y,z
-x,-y,z
x,-y,-z
-x,y,-z
1/2+x,1/2+y,1/2+z
1/2-x,1/2-y,1/2+z
1/2+x,1/2-y,1/2-z
1/2-x,1/2+y,1/2-z
loop_
_atom_site_type_symbol
_atom_site_label
_atom_site_fract_x
_atom_site_fract_y
_atom_site_fract_z
Si Si1 0.075802 0.822298 0.063274
Si Si2 0.473128 0.690460 0.153134
Si Si3 0.500000 0.500000 0.245293
Si Si4 0.696051 0.609835 0.079479
Si Si5 0.919251 0.605157 0.270442
Si Si6 0.190066 0.979376 0.161096
Si Si7 0.129591 0.759337 0.850654
Si Si8 0.719728 0.647338 0.940365
O O1 0.151612 0.931334 0.090778
O O2 0.160908 0.715645 0.049105
O O3 0.997567 0.780234 0.121549
O O4 0.000000 0.855214 0.000000
O O5 0.431820 0.597313 0.205349
O O6 0.585957 0.633571 0.122980
O O7 0.501100 0.811988 0.186741
O O8 0.369096 0.715721 0.104372
O O9 0.594733 0.565760 0.288495
O O10 0.799257 0.696060 0.094852
O O11 0.742788 0.479324 0.089540
O O12 0.656552 0.631970 0.007646
O O13 0.814842 0.564710 0.316015
O O14 0.870981 0.677134 0.210940
O O15 0.000000 0.500000 0.246927
O O16 0.191355 0.118352 0.162258
#
# Coordination Sequence:
#
# PCOD8164450 Si02
#       8
#     8   8   4   8   8   8   8   8
#     4  12  25  48  73 101 140 185 240 295 346 419
#     4  12  22  44  71  99 140 183 230 290 350 426
#     4  12  22  42  68 102 134 186 236 288 348 422
#     4  11  24  43  68 103 142 178 235 288 356 416
#     4  12  28  44  71 105 146 182 232 297 363 427
#     4  12  25  47  71 102 137 187 241 282 357 428
#     4  12  26  44  70 103 137 185 233 292 353 424
#     4  11  24  43  72 103 134 186 231 292 348 423
#
# _framework density 21.421769999999999
#
# number of rings (size 3 to 8) (size 9 to 14) (size 15 to 20)
#    0.000    0.267    6.667    2.000    1.867    3.200 
#    0.000    0.000    0.000    0.800    0.000    0.000 
#    0.000    0.000    0.000    0.000    0.000    0.000 
#
# Total GULP energy -371948.033991 kJ/mol
# GULP energy per Si atom -12398.267800 kJ/mol
# Density = 2.137301 g / cm^3
# Si number density = 21.421770 Si / 1000 Ang^3
#
#
#
# Elastic Constant Matrix: (Units=GPa)
#
#
# Indices 1 2 3 4 5 6 
#
# 1 74.1118 46.0386 26.5243 0.0000 0.0000 0.0000
# 2 46.0386 140.8768 68.5562 0.0000 0.0000 0.0000
# 3 26.5243 68.5562 90.4188 0.0000 0.0000 0.0000
# 4 0.0000 0.0000 0.0000 34.8308 0.0000 0.0000
# 5 0.0000 0.0000 0.0000 0.0000 37.6924 0.0000
# 6 0.0000 0.0000 0.0000 0.0000 0.0000 34.1206
#
#
#
# Elastic Compliance Matrix: (Units=1/GPa)
#
#
# Indices 1 2 3 4 5 6 
#
# 1 0.017016 -0.004963 -0.001229 0.000000 0.000000 0.000000
# 2 -0.004963 0.012696 -0.008171 0.000000 0.000000 0.000000
# 3 -0.001229 -0.008171 0.017615 0.000000 0.000000 0.000000
# 4 0.000000 0.000000 0.000000 0.028710 0.000000 0.000000
# 5 0.000000 0.000000 0.000000 0.000000 0.026531 0.000000
# 6 0.000000 0.000000 0.000000 0.000000 0.000000 0.029308
#
#
# Mechanical properties :
#
#
# Convention : Reuss Voigt Hill
#
# Bulk Modulus (GPa) = 53.75496 65.29396 59.52446
# Shear Modulus (GPa) = 29.97574 32.28130 31.12852
#
# Velocity S-wave (km/s) = 3.74480 3.88614 3.81612
# Velocity P-wave (km/s) = 6.62164 7.11916 6.87490
#
# Compressibility (1/GPa) = 0.01860293
#
# Stress axis : x y z
#
# Youngs Moduli (GPa) = 58.76888 78.76224 56.76926
#
# Poissons Ratio (x) = 0.39088 0.06975
# Poissons Ratio (y) = 0.29166 0.46384
# Poissons Ratio (z) = 0.07221 0.64354
#
# Static dielectric constant tensor:
#      x y z
#    x 3.707470 0.000000 0.000000 
#    y 0.000000 4.098050 0.000000 
#    z 0.000000 0.000000 4.052050 
# 
# 
# High freq. dielectric constant tensor:
#      x y z
#    x 1.829640 0.000000 0.000000 
#    y 0.000000 1.849840 0.000000 
#    z 0.000000 0.000000 1.855350 
# 
# From -- ./inp_files/26760.got.cif
#   From: 2010.03.12/outbox.cif.g09.slc.cpg/sg23_14_cif.got.tgz:26760.got - 2010.04.14 02:50:06.
