data_PCOD8164329
_publ_section_title
;
Structure prediction by ZEFSAII (Michael W. Deem and Ramdas Pophale) SiO2 
 PCOD8164329
Probable space group: I 2 2 2
;
_chemical_formula_sum "Si O2"
_cell_formula_units_Z 56
_cell_length_a 9.231677
_cell_length_b 20.590937
_cell_length_c 15.079991
_cell_angle_alpha 90.000000
_cell_angle_beta 90.000000
_cell_angle_gamma 90.000000
_cell_volume 2866.538592
_symmetry_space_group_name_H-M "I 2 2 2"
_symmetry_group_IT_number 23
_symmetry_cell_setting 'orthorhombic'
loop_
_space_group_symop_operation_xyz
x,y,z
-x,-y,z
x,-y,-z
-x,y,-z
1/2+x,1/2+y,1/2+z
1/2-x,1/2-y,1/2+z
1/2+x,1/2-y,1/2-z
1/2-x,1/2+y,1/2-z
loop_
_atom_site_type_symbol
_atom_site_label
_atom_site_fract_x
_atom_site_fract_y
_atom_site_fract_z
Si Si1 0.740701 0.747140 0.409245
Si Si2 0.500000 0.172738 0.000000
Si Si3 0.428019 0.844181 0.814249
Si Si4 0.861668 0.371653 0.834525
Si Si5 0.826263 0.496559 0.103755
Si Si6 0.000000 0.689162 0.000000
Si Si7 0.821257 0.872588 0.305834
Si Si8 0.396547 0.698715 0.766470
O O1 0.632854 0.762196 0.489147
O O2 0.784427 0.817128 0.374533
O O3 0.658176 0.703798 0.335319
O O4 0.876958 0.714115 0.453044
O O5 0.563396 0.132079 0.917027
O O6 0.545973 0.881551 0.755160
O O7 0.267198 0.862478 0.784715
O O8 0.462767 0.766911 0.800894
O O9 0.770094 0.436722 0.852790
O O10 0.974503 0.356807 0.914455
O O11 0.745025 0.314442 0.825929
O O12 0.728808 0.440158 0.148676
O O13 0.000000 0.500000 0.122924
O O14 0.792579 0.500000 0.000000
O O15 0.989670 0.861285 0.277940
#
# Coordination Sequence:
#
# PCOD8164329 Si02
#       8
#     8   4   8   8   8   4   8   8
#     4  11  23  36  61  92 122 167 207 257 328 379
#     4  12  22  38  62  93 123 162 212 270 320 384
#     4  11  21  39  61  89 125 166 209 259 321 379
#     4  12  22  40  62  88 129 166 210 258 310 383
#     4  11  22  40  65  91 124 173 220 254 305 384
#     4  12  22  36  61  92 120 167 212 258 322 382
#     4  11  22  40  60  90 131 169 208 262 320 379
#     4  11  22  40  58  89 134 165 201 266 324 384
#
# _framework density 19.535755999999999
#
# number of rings (size 3 to 8) (size 9 to 14) (size 15 to 20)
#    0.000    0.714    7.143    3.429    2.000    0.571 
#    0.000    0.714    0.000    1.714    0.000    0.000 
#    0.000    0.000    0.000    0.000    0.000    0.000 
#
# Total GULP energy -346947.784528 kJ/mol
# GULP energy per Si atom -12390.992305 kJ/mol
# Density = 1.949129 g / cm^3
# Si number density = 19.535756 Si / 1000 Ang^3
#
#
#
# Elastic Constant Matrix: (Units=GPa)
#
#
# Indices 1 2 3 4 5 6 
#
# 1 83.1449 17.9952 40.5510 0.0000 0.0000 0.0000
# 2 17.9952 71.0146 33.7232 -0.0001 0.0000 0.0000
# 3 40.5510 33.7232 149.1435 -0.0001 0.0000 0.0000
# 4 0.0000 -0.0001 -0.0001 19.0023 0.0000 0.0000
# 5 0.0000 0.0000 0.0000 0.0000 34.9751 0.0000
# 6 0.0000 0.0000 0.0000 0.0000 0.0000 48.9027
#
#
#
# Elastic Compliance Matrix: (Units=1/GPa)
#
#
# Indices 1 2 3 4 5 6 
#
# 1 0.014106 -0.001964 -0.003391 0.000000 0.000000 0.000000
# 2 -0.001964 0.016049 -0.003095 0.000000 0.000000 0.000000
# 3 -0.003391 -0.003095 0.008327 0.000000 0.000000 0.000000
# 4 0.000000 0.000000 0.000000 0.052625 0.000000 0.000000
# 5 0.000000 0.000000 0.000000 0.000000 0.028592 0.000000
# 6 0.000000 0.000000 0.000000 0.000000 0.000000 0.020449
#
#
# Mechanical properties :
#
#
# Convention : Reuss Voigt Hill
#
# Bulk Modulus (GPa) = 46.33578 54.20464 50.27021
# Shear Modulus (GPa) = 30.44284 34.64492 32.54388
#
# Velocity S-wave (km/s) = 3.95183 4.21576 4.08593
# Velocity P-wave (km/s) = 6.67777 7.17659 6.93167
#
# Compressibility (1/GPa) = 0.02158160
#
# Stress axis : x y z
#
# Youngs Moduli (GPa) = 70.89048 62.30919 120.09420
#
# Poissons Ratio (x) = 0.12238 0.40727
# Poissons Ratio (y) = 0.13924 0.37167
# Poissons Ratio (z) = 0.24041 0.19284
#
# Static dielectric constant tensor:
#      x y z
#    x 3.783560 0.000000 0.000000 
#    y 0.000000 3.497920 0.000000 
#    z 0.000000 0.000000 3.832870 
# 
# 
# High freq. dielectric constant tensor:
#      x y z
#    x 1.769740 0.000000 0.000000 
#    y 0.000000 1.725290 0.000000 
#    z 0.000000 0.000000 1.763960 
# 
# From -- ./inp_files/20229.got.cif
#   From: 2010.03.12/outbox.cif.g09.slc.cpg/sg23_11_cif.got.tgz:20229.got - 2010.04.14 02:50:06.
