data_PCOD8164092
_publ_section_title
;
Structure prediction by ZEFSAII (Michael W. Deem and Ramdas Pophale) SiO2 
 PCOD8164092
Probable space group: I 2 2 2
;
_chemical_formula_sum "Si O2"
_cell_formula_units_Z 52
_cell_length_a 20.267332
_cell_length_b 14.965833
_cell_length_c 8.025432
_cell_angle_alpha 90.000000
_cell_angle_beta 90.000000
_cell_angle_gamma 90.000000
_cell_volume 2434.254019
_symmetry_space_group_name_H-M "I 2 2 2"
_symmetry_group_IT_number 23
_symmetry_cell_setting 'orthorhombic'
loop_
_space_group_symop_operation_xyz
x,y,z
-x,-y,z
x,-y,-z
-x,y,-z
1/2+x,1/2+y,1/2+z
1/2-x,1/2-y,1/2+z
1/2+x,1/2-y,1/2-z
1/2-x,1/2+y,1/2-z
loop_
_atom_site_type_symbol
_atom_site_label
_atom_site_fract_x
_atom_site_fract_y
_atom_site_fract_z
Si Si1 0.322973 0.500000 0.000000
Si Si2 0.778716 0.242116 0.273564
Si Si3 0.443756 0.803402 0.279749
Si Si4 0.413669 0.821605 0.652822
Si Si5 0.596870 0.010676 0.188294
Si Si6 0.162508 0.813460 0.607076
Si Si7 0.749230 0.050015 0.168962
O O1 0.365074 0.589151 0.046535
O O2 0.279957 0.490969 0.165183
O O3 0.848180 0.286118 0.234363
O O4 0.786519 0.220196 0.466926
O O5 0.715596 0.309847 0.259861
O O6 0.767076 0.154530 0.159766
O O7 0.410545 0.794462 0.459976
O O8 0.520505 0.772863 0.273442
O O9 0.401293 0.747522 0.144824
O O10 0.447901 0.908499 0.249062
O O11 0.415632 0.927204 0.690290
O O12 0.671930 0.041538 0.191239
O O13 0.573341 0.000000 0.000000
O O14 0.773922 0.000000 0.000000
#
# Coordination Sequence:
#
# PCOD8164092 Si02
#       7
#     4   8   8   8   8   8   8
#     4  10  24  38  62  97 123 172 220 282 330 390
#     4  11  23  39  63  95 125 173 216 272 334 396
#     4  11  24  42  61  93 131 178 215 273 326 409
#     4  11  25  39  64  93 131 174 221 263 336 395
#     4  11  22  38  60  93 134 173 215 264 330 398
#     4  11  23  41  65  94 132 169 225 273 343 392
#     4  10  23  38  61  96 130 168 218 272 335 394
#
# _framework density 21.36178
#
# number of rings (size 3 to 8) (size 9 to 14) (size 15 to 20)
#    0.000    1.231    1.538    3.692   10.769    4.308 
#    0.000    0.000    0.000    7.385    0.000    0.000 
#    0.000    0.000    0.000    0.000    0.000    0.000 
#
# Total GULP energy -322119.407256 kJ/mol
# GULP energy per Si atom -12389.207971 kJ/mol
# Density = 2.131316 g / cm^3
# Si number density = 21.361780 Si / 1000 Ang^3
#
#
#
# Elastic Constant Matrix: (Units=GPa)
#
#
# Indices 1 2 3 4 5 6 
#
# 1 82.4864 34.5824 15.4800 0.0000 0.0000 0.0000
# 2 34.5824 121.2923 33.5914 0.0000 0.0000 0.0000
# 3 15.4800 33.5914 64.8367 0.0000 0.0000 0.0000
# 4 0.0000 0.0000 0.0000 36.1521 0.0000 0.0000
# 5 0.0000 0.0000 0.0000 0.0000 41.7690 0.0000
# 6 0.0000 0.0000 0.0000 0.0000 0.0000 20.7389
#
#
#
# Elastic Compliance Matrix: (Units=1/GPa)
#
#
# Indices 1 2 3 4 5 6 
#
# 1 0.013889 -0.003551 -0.001476 0.000000 0.000000 0.000000
# 2 -0.003551 0.010534 -0.004610 0.000000 0.000000 0.000000
# 3 -0.001476 -0.004610 0.018164 0.000000 0.000000 0.000000
# 4 0.000000 0.000000 0.000000 0.027661 0.000000 0.000000
# 5 0.000000 0.000000 0.000000 0.000000 0.023941 0.000000
# 6 0.000000 0.000000 0.000000 0.000000 0.000000 0.048218
#
#
# Mechanical properties :
#
#
# Convention : Reuss Voigt Hill
#
# Bulk Modulus (GPa) = 42.89488 48.43590 45.66539
# Shear Modulus (GPa) = 29.50686 32.06278 30.78482
#
# Velocity S-wave (km/s) = 3.72061 3.87840 3.80032
# Velocity P-wave (km/s) = 6.21136 6.54059 6.37810
#
# Compressibility (1/GPa) = 0.02331280
#
# Stress axis : x y z
#
# Youngs Moduli (GPa) = 71.99898 94.93391 55.05400
#
# Poissons Ratio (x) = 0.33713 0.08127
# Poissons Ratio (y) = 0.25568 0.25377
# Poissons Ratio (z) = 0.10629 0.43760
#
# Static dielectric constant tensor:
#      x y z
#    x 3.679390 0.000000 0.000000 
#    y 0.000000 3.574200 0.000000 
#    z 0.000000 0.000000 4.459650 
# 
# 
# High freq. dielectric constant tensor:
#      x y z
#    x 1.826850 0.000000 0.000000 
#    y 0.000000 1.831020 0.000000 
#    z 0.000000 0.000000 1.856170 
# 
# From -- ./inp_files/11980.got.cif
#   From: 2010.03.12/outbox.cif.g09.slc.cpg/sg23_6_cif.got.tgz:11980.got - 2010.04.14 02:50:06.
