data_PCOD8164803
_publ_section_title
;
Structure prediction by ZEFSAII (Michael W. Deem and Ramdas Pophale) SiO2 
 PCOD8164803
Probable space group: I 21 21 21
;
_chemical_formula_sum "Si O2"
_cell_formula_units_Z 52
_cell_length_a 8.112844
_cell_length_b 15.597681
_cell_length_c 19.218914
_cell_angle_alpha 90.000000
_cell_angle_beta 90.000000
_cell_angle_gamma 90.000000
_cell_volume 2431.991219
_symmetry_space_group_name_H-M "I 21 21 21"
_symmetry_group_IT_number 24
_symmetry_cell_setting 'orthorhombic'
loop_
_space_group_symop_operation_xyz
x,y,z
-x,1/2-y,z
x,-y,1/2-z
1/2-x,y,-z
1/2+x,1/2+y,1/2+z
1/2-x,-y,1/2+z
1/2+x,1/2-y,-z
-x,1/2+y,1/2-z
loop_
_atom_site_type_symbol
_atom_site_label
_atom_site_fract_x
_atom_site_fract_y
_atom_site_fract_z
Si Si1 0.126438 0.827444 0.936368
Si Si2 0.629192 0.174312 0.063224
Si Si3 0.832045 0.071462 0.303181
Si Si4 0.939172 0.994672 0.890036
Si Si5 0.821147 0.792014 0.716491
Si Si6 0.125424 0.000000 0.750000
Si Si7 0.330456 0.156853 0.698111
O O1 0.233157 0.806912 0.868325
O O2 0.000000 0.750000 0.948804
O O3 0.032119 0.917811 0.928715
O O4 0.250000 0.835941 0.000000
O O5 0.500000 0.250000 0.055452
O O6 0.721489 0.184432 0.137134
O O7 0.552396 0.078312 0.060219
O O8 0.750000 0.186419 0.000000
O O9 0.750858 0.032882 0.373506
O O10 0.684482 0.123037 0.264337
O O11 0.983012 0.133661 0.323857
O O12 0.900194 0.000000 0.250000
O O13 0.017054 0.024355 0.816886
O O14 0.675309 0.729862 0.742837
O O15 0.000000 0.750000 0.726141
O O16 0.242825 0.077048 0.731786
#
# Coordination Sequence:
#
# PCOD8164803 Si02
#       7
#     8   8   8   8   8   4   8
#     4  11  27  47  69 101 136 183 229 283 347 424
#     4  11  25  43  62  91 128 176 223 271 327 400
#     4  12  22  39  65 105 134 165 220 292 330 403
#     4  11  22  43  70  93 137 179 222 279 351 406
#     4  11  22  42  67  95 130 178 221 270 341 405
#     4  10  18  38  66  98 128 164 222 276 328 410
#     4  11  23  39  68 102 134 171 221 280 344 398
#
# _framework density 21.381657000000001
#
# number of rings (size 3 to 8) (size 9 to 14) (size 15 to 20)
#    0.000    0.923    3.077    5.538    0.000    6.154 
#    0.000    0.000    0.000    0.000    0.000    0.000 
#    0.000    0.000    0.000    0.000    0.000    0.000 
#
# Total GULP energy -322433.799285 kJ/mol
# GULP energy per Si atom -12401.299973 kJ/mol
# Density = 2.133299 g / cm^3
# Si number density = 21.381657 Si / 1000 Ang^3
#
#
#
# Elastic Constant Matrix: (Units=GPa)
#
#
# Indices 1 2 3 4 5 6 
#
# 1 111.6265 53.4199 41.6611 0.0000 0.0000 0.0000
# 2 53.4199 113.3931 54.9466 0.0000 0.0000 0.0000
# 3 41.6611 54.9466 94.8304 0.0000 0.0000 0.0000
# 4 0.0000 0.0000 0.0000 23.4694 0.0000 0.0000
# 5 0.0000 0.0000 0.0000 0.0000 22.3110 0.0000
# 6 0.0000 0.0000 0.0000 0.0000 0.0000 -63.5751
#
#
#
# Elastic Compliance Matrix: (Units=1/GPa)
#
#
# Indices 1 2 3 4 5 6 
#
# 1 0.012076 -0.004335 -0.002793 0.000000 0.000000 0.000000
# 2 -0.004335 0.013818 -0.006102 0.000000 0.000000 0.000000
# 3 -0.002793 -0.006102 0.015308 0.000000 0.000000 0.000000
# 4 0.000000 0.000000 0.000000 0.042609 0.000000 0.000000
# 5 0.000000 0.000000 0.000000 0.000000 0.044821 0.000000
# 6 0.000000 0.000000 0.000000 0.000000 0.000000 -0.015729
#
#
# Mechanical properties :
#
#
# Convention : Reuss Voigt Hill
#
# Bulk Modulus (GPa) = 67.83895 68.87834 68.35864
# Shear Modulus (GPa) = 34.65583 7.76254 21.20918
#
# Velocity S-wave (km/s) = 4.03031 1.90745 3.15291
# Velocity P-wave (km/s) = 7.31125 6.09383 6.73013
#
# Compressibility (1/GPa) = 0.01474079
#
# Stress axis : x y z
#
# Youngs Moduli (GPa) = 82.81141 72.36910 65.32669
#
# Poissons Ratio (x) = 0.31375 0.18246
# Poissons Ratio (y) = 0.35903 0.39861
# Poissons Ratio (z) = 0.23130 0.44158
#
# Static dielectric constant tensor:
#      x y z
#    x 3.818570 0.000000 0.000000 
#    y 0.000000 4.384490 0.000000 
#    z 0.000000 0.000000 8.674710 
# 
# 
# High freq. dielectric constant tensor:
#      x y z
#    x 1.833840 0.000000 0.000000 
#    y 0.000000 1.867460 0.000000 
#    z 0.000000 0.000000 1.822850 
# 
# From -- ./inp_files/32782.got.cif
#   From: 2010.03.12/outbox.cif.g09.slc.cpg/sg24_17_cif.got.tgz:32782.got - 2010.04.14 03:06:53.
