data_PCOD8164811
_publ_section_title
;
Structure prediction by ZEFSAII (Michael W. Deem and Ramdas Pophale) SiO2 
 PCOD8164811
Probable space group: I 21 21 21
;
_chemical_formula_sum "Si O2"
_cell_formula_units_Z 48
_cell_length_a 9.719486
_cell_length_b 26.486300
_cell_length_c 9.432795
_cell_angle_alpha 90.000000
_cell_angle_beta 90.000000
_cell_angle_gamma 90.000000
_cell_volume 2428.314810
_symmetry_space_group_name_H-M "I 21 21 21"
_symmetry_group_IT_number 24
_symmetry_cell_setting 'orthorhombic'
loop_
_space_group_symop_operation_xyz
x,y,z
-x,1/2-y,z
x,-y,1/2-z
1/2-x,y,-z
1/2+x,1/2+y,1/2+z
1/2-x,-y,1/2+z
1/2+x,1/2-y,-z
-x,1/2+y,1/2-z
loop_
_atom_site_type_symbol
_atom_site_label
_atom_site_fract_x
_atom_site_fract_y
_atom_site_fract_z
Si Si1 0.750000 0.515260 0.000000
Si Si2 0.656473 0.764703 0.628126
Si Si3 0.580069 0.500000 0.250000
Si Si4 0.259782 0.156213 0.162233
Si Si5 0.793000 0.147751 0.341959
Si Si6 0.067637 0.898631 0.113443
Si Si7 0.996374 0.110290 0.694306
O O1 0.672389 0.481490 0.116030
O O2 0.861930 0.547320 0.090462
O O3 0.500000 0.750000 0.580951
O O4 0.750000 0.787206 0.500000
O O5 0.737411 0.715590 0.682304
O O6 0.648477 0.804510 0.756089
O O7 0.495089 0.549205 0.205960
O O8 0.154728 0.129453 0.268014
O O9 0.415327 0.140715 0.193543
O O10 0.250000 0.139091 0.000000
O O11 0.750000 0.165008 0.500000
O O12 0.658280 0.125371 0.269653
O O13 0.907355 0.102743 0.338538
O O14 0.060902 0.872516 0.957578
#
# Coordination Sequence:
#
# PCOD8164811 Si02
#       7
#     4   8   4   8   8   8   8
#     4  10  20  36  64  92 122 156 202 264 298 364
#     4  11  25  41  59  89 127 162 202 253 306 366
#     4  10  20  36  60  92 118 154 202 250 312 360
#     4  11  22  36  60  88 118 161 203 246 299 361
#     4  10  23  40  63  89 122 166 204 250 304 365
#     4  10  18  40  60  87 118 158 195 251 304 350
#     4  10  22  38  62  88 123 156 199 254 308 361
#
# _framework density 19.766795999999999
#
# number of rings (size 3 to 8) (size 9 to 14) (size 15 to 20)
#    0.000    1.667    5.000    0.000    5.833    1.333 
#    0.000    0.833    0.000    7.000    0.000    0.000 
#    0.000    0.000    0.000    0.000    0.000    0.000 
#
# Total GULP energy -297325.224140 kJ/mol
# GULP energy per Si atom -12388.551006 kJ/mol
# Density = 1.972181 g / cm^3
# Si number density = 19.766796 Si / 1000 Ang^3
#
#
#
# Elastic Constant Matrix: (Units=GPa)
#
#
# Indices 1 2 3 4 5 6 
#
# 1 148.3273 41.6602 53.5237 0.0036 -0.0022 0.0003
# 2 41.6602 56.2171 31.6398 -0.0007 0.0014 0.0005
# 3 53.5237 31.6398 98.5933 0.0093 0.0087 0.0090
# 4 0.0036 -0.0007 0.0093 28.2423 0.0012 0.0002
# 5 -0.0022 0.0014 0.0087 0.0012 27.4488 0.0036
# 6 0.0003 0.0005 0.0090 0.0002 0.0036 5.7510
#
#
#
# Elastic Compliance Matrix: (Units=1/GPa)
#
#
# Indices 1 2 3 4 5 6 
#
# 1 0.009411 -0.005002 -0.003504 0.000000 0.000002 0.000005
# 2 -0.005002 0.024368 -0.005104 0.000003 0.000000 0.000006
# 3 -0.003504 -0.005104 0.013683 -0.000004 -0.000004 -0.000021
# 4 0.000000 0.000003 -0.000004 0.035408 -0.000002 -0.000001
# 5 0.000002 0.000000 -0.000004 -0.000002 0.036432 -0.000023
# 6 0.000005 0.000006 -0.000021 -0.000001 -0.000023 0.173883
#
#
# Mechanical properties :
#
#
# Convention : Reuss Voigt Hill
#
# Bulk Modulus (GPa) = 49.40439 61.86501 55.63470
# Shear Modulus (GPa) = 15.28343 24.04269 19.66306
#
# Velocity S-wave (km/s) = 2.78364 3.49136 3.15739
# Velocity P-wave (km/s) = 5.94806 6.90059 6.44196
#
# Compressibility (1/GPa) = 0.02024111
#
# Stress axis : x y z
#
# Youngs Moduli (GPa) = 106.25703 41.03752 73.08416
#
# Poissons Ratio (x) = 0.20528 0.25607
# Poissons Ratio (y) = 0.53152 0.37305
# Poissons Ratio (z) = 0.37230 0.20947
#
# Static dielectric constant tensor:
#      x y z
#    x 3.894230 0.000000 0.000000 
#    y 0.000000 3.343430 0.000000 
#    z 0.000000 0.000000 3.896120 
# 
# 
# High freq. dielectric constant tensor:
#      x y z
#    x 1.781320 0.000000 0.000000 
#    y 0.000000 1.743540 0.000000 
#    z 0.000000 0.000000 1.782540 
# 
# From -- ./inp_files/9783.got.cif
#   From: 2010.03.12/outbox.cif.g09.slc.cpg/sg24_5_cif.got.tgz:9783.got - 2010.04.14 03:06:53.
