data_PCOD8164778
_publ_section_title
;
Structure prediction by ZEFSAII (Michael W. Deem and Ramdas Pophale) SiO2 
 PCOD8164778
Probable space group: I 21 21 21
;
_chemical_formula_sum "Si O2"
_cell_formula_units_Z 52
_cell_length_a 8.294413
_cell_length_b 15.261178
_cell_length_c 19.080148
_cell_angle_alpha 90.000000
_cell_angle_beta 90.000000
_cell_angle_gamma 90.000000
_cell_volume 2415.213086
_symmetry_space_group_name_H-M "I 21 21 21"
_symmetry_group_IT_number 24
_symmetry_cell_setting 'orthorhombic'
loop_
_space_group_symop_operation_xyz
x,y,z
-x,1/2-y,z
x,-y,1/2-z
1/2-x,y,-z
1/2+x,1/2+y,1/2+z
1/2-x,-y,1/2+z
1/2+x,1/2-y,-z
-x,1/2+y,1/2-z
loop_
_atom_site_type_symbol
_atom_site_label
_atom_site_fract_x
_atom_site_fract_y
_atom_site_fract_z
Si Si1 0.101632 0.833922 0.948479
Si Si2 0.645826 0.182642 0.065585
Si Si3 0.897501 0.927508 0.193482
Si Si4 0.887365 0.994784 0.890782
Si Si5 0.680352 0.781156 0.707063
Si Si6 0.046464 0.000000 0.750000
Si Si7 0.258425 0.144950 0.688625
O O1 0.184101 0.802068 0.876438
O O2 0.000000 0.750000 0.977328
O O3 0.989486 0.918936 0.930601
O O4 0.250000 0.859906 0.000000
O O5 0.500000 0.250000 0.071463
O O6 0.754184 0.190479 0.133439
O O7 0.600389 0.079465 0.058154
O O8 0.750000 0.213149 0.000000
O O9 0.795774 0.960244 0.125364
O O10 0.792241 0.857394 0.236089
O O11 0.059116 0.879606 0.166867
O O12 0.950882 0.000000 0.250000
O O13 0.936515 0.034113 0.813827
O O14 0.500000 0.750000 0.695420
O O15 0.770100 0.698474 0.740163
O O16 0.157960 0.060075 0.703466
#
# Coordination Sequence:
#
# PCOD8164778 Si02
#       7
#     8   8   8   8   8   4   8
#     4  11  27  47  68  99 134 179 224 282 346 419
#     4  12  26  43  61  88 128 176 221 271 325 394
#     4  11  19  37  66 101 130 167 214 280 326 397
#     4  11  23  41  68  96 131 174 224 275 346 404
#     4  10  21  38  63  95 126 166 213 262 325 387
#     4  10  18  36  62  96 128 162 214 278 324 396
#     4  10  22  38  66  99 134 169 218 274 339 391
#
# _framework density 21.530190999999999
#
# number of rings (size 3 to 8) (size 9 to 14) (size 15 to 20)
#    0.000    1.231    3.077    2.308    0.000    8.615 
#    0.000    0.000    0.000    0.000    0.000    0.000 
#    0.000    0.000    0.000    0.000    0.000    0.000 
#
# Total GULP energy -322105.546091 kJ/mol
# GULP energy per Si atom -12388.674850 kJ/mol
# Density = 2.148119 g / cm^3
# Si number density = 21.530191 Si / 1000 Ang^3
#
#
#
# Elastic Constant Matrix: (Units=GPa)
#
#
# Indices 1 2 3 4 5 6 
#
# 1 40.8083 28.3191 22.2395 0.0000 0.0000 0.0000
# 2 28.3191 104.8130 15.9351 0.0000 0.0000 0.0000
# 3 22.2395 15.9351 55.0522 0.0000 0.0000 0.0000
# 4 0.0000 0.0000 0.0000 23.7485 0.0000 0.0000
# 5 0.0000 0.0000 0.0000 0.0000 35.8343 0.0000
# 6 0.0000 0.0000 0.0000 0.0000 0.0000 30.7040
#
#
#
# Elastic Compliance Matrix: (Units=1/GPa)
#
#
# Indices 1 2 3 4 5 6 
#
# 1 0.036974 -0.008075 -0.012599 0.000000 0.000000 0.000000
# 2 -0.008075 0.011743 -0.000137 0.000000 0.000000 0.000000
# 3 -0.012599 -0.000137 0.023294 0.000000 0.000000 0.000000
# 4 0.000000 0.000000 0.000000 0.042108 0.000000 0.000000
# 5 0.000000 0.000000 0.000000 0.000000 0.027906 0.000000
# 6 0.000000 0.000000 0.000000 0.000000 0.000000 0.032569
#
#
# Mechanical properties :
#
#
# Convention : Reuss Voigt Hill
#
# Bulk Modulus (GPa) = 32.90610 37.07344 34.98977
# Shear Modulus (GPa) = 22.08993 27.00267 24.54630
#
# Velocity S-wave (km/s) = 3.20660 3.54528 3.38018
# Velocity P-wave (km/s) = 5.38763 5.83227 5.61435
#
# Compressibility (1/GPa) = 0.03038950
#
# Stress axis : x y z
#
# Youngs Moduli (GPa) = 27.04567 85.15492 42.92926
#
# Poissons Ratio (x) = 0.68758 0.54088
# Poissons Ratio (y) = 0.21838 0.00589
# Poissons Ratio (z) = 0.34076 0.01169
#
# Static dielectric constant tensor:
#      x y z
#    x 3.999010 0.000000 0.000000 
#    y 0.000000 4.024930 0.000000 
#    z 0.000000 0.000000 4.728240 
# 
# 
# High freq. dielectric constant tensor:
#      x y z
#    x 1.854500 0.000000 0.000000 
#    y 0.000000 1.850600 0.000000 
#    z 0.000000 0.000000 1.836700 
# 
# From -- ./inp_files/32781.got.cif
#   From: 2010.03.12/outbox.cif.g09.slc.cpg/sg24_17_cif.got.tgz:32781.got - 2010.04.14 03:06:53.
