data_PCOD8164690
_publ_section_title
;
Structure prediction by ZEFSAII (Michael W. Deem and Ramdas Pophale) SiO2 
 PCOD8164690
Probable space group: I 21 21 21
;
_chemical_formula_sum "Si O2"
_cell_formula_units_Z 44
_cell_length_a 5.490014
_cell_length_b 23.914290
_cell_length_c 20.093904
_cell_angle_alpha 90.000000
_cell_angle_beta 90.000000
_cell_angle_gamma 90.000000
_cell_volume 2638.124374
_symmetry_space_group_name_H-M "I 21 21 21"
_symmetry_group_IT_number 24
_symmetry_cell_setting 'orthorhombic'
loop_
_space_group_symop_operation_xyz
x,y,z
-x,1/2-y,z
x,-y,1/2-z
1/2-x,y,-z
1/2+x,1/2+y,1/2+z
1/2-x,-y,1/2+z
1/2+x,1/2-y,-z
-x,1/2+y,1/2-z
loop_
_atom_site_type_symbol
_atom_site_label
_atom_site_fract_x
_atom_site_fract_y
_atom_site_fract_z
Si Si1 0.250000 0.082409 0.500000
Si Si2 0.749638 0.780492 0.078543
Si Si3 0.938113 0.891601 0.114150
Si Si4 0.583827 0.432603 0.751019
Si Si5 0.367172 0.492763 0.433183
Si Si6 0.581146 0.052332 0.199378
O O1 0.398949 0.123156 0.548873
O O2 0.397983 0.042416 0.451427
O O3 0.500000 0.750000 0.101522
O O4 0.747065 0.840496 0.116943
O O5 0.000000 0.750000 0.101415
O O6 0.750000 0.789741 0.000000
O O7 0.820445 0.951513 0.101966
O O8 0.093798 0.900778 0.180526
O O9 0.586937 0.500000 0.750000
O O10 0.332573 0.413416 0.787780
O O11 0.833680 0.412274 0.786894
O O12 0.250000 0.519955 0.500000
O O13 0.434632 0.538734 0.378885
O O14 0.582063 0.000000 0.250000
#
# Coordination Sequence:
#
# PCOD8164690 Si02
#       6
#     4   8   8   8   8   8
#     4  10  20  28  48  68  92 118 164 216 252 298
#     4  10  23  37  50  67  94 127 169 222 274 304
#     4  11  21  33  50  71  92 128 171 217 267 297
#     4  10  19  31  49  67  93 121 158 206 246 305
#     4  10  20  30  45  70  94 127 166 212 250 293
#     4  10  18  31  45  65  93 123 155 202 243 293
#
# _framework density 16.678515999999998
#
# number of rings (size 3 to 8) (size 9 to 14) (size 15 to 20)
#    0.000    1.818    3.636    3.818    8.909    0.000 
#    0.000    0.000    0.000    0.000    0.000    0.000 
#    0.000    0.000    0.000    0.000    0.000    5.455 
#
# Total GULP energy -272571.996173 kJ/mol
# GULP energy per Si atom -12389.636190 kJ/mol
# Density = 1.664055 g / cm^3
# Si number density = 16.678516 Si / 1000 Ang^3
#
#
#
# Elastic Constant Matrix: (Units=GPa)
#
#
# Indices 1 2 3 4 5 6 
#
# 1 143.9311 20.5761 46.8868 0.0000 0.0000 0.0000
# 2 20.5761 34.7922 34.2034 0.0000 0.0000 0.0000
# 3 46.8868 34.2034 102.6437 0.0000 0.0000 0.0000
# 4 0.0000 0.0000 0.0000 23.4289 0.0000 0.0000
# 5 0.0000 0.0000 0.0000 0.0000 13.4572 0.0000
# 6 0.0000 0.0000 0.0000 0.0000 0.0000 11.7980
#
#
#
# Elastic Compliance Matrix: (Units=1/GPa)
#
#
# Indices 1 2 3 4 5 6 
#
# 1 0.008233 -0.001743 -0.003180 0.000000 0.000000 0.000000
# 2 -0.001743 0.043114 -0.013570 0.000000 0.000000 0.000000
# 3 -0.003180 -0.013570 0.015717 0.000000 0.000000 0.000000
# 4 0.000000 0.000000 0.000000 0.042682 0.000000 0.000000
# 5 0.000000 0.000000 0.000000 0.000000 0.074309 0.000000
# 6 0.000000 0.000000 0.000000 0.000000 0.000000 0.084760
#
#
# Mechanical properties :
#
#
# Convention : Reuss Voigt Hill
#
# Bulk Modulus (GPa) = 33.24787 53.85552 43.55169
# Shear Modulus (GPa) = 15.83144 21.71686 18.77415
#
# Velocity S-wave (km/s) = 3.08427 3.61236 3.35871
# Velocity P-wave (km/s) = 5.71502 7.05403 6.41953
#
# Compressibility (1/GPa) = 0.03007712
#
# Stress axis : x y z
#
# Youngs Moduli (GPa) = 121.46526 23.19456 63.62523
#
# Poissons Ratio (x) = 0.04042 0.20233
# Poissons Ratio (y) = 0.21168 0.86342
# Poissons Ratio (z) = 0.38625 0.31476
#
# Static dielectric constant tensor:
#      x y z
#    x 3.905200 0.000000 0.000000 
#    y 0.000000 2.630970 0.000000 
#    z 0.000000 0.000000 7.684020 
# 
# 
# High freq. dielectric constant tensor:
#      x y z
#    x 1.675450 0.000000 0.000000 
#    y 0.000000 1.562420 0.000000 
#    z 0.000000 0.000000 1.627810 
# 
# From -- ./inp_files/4761.got.cif
#   From: 2010.03.12/outbox.cif.g09.slc.cpg/sg24_3_cif.got.tgz:4761.got - 2010.04.14 03:06:53.
