data_PCOD8164954
_publ_section_title
;
Structure prediction by ZEFSAII (Michael W. Deem and Ramdas Pophale) SiO2 
 PCOD8164954
Probable space group: I 21 21 21
;
_chemical_formula_sum "Si O2"
_cell_formula_units_Z 60
_cell_length_a 13.025345
_cell_length_b 13.517810
_cell_length_c 17.908093
_cell_angle_alpha 90.000000
_cell_angle_beta 90.000000
_cell_angle_gamma 90.000000
_cell_volume 3153.152054
_symmetry_space_group_name_H-M "I 21 21 21"
_symmetry_group_IT_number 24
_symmetry_cell_setting 'orthorhombic'
loop_
_space_group_symop_operation_xyz
x,y,z
-x,1/2-y,z
x,-y,1/2-z
1/2-x,y,-z
1/2+x,1/2+y,1/2+z
1/2-x,-y,1/2+z
1/2+x,1/2-y,-z
-x,1/2+y,1/2-z
loop_
_atom_site_type_symbol
_atom_site_label
_atom_site_fract_x
_atom_site_fract_y
_atom_site_fract_z
Si Si1 0.738871 0.887729 0.580081
Si Si2 0.657561 0.767391 0.297185
Si Si3 0.776554 0.820592 0.854183
Si Si4 0.250000 0.190806 0.500000
Si Si5 0.527196 0.584590 0.309140
Si Si6 0.093205 0.472693 0.337306
Si Si7 0.967182 0.362706 0.446980
Si Si8 0.580688 0.038396 0.419875
O O1 0.750000 0.832025 0.500000
O O2 0.765207 0.805312 0.640568
O O3 0.631788 0.934861 0.610979
O O4 0.818985 0.975010 0.563904
O O5 0.715067 0.751538 0.218484
O O6 0.620373 0.659465 0.321615
O O7 0.571276 0.851220 0.285965
O O8 0.677540 0.887509 0.842794
O O9 0.882375 0.883120 0.857548
O O10 0.772701 0.757194 0.928731
O O11 0.149617 0.125901 0.477552
O O12 0.554101 0.500000 0.250000
O O13 0.509711 0.530162 0.388004
O O14 0.076336 0.500000 0.250000
O O15 0.986820 0.428462 0.371951
O O16 0.000000 0.250000 0.430842
O O17 0.045985 0.405020 0.507035
#
# Coordination Sequence:
#
# PCOD8164954 Si02
#       8
#     8   8   8   4   8   8   8   8
#     4  10  19  35  60  94 122 159 219 279 317 378
#     4  10  21  33  56  89 127 162 210 271 322 391
#     4  11  19  34  57  96 126 160 211 270 330 381
#     4  12  26  36  60  94 130 164 212 282 328 412
#     4  10  20  33  52  87 124 168 200 247 329 400
#     4  11  21  37  64  95 130 169 223 276 329 392
#     4  12  23  39  61  94 128 171 212 271 341 402
#     4  10  20  32  57  86 126 160 200 257 333 392
#
# _framework density 19.028576999999999
#
# number of rings (size 3 to 8) (size 9 to 14) (size 15 to 20)
#    0.000    1.333    6.667    0.000    3.733    0.000 
#    0.000    0.000    4.400    1.600    0.000    0.000 
#    0.000    0.000    0.000    0.000    0.000    0.000 
#
# Total GULP energy -371686.490805 kJ/mol
# GULP energy per Si atom -12389.549693 kJ/mol
# Density = 1.898527 g / cm^3
# Si number density = 19.028577 Si / 1000 Ang^3
#
#
#
# Elastic Constant Matrix: (Units=GPa)
#
#
# Indices 1 2 3 4 5 6 
#
# 1 75.3972 33.2684 44.6101 0.0000 0.0000 0.0000
# 2 33.2684 84.6415 49.8019 0.0000 0.0000 0.0000
# 3 44.6101 49.8019 152.7995 0.0000 0.0000 0.0000
# 4 0.0000 0.0000 0.0000 32.2183 0.0000 0.0000
# 5 0.0000 0.0000 0.0000 0.0000 26.0791 0.0000
# 6 0.0000 0.0000 0.0000 0.0000 0.0000 19.7393
#
#
#
# Elastic Compliance Matrix: (Units=1/GPa)
#
#
# Indices 1 2 3 4 5 6 
#
# 1 0.017469 -0.004782 -0.003541 0.000000 0.000000 0.000000
# 2 -0.004782 0.015927 -0.003795 0.000000 0.000000 0.000000
# 3 -0.003541 -0.003795 0.008815 0.000000 0.000000 0.000000
# 4 0.000000 0.000000 0.000000 0.031038 0.000000 0.000000
# 5 0.000000 0.000000 0.000000 0.000000 0.038345 0.000000
# 6 0.000000 0.000000 0.000000 0.000000 0.000000 0.050660
#
#
# Mechanical properties :
#
#
# Convention : Reuss Voigt Hill
#
# Bulk Modulus (GPa) = 55.63638 63.13321 59.38480
# Shear Modulus (GPa) = 25.97634 27.95119 26.96377
#
# Velocity S-wave (km/s) = 3.69877 3.83679 3.76841
# Velocity P-wave (km/s) = 6.89514 7.27173 7.08594
#
# Compressibility (1/GPa) = 0.01797385
#
# Stress axis : x y z
#
# Youngs Moduli (GPa) = 57.24583 62.78597 113.43954
#
# Poissons Ratio (x) = 0.30027 0.40172
# Poissons Ratio (y) = 0.27377 0.43049
# Poissons Ratio (z) = 0.20272 0.23827
#
# Static dielectric constant tensor:
#      x y z
#    x 3.439290 0.000000 0.000000 
#    y 0.000000 3.444330 0.000000 
#    z 0.000000 0.000000 4.169000 
# 
# 
# High freq. dielectric constant tensor:
#      x y z
#    x 1.708740 0.000000 0.000000 
#    y 0.000000 1.718640 0.000000 
#    z 0.000000 0.000000 1.754640 
# 
# From -- ./inp_files/30879.got.cif
#   From: 2010.03.12/outbox.cif.g09.slc.cpg/sg24_16_cif.got.tgz:30879.got - 2010.04.14 03:06:53.
