data_PCOD8164006
_publ_section_title
;
Structure prediction by ZEFSAII (Michael W. Deem and Ramdas Pophale) SiO2 
 PCOD8164006
Probable space group: I 2 2 2
;
_chemical_formula_sum "Si O2"
_cell_formula_units_Z 48
_cell_length_a 14.177647
_cell_length_b 5.936609
_cell_length_c 26.319297
_cell_angle_alpha 90.000000
_cell_angle_beta 90.000000
_cell_angle_gamma 90.000000
_cell_volume 2215.220134
_symmetry_space_group_name_H-M "I 2 2 2"
_symmetry_group_IT_number 23
_symmetry_cell_setting 'orthorhombic'
loop_
_space_group_symop_operation_xyz
x,y,z
-x,-y,z
x,-y,-z
-x,y,-z
1/2+x,1/2+y,1/2+z
1/2-x,1/2-y,1/2+z
1/2+x,1/2-y,1/2-z
1/2-x,1/2+y,1/2-z
loop_
_atom_site_type_symbol
_atom_site_label
_atom_site_fract_x
_atom_site_fract_y
_atom_site_fract_z
Si Si1 0.837592 0.246946 0.359803
Si Si2 0.500000 0.000000 0.818643
Si Si3 0.815089 0.934160 0.819061
Si Si4 0.361405 0.646075 0.216601
Si Si5 0.417951 0.815070 0.590564
Si Si6 0.739551 0.876487 0.548170
Si Si7 0.883677 0.000000 0.000000
O O1 0.918458 0.429696 0.356994
O O2 0.736785 0.354717 0.345173
O O3 0.830256 0.176197 0.418111
O O4 0.872074 0.042844 0.325600
O O5 0.547920 0.810443 0.783450
O O6 0.739404 0.761988 0.794683
O O7 0.891653 0.825758 0.858310
O O8 0.870805 0.034862 0.771643
O O9 0.444219 0.654454 0.541053
O O10 0.500000 0.000000 0.600200
O O11 0.323635 0.946576 0.578357
O O12 0.681126 0.654448 0.535004
O O13 0.782727 0.000000 0.500000
#
# Coordination Sequence:
#
# PCOD8164006 Si02
#       7
#     8   4   8   8   8   8   4
#     4  11  21  44  68  97 134 179 231 276 348 409
#     4  10  26  40  70 101 132 182 225 284 342 422
#     4  11  22  41  72  97 134 185 230 283 346 417
#     4  11  22  43  71  99 134 179 228 285 348 411
#     4  11  24  42  67 104 140 183 237 292 344 418
#     4  10  22  39  71 100 129 177 229 281 345 420
#     4  10  22  43  68  97 134 188 222 289 354 410
#
# _framework density 21.668275000000001
#
# number of rings (size 3 to 8) (size 9 to 14) (size 15 to 20)
#    0.000    1.333    5.000    0.500    0.000    4.333 
#    1.500    3.333    1.833    7.500    0.000    0.000 
#    0.000    0.000    0.000    0.000    0.000    0.000 
#
# Total GULP energy -297460.340103 kJ/mol
# GULP energy per Si atom -12394.180838 kJ/mol
# Density = 2.161896 g / cm^3
# Si number density = 21.668275 Si / 1000 Ang^3
#
#
#
# Elastic Constant Matrix: (Units=GPa)
#
#
# Indices 1 2 3 4 5 6 
#
# 1 83.7933 38.5374 63.3097 0.0000 0.0000 0.0000
# 2 38.5374 114.9015 64.9043 0.0000 0.0000 0.0000
# 3 63.3097 64.9043 171.8137 0.0000 0.0000 0.0000
# 4 0.0000 0.0000 0.0000 45.6190 0.0000 0.0000
# 5 0.0000 0.0000 0.0000 0.0000 15.2514 0.0000
# 6 0.0000 0.0000 0.0000 0.0000 0.0000 31.8317
#
#
#
# Elastic Compliance Matrix: (Units=1/GPa)
#
#
# Indices 1 2 3 4 5 6 
#
# 1 0.017212 -0.002784 -0.005290 0.000000 0.000000 0.000000
# 2 -0.002784 0.011514 -0.003324 0.000000 0.000000 0.000000
# 3 -0.005290 -0.003324 0.009025 0.000000 0.000000 0.000000
# 4 0.000000 0.000000 0.000000 0.021921 0.000000 0.000000
# 5 0.000000 0.000000 0.000000 0.000000 0.065568 0.000000
# 6 0.000000 0.000000 0.000000 0.000000 0.000000 0.031415
#
#
# Mechanical properties :
#
#
# Convention : Reuss Voigt Hill
#
# Bulk Modulus (GPa) = 66.86928 78.22346 72.54637
# Shear Modulus (GPa) = 27.10953 32.12422 29.61688
#
# Velocity S-wave (km/s) = 3.54095 3.85456 3.70108
# Velocity P-wave (km/s) = 6.90255 7.48258 7.19841
#
# Compressibility (1/GPa) = 0.01495455
#
# Stress axis : x y z
#
# Youngs Moduli (GPa) = 58.09961 86.84754 110.80083
#
# Poissons Ratio (x) = 0.24182 0.58618
# Poissons Ratio (y) = 0.16177 0.36827
# Poissons Ratio (z) = 0.30737 0.28865
#
# Static dielectric constant tensor:
#      x y z
#    x 3.745320 0.000000 0.000000 
#    y 0.000000 4.636160 0.000000 
#    z 0.000000 0.000000 4.277650 
# 
# 
# High freq. dielectric constant tensor:
#      x y z
#    x 1.831220 0.000000 0.000000 
#    y 0.000000 1.876320 0.000000 
#    z 0.000000 0.000000 1.854370 
# 
# From -- ./inp_files/29586.got.cif
#   From: 2010.03.12/outbox.cif.g09.slc.cpg/sg23_15_cif.got.tgz:29586.got - 2010.04.14 02:50:06.
