data_PCOD8164684
_publ_section_title
;
Structure prediction by ZEFSAII (Michael W. Deem and Ramdas Pophale) SiO2 
 PCOD8164684
Probable space group: I 21 21 21
;
_chemical_formula_sum "Si O2"
_cell_formula_units_Z 52
_cell_length_a 11.573069
_cell_length_b 27.988392
_cell_length_c 9.200281
_cell_angle_alpha 90.000000
_cell_angle_beta 90.000000
_cell_angle_gamma 90.000000
_cell_volume 2980.077664
_symmetry_space_group_name_H-M "I 21 21 21"
_symmetry_group_IT_number 24
_symmetry_cell_setting 'orthorhombic'
loop_
_space_group_symop_operation_xyz
x,y,z
-x,1/2-y,z
x,-y,1/2-z
1/2-x,y,-z
1/2+x,1/2+y,1/2+z
1/2-x,-y,1/2+z
1/2+x,1/2-y,-z
-x,1/2+y,1/2-z
loop_
_atom_site_type_symbol
_atom_site_label
_atom_site_fract_x
_atom_site_fract_y
_atom_site_fract_z
Si Si1 0.250000 0.800683 0.500000
Si Si2 0.486793 0.160270 0.106145
Si Si3 0.605228 0.223321 0.873713
Si Si4 0.416933 0.378760 0.384296
Si Si5 0.346457 0.632049 0.807019
Si Si6 0.116567 0.576524 0.459423
Si Si7 0.640758 0.020181 0.406515
O O1 0.350751 0.833191 0.429413
O O2 0.201709 0.764200 0.380111
O O3 0.505009 0.155446 0.281407
O O4 0.560977 0.203168 0.032322
O O5 0.529341 0.109473 0.048315
O O6 0.500000 0.250000 0.793825
O O7 0.653931 0.180779 0.781080
O O8 0.424410 0.360179 0.549727
O O9 0.285702 0.378871 0.333115
O O10 0.448959 0.435756 0.383657
O O11 0.399713 0.588625 0.711445
O O12 0.250000 0.587146 0.500000
O O13 0.082700 0.522147 0.498198
O O14 0.750000 0.039663 0.500000
O O15 0.681745 0.000000 0.250000
#
# Coordination Sequence:
#
# PCOD8164684 Si02
#       7
#     4   8   8   8   8   8   8
#     4  10  20  34  58  78  94 140 194 236 266 334
#     4  10  19  34  54  77 105 134 184 227 281 320
#     4   9  19  35  54  72  96 132 182 226 268 330
#     4  11  19  30  46  79 112 142 167 222 271 331
#     4  10  19  31  48  73 114 144 168 210 286 320
#     4  10  18  30  51  74 109 148 171 216 261 331
#     4  11  19  28  45  76 116 142 179 209 269 333
#
# _framework density 17.449209
#
# number of rings (size 3 to 8) (size 9 to 14) (size 15 to 20)
#    0.000    1.846    4.615    1.846    2.154    0.000 
#    0.000    5.385    0.000    7.385    0.000   12.923 
#    0.000    0.000    0.000    0.000    0.000    0.000 
#
# Total GULP energy -322100.066268 kJ/mol
# GULP energy per Si atom -12388.464087 kJ/mol
# Density = 1.740949 g / cm^3
# Si number density = 17.449209 Si / 1000 Ang^3
#
#
#
# Elastic Constant Matrix: (Units=GPa)
#
#
# Indices 1 2 3 4 5 6 
#
# 1 67.3967 37.6644 26.8080 -0.0002 0.0001 0.0000
# 2 37.6644 100.0142 27.9713 -0.0005 0.0003 0.0001
# 3 26.8080 27.9713 112.3059 -0.0056 0.0010 0.0011
# 4 -0.0002 -0.0005 -0.0056 16.3815 0.0005 0.0003
# 5 0.0001 0.0003 0.0010 0.0005 18.9460 0.0000
# 6 0.0000 0.0001 0.0011 0.0003 0.0000 14.0684
#
#
#
# Elastic Compliance Matrix: (Units=1/GPa)
#
#
# Indices 1 2 3 4 5 6 
#
# 1 0.019733 -0.006571 -0.003074 -0.000001 0.000000 0.000000
# 2 -0.006571 0.012936 -0.001653 0.000000 0.000000 0.000000
# 3 -0.003074 -0.001653 0.010050 0.000003 0.000000 -0.000001
# 4 -0.000001 0.000000 0.000003 0.061044 -0.000002 -0.000001
# 5 0.000000 0.000000 0.000000 -0.000002 0.052782 0.000000
# 6 0.000000 0.000000 -0.000001 -0.000001 0.000000 0.071081
#
#
# Mechanical properties :
#
#
# Convention : Reuss Voigt Hill
#
# Bulk Modulus (GPa) = 49.69808 51.62267 50.66037
# Shear Modulus (GPa) = 19.46064 22.36405 20.91234
#
# Velocity S-wave (km/s) = 3.34319 3.58392 3.46565
# Velocity P-wave (km/s) = 6.59136 6.83921 6.71642
#
# Compressibility (1/GPa) = 0.02012150
#
# Stress axis : x y z
#
# Youngs Moduli (GPa) = 50.67772 77.30553 99.50580
#
# Poissons Ratio (x) = 0.50801 0.30584
# Poissons Ratio (y) = 0.33303 0.16450
# Poissons Ratio (z) = 0.15576 0.12780
#
# Static dielectric constant tensor:
#      x y z
#    x 1.975030 -0.000010 0.000000 
#    y -0.000010 3.472520 0.000000 
#    z 0.000000 0.000000 3.607550 
# 
# 
# High freq. dielectric constant tensor:
#      x y z
#    x 1.614900 0.000000 0.000000 
#    y 0.000000 1.688650 0.000000 
#    z 0.000000 0.000000 1.676650 
# 
# From -- ./inp_files/11582.got.cif
#   From: 2010.03.12/outbox.cif.g09.slc.cpg/sg24_6_cif.got.tgz:11582.got - 2010.04.14 03:06:53.
