data_PCOD8164593
_publ_section_title
;
Structure prediction by ZEFSAII (Michael W. Deem and Ramdas Pophale) SiO2 
 PCOD8164593
Probable space group: I 21 21 21
;
_chemical_formula_sum "Si O2"
_cell_formula_units_Z 48
_cell_length_a 7.436580
_cell_length_b 17.302907
_cell_length_c 15.902006
_cell_angle_alpha 90.000000
_cell_angle_beta 90.000000
_cell_angle_gamma 90.000000
_cell_volume 2046.181910
_symmetry_space_group_name_H-M "I 21 21 21"
_symmetry_group_IT_number 24
_symmetry_cell_setting 'orthorhombic'
loop_
_space_group_symop_operation_xyz
x,y,z
-x,1/2-y,z
x,-y,1/2-z
1/2-x,y,-z
1/2+x,1/2+y,1/2+z
1/2-x,-y,1/2+z
1/2+x,1/2-y,-z
-x,1/2+y,1/2-z
loop_
_atom_site_type_symbol
_atom_site_label
_atom_site_fract_x
_atom_site_fract_y
_atom_site_fract_z
Si Si1 0.000000 0.750000 0.935381
Si Si2 0.206014 0.773222 0.677708
Si Si3 0.447812 0.606974 0.962292
Si Si4 0.456006 0.077224 0.215292
Si Si5 0.952882 0.943334 0.525987
Si Si6 0.750000 0.321130 0.000000
Si Si7 0.244177 0.664880 0.186195
O O1 0.830810 0.773017 0.878147
O O2 0.058245 0.823233 0.993859
O O3 0.254919 0.764147 0.580068
O O4 0.328596 0.715863 0.734221
O O5 0.000000 0.750000 0.693501
O O6 0.210339 0.862966 0.705871
O O7 0.421915 0.622058 0.861357
O O8 0.250000 0.605864 0.000000
O O9 0.532166 0.523249 0.985057
O O10 0.546544 0.057317 0.126529
O O11 0.609495 0.103156 0.281607
O O12 0.364040 0.000000 0.250000
O O13 0.750000 0.927660 0.500000
O O14 0.073682 0.873483 0.492728
#
# Coordination Sequence:
#
# PCOD8164593 Si02
#       7
#     4   8   8   8   8   4   8
#     4  10  16  32  54  84 122 162 216 260 302 392
#     4   9  19  37  60  91 123 160 220 264 319 391
#     4   9  19  33  56  87 120 161 212 255 319 382
#     4  10  17  31  60  88 119 163 215 264 315 385
#     4  10  21  39  62  94 125 164 211 264 330 385
#     4  10  22  42  64  98 124 168 220 268 326 392
#     4  10  18  35  57  87 124 166 216 265 317 393
#
# _framework density 23.458324999999999
#
# number of rings (size 3 to 8) (size 9 to 14) (size 15 to 20)
#    0.000    2.333    2.500    3.000    0.000    0.000 
#   18.000    1.667    0.000   10.000    0.000    0.000 
#    0.000    0.000    0.000    0.000    0.000    0.000 
#
# Total GULP energy -297426.065882 kJ/mol
# GULP energy per Si atom -12392.752745 kJ/mol
# Density = 2.340493 g / cm^3
# Si number density = 23.458325 Si / 1000 Ang^3
#
#
#
# Elastic Constant Matrix: (Units=GPa)
#
#
# Indices 1 2 3 4 5 6 
#
# 1 27.3429 4.9468 8.9707 0.0000 0.0000 0.0000
# 2 4.9468 95.5778 54.7215 0.0000 0.0000 0.0000
# 3 8.9707 54.7215 149.9825 0.0000 0.0000 0.0000
# 4 0.0000 0.0000 0.0000 44.5755 0.0000 0.0000
# 5 0.0000 0.0000 0.0000 0.0000 30.2095 0.0000
# 6 0.0000 0.0000 0.0000 0.0000 0.0000 14.1737
#
#
#
# Elastic Compliance Matrix: (Units=1/GPa)
#
#
# Indices 1 2 3 4 5 6 
#
# 1 0.037356 -0.000827 -0.001933 0.000000 0.000000 0.000000
# 2 -0.000827 0.013244 -0.004783 0.000000 0.000000 0.000000
# 3 -0.001933 -0.004783 0.008528 0.000000 0.000000 0.000000
# 4 0.000000 0.000000 0.000000 0.022434 0.000000 0.000000
# 5 0.000000 0.000000 0.000000 0.000000 0.033102 0.000000
# 6 0.000000 0.000000 0.000000 0.000000 0.000000 0.070553
#
#
# Mechanical properties :
#
#
# Convention : Reuss Voigt Hill
#
# Bulk Modulus (GPa) = 22.70476 45.57570 34.14023
# Shear Modulus (GPa) = 23.25772 31.40935 27.33354
#
# Velocity S-wave (km/s) = 3.15214 3.66313 3.41720
# Velocity P-wave (km/s) = 4.79038 6.11244 5.49134
#
# Compressibility (1/GPa) = 0.04404363
#
# Stress axis : x y z
#
# Youngs Moduli (GPa) = 26.76929 75.50807 117.26156
#
# Poissons Ratio (x) = 0.06244 0.22662
# Poissons Ratio (y) = 0.02214 0.56080
# Poissons Ratio (z) = 0.05173 0.36112
#
# Static dielectric constant tensor:
#      x y z
#    x 3.682930 0.000000 0.000000 
#    y 0.000000 5.004220 0.000000 
#    z 0.000000 0.000000 4.758240 
# 
# 
# High freq. dielectric constant tensor:
#      x y z
#    x 1.870000 0.000000 0.000000 
#    y 0.000000 1.941540 0.000000 
#    z 0.000000 0.000000 1.942590 
# 
# From -- ./inp_files/24834.got.cif
#   From: 2010.03.12/outbox.cif.g09.slc.cpg/sg24_13_cif.got.tgz:24834.got - 2010.04.14 03:06:53.
