data_PCOD8164496
_publ_section_title
;
Structure prediction by ZEFSAII (Michael W. Deem and Ramdas Pophale) SiO2 
 PCOD8164496
Probable space group: I 2 2 2
;
_chemical_formula_sum "Si O2"
_cell_formula_units_Z 38
_cell_length_a 8.507421
_cell_length_b 9.169036
_cell_length_c 21.243081
_cell_angle_alpha 90.000000
_cell_angle_beta 90.000000
_cell_angle_gamma 90.000000
_cell_volume 1657.063335
_symmetry_space_group_name_H-M "I 2 2 2"
_symmetry_group_IT_number 23
_symmetry_cell_setting 'orthorhombic'
loop_
_space_group_symop_operation_xyz
x,y,z
-x,-y,z
x,-y,-z
-x,y,-z
1/2+x,1/2+y,1/2+z
1/2-x,1/2-y,1/2+z
1/2+x,1/2-y,1/2-z
1/2-x,1/2+y,1/2-z
loop_
_atom_site_type_symbol
_atom_site_label
_atom_site_fract_x
_atom_site_fract_y
_atom_site_fract_z
Si Si1 0.000000 0.000000 0.500000
Si Si2 0.500000 0.000000 0.394286
Si Si3 0.220296 0.736371 0.835192
Si Si4 0.277371 0.677762 0.090701
Si Si5 0.948898 0.847938 0.285139
Si Si6 0.685171 0.498421 0.571842
O O1 0.900760 0.887800 0.458298
O O2 0.638639 0.088863 0.359211
O O3 0.395613 0.118901 0.431828
O O4 0.118754 0.762366 0.773326
O O5 0.401389 0.726643 0.816594
O O6 0.235333 0.861228 0.888109
O O7 0.318755 0.625629 0.161059
O O8 0.267565 0.852102 0.097411
O O9 0.000000 0.000000 0.254971
O O10 0.500000 0.500000 0.576647
O O11 0.742928 0.500000 0.500000
#
# Coordination Sequence:
#
# PCOD8164496 Si02
#       6
#     2   4   8   8   8   8
#     4  12  28  50  74 112 156 198 260 316 384 478
#     4  12  24  47  80 110 140 199 250 308 388 454
#     4  12  27  48  76 111 150 198 255 316 389 463
#     4  12  27  48  77 110 152 197 251 318 381 464
#     4  12  27  47  73 109 151 195 253 314 383 460
#     4  11  27  48  76 112 151 199 252 312 383 464
#
# _framework density 22.932133
#
# number of rings (size 3 to 8) (size 9 to 14) (size 15 to 20)
#    0.000    0.211    5.263    1.895    8.842    1.263 
#    0.000    0.000    0.000    0.000    0.000    0.000 
#    0.000    0.000    0.000    0.000    0.000    0.000 
#
# Total GULP energy -235393.180543 kJ/mol
# GULP energy per Si atom -12389.114765 kJ/mol
# Density = 2.287994 g / cm^3
# Si number density = 22.932133 Si / 1000 Ang^3
#
#
#
# Elastic Constant Matrix: (Units=GPa)
#
#
# Indices 1 2 3 4 5 6 
#
# 1 115.3909 48.5559 35.6143 0.0000 0.0000 0.0000
# 2 48.5559 135.6865 34.1393 0.0000 0.0000 0.0000
# 3 35.6143 34.1393 99.0121 0.0000 0.0000 0.0000
# 4 0.0000 0.0000 0.0000 62.1509 0.0000 0.0000
# 5 0.0000 0.0000 0.0000 0.0000 49.4170 0.0000
# 6 0.0000 0.0000 0.0000 0.0000 0.0000 39.7528
#
#
#
# Elastic Compliance Matrix: (Units=1/GPa)
#
#
# Indices 1 2 3 4 5 6 
#
# 1 0.010874 -0.003183 -0.002814 0.000000 0.000000 0.000000
# 2 -0.003183 0.009002 -0.001959 0.000000 0.000000 0.000000
# 3 -0.002814 -0.001959 0.011787 0.000000 0.000000 0.000000
# 4 0.000000 0.000000 0.000000 0.016090 0.000000 0.000000
# 5 0.000000 0.000000 0.000000 0.000000 0.020236 0.000000
# 6 0.000000 0.000000 0.000000 0.000000 0.000000 0.025155
#
#
# Mechanical properties :
#
#
# Convention : Reuss Voigt Hill
#
# Bulk Modulus (GPa) = 63.48621 65.18984 64.33802
# Shear Modulus (GPa) = 43.74177 45.71614 44.72896
#
# Velocity S-wave (km/s) = 4.37217 4.46975 4.42123
# Velocity P-wave (km/s) = 7.29605 7.42477 7.36069
#
# Compressibility (1/GPa) = 0.01575145
#
# Stress axis : x y z
#
# Youngs Moduli (GPa) = 91.96079 111.08673 84.83725
#
# Poissons Ratio (x) = 0.35364 0.23871
# Poissons Ratio (y) = 0.29275 0.16618
# Poissons Ratio (z) = 0.25876 0.21760
#
# Static dielectric constant tensor:
#      x y z
#    x 4.355400 0.000000 0.000000 
#    y 0.000000 4.330280 0.000000 
#    z 0.000000 0.000000 4.124930 
# 
# 
# High freq. dielectric constant tensor:
#      x y z
#    x 1.922760 0.000000 0.000000 
#    y 0.000000 1.926030 0.000000 
#    z 0.000000 0.000000 1.902570 
# 
# From -- ./inp_files/6940.got.cif
#   From: 2010.03.12/outbox.cif.g09.slc.cpg/sg23_4_cif.got.tgz:6940.got - 2010.04.14 02:50:06.
