data_PCOD8164266
_publ_section_title
;
Structure prediction by ZEFSAII (Michael W. Deem and Ramdas Pophale) SiO2 
 PCOD8164266
Probable space group: I 2 2 2
;
_chemical_formula_sum "Si O2"
_cell_formula_units_Z 54
_cell_length_a 29.573549
_cell_length_b 15.962951
_cell_length_c 5.067095
_cell_angle_alpha 90.000000
_cell_angle_beta 90.000000
_cell_angle_gamma 90.000000
_cell_volume 2392.079850
_symmetry_space_group_name_H-M "I 2 2 2"
_symmetry_group_IT_number 23
_symmetry_cell_setting 'orthorhombic'
loop_
_space_group_symop_operation_xyz
x,y,z
-x,-y,z
x,-y,-z
-x,y,-z
1/2+x,1/2+y,1/2+z
1/2-x,1/2-y,1/2+z
1/2+x,1/2-y,1/2-z
1/2-x,1/2+y,1/2-z
loop_
_atom_site_type_symbol
_atom_site_label
_atom_site_fract_x
_atom_site_fract_y
_atom_site_fract_z
Si Si1 0.584394 0.593327 0.079498
Si Si2 0.636614 0.350917 0.433094
Si Si3 0.130505 0.663060 0.047703
Si Si4 0.739961 0.693849 0.577780
Si Si5 0.000000 0.500000 0.500000
Si Si6 0.500000 0.708326 0.000000
Si Si7 0.461883 0.861896 0.310102
Si Si8 0.175732 0.403589 0.454451
O O1 0.615073 0.587529 0.345351
O O2 0.568759 0.500000 0.000000
O O3 0.616312 0.630289 0.852282
O O4 0.539047 0.649311 0.127965
O O5 0.621991 0.260452 0.526011
O O6 0.691065 0.350162 0.414379
O O7 0.142207 0.646355 0.351789
O O8 0.083219 0.624387 0.973281
O O9 0.168137 0.626949 0.846142
O O10 0.754658 0.735402 0.854038
O O11 0.772807 0.616286 0.524274
O O12 0.961764 0.435952 0.602285
O O13 0.526453 0.767772 0.792368
O O14 0.500000 0.893827 0.500000
O O15 0.166312 0.500000 0.500000
#
# Coordination Sequence:
#
# PCOD8164266 Si02
#       8
#     8   8   8   8   2   4   8   8
#     4  12  27  46  71 109 144 183 234 298 361 416
#     4  12  24  46  76 103 137 187 241 284 350 435
#     4  12  25  45  73  98 139 185 236 285 343 435
#     4  12  23  45  73 102 139 187 235 286 349 429
#     4  10  26  40  62  98 142 172 240 288 358 406
#     4  11  25  45  71 100 140 188 235 291 347 437
#     4  11  25  43  67  99 133 188 235 288 350 418
#     4  12  27  44  68 108 140 181 232 297 356 411
#
# _framework density 22.574496
#
# number of rings (size 3 to 8) (size 9 to 14) (size 15 to 20)
#    0.000    0.296    4.444    4.000    5.185    2.370 
#    0.000    1.481    0.000    0.000    0.000    0.000 
#    0.000    0.000    0.000    0.000    0.000    0.000 
#
# Total GULP energy -334617.188221 kJ/mol
# GULP energy per Si atom -12393.229193 kJ/mol
# Density = 2.252312 g / cm^3
# Si number density = 22.574496 Si / 1000 Ang^3
#
#
#
# Elastic Constant Matrix: (Units=GPa)
#
#
# Indices 1 2 3 4 5 6 
#
# 1 143.9499 13.2417 13.5813 0.0001 0.0002 -0.0001
# 2 13.2417 100.3780 1.5459 0.0002 0.0002 0.0001
# 3 13.5813 1.5459 79.4545 0.0041 -0.0004 -0.0010
# 4 0.0001 0.0002 0.0041 123.2799 -0.0015 0.0003
# 5 0.0002 0.0002 -0.0004 -0.0015 25.6026 0.0002
# 6 -0.0001 0.0001 -0.0010 0.0003 0.0002 22.9185
#
#
#
# Elastic Compliance Matrix: (Units=1/GPa)
#
#
# Indices 1 2 3 4 5 6 
#
# 1 0.007145 -0.000924 -0.001203 0.000000 0.000000 0.000000
# 2 -0.000924 0.010085 -0.000038 0.000000 0.000000 0.000000
# 3 -0.001203 -0.000038 0.012792 0.000000 0.000000 0.000001
# 4 0.000000 0.000000 0.000000 0.008112 0.000000 0.000000
# 5 0.000000 0.000000 0.000000 0.000000 0.039058 0.000000
# 6 0.000000 0.000000 0.000001 0.000000 0.000000 0.043633
#
#
# Mechanical properties :
#
#
# Convention : Reuss Voigt Hill
#
# Bulk Modulus (GPa) = 38.92408 42.28002 40.60205
# Shear Modulus (GPa) = 37.39141 54.05445 45.72293
#
# Velocity S-wave (km/s) = 4.07425 4.89866 4.50535
# Velocity P-wave (km/s) = 6.27795 7.12500 6.71484
#
# Compressibility (1/GPa) = 0.02569104
#
# Stress axis : x y z
#
# Youngs Moduli (GPa) = 139.95016 99.15877 78.17221
#
# Poissons Ratio (x) = 0.09163 0.09407
# Poissons Ratio (y) = 0.12932 0.00299
# Poissons Ratio (z) = 0.16842 0.00379
#
# Static dielectric constant tensor:
#      x y z
#    x 4.109130 0.000000 0.000010 
#    y 0.000000 4.047950 0.000000 
#    z 0.000010 0.000000 4.608280 
# 
# 
# High freq. dielectric constant tensor:
#      x y z
#    x 1.904120 0.000000 0.000000 
#    y 0.000000 1.893590 0.000000 
#    z 0.000000 0.000000 1.896480 
# 
# From -- ./inp_files/5398.got.cif
#   From: 2010.03.12/outbox.cif.g09.slc.cpg/sg23_3_cif.got.tgz:5398.got - 2010.04.14 02:50:06.
