data_PCOD8164147
_publ_section_title
;
Structure prediction by ZEFSAII (Michael W. Deem and Ramdas Pophale) SiO2 
 PCOD8164147
Probable space group: I 2 2 2
;
_chemical_formula_sum "Si O2"
_cell_formula_units_Z 48
_cell_length_a 14.815587
_cell_length_b 13.670926
_cell_length_c 12.072651
_cell_angle_alpha 90.000000
_cell_angle_beta 90.000000
_cell_angle_gamma 90.000000
_cell_volume 2445.228459
_symmetry_space_group_name_H-M "I 2 2 2"
_symmetry_group_IT_number 23
_symmetry_cell_setting 'orthorhombic'
loop_
_space_group_symop_operation_xyz
x,y,z
-x,-y,z
x,-y,-z
-x,y,-z
1/2+x,1/2+y,1/2+z
1/2-x,1/2-y,1/2+z
1/2+x,1/2-y,1/2-z
1/2-x,1/2+y,1/2-z
loop_
_atom_site_type_symbol
_atom_site_label
_atom_site_fract_x
_atom_site_fract_y
_atom_site_fract_z
Si Si1 0.239615 0.282559 0.888157
Si Si2 0.541018 0.895536 0.767021
Si Si3 0.673493 0.103475 0.034713
Si Si4 0.898107 0.392317 0.964341
Si Si5 0.605795 0.614828 0.010108
Si Si6 0.126134 0.275710 0.676593
O O1 0.248495 0.166403 0.907362
O O2 0.206666 0.297399 0.762949
O O3 0.167736 0.317059 0.977463
O O4 0.337379 0.333219 0.911020
O O5 0.589069 0.908040 0.883753
O O6 0.611452 0.873738 0.667527
O O7 0.468876 0.806381 0.767783
O O8 0.500000 0.000000 0.732707
O O9 0.635881 0.152540 0.925327
O O10 0.715501 0.000000 0.000000
O O11 0.865916 0.500000 0.000000
O O12 0.000000 0.371457 0.000000
O O13 0.631145 0.663566 0.129815
O O14 0.628137 0.500000 0.000000
O O15 0.500000 0.635772 0.000000
#
# Coordination Sequence:
#
# PCOD8164147 Si02
#       6
#     8   8   8   8   8   8
#     4  11  24  41  65  95 132 170 215 273 323 394
#     4  12  21  37  67  96 134 168 212 273 333 380
#     4  11  25  38  61  93 132 173 212 266 331 387
#     4  11  21  39  62 103 135 170 216 269 329 389
#     4  10  23  44  66  91 129 172 221 262 317 395
#     4  11  22  39  62  96 126 163 216 266 333 380
#
# _framework density 19.630067
#
# number of rings (size 3 to 8) (size 9 to 14) (size 15 to 20)
#    0.000    1.000    5.000    3.000    4.667    1.333 
#    0.000    0.000    0.000    0.500    0.000    0.000 
#    0.000    0.000    0.000    0.000    0.000    0.000 
#
# Total GULP energy -297520.221984 kJ/mol
# GULP energy per Si atom -12396.675916 kJ/mol
# Density = 1.958539 g / cm^3
# Si number density = 19.630067 Si / 1000 Ang^3
#
#
#
# Elastic Constant Matrix: (Units=GPa)
#
#
# Indices 1 2 3 4 5 6 
#
# 1 80.8846 32.6672 38.5447 0.0000 0.0000 0.0000
# 2 32.6672 120.4527 37.8098 0.0000 0.0000 0.0000
# 3 38.5447 37.8098 144.1727 0.0000 0.0000 0.0000
# 4 0.0000 0.0000 0.0000 29.2359 0.0000 0.0000
# 5 0.0000 0.0000 0.0000 0.0000 32.0355 0.0000
# 6 0.0000 0.0000 0.0000 0.0000 0.0000 21.3578
#
#
#
# Elastic Compliance Matrix: (Units=1/GPa)
#
#
# Indices 1 2 3 4 5 6 
#
# 1 0.015157 -0.003093 -0.003241 0.000000 0.000000 0.000000
# 2 -0.003093 0.009678 -0.001711 0.000000 0.000000 0.000000
# 3 -0.003241 -0.001711 0.008251 0.000000 0.000000 0.000000
# 4 0.000000 0.000000 0.000000 0.034205 0.000000 0.000000
# 5 0.000000 0.000000 0.000000 0.000000 0.031215 0.000000
# 6 0.000000 0.000000 0.000000 0.000000 0.000000 0.046821
#
#
# Mechanical properties :
#
#
# Convention : Reuss Voigt Hill
#
# Bulk Modulus (GPa) = 58.83871 62.61703 60.72787
# Shear Modulus (GPa) = 29.92511 32.29173 31.10842
#
# Velocity S-wave (km/s) = 3.90866 4.06028 3.98519
# Velocity P-wave (km/s) = 7.09993 7.34499 7.22350
#
# Compressibility (1/GPa) = 0.01699561
#
# Stress axis : x y z
#
# Youngs Moduli (GPa) = 65.97579 103.32675 121.19214
#
# Poissons Ratio (x) = 0.31962 0.39279
# Poissons Ratio (y) = 0.20408 0.20737
# Poissons Ratio (z) = 0.21383 0.17680
#
# Static dielectric constant tensor:
#      x y z
#    x 3.573690 0.000000 0.000000 
#    y 0.000000 3.888530 0.000000 
#    z 0.000000 0.000000 3.910700 
# 
# 
# High freq. dielectric constant tensor:
#      x y z
#    x 1.755370 0.000000 0.000000 
#    y 0.000000 1.762450 0.000000 
#    z 0.000000 0.000000 1.775640 
# 
# From -- ./inp_files/16687.got.cif
#   From: 2010.03.12/outbox.cif.g09.slc.cpg/sg23_9_cif.got.tgz:16687.got - 2010.04.14 02:50:06.
