data_PCOD8164246
_publ_section_title
;
Structure prediction by ZEFSAII (Michael W. Deem and Ramdas Pophale) SiO2 
 PCOD8164246
Probable space group: I 2 2 2
;
_chemical_formula_sum "Si O2"
_cell_formula_units_Z 58
_cell_length_a 8.879538
_cell_length_b 18.515023
_cell_length_c 16.742466
_cell_angle_alpha 90.000000
_cell_angle_beta 90.000000
_cell_angle_gamma 90.000000
_cell_volume 2752.542616
_symmetry_space_group_name_H-M "I 2 2 2"
_symmetry_group_IT_number 23
_symmetry_cell_setting 'orthorhombic'
loop_
_space_group_symop_operation_xyz
x,y,z
-x,-y,z
x,-y,-z
-x,y,-z
1/2+x,1/2+y,1/2+z
1/2-x,1/2-y,1/2+z
1/2+x,1/2-y,1/2-z
1/2-x,1/2+y,1/2-z
loop_
_atom_site_type_symbol
_atom_site_label
_atom_site_fract_x
_atom_site_fract_y
_atom_site_fract_z
Si Si1 0.838890 0.816545 0.482214
Si Si2 0.665860 0.027740 0.281239
Si Si3 0.000000 0.500000 0.500000
Si Si4 0.133760 0.398763 0.376241
Si Si5 0.672491 0.820410 0.159793
Si Si6 0.843738 0.887876 0.310251
Si Si7 0.663930 0.647930 0.149613
Si Si8 0.826755 0.821593 0.997839
O O1 0.814594 0.851504 0.396329
O O2 0.845518 0.873809 0.555486
O O3 0.698150 0.764308 0.497250
O O4 0.000000 0.773952 0.500000
O O5 0.690684 0.042809 0.187818
O O6 0.687713 0.106341 0.321247
O O7 0.500000 0.000000 0.301823
O O8 0.788686 0.970433 0.312168
O O9 0.104105 0.448358 0.450525
O O10 0.261033 0.346352 0.411881
O O11 0.996973 0.351678 0.339569
O O12 0.758700 0.846793 0.238871
O O13 0.674193 0.733738 0.162772
O O14 0.749958 0.851890 0.079194
O O15 0.023720 0.883420 0.298751
O O16 0.000000 0.842509 0.000000
#
# Coordination Sequence:
#
# PCOD8164246 Si02
#       8
#     8   8   2   8   8   8   8   8
#     4   9  21  45  71  98 134 181 227 276 350 410
#     4  12  26  43  64  99 137 182 230 275 347 411
#     4  12  20  40  74  88 124 194 220 272 332 432
#     4  12  23  44  67  94 137 183 228 271 348 424
#     4  11  23  43  71 102 133 181 231 280 350 409
#     4  11  23  42  70  97 135 179 228 287 336 411
#     4  10  25  43  68 100 135 177 233 284 343 409
#     4  11  24  40  66 105 135 172 226 291 336 403
#
# _framework density 21.071427
#
# number of rings (size 3 to 8) (size 9 to 14) (size 15 to 20)
#    0.000    1.103    3.448    2.897    5.793    2.759 
#    0.000    3.103    0.000    0.000    0.000    0.000 
#    0.000    0.000    0.000    0.000    0.000    0.000 
#
# Total GULP energy -359308.189526 kJ/mol
# GULP energy per Si atom -12389.937570 kJ/mol
# Density = 2.102347 g / cm^3
# Si number density = 21.071427 Si / 1000 Ang^3
#
#
#
# Elastic Constant Matrix: (Units=GPa)
#
#
# Indices 1 2 3 4 5 6 
#
# 1 116.1855 36.8811 49.7492 0.0000 0.0000 0.0000
# 2 36.8811 97.1038 32.6732 0.0000 0.0000 0.0000
# 3 49.7492 32.6732 125.2202 -0.0001 0.0000 0.0000
# 4 0.0000 0.0000 -0.0001 37.1216 0.0000 0.0000
# 5 0.0000 0.0000 0.0000 0.0000 38.0822 0.0000
# 6 0.0000 0.0000 0.0000 0.0000 0.0000 39.8151
#
#
#
# Elastic Compliance Matrix: (Units=1/GPa)
#
#
# Indices 1 2 3 4 5 6 
#
# 1 0.011115 -0.002999 -0.003633 0.000000 0.000000 0.000000
# 2 -0.002999 0.012099 -0.001965 0.000000 0.000000 0.000000
# 3 -0.003633 -0.001965 0.009942 0.000000 0.000000 0.000000
# 4 0.000000 0.000000 0.000000 0.026938 0.000000 0.000000
# 5 0.000000 0.000000 0.000000 0.000000 0.026259 0.000000
# 6 0.000000 0.000000 0.000000 0.000000 0.000000 0.025116
#
#
# Mechanical properties :
#
#
# Convention : Reuss Voigt Hill
#
# Bulk Modulus (GPa) = 62.65559 64.12403 63.38981
# Shear Modulus (GPa) = 37.31782 37.61752 37.46767
#
# Velocity S-wave (km/s) = 4.21291 4.22979 4.22136
# Velocity P-wave (km/s) = 7.31192 7.37243 7.34224
#
# Compressibility (1/GPa) = 0.01596027
#
# Stress axis : x y z
#
# Youngs Moduli (GPa) = 89.97170 82.65421 100.58114
#
# Poissons Ratio (x) = 0.24788 0.36544
# Poissons Ratio (y) = 0.26982 0.19768
# Poissons Ratio (z) = 0.32689 0.16245
#
# Static dielectric constant tensor:
#      x y z
#    x 3.740290 0.000000 0.000000 
#    y 0.000000 3.796950 0.000000 
#    z 0.000000 0.000000 3.829100 
# 
# 
# High freq. dielectric constant tensor:
#      x y z
#    x 1.816010 0.000000 0.000000 
#    y 0.000000 1.820880 0.000000 
#    z 0.000000 0.000000 1.843400 
# 
# From -- ./inp_files/23887.got.cif
#   From: 2010.03.12/outbox.cif.g09.slc.cpg/sg23_12_cif.got.tgz:23887.got - 2010.04.14 02:50:06.
