data_PCOD8164701
_publ_section_title
;
Structure prediction by ZEFSAII (Michael W. Deem and Ramdas Pophale) SiO2 
 PCOD8164701
Probable space group: I 21 21 21
;
_chemical_formula_sum "Si O2"
_cell_formula_units_Z 36
_cell_length_a 9.783193
_cell_length_b 18.219522
_cell_length_c 11.551957
_cell_angle_alpha 90.000000
_cell_angle_beta 90.000000
_cell_angle_gamma 90.000000
_cell_volume 2059.079732
_symmetry_space_group_name_H-M "I 21 21 21"
_symmetry_group_IT_number 24
_symmetry_cell_setting 'orthorhombic'
loop_
_space_group_symop_operation_xyz
x,y,z
-x,1/2-y,z
x,-y,1/2-z
1/2-x,y,-z
1/2+x,1/2+y,1/2+z
1/2-x,-y,1/2+z
1/2+x,1/2-y,-z
-x,1/2+y,1/2-z
loop_
_atom_site_type_symbol
_atom_site_label
_atom_site_fract_x
_atom_site_fract_y
_atom_site_fract_z
Si Si1 0.250000 0.921598 0.500000
Si Si2 0.602301 0.460013 0.362654
Si Si3 0.246895 0.838508 0.271822
Si Si4 0.899002 0.852561 0.972207
Si Si5 0.000000 0.250000 0.333846
Si Si6 0.000000 0.250000 0.715035
O O1 0.196849 0.871592 0.393914
O O2 0.363325 0.975683 0.451077
O O3 0.541802 0.500000 0.250000
O O4 0.725789 0.403331 0.324652
O O5 0.485662 0.420827 0.432892
O O6 0.129481 0.780058 0.239058
O O7 0.396363 0.799573 0.290843
O O8 0.896351 0.794172 0.868008
O O9 0.750000 0.882246 0.000000
O O10 0.958104 0.818742 0.089100
#
# Coordination Sequence:
#
# PCOD8164701 Si02
#       6
#     4   8   8   8   4   4
#     4  10  20  36  54  72 104 148 174 204 252 318
#     4   9  19  35  54  76 102 140 181 206 251 313
#     4  10  20  34  56  78 106 133 175 218 257 306
#     4  10  18  31  55  79 106 134 167 221 262 299
#     4  11  20  31  52  88 106 125 174 223 260 300
#     4   9  18  33  52  80 106 133 166 213 268 312
#
# _framework density 17.483540000000001
#
# number of rings (size 3 to 8) (size 9 to 14) (size 15 to 20)
#    0.000    2.222    2.222    1.333    0.000    0.889 
#    0.000    2.222    0.000    0.000    0.000    0.000 
#    0.000    0.000    0.000    0.000    0.000    0.000 
#
# Total GULP energy -222997.648445 kJ/mol
# GULP energy per Si atom -12388.758247 kJ/mol
# Density = 1.744375 g / cm^3
# Si number density = 17.483540 Si / 1000 Ang^3
#
#
#
# Elastic Constant Matrix: (Units=GPa)
#
#
# Indices 1 2 3 4 5 6 
#
# 1 106.5402 55.0975 63.6552 0.0000 0.0000 -0.0001
# 2 55.0975 104.7247 61.1371 -0.0008 0.0001 0.0006
# 3 63.6552 61.1371 105.2772 -0.0012 0.0000 0.0013
# 4 0.0000 -0.0008 -0.0012 -4.7160 0.0008 0.0022
# 5 0.0000 0.0001 0.0000 0.0008 13.0890 -0.0004
# 6 -0.0001 0.0006 0.0013 0.0022 -0.0004 54.9700
#
#
#
# Elastic Compliance Matrix: (Units=1/GPa)
#
#
# Indices 1 2 3 4 5 6 
#
# 1 0.015797 -0.004138 -0.007149 0.000003 0.000000 0.000000
# 2 -0.004138 0.015530 -0.006517 -0.000001 0.000000 0.000000
# 3 -0.007149 -0.006517 0.017606 -0.000003 0.000000 0.000000
# 4 0.000003 -0.000001 -0.000003 -0.212043 0.000013 0.000008
# 5 0.000000 0.000000 0.000000 0.000013 0.076400 0.000001
# 6 0.000000 0.000000 0.000000 0.000008 0.000001 0.018192
#
#
# Mechanical properties :
#
#
# Convention : Reuss Voigt Hill
#
# Bulk Modulus (GPa) = 75.03989 75.14686 75.09337
# Shear Modulus (GPa) = -175.63175 21.77876 -76.92649
#
# Velocity S-wave (km/s) = -10.03362 3.53324 -6.64040
# Velocity P-wave (km/s) = 9.55081 7.72786 3.96851
#
# Compressibility (1/GPa) = 0.01332625
#
# Stress axis : x y z
#
# Youngs Moduli (GPa) = 63.30230 64.39005 56.79979
#
# Poissons Ratio (x) = 0.26644 0.40605
# Poissons Ratio (y) = 0.26194 0.37016
# Poissons Ratio (z) = 0.45253 0.41963
#
# Static dielectric constant tensor:
#      x y z
#    x 3.311680 0.000000 0.000020 
#    y 0.000000 3.465830 0.000000 
#    z 0.000020 0.000000 1.422040 
# 
# 
# High freq. dielectric constant tensor:
#      x y z
#    x 1.655780 0.000000 0.000000 
#    y 0.000000 1.683360 0.000000 
#    z 0.000000 0.000000 1.668290 
# 
# From -- ./inp_files/10958.got.cif
#   From: 2010.03.12/outbox.cif.g09.slc.cpg/sg24_6_cif.got.tgz:10958.got - 2010.04.14 03:06:53.
