data_PCOD8164225
_publ_section_title
;
Structure prediction by ZEFSAII (Michael W. Deem and Ramdas Pophale) SiO2 
 PCOD8164225
Probable space group: I 2 2 2
;
_chemical_formula_sum "Si O2"
_cell_formula_units_Z 56
_cell_length_a 11.393445
_cell_length_b 11.410405
_cell_length_c 21.012935
_cell_angle_alpha 90.000000
_cell_angle_beta 90.000000
_cell_angle_gamma 90.000000
_cell_volume 2731.761857
_symmetry_space_group_name_H-M "I 2 2 2"
_symmetry_group_IT_number 23
_symmetry_cell_setting 'orthorhombic'
loop_
_space_group_symop_operation_xyz
x,y,z
-x,-y,z
x,-y,-z
-x,y,-z
1/2+x,1/2+y,1/2+z
1/2-x,1/2-y,1/2+z
1/2+x,1/2-y,1/2-z
1/2-x,1/2+y,1/2-z
loop_
_atom_site_type_symbol
_atom_site_label
_atom_site_fract_x
_atom_site_fract_y
_atom_site_fract_z
Si Si1 0.652117 0.609991 0.150162
Si Si2 0.874726 0.231014 0.475708
Si Si3 0.373071 0.956523 0.891324
Si Si4 0.390158 0.352504 0.811354
Si Si5 0.500423 0.361855 0.425440
Si Si6 0.691720 0.309632 0.325075
Si Si7 0.746072 0.195561 0.095835
O O1 0.669764 0.636660 0.075528
O O2 0.525403 0.659938 0.170373
O O3 0.665306 0.473516 0.163801
O O4 0.754684 0.680151 0.187060
O O5 0.887827 0.361499 0.447098
O O6 0.783719 0.227282 0.533911
O O7 0.000000 0.187488 0.500000
O O8 0.301136 0.898782 0.833133
O O9 0.500000 0.000000 0.866796
O O10 0.299562 0.065108 0.918402
O O11 0.384419 0.348407 0.735100
O O12 0.315952 0.247219 0.841548
O O13 0.500000 0.500000 0.415071
O O14 0.500000 0.329361 0.500000
O O15 0.613543 0.309325 0.389508
O O16 0.385309 0.305908 0.393069
#
# Coordination Sequence:
#
# PCOD8164225 Si02
#       7
#     8   8   8   8   8   8   8
#     4  10  24  46  64  94 129 169 223 260 329 391
#     4  11  20  38  64  99 133 164 210 283 327 379
#     4  11  21  36  63 100 129 163 211 276 333 379
#     4  11  26  42  68  96 127 176 218 267 323 403
#     4  11  24  41  65  96 131 174 218 269 333 398
#     4  11  25  43  67  92 133 174 210 279 324 394
#     4  12  23  38  64  98 132 170 220 267 337 392
#
# _framework density 20.499590999999999
#
# number of rings (size 3 to 8) (size 9 to 14) (size 15 to 20)
#    0.000    1.000    4.286    3.000    8.000    0.571 
#    0.000    0.714    0.000    0.857    0.000    0.000 
#    0.000    0.000    0.000    0.000    0.000    0.000 
#
# Total GULP energy -347288.605974 kJ/mol
# GULP energy per Si atom -12403.164499 kJ/mol
# Density = 2.045293 g / cm^3
# Si number density = 20.499591 Si / 1000 Ang^3
#
#
#
# Elastic Constant Matrix: (Units=GPa)
#
#
# Indices 1 2 3 4 5 6 
#
# 1 104.0834 21.4912 20.5879 0.0000 0.0000 0.0000
# 2 21.4912 71.9561 22.6158 0.0000 0.0000 0.0000
# 3 20.5879 22.6158 106.5779 0.0000 0.0000 0.0000
# 4 0.0000 0.0000 0.0000 15.1766 0.0000 0.0000
# 5 0.0000 0.0000 0.0000 0.0000 26.7181 0.0000
# 6 0.0000 0.0000 0.0000 0.0000 0.0000 25.8682
#
#
#
# Elastic Compliance Matrix: (Units=1/GPa)
#
#
# Indices 1 2 3 4 5 6 
#
# 1 0.010445 -0.002663 -0.001453 0.000000 0.000000 0.000000
# 2 -0.002663 0.015569 -0.002789 0.000000 0.000000 0.000000
# 3 -0.001453 -0.002789 0.010255 0.000000 0.000000 0.000000
# 4 0.000000 0.000000 0.000000 0.065891 0.000000 0.000000
# 5 0.000000 0.000000 0.000000 0.000000 0.037428 0.000000
# 6 0.000000 0.000000 0.000000 0.000000 0.000000 0.038658
#
#
# Mechanical properties :
#
#
# Convention : Reuss Voigt Hill
#
# Bulk Modulus (GPa) = 44.52437 45.77858 45.15148
# Shear Modulus (GPa) = 25.05731 28.08073 26.56902
#
# Velocity S-wave (km/s) = 3.49998 3.70512 3.60401
# Velocity P-wave (km/s) = 6.17251 6.37839 6.27630
#
# Compressibility (1/GPa) = 0.02245961
#
# Stress axis : x y z
#
# Youngs Moduli (GPa) = 95.74080 64.22835 97.51042
#
# Poissons Ratio (x) = 0.17104 0.14164
# Poissons Ratio (y) = 0.25496 0.27200
# Poissons Ratio (z) = 0.13907 0.17916
#
# Static dielectric constant tensor:
#      x y z
#    x 3.825130 0.000000 0.000000 
#    y 0.000000 3.653620 0.000000 
#    z 0.000000 0.000000 3.621820 
# 
# 
# High freq. dielectric constant tensor:
#      x y z
#    x 1.806300 0.000000 0.000000 
#    y 0.000000 1.787530 0.000000 
#    z 0.000000 0.000000 1.796630 
# 
# From -- ./inp_files/15910.got.cif
#   From: 2010.03.12/outbox.cif.g09.slc.cpg/sg23_8_cif.got.tgz:15910.got - 2010.04.14 02:50:06.
