data_PCOD8164604
_publ_section_title
;
Structure prediction by ZEFSAII (Michael W. Deem and Ramdas Pophale) SiO2 
 PCOD8164604
Probable space group: I 21 21 21
;
_chemical_formula_sum "Si O2"
_cell_formula_units_Z 64
_cell_length_a 16.278599
_cell_length_b 8.994551
_cell_length_c 20.820187
_cell_angle_alpha 90.000000
_cell_angle_beta 90.000000
_cell_angle_gamma 90.000000
_cell_volume 3048.464483
_symmetry_space_group_name_H-M "I 21 21 21"
_symmetry_group_IT_number 24
_symmetry_cell_setting 'orthorhombic'
loop_
_space_group_symop_operation_xyz
x,y,z
-x,1/2-y,z
x,-y,1/2-z
1/2-x,y,-z
1/2+x,1/2+y,1/2+z
1/2-x,-y,1/2+z
1/2+x,1/2-y,-z
-x,1/2+y,1/2-z
loop_
_atom_site_type_symbol
_atom_site_label
_atom_site_fract_x
_atom_site_fract_y
_atom_site_fract_z
Si Si1 0.347806 0.867598 0.994621
Si Si2 0.832434 0.828691 0.125213
Si Si3 0.637520 0.827571 0.112326
Si Si4 0.869522 0.153909 0.885679
Si Si5 0.821093 0.325121 0.247161
Si Si6 0.412622 0.811319 0.510672
Si Si7 0.175194 0.338787 0.122186
Si Si8 0.651114 0.171951 0.249978
O O1 0.384869 0.795984 0.059883
O O2 0.250000 0.902459 0.000000
O O3 0.367497 0.755647 0.936848
O O4 0.401434 0.013165 0.981521
O O5 0.734816 0.830769 0.121231
O O6 0.863344 0.748234 0.190105
O O7 0.864770 0.997561 0.125605
O O8 0.600539 0.794892 0.183858
O O9 0.605197 0.989495 0.089146
O O10 0.772590 0.158446 0.874772
O O11 0.905601 0.190598 0.814101
O O12 0.900898 0.274901 0.935573
O O13 0.836220 0.500000 0.250000
O O14 0.860452 0.258272 0.181635
O O15 0.724778 0.289674 0.247585
O O16 0.500000 0.750000 0.534683
O O17 0.344558 0.732627 0.553691
O O18 0.684944 0.000000 0.250000
#
# Coordination Sequence:
#
# PCOD8164604 Si02
#       8
#     8   8   8   8   8   8   8   8
#     4  10  19  33  55  82 109 135 172 220 263 308
#     4   9  17  31  54  84 109 132 171 218 259 307
#     4   8  15  29  53  84 109 131 169 217 257 303
#     4   9  17  33  56  77 101 139 176 210 260 318
#     4  10  17  26  48  84 116 134 160 210 264 309
#     4  12  25  37  49  72 107 140 175 222 269 314
#     4  10  19  35  57  76 101 141 181 213 258 317
#     4   8  15  28  49  79 111 138 169 210 256 308
#
# _framework density 20.994174999999998
#
# number of rings (size 3 to 8) (size 9 to 14) (size 15 to 20)
#    0.000    2.500    0.000    5.250    0.000    7.000 
#    0.000    2.500    0.000    9.000    0.000    0.000 
#    0.000    0.000    0.000    0.000    0.000    0.000 
#
# Total GULP energy -396575.130229 kJ/mol
# GULP energy per Si atom -12392.972820 kJ/mol
# Density = 2.094639 g / cm^3
# Si number density = 20.994175 Si / 1000 Ang^3
#
#
#
# Elastic Constant Matrix: (Units=GPa)
#
#
# Indices 1 2 3 4 5 6 
#
# 1 16.5342 17.0183 8.6090 0.0000 0.0000 0.0000
# 2 17.0183 162.8340 64.5915 0.0000 0.0000 0.0000
# 3 8.6090 64.5915 139.1220 0.0000 0.0000 0.0000
# 4 0.0000 0.0000 0.0000 37.3868 0.0000 0.0000
# 5 0.0000 0.0000 0.0000 0.0000 1.3313 0.0000
# 6 0.0000 0.0000 0.0000 0.0000 0.0000 7.9259
#
#
#
# Elastic Compliance Matrix: (Units=1/GPa)
#
#
# Indices 1 2 3 4 5 6 
#
# 1 0.067911 -0.006657 -0.001112 0.000000 0.000000 0.000000
# 2 -0.006657 0.008180 -0.003386 0.000000 0.000000 0.000000
# 3 -0.001112 -0.003386 0.008829 0.000000 0.000000 0.000000
# 4 0.000000 0.000000 0.000000 0.026747 0.000000 0.000000
# 5 0.000000 0.000000 0.000000 0.000000 0.751165 0.000000
# 6 0.000000 0.000000 0.000000 0.000000 0.000000 0.126169
#
#
# Mechanical properties :
#
#
# Convention : Reuss Voigt Hill
#
# Bulk Modulus (GPa) = 15.97157 55.43641 35.70399
# Shear Modulus (GPa) = 4.84412 24.54687 14.69549
#
# Velocity S-wave (km/s) = 1.52065 3.42310 2.64858
# Velocity P-wave (km/s) = 3.27220 6.48740 5.13779
#
# Compressibility (1/GPa) = 0.06261126
#
# Stress axis : x y z
#
# Youngs Moduli (GPa) = 14.72511 122.24924 113.26633
#
# Poissons Ratio (x) = 0.81376 0.12594
# Poissons Ratio (y) = 0.09802 0.38351
# Poissons Ratio (z) = 0.01637 0.41392
#
# Static dielectric constant tensor:
#      x y z
#    x 3.037260 0.000000 0.000000 
#    y 0.000000 3.829450 0.000000 
#    z 0.000000 0.000000 4.452910 
# 
# 
# High freq. dielectric constant tensor:
#      x y z
#    x 1.743360 0.000000 0.000000 
#    y 0.000000 1.826050 0.000000 
#    z 0.000000 0.000000 1.851620 
# 
# From -- ./inp_files/33997.got.cif
#   From: 2010.03.12/outbox.cif.g09.slc.cpg/sg24_17_cif.got.tgz:33997.got - 2010.04.14 03:06:53.
