data_PCOD8164714
_publ_section_title
;
Structure prediction by ZEFSAII (Michael W. Deem and Ramdas Pophale) SiO2 
 PCOD8164714
Probable space group: I 21 21 21
;
_chemical_formula_sum "Si O2"
_cell_formula_units_Z 64
_cell_length_a 17.804718
_cell_length_b 16.078717
_cell_length_c 13.622919
_cell_angle_alpha 90.000000
_cell_angle_beta 90.000000
_cell_angle_gamma 90.000000
_cell_volume 3899.928682
_symmetry_space_group_name_H-M "I 21 21 21"
_symmetry_group_IT_number 24
_symmetry_cell_setting 'orthorhombic'
loop_
_space_group_symop_operation_xyz
x,y,z
-x,1/2-y,z
x,-y,1/2-z
1/2-x,y,-z
1/2+x,1/2+y,1/2+z
1/2-x,-y,1/2+z
1/2+x,1/2-y,-z
-x,1/2+y,1/2-z
loop_
_atom_site_type_symbol
_atom_site_label
_atom_site_fract_x
_atom_site_fract_y
_atom_site_fract_z
Si Si1 0.564142 0.618309 0.624753
Si Si2 0.687633 0.187214 0.930779
Si Si3 0.903555 0.912835 0.293020
Si Si4 0.216425 0.030186 0.104196
Si Si5 0.715665 0.681617 0.307908
Si Si6 0.582788 0.256033 0.698551
Si Si7 0.276893 0.165891 0.606987
Si Si8 0.422590 0.215995 0.063446
O O1 0.487180 0.578386 0.662979
O O2 0.628904 0.548849 0.625094
O O3 0.583108 0.697988 0.694574
O O4 0.555747 0.641451 0.510191
O O5 0.659163 0.107773 0.872690
O O6 0.724047 0.263342 0.868424
O O7 0.750000 0.148174 0.000000
O O8 0.617887 0.217813 0.994534
O O9 0.894362 0.839603 0.213370
O O10 0.878792 0.000000 0.250000
O O11 0.262691 0.084317 0.182834
O O12 0.228023 0.932960 0.115789
O O13 0.250000 0.061299 0.000000
O O14 0.723129 0.704345 0.192198
O O15 0.630591 0.692164 0.345198
O O16 0.500000 0.250000 0.651503
O O17 0.637937 0.302581 0.623323
O O18 0.250000 0.196451 0.500000
O O19 0.500000 0.250000 0.109651
#
# Coordination Sequence:
#
# PCOD8164714 Si02
#       8
#     8   8   8   8   8   8   8   8
#     4  11  18  30  51  81 118 133 160 209 273 334
#     4  10  18  32  53  76 106 134 168 219 270 313
#     4  11  21  31  51  80 107 137 174 216 268 318
#     4  11  19  30  50  84 111 137 163 207 270 321
#     4  11  19  32  52  77 107 139 174 218 263 311
#     4  10  20  35  50  74 107 142 169 213 268 317
#     4  11  23  35  52  74 108 147 185 215 254 317
#     4  11  17  30  53  79 109 141 164 206 267 329
#
# _framework density 16.410556
#
# number of rings (size 3 to 8) (size 9 to 14) (size 15 to 20)
#    0.000    1.250    7.500    1.125    3.500    0.000 
#    0.000    1.250    0.000    0.000    0.000    7.000 
#    0.000    0.000    0.000    0.000    0.000    0.000 
#
# Total GULP energy -396563.136000 kJ/mol
# GULP energy per Si atom -12392.598000 kJ/mol
# Density = 1.637321 g / cm^3
# Si number density = 16.410556 Si / 1000 Ang^3
#
#
#
# Elastic Constant Matrix: (Units=GPa)
#
#
# Indices 1 2 3 4 5 6 
#
# 1 113.3528 30.2978 53.3067 0.0000 0.0000 0.0000
# 2 30.2978 71.0975 29.1705 0.0000 0.0000 0.0000
# 3 53.3067 29.1705 97.8628 0.0000 0.0000 0.0000
# 4 0.0000 0.0000 0.0000 21.4339 0.0000 0.0000
# 5 0.0000 0.0000 0.0000 0.0000 27.2272 0.0000
# 6 0.0000 0.0000 0.0000 0.0000 0.0000 20.9952
#
#
#
# Elastic Compliance Matrix: (Units=1/GPa)
#
#
# Indices 1 2 3 4 5 6 
#
# 1 0.012347 -0.002851 -0.005876 0.000000 0.000000 0.000000
# 2 -0.002851 0.016683 -0.003420 0.000000 0.000000 0.000000
# 3 -0.005876 -0.003420 0.014438 0.000000 0.000000 0.000000
# 4 0.000000 0.000000 0.000000 0.046655 0.000000 0.000000
# 5 0.000000 0.000000 0.000000 0.000000 0.036728 0.000000
# 6 0.000000 0.000000 0.000000 0.000000 0.000000 0.047630
#
#
# Mechanical properties :
#
#
# Convention : Reuss Voigt Hill
#
# Bulk Modulus (GPa) = 52.14992 56.42922 54.28957
# Shear Modulus (GPa) = 24.37035 25.23379 24.80207
#
# Velocity S-wave (km/s) = 3.85780 3.92555 3.89182
# Velocity P-wave (km/s) = 7.18963 7.41668 7.30404
#
# Compressibility (1/GPa) = 0.01917548
#
# Stress axis : x y z
#
# Youngs Moduli (GPa) = 80.98934 59.94026 69.25957
#
# Poissons Ratio (x) = 0.17089 0.40696
# Poissons Ratio (y) = 0.23089 0.23686
# Poissons Ratio (z) = 0.47588 0.20499
#
# Static dielectric constant tensor:
#      x y z
#    x 3.263060 0.000000 0.000000 
#    y 0.000000 2.851660 0.000000 
#    z 0.000000 0.000000 3.223280 
# 
# 
# High freq. dielectric constant tensor:
#      x y z
#    x 1.635960 0.000000 0.000000 
#    y 0.000000 1.610000 0.000000 
#    z 0.000000 0.000000 1.611870 
# 
# From -- ./inp_files/27278.got.cif
#   From: 2010.03.12/outbox.cif.g09.slc.cpg/sg24_14_cif.got.tgz:27278.got - 2010.04.14 03:06:53.
