data_PCOD8164103
_publ_section_title
;
Structure prediction by ZEFSAII (Michael W. Deem and Ramdas Pophale) SiO2 
 PCOD8164103
Probable space group: I 2 2 2
;
_chemical_formula_sum "Si O2"
_cell_formula_units_Z 56
_cell_length_a 16.012633
_cell_length_b 12.505217
_cell_length_c 14.437072
_cell_angle_alpha 90.000000
_cell_angle_beta 90.000000
_cell_angle_gamma 90.000000
_cell_volume 2890.900237
_symmetry_space_group_name_H-M "I 2 2 2"
_symmetry_group_IT_number 23
_symmetry_cell_setting 'orthorhombic'
loop_
_space_group_symop_operation_xyz
x,y,z
-x,-y,z
x,-y,-z
-x,y,-z
1/2+x,1/2+y,1/2+z
1/2-x,1/2-y,1/2+z
1/2+x,1/2-y,1/2-z
1/2-x,1/2+y,1/2-z
loop_
_atom_site_type_symbol
_atom_site_label
_atom_site_fract_x
_atom_site_fract_y
_atom_site_fract_z
Si Si1 0.191010 0.385735 0.974391
Si Si2 0.123029 0.258861 0.675938
Si Si3 0.406419 0.045706 0.313618
Si Si4 0.983549 0.118281 0.607327
Si Si5 0.099359 0.377959 0.495985
Si Si6 0.705110 0.843091 0.677677
Si Si7 0.174336 0.773206 0.644456
O O1 0.104777 0.417798 0.921174
O O2 0.239233 0.309955 0.901915
O O3 0.236859 0.500000 0.000000
O O4 0.176260 0.322062 0.070934
O O5 0.113424 0.351070 0.751923
O O6 0.035242 0.197957 0.672186
O O7 0.143950 0.315370 0.578893
O O8 0.194055 0.167094 0.689687
O O9 0.500000 0.000000 0.296530
O O10 0.334985 0.956463 0.290447
O O11 0.000000 0.143146 0.500000
O O12 0.886214 0.128649 0.626387
O O13 0.000000 0.000000 0.638121
O O14 0.125515 0.500000 0.500000
O O15 0.136399 0.333821 0.400739
O O16 0.000000 0.362746 0.500000
O O17 0.676007 0.747910 0.745540
#
# Coordination Sequence:
#
# PCOD8164103 Si02
#       7
#     8   8   8   8   8   8   8
#     4  10  23  40  62  90 124 163 215 269 314 385
#     4  12  21  40  59  95 128 162 210 266 331 394
#     4  11  25  43  67  91 127 175 228 272 322 398
#     4  11  23  35  61  91 124 161 198 253 326 402
#     4  11  22  35  59  91 128 165 202 258 335 405
#     4  11  24  38  64  90 121 166 215 269 328 376
#     4  12  20  40  58  90 125 161 204 261 327 387
#
# _framework density 19.371127999999999
#
# number of rings (size 3 to 8) (size 9 to 14) (size 15 to 20)
#    0.000    0.857    5.714    1.714    8.000    2.571 
#    0.000    0.000    0.000    0.000    0.000    1.000 
#    0.000    0.000    0.000    0.000    0.000    0.000 
#
# Total GULP energy -346902.010036 kJ/mol
# GULP energy per Si atom -12389.357501 kJ/mol
# Density = 1.932704 g / cm^3
# Si number density = 19.371128 Si / 1000 Ang^3
#
#
#
# Elastic Constant Matrix: (Units=GPa)
#
#
# Indices 1 2 3 4 5 6 
#
# 1 77.6008 38.3037 28.2031 0.0000 0.0000 0.0000
# 2 38.3037 111.7885 45.1890 0.0000 0.0000 0.0000
# 3 28.2031 45.1890 127.5760 0.0000 0.0000 0.0000
# 4 0.0000 0.0000 0.0000 19.5092 0.0000 0.0000
# 5 0.0000 0.0000 0.0000 0.0000 27.1601 0.0000
# 6 0.0000 0.0000 0.0000 0.0000 0.0000 -28.3261
#
#
#
# Elastic Compliance Matrix: (Units=1/GPa)
#
#
# Indices 1 2 3 4 5 6 
#
# 1 0.015874 -0.004692 -0.001847 0.000000 0.000000 0.000000
# 2 -0.004692 0.011827 -0.003152 0.000000 0.000000 0.000000
# 3 -0.001847 -0.003152 0.009363 0.000000 0.000000 0.000000
# 4 0.000000 0.000000 0.000000 0.051258 0.000000 0.000000
# 5 0.000000 0.000000 0.000000 0.000000 0.036819 0.000000
# 6 0.000000 0.000000 0.000000 0.000000 0.000000 -0.035303
#
#
# Mechanical properties :
#
#
# Convention : Reuss Voigt Hill
#
# Bulk Modulus (GPa) = 56.55644 60.03967 58.29806
# Shear Modulus (GPa) = 43.43466 17.35327 30.39396
#
# Velocity S-wave (km/s) = 4.74036 2.99629 3.96540
# Velocity P-wave (km/s) = 7.69552 6.55988 7.15028
#
# Compressibility (1/GPa) = 0.01768145
#
# Stress axis : x y z
#
# Youngs Moduli (GPa) = 62.99625 84.54876 106.79982
#
# Poissons Ratio (x) = 0.39674 0.19727
# Poissons Ratio (y) = 0.29561 0.33664
# Poissons Ratio (z) = 0.11636 0.26651
#
# Static dielectric constant tensor:
#      x y z
#    x 3.600000 0.000000 0.000000 
#    y 0.000000 3.949980 0.000000 
#    z 0.000000 0.000000 3.725610 
# 
# 
# High freq. dielectric constant tensor:
#      x y z
#    x 1.741750 0.000000 0.000000 
#    y 0.000000 1.755380 0.000000 
#    z 0.000000 0.000000 1.756990 
# 
# From -- ./inp_files/21602.got.cif
#   From: 2010.03.12/outbox.cif.g09.slc.cpg/sg23_11_cif.got.tgz:21602.got - 2010.04.14 02:50:06.
