data_PCOD8164173
_publ_section_title
;
Structure prediction by ZEFSAII (Michael W. Deem and Ramdas Pophale) SiO2 
 PCOD8164173
Probable space group: I 2 2 2
;
_chemical_formula_sum "Si O2"
_cell_formula_units_Z 64
_cell_length_a 5.165936
_cell_length_b 17.286023
_cell_length_c 30.039616
_cell_angle_alpha 90.000000
_cell_angle_beta 90.000000
_cell_angle_gamma 90.000000
_cell_volume 2682.492304
_symmetry_space_group_name_H-M "I 2 2 2"
_symmetry_group_IT_number 23
_symmetry_cell_setting 'orthorhombic'
loop_
_space_group_symop_operation_xyz
x,y,z
-x,-y,z
x,-y,-z
-x,y,-z
1/2+x,1/2+y,1/2+z
1/2-x,1/2-y,1/2+z
1/2+x,1/2-y,1/2-z
1/2-x,1/2+y,1/2-z
loop_
_atom_site_type_symbol
_atom_site_label
_atom_site_fract_x
_atom_site_fract_y
_atom_site_fract_z
Si Si1 0.080482 0.160803 0.347088
Si Si2 0.749891 0.303409 0.247708
Si Si3 0.877369 0.083348 0.822730
Si Si4 0.425753 0.916945 0.379347
Si Si5 0.428983 0.081267 0.085606
Si Si6 0.297508 0.691825 0.623398
Si Si7 0.239011 0.120845 0.527954
Si Si8 0.851942 0.783151 0.045764
O O1 0.186164 0.151067 0.297489
O O2 0.300370 0.127740 0.380309
O O3 0.065690 0.252433 0.359435
O O4 0.796213 0.123607 0.349485
O O5 0.521705 0.241589 0.257728
O O6 0.780985 0.374405 0.283150
O O7 0.706138 0.068229 0.866576
O O8 0.085926 0.150057 0.833494
O O9 0.000000 0.000000 0.808199
O O10 0.299854 0.928907 0.428202
O O11 0.500000 0.000000 0.359044
O O12 0.697777 0.124317 0.091804
O O13 0.272808 0.132756 0.050757
O O14 0.500000 0.000000 0.063091
O O15 0.494603 0.737951 0.591272
O O16 0.500000 0.121737 0.500000
O O17 0.159307 0.208999 0.542336
O O18 0.000000 0.084673 0.500000
O O19 0.000000 0.788224 0.000000
#
# Coordination Sequence:
#
# PCOD8164173 Si02
#       8
#     8   8   8   8   8   8   8   8
#     4  12  25  46  74 106 144 200 243 300 377 450
#     4  12  26  46  74 110 146 191 250 310 367 447
#     4  11  24  43  68 105 141 186 248 314 368 435
#     4  12  27  48  72 107 150 191 239 300 381 459
#     4  11  23  41  69  95 138 194 243 300 374 432
#     4  11  22  43  70  98 140 191 245 300 358 446
#     4  11  24  44  74 106 136 184 248 306 363 436
#     4  10  24  39  67 101 141 181 249 307 361 440
#
# _framework density 23.858409000000002
#
# number of rings (size 3 to 8) (size 9 to 14) (size 15 to 20)
#    0.000    0.750    3.750    3.375    7.000    1.250 
#    0.000    3.125    0.000    0.000    0.000    0.000 
#    0.000    0.000    0.000    0.000    0.000    0.000 
#
# Total GULP energy -396558.984013 kJ/mol
# GULP energy per Si atom -12392.468250 kJ/mol
# Density = 2.380411 g / cm^3
# Si number density = 23.858409 Si / 1000 Ang^3
#
#
#
# Elastic Constant Matrix: (Units=GPa)
#
#
# Indices 1 2 3 4 5 6 
#
# 1 84.2971 19.1532 -12.1800 0.0000 0.0000 0.0000
# 2 19.1532 100.4327 6.6150 0.0000 0.0000 0.0000
# 3 -12.1800 6.6150 58.8419 0.0000 0.0000 0.0000
# 4 0.0000 0.0000 0.0000 29.5815 0.0000 0.0000
# 5 0.0000 0.0000 0.0000 0.0000 30.7826 0.0000
# 6 0.0000 0.0000 0.0000 0.0000 0.0000 32.5303
#
#
#
# Elastic Compliance Matrix: (Units=1/GPa)
#
#
# Indices 1 2 3 4 5 6 
#
# 1 0.012895 -0.002655 0.002968 0.000000 0.000000 0.000000
# 2 -0.002655 0.010578 -0.001739 0.000000 0.000000 0.000000
# 3 0.002968 -0.001739 0.017804 0.000000 0.000000 0.000000
# 4 0.000000 0.000000 0.000000 0.033805 0.000000 0.000000
# 5 0.000000 0.000000 0.000000 0.000000 0.032486 0.000000
# 6 0.000000 0.000000 0.000000 0.000000 0.000000 0.030741
#
#
# Mechanical properties :
#
#
# Convention : Reuss Voigt Hill
#
# Bulk Modulus (GPa) = 26.02434 30.08313 28.05373
# Shear Modulus (GPa) = 32.47428 33.91111 33.19269
#
# Velocity S-wave (km/s) = 3.69335 3.77417 3.73398
# Velocity P-wave (km/s) = 5.39622 5.62395 5.51127
#
# Compressibility (1/GPa) = 0.03842557
#
# Stress axis : x y z
#
# Youngs Moduli (GPa) = 77.55100 94.53865 56.16583
#
# Poissons Ratio (x) = 0.25096 -0.16668
# Poissons Ratio (y) = 0.20587 0.09765
# Poissons Ratio (z) = -0.23014 0.16437
#
# Static dielectric constant tensor:
#      x y z
#    x 4.231550 0.000000 0.000000 
#    y 0.000000 4.610600 0.000000 
#    z 0.000000 0.000000 4.306720 
# 
# 
# High freq. dielectric constant tensor:
#      x y z
#    x 1.942310 0.000000 0.000000 
#    y 0.000000 1.952370 0.000000 
#    z 0.000000 0.000000 1.941000 
# 
# From -- ./inp_files/30035.got.cif
#   From: 2010.03.12/outbox.cif.g09.slc.cpg/sg23_16_cif.got.tgz:30035.got - 2010.04.14 02:50:06.
