data_PCOD8164948
_publ_section_title
;
Structure prediction by ZEFSAII (Michael W. Deem and Ramdas Pophale) SiO2 
 PCOD8164948
Probable space group: I 21 21 21
;
_chemical_formula_sum "Si O2"
_cell_formula_units_Z 44
_cell_length_a 5.081073
_cell_length_b 27.505439
_cell_length_c 14.714294
_cell_angle_alpha 90.000000
_cell_angle_beta 90.000000
_cell_angle_gamma 90.000000
_cell_volume 2056.427697
_symmetry_space_group_name_H-M "I 21 21 21"
_symmetry_group_IT_number 24
_symmetry_cell_setting 'orthorhombic'
loop_
_space_group_symop_operation_xyz
x,y,z
-x,1/2-y,z
x,-y,1/2-z
1/2-x,y,-z
1/2+x,1/2+y,1/2+z
1/2-x,-y,1/2+z
1/2+x,1/2-y,-z
-x,1/2+y,1/2-z
loop_
_atom_site_type_symbol
_atom_site_label
_atom_site_fract_x
_atom_site_fract_y
_atom_site_fract_z
Si Si1 0.243661 0.400634 0.332157
Si Si2 0.775090 0.822549 0.323182
Si Si3 0.013445 0.322690 0.555340
Si Si4 0.000000 0.750000 0.788436
Si Si5 0.266969 0.867707 0.397333
Si Si6 0.252637 0.055697 0.263547
O O1 0.216777 0.359488 0.258448
O O2 0.346235 0.374209 0.422877
O O3 0.455018 0.441286 0.303599
O O4 0.955282 0.424699 0.339195
O O5 0.733100 0.768880 0.278342
O O6 0.536289 0.838248 0.387880
O O7 0.044449 0.826671 0.379088
O O8 0.750000 0.332747 0.500000
O O9 0.250000 0.293712 0.500000
O O10 0.914212 0.294366 0.645680
O O11 0.250000 0.887867 0.500000
O O12 0.234193 0.914031 0.330687
O O13 0.179650 0.000000 0.250000
#
# Coordination Sequence:
#
# PCOD8164948 Si02
#       6
#     8   8   8   4   8   8
#     4   9  19  35  53  78 113 148 184 225 280 341
#     4   9  20  35  57  79 107 146 182 224 278 332
#     4  11  22  36  56  83 116 154 191 236 285 334
#     4  10  22  38  58  84 112 148 200 238 272 338
#     4  10  20  37  57  81 110 144 182 229 284 334
#     4  10  19  35  59  83 108 147 192 232 277 341
#
# _framework density 21.396329000000001
#
# number of rings (size 3 to 8) (size 9 to 14) (size 15 to 20)
#    0.000    2.182    0.000    2.727    0.000    6.545 
#    0.000    4.545    0.000    2.182    0.000    0.000 
#    0.000    0.000    0.000    0.000    0.000    0.000 
#
# Total GULP energy -272584.601694 kJ/mol
# GULP energy per Si atom -12390.209168 kJ/mol
# Density = 2.134763 g / cm^3
# Si number density = 21.396329 Si / 1000 Ang^3
#
#
#
# Elastic Constant Matrix: (Units=GPa)
#
#
# Indices 1 2 3 4 5 6 
#
# 1 79.2722 2.2517 12.7570 0.0000 0.0000 0.0000
# 2 2.2517 54.1615 18.8358 0.0000 0.0000 0.0000
# 3 12.7570 18.8358 80.0363 0.0001 0.0001 0.0000
# 4 0.0000 0.0000 0.0001 11.3230 0.0000 0.0000
# 5 0.0000 0.0000 0.0001 0.0000 -27.4202 -0.0001
# 6 0.0000 0.0000 0.0000 0.0000 -0.0001 -3.9638
#
#
#
# Elastic Compliance Matrix: (Units=1/GPa)
#
#
# Indices 1 2 3 4 5 6 
#
# 1 0.012949 0.000195 -0.002110 0.000000 0.000000 0.000000
# 2 0.000195 0.020112 -0.004764 0.000000 0.000000 0.000000
# 3 -0.002110 -0.004764 0.013952 0.000000 0.000000 0.000000
# 4 0.000000 0.000000 0.000000 0.088316 0.000000 0.000000
# 5 0.000000 0.000000 0.000000 0.000000 -0.036469 0.000000
# 6 0.000000 0.000000 0.000000 0.000000 0.000000 -0.252286
#
#
# Mechanical properties :
#
#
# Convention : Reuss Voigt Hill
#
# Bulk Modulus (GPa) = 29.71319 31.23990 30.47655
# Shear Modulus (GPa) = -38.80459 7.96284 -15.42088
#
# Velocity S-wave (km/s) = -4.26327 1.93124 -2.68755
# Velocity P-wave (km/s) = 3.21197 4.42777 2.15504
#
# Compressibility (1/GPa) = 0.03365509
#
# Stress axis : x y z
#
# Youngs Moduli (GPa) = 77.22756 49.72134 71.67493
#
# Poissons Ratio (x) = -0.00972 0.15123
# Poissons Ratio (y) = -0.01509 0.34148
# Poissons Ratio (z) = 0.16294 0.23689
#
# Static dielectric constant tensor:
#      x y z
#    x 5.081970 0.000000 0.000000 
#    y 0.000000 3.839240 0.000000 
#    z 0.000000 0.000000 3.979290 
# 
# 
# High freq. dielectric constant tensor:
#      x y z
#    x 1.855550 0.000000 0.000000 
#    y 0.000000 1.814730 0.000000 
#    z 0.000000 0.000000 1.826940 
# 
# From -- ./inp_files/7057.got.cif
#   From: 2010.03.12/outbox.cif.g09.slc.cpg/sg24_4_cif.got.tgz:7057.got - 2010.04.14 03:06:53.
