data_PCOD8164038
_publ_section_title
;
Structure prediction by ZEFSAII (Michael W. Deem and Ramdas Pophale) SiO2 
 PCOD8164038
Probable space group: I 2 2 2
;
_chemical_formula_sum "Si O2"
_cell_formula_units_Z 34
_cell_length_a 30.365391
_cell_length_b 5.477600
_cell_length_c 8.524419
_cell_angle_alpha 90.000000
_cell_angle_beta 90.000000
_cell_angle_gamma 90.000000
_cell_volume 1417.862058
_symmetry_space_group_name_H-M "I 2 2 2"
_symmetry_group_IT_number 23
_symmetry_cell_setting 'orthorhombic'
loop_
_space_group_symop_operation_xyz
x,y,z
-x,-y,z
x,-y,-z
-x,y,-z
1/2+x,1/2+y,1/2+z
1/2-x,1/2-y,1/2+z
1/2+x,1/2-y,1/2-z
1/2-x,1/2+y,1/2-z
loop_
_atom_site_type_symbol
_atom_site_label
_atom_site_fract_x
_atom_site_fract_y
_atom_site_fract_z
Si Si1 0.232655 0.039401 0.677144
Si Si2 0.098332 0.500000 0.500000
Si Si3 0.643108 0.332438 0.240366
Si Si4 0.134458 0.500000 0.000000
Si Si5 0.428157 0.710894 0.716710
Si Si6 0.000000 0.000000 0.000000
O O1 0.253203 0.809797 0.770627
O O2 0.179566 0.031630 0.694051
O O3 0.247655 0.000000 0.500000
O O4 0.133801 0.657847 0.595204
O O5 0.066166 0.670537 0.391312
O O6 0.662201 0.197874 0.399527
O O7 0.595843 0.450421 0.278897
O O8 0.103533 0.396258 0.867162
O O9 0.472735 0.675138 0.617674
#
# Coordination Sequence:
#
# PCOD8164038 Si02
#       6
#     8   4   8   4   8   2
#     4  12  30  49  76 114 158 204 260 327 391 464
#     4  10  24  44  77 103 140 198 247 300 392 449
#     4  11  24  47  74 107 147 196 251 307 384 464
#     4  10  22  41  76 104 132 196 240 298 376 453
#     4  11  23  45  72 105 143 190 245 312 370 456
#     4  12  24  46  74 106 154 186 262 310 380 450
#
# _framework density 23.979765
#
# number of rings (size 3 to 8) (size 9 to 14) (size 15 to 20)
#    0.000    0.941    2.353    2.824   11.529    2.353 
#    0.000    3.529    0.000    0.000    0.000    0.000 
#    0.000    0.000    0.000    0.000    0.000    0.000 
#
# Total GULP energy -210685.649499 kJ/mol
# GULP energy per Si atom -12393.273500 kJ/mol
# Density = 2.392519 g / cm^3
# Si number density = 23.979765 Si / 1000 Ang^3
#
#
#
# Elastic Constant Matrix: (Units=GPa)
#
#
# Indices 1 2 3 4 5 6 
#
# 1 78.1609 6.7695 17.1984 0.0000 0.0000 0.0000
# 2 6.7695 76.3789 19.3835 0.0000 0.0000 0.0000
# 3 17.1984 19.3835 136.1884 0.0000 0.0000 0.0000
# 4 0.0000 0.0000 0.0000 53.7137 0.0000 0.0000
# 5 0.0000 0.0000 0.0000 0.0000 31.5442 0.0000
# 6 0.0000 0.0000 0.0000 0.0000 0.0000 23.5007
#
#
#
# Elastic Compliance Matrix: (Units=1/GPa)
#
#
# Indices 1 2 3 4 5 6 
#
# 1 0.013204 -0.000775 -0.001557 0.000000 0.000000 0.000000
# 2 -0.000775 0.013629 -0.001842 0.000000 0.000000 0.000000
# 3 -0.001557 -0.001842 0.007802 0.000000 0.000000 0.000000
# 4 0.000000 0.000000 0.000000 0.018617 0.000000 0.000000
# 5 0.000000 0.000000 0.000000 0.000000 0.031702 0.000000
# 6 0.000000 0.000000 0.000000 0.000000 0.000000 0.042552
#
#
# Mechanical properties :
#
#
# Convention : Reuss Voigt Hill
#
# Bulk Modulus (GPa) = 38.04305 41.93676 39.98990
# Shear Modulus (GPa) = 34.57453 38.24349 36.40901
#
# Velocity S-wave (km/s) = 3.80125 3.99786 3.90079
# Velocity P-wave (km/s) = 5.93002 6.23192 6.08284
#
# Compressibility (1/GPa) = 0.02628601
#
# Stress axis : x y z
#
# Youngs Moduli (GPa) = 75.73529 73.37429 128.17946
#
# Poissons Ratio (x) = 0.05687 0.19959
# Poissons Ratio (y) = 0.05870 0.23609
# Poissons Ratio (z) = 0.11793 0.13515
#
# Static dielectric constant tensor:
#      x y z
#    x 4.005330 0.000000 0.000000 
#    y 0.000000 4.489130 0.000000 
#    z 0.000000 0.000000 4.702150 
# 
# 
# High freq. dielectric constant tensor:
#      x y z
#    x 1.922560 0.000000 0.000000 
#    y 0.000000 1.962690 0.000000 
#    z 0.000000 0.000000 1.979270 
# 
# From -- ./inp_files/5798.got.cif
#   From: 2010.03.12/outbox.cif.g09.slc.cpg/sg23_3_cif.got.tgz:5798.got - 2010.04.14 02:50:06.
