data_PCOD8164087
_publ_section_title
;
Structure prediction by ZEFSAII (Michael W. Deem and Ramdas Pophale) SiO2 
 PCOD8164087
Probable space group: I 2 2 2
;
_chemical_formula_sum "Si O2"
_cell_formula_units_Z 44
_cell_length_a 17.816148
_cell_length_b 5.062321
_cell_length_c 27.669882
_cell_angle_alpha 90.000000
_cell_angle_beta 90.000000
_cell_angle_gamma 90.000000
_cell_volume 2495.575992
_symmetry_space_group_name_H-M "I 2 2 2"
_symmetry_group_IT_number 23
_symmetry_cell_setting 'orthorhombic'
loop_
_space_group_symop_operation_xyz
x,y,z
-x,-y,z
x,-y,-z
-x,y,-z
1/2+x,1/2+y,1/2+z
1/2-x,1/2-y,1/2+z
1/2+x,1/2-y,1/2-z
1/2-x,1/2+y,1/2-z
loop_
_atom_site_type_symbol
_atom_site_label
_atom_site_fract_x
_atom_site_fract_y
_atom_site_fract_z
Si Si1 0.282364 0.695153 0.223926
Si Si2 0.455667 0.252883 0.757791
Si Si3 0.000000 0.000000 0.927863
Si Si4 0.683835 0.734862 0.362622
Si Si5 0.910828 0.734514 0.152198
Si Si6 0.148123 0.765305 0.030808
O O1 0.265060 0.407285 0.245434
O O2 0.370053 0.756762 0.224984
O O3 0.258872 0.703267 0.167445
O O4 0.500000 0.500000 0.780240
O O5 0.460063 0.271480 0.699849
O O6 0.500000 0.000000 0.777345
O O7 0.938109 0.849071 0.959429
O O8 0.037972 0.775278 0.894767
O O9 0.658269 0.439524 0.349043
O O10 0.696475 0.767809 0.420159
O O11 0.618824 0.936349 0.346843
O O12 0.149020 0.500000 0.000000
O O13 0.186535 0.000000 0.000000
#
# Coordination Sequence:
#
# PCOD8164087 Si02
#       6
#     8   8   4   8   8   8
#     4  12  22  38  59  80 109 147 190 226 275 338
#     4  12  23  35  53  82 117 142 182 230 277 326
#     4  10  23  32  52  74 106 146 184 222 273 306
#     4  11  22  38  54  76  99 142 189 227 264 317
#     4  11  21  33  52  76 105 144 185 223 255 316
#     4  11  24  38  51  72 104 140 186 231 269 307
#
# _framework density 17.631198999999999
#
# number of rings (size 3 to 8) (size 9 to 14) (size 15 to 20)
#    0.000    0.727    4.545    4.636    2.545    5.818 
#    0.000    0.000    0.000    0.000    0.000    0.000 
#    0.000    4.364    0.000    0.000    0.000    0.000 
#
# Total GULP energy -272827.675682 kJ/mol
# GULP energy per Si atom -12401.257986 kJ/mol
# Density = 1.759107 g / cm^3
# Si number density = 17.631199 Si / 1000 Ang^3
#
#
#
# Elastic Constant Matrix: (Units=GPa)
#
#
# Indices 1 2 3 4 5 6 
#
# 1 87.5884 30.0325 35.2588 0.0000 0.0000 0.0000
# 2 30.0325 99.4495 33.4451 0.0000 0.0000 0.0000
# 3 35.2588 33.4451 98.6226 0.0000 0.0000 0.0000
# 4 0.0000 0.0000 0.0000 18.4905 0.0000 0.0000
# 5 0.0000 0.0000 0.0000 0.0000 22.0453 0.0000
# 6 0.0000 0.0000 0.0000 0.0000 0.0000 24.3138
#
#
#
# Elastic Compliance Matrix: (Units=1/GPa)
#
#
# Indices 1 2 3 4 5 6 
#
# 1 0.014030 -0.002878 -0.004040 0.000000 0.000000 0.000000
# 2 -0.002878 0.011940 -0.003020 0.000000 0.000000 0.000000
# 3 -0.004040 -0.003020 0.012608 0.000000 0.000000 0.000000
# 4 0.000000 0.000000 0.000000 0.054082 0.000000 0.000000
# 5 0.000000 0.000000 0.000000 0.000000 0.045361 0.000000
# 6 0.000000 0.000000 0.000000 0.000000 0.000000 0.041129
#
#
# Mechanical properties :
#
#
# Convention : Reuss Voigt Hill
#
# Bulk Modulus (GPa) = 53.47046 53.68148 53.57597
# Shear Modulus (GPa) = 24.35922 25.43154 24.89538
#
# Velocity S-wave (km/s) = 3.72102 3.80204 3.76174
# Velocity P-wave (km/s) = 6.98959 7.05599 7.02286
#
# Compressibility (1/GPa) = 0.01870192
#
# Stress axis : x y z
#
# Youngs Moduli (GPa) = 71.27472 83.75023 79.31358
#
# Poissons Ratio (x) = 0.24106 0.32042
# Poissons Ratio (y) = 0.20515 0.23954
# Poissons Ratio (z) = 0.28794 0.25294
#
# Static dielectric constant tensor:
#      x y z
#    x 3.130650 0.000000 0.000000 
#    y 0.000000 3.584860 0.000000 
#    z 0.000000 0.000000 3.431130 
# 
# 
# High freq. dielectric constant tensor:
#      x y z
#    x 1.637010 0.000000 0.000000 
#    y 0.000000 1.711840 0.000000 
#    z 0.000000 0.000000 1.667870 
# 
# From -- ./inp_files/30523.got.cif
#   From: 2010.03.12/outbox.cif.g09.slc.cpg/sg23_16_cif.got.tgz:30523.got - 2010.04.14 02:50:06.
