data_PCOD8164623
_publ_section_title
;
Structure prediction by ZEFSAII (Michael W. Deem and Ramdas Pophale) SiO2 
 PCOD8164623
Probable space group: I 21 21 21
;
_chemical_formula_sum "Si O2"
_cell_formula_units_Z 56
_cell_length_a 14.208686
_cell_length_b 15.827289
_cell_length_c 13.920504
_cell_angle_alpha 90.000000
_cell_angle_beta 90.000000
_cell_angle_gamma 90.000000
_cell_volume 3130.512259
_symmetry_space_group_name_H-M "I 21 21 21"
_symmetry_group_IT_number 24
_symmetry_cell_setting 'orthorhombic'
loop_
_space_group_symop_operation_xyz
x,y,z
-x,1/2-y,z
x,-y,1/2-z
1/2-x,y,-z
1/2+x,1/2+y,1/2+z
1/2-x,-y,1/2+z
1/2+x,1/2-y,-z
-x,1/2+y,1/2-z
loop_
_atom_site_type_symbol
_atom_site_label
_atom_site_fract_x
_atom_site_fract_y
_atom_site_fract_z
Si Si1 0.527451 0.064066 0.479526
Si Si2 0.020430 0.621810 0.578055
Si Si3 0.898485 0.909459 0.772872
Si Si4 0.844330 0.660676 0.955463
Si Si5 0.337308 0.772974 0.429688
Si Si6 0.225536 0.251804 0.724518
Si Si7 0.905164 0.792004 0.105249
O O1 0.565632 0.100633 0.380241
O O2 0.417712 0.086578 0.474765
O O3 0.578151 0.109906 0.571426
O O4 0.539454 0.962875 0.484758
O O5 0.018935 0.604553 0.693310
O O6 0.108231 0.683916 0.557345
O O7 0.917762 0.656934 0.550543
O O8 0.817685 0.842886 0.761843
O O9 0.852281 0.000000 0.750000
O O10 0.829462 0.687445 0.845205
O O11 0.750000 0.622467 0.000000
O O12 0.873380 0.746962 0.007767
O O13 0.250000 0.780483 0.500000
O O14 0.285125 0.790264 0.328441
O O15 0.330690 0.274783 0.689572
O O16 0.000000 0.750000 0.145515
#
# Coordination Sequence:
#
# PCOD8164623 Si02
#       7
#     8   8   8   8   8   8   8
#     4  10  17  30  51  80 112 136 162 215 269 321
#     4   9  20  36  54  77 104 133 184 230 264 309
#     4   9  17  29  49  79 103 130 168 215 261 303
#     4   9  17  28  49  79 109 139 168 199 259 329
#     4  10  21  39  56  74  96 141 192 226 268 306
#     4  10  18  33  52  76 104 141 174 220 262 317
#     4   9  18  31  49  80 112 142 169 200 270 343
#
# _framework density 17.888445999999998
#
# number of rings (size 3 to 8) (size 9 to 14) (size 15 to 20)
#    0.000    2.571    1.429    0.857    0.000    1.714 
#   10.286    0.000    0.000    0.000    0.000    0.000 
#    0.000    0.000    0.000    0.000    0.000    0.000 
#
# Total GULP energy -346884.779377 kJ/mol
# GULP energy per Si atom -12388.742121 kJ/mol
# Density = 1.784773 g / cm^3
# Si number density = 17.888446 Si / 1000 Ang^3
#
#
#
# Elastic Constant Matrix: (Units=GPa)
#
#
# Indices 1 2 3 4 5 6 
#
# 1 97.2012 20.3995 40.1396 0.0000 0.0000 0.0000
# 2 20.3995 71.3659 15.2845 0.0000 0.0000 0.0000
# 3 40.1396 15.2845 66.6512 0.0000 0.0000 0.0000
# 4 0.0000 0.0000 0.0000 15.6754 0.0000 0.0000
# 5 0.0000 0.0000 0.0000 0.0000 29.2573 0.0000
# 6 0.0000 0.0000 0.0000 0.0000 0.0000 12.7271
#
#
#
# Elastic Compliance Matrix: (Units=1/GPa)
#
#
# Indices 1 2 3 4 5 6 
#
# 1 0.014049 -0.002318 -0.007929 0.000000 0.000000 0.000000
# 2 -0.002318 0.015118 -0.002071 0.000000 0.000000 0.000000
# 3 -0.007929 -0.002071 0.020254 0.000000 0.000000 0.000000
# 4 0.000000 0.000000 0.000000 0.063794 0.000000 0.000000
# 5 0.000000 0.000000 0.000000 0.000000 0.034179 0.000000
# 6 0.000000 0.000000 0.000000 0.000000 0.000000 0.078573
#
#
# Mechanical properties :
#
#
# Convention : Reuss Voigt Hill
#
# Bulk Modulus (GPa) = 40.34723 42.98504 41.66614
# Shear Modulus (GPa) = 19.31514 22.15828 20.73671
#
# Velocity S-wave (km/s) = 3.28953 3.52332 3.40843
# Velocity P-wave (km/s) = 6.08538 6.37443 6.23158
#
# Compressibility (1/GPa) = 0.02478485
#
# Stress axis : x y z
#
# Youngs Moduli (GPa) = 71.18108 66.14483 49.37381
#
# Poissons Ratio (x) = 0.15329 0.39149
# Poissons Ratio (y) = 0.16496 0.10227
# Poissons Ratio (z) = 0.56440 0.13700
#
# Static dielectric constant tensor:
#      x y z
#    x 3.001390 0.000000 0.000000 
#    y 0.000000 3.262360 0.000000 
#    z 0.000000 0.000000 3.115690 
# 
# 
# High freq. dielectric constant tensor:
#      x y z
#    x 1.691780 0.000000 0.000000 
#    y 0.000000 1.684480 0.000000 
#    z 0.000000 0.000000 1.673690 
# 
# From -- ./inp_files/25838.got.cif
#   From: 2010.03.12/outbox.cif.g09.slc.cpg/sg24_13_cif.got.tgz:25838.got - 2010.04.14 03:06:53.
