data_PCOD8164516
_publ_section_title
;
Structure prediction by ZEFSAII (Michael W. Deem and Ramdas Pophale) SiO2 
 PCOD8164516
Probable space group: I 2 2 2
;
_chemical_formula_sum "Si O2"
_cell_formula_units_Z 34
_cell_length_a 32.123639
_cell_length_b 9.868902
_cell_length_c 5.311442
_cell_angle_alpha 90.000000
_cell_angle_beta 90.000000
_cell_angle_gamma 90.000000
_cell_volume 1683.860140
_symmetry_space_group_name_H-M "I 2 2 2"
_symmetry_group_IT_number 23
_symmetry_cell_setting 'orthorhombic'
loop_
_space_group_symop_operation_xyz
x,y,z
-x,-y,z
x,-y,-z
-x,y,-z
1/2+x,1/2+y,1/2+z
1/2-x,1/2-y,1/2+z
1/2+x,1/2-y,1/2-z
1/2-x,1/2+y,1/2-z
loop_
_atom_site_type_symbol
_atom_site_label
_atom_site_fract_x
_atom_site_fract_y
_atom_site_fract_z
Si Si1 0.455666 0.856709 0.893544
Si Si2 0.500000 0.000000 0.500000
Si Si3 0.738646 0.500000 0.500000
Si Si4 0.707572 0.000000 0.500000
Si Si5 0.669024 0.284410 0.468332
Si Si6 0.881152 0.153401 0.463719
O O1 0.467061 0.893914 0.611704
O O2 0.422056 0.741566 0.926622
O O3 0.500000 0.808363 0.000000
O O4 0.439409 0.000000 0.000000
O O5 0.765665 0.475503 0.749109
O O6 0.711714 0.366927 0.443368
O O7 0.677916 0.871147 0.467292
O O8 0.644912 0.344977 0.706650
O O9 0.644342 0.294513 0.205478
O O10 0.895792 0.000000 0.500000
#
# Coordination Sequence:
#
# PCOD8164516 Si02
#       6
#     8   2   4   4   8   8
#     4   9  22  40  69  97 131 170 221 267 325 380
#     4   8  18  42  64 104 124 168 218 286 314 376
#     4  12  22  48  66  96 135 172 213 280 330 402
#     4  12  26  41  74  98 123 176 229 268 332 392
#     4  12  26  44  66 101 134 170 221 273 332 389
#     4  12  25  44  66  95 139 179 211 273 328 386
#
# _framework density 20.191699
#
# number of rings (size 3 to 8) (size 9 to 14) (size 15 to 20)
#    0.000    1.176    2.353    4.235    9.882    0.471 
#    0.000    0.000    0.000    0.000    0.000    0.000 
#    0.000    0.000    0.000    0.000    0.000    0.000 
#
# Total GULP energy -210616.983505 kJ/mol
# GULP energy per Si atom -12389.234324 kJ/mol
# Density = 2.014574 g / cm^3
# Si number density = 20.191699 Si / 1000 Ang^3
#
#
#
# Elastic Constant Matrix: (Units=GPa)
#
#
# Indices 1 2 3 4 5 6 
#
# 1 95.8168 55.7812 46.3589 -0.0026 -0.0051 0.0039
# 2 55.7812 136.4780 19.1493 -0.0098 -0.0246 0.0188
# 3 46.3589 19.1493 143.7794 -0.0102 -0.0224 0.0283
# 4 -0.0026 -0.0098 -0.0102 42.0822 -0.0088 0.0152
# 5 -0.0051 -0.0246 -0.0224 -0.0088 55.8929 0.0391
# 6 0.0039 0.0188 0.0283 0.0152 0.0391 41.4332
#
#
#
# Elastic Compliance Matrix: (Units=1/GPa)
#
#
# Indices 1 2 3 4 5 6 
#
# 1 0.016001 -0.005927 -0.004370 -0.000001 -0.000003 0.000004
# 2 -0.005927 0.009662 0.000624 0.000002 0.000004 -0.000004
# 3 -0.004370 0.000624 0.008281 0.000002 0.000003 -0.000006
# 4 -0.000001 0.000002 0.000002 0.023763 0.000004 -0.000009
# 5 -0.000003 0.000004 0.000003 0.000004 0.017891 -0.000017
# 6 0.000004 -0.000004 -0.000006 -0.000009 -0.000017 0.024135
#
#
# Mechanical properties :
#
#
# Convention : Reuss Voigt Hill
#
# Bulk Modulus (GPa) = 68.49783 68.73923 68.61853
# Shear Modulus (GPa) = 40.34026 44.86732 42.60379
#
# Velocity S-wave (km/s) = 4.47460 4.71899 4.59842
# Velocity P-wave (km/s) = 7.79060 7.98806 7.88995
#
# Compressibility (1/GPa) = 0.01459900
#
# Stress axis : x y z
#
# Youngs Moduli (GPa) = 62.49486 103.49769 120.75874
#
# Poissons Ratio (x) = 0.61342 0.52771
# Poissons Ratio (y) = 0.37040 -0.07537
# Poissons Ratio (z) = 0.27310 -0.06460
#
# Static dielectric constant tensor:
#      x y z
#    x 3.412030 -0.000010 0.000010 
#    y -0.000010 3.567330 0.000050 
#    z 0.000010 0.000050 4.001870 
# 
# 
# High freq. dielectric constant tensor:
#      x y z
#    x 1.785010 0.000000 0.000000 
#    y 0.000000 1.797930 0.000000 
#    z 0.000000 0.000000 1.812550 
# 
# From -- ./inp_files/855.got.cif
#   From: 2010.03.12/outbox.cif.g09.slc.cpg/sg23_1_cif.got.tgz:855.got - 2010.04.14 02:50:06.
