data_PCOD8164358
_publ_section_title
;
Structure prediction by ZEFSAII (Michael W. Deem and Ramdas Pophale) SiO2 
 PCOD8164358
Probable space group: I 2 2 2
;
_chemical_formula_sum "Si O2"
_cell_formula_units_Z 52
_cell_length_a 6.469176
_cell_length_b 22.630402
_cell_length_c 19.222521
_cell_angle_alpha 90.000000
_cell_angle_beta 90.000000
_cell_angle_gamma 90.000000
_cell_volume 2814.178103
_symmetry_space_group_name_H-M "I 2 2 2"
_symmetry_group_IT_number 23
_symmetry_cell_setting 'orthorhombic'
loop_
_space_group_symop_operation_xyz
x,y,z
-x,-y,z
x,-y,-z
-x,y,-z
1/2+x,1/2+y,1/2+z
1/2-x,1/2-y,1/2+z
1/2+x,1/2-y,1/2-z
1/2-x,1/2+y,1/2-z
loop_
_atom_site_type_symbol
_atom_site_label
_atom_site_fract_x
_atom_site_fract_y
_atom_site_fract_z
Si Si1 0.377228 0.556301 0.609032
Si Si2 0.000000 0.500000 0.669772
Si Si3 0.236994 0.323860 0.805559
Si Si4 0.523616 0.733352 0.923386
Si Si5 0.628020 0.250004 0.327031
Si Si6 0.625820 0.445268 0.253565
Si Si7 0.125866 0.817269 0.065381
O O1 0.500000 0.500000 0.576574
O O2 0.135528 0.542231 0.620297
O O3 0.481135 0.573822 0.682462
O O4 0.386954 0.612002 0.558534
O O5 0.150197 0.463180 0.718930
O O6 0.326381 0.308807 0.880738
O O7 0.308519 0.278676 0.745809
O O8 0.320477 0.390080 0.795059
O O9 0.987852 0.313088 0.811530
O O10 0.314589 0.740557 0.880158
O O11 0.635433 0.796753 0.936232
O O12 0.500000 0.704330 0.000000
O O13 0.469607 0.295418 0.362208
O O14 0.500000 0.500000 0.215769
O O15 0.000000 0.790280 0.000000
#
# Coordination Sequence:
#
# PCOD8164358 Si02
#       7
#     8   4   8   8   8   8   8
#     4   9  19  33  53  78 114 150 200 246 288 339
#     4   8  18  32  52  79 110 147 186 250 300 342
#     4  11  22  35  62  88 117 153 199 251 291 364
#     4  11  24  40  56  86 124 156 191 243 315 364
#     4  11  22  36  54  90 117 149 201 245 299 350
#     4   9  19  35  55  84 118 149 194 246 301 348
#     4  11  22  36  58  75 115 164 198 245 294 358
#
# _framework density 18.477862999999999
#
# number of rings (size 3 to 8) (size 9 to 14) (size 15 to 20)
#    0.000    2.154    4.615    0.000    2.154    2.769 
#    0.000    0.000    0.000    0.462    0.000    0.000 
#    0.000    0.000    0.000    0.000    0.000    0.000 
#
# Total GULP energy -322127.809077 kJ/mol
# GULP energy per Si atom -12389.531118 kJ/mol
# Density = 1.843581 g / cm^3
# Si number density = 18.477863 Si / 1000 Ang^3
#
#
#
# Elastic Constant Matrix: (Units=GPa)
#
#
# Indices 1 2 3 4 5 6 
#
# 1 131.0447 42.3761 34.6939 0.0000 0.0000 0.0000
# 2 42.3761 96.0916 25.3919 0.0000 0.0000 0.0000
# 3 34.6939 25.3919 95.3997 0.0000 0.0000 0.0000
# 4 0.0000 0.0000 0.0000 26.7871 0.0000 0.0000
# 5 0.0000 0.0000 0.0000 0.0000 31.8235 0.0000
# 6 0.0000 0.0000 0.0000 0.0000 0.0000 21.3261
#
#
#
# Elastic Compliance Matrix: (Units=1/GPa)
#
#
# Indices 1 2 3 4 5 6 
#
# 1 0.009422 -0.003496 -0.002496 0.000000 0.000000 0.000000
# 2 -0.003496 0.012491 -0.002053 0.000000 0.000000 0.000000
# 3 -0.002496 -0.002053 0.011937 0.000000 0.000000 0.000000
# 4 0.000000 0.000000 0.000000 0.037331 0.000000 0.000000
# 5 0.000000 0.000000 0.000000 0.000000 0.031423 0.000000
# 6 0.000000 0.000000 0.000000 0.000000 0.000000 0.046891
#
#
# Mechanical properties :
#
#
# Convention : Reuss Voigt Hill
#
# Bulk Modulus (GPa) = 56.30831 58.60664 57.45748
# Shear Modulus (GPa) = 29.15361 30.65894 29.90627
#
# Velocity S-wave (km/s) = 3.97641 4.07778 4.02741
# Velocity P-wave (km/s) = 7.18484 7.34555 7.26564
#
# Compressibility (1/GPa) = 0.01775937
#
# Stress axis : x y z
#
# Youngs Moduli (GPa) = 106.13227 80.05851 83.77646
#
# Poissons Ratio (x) = 0.27985 0.20912
# Poissons Ratio (y) = 0.37099 0.17203
# Poissons Ratio (z) = 0.26492 0.16439
#
# Static dielectric constant tensor:
#      x y z
#    x 3.510020 0.000000 0.000000 
#    y 0.000000 3.241220 0.000000 
#    z 0.000000 0.000000 3.286510 
# 
# 
# High freq. dielectric constant tensor:
#      x y z
#    x 1.735740 0.000000 0.000000 
#    y 0.000000 1.692600 0.000000 
#    z 0.000000 0.000000 1.701060 
# 
# From -- ./inp_files/25786.got.cif
#   From: 2010.03.12/outbox.cif.g09.slc.cpg/sg23_13_cif.got.tgz:25786.got - 2010.04.14 02:50:06.
