data_PCOD8164338
_publ_section_title
;
Structure prediction by ZEFSAII (Michael W. Deem and Ramdas Pophale) SiO2 
 PCOD8164338
Probable space group: I 2 2 2
;
_chemical_formula_sum "Si O2"
_cell_formula_units_Z 48
_cell_length_a 9.860011
_cell_length_b 13.148709
_cell_length_c 17.501483
_cell_angle_alpha 90.000000
_cell_angle_beta 90.000000
_cell_angle_gamma 90.000000
_cell_volume 2269.004535
_symmetry_space_group_name_H-M "I 2 2 2"
_symmetry_group_IT_number 23
_symmetry_cell_setting 'orthorhombic'
loop_
_space_group_symop_operation_xyz
x,y,z
-x,-y,z
x,-y,-z
-x,y,-z
1/2+x,1/2+y,1/2+z
1/2-x,1/2-y,1/2+z
1/2+x,1/2-y,1/2-z
1/2-x,1/2+y,1/2-z
loop_
_atom_site_type_symbol
_atom_site_label
_atom_site_fract_x
_atom_site_fract_y
_atom_site_fract_z
Si Si1 0.879457 0.074260 0.288828
Si Si2 0.848576 0.033075 0.079752
Si Si3 0.610954 0.075296 0.856573
Si Si4 0.489981 0.274403 0.090281
Si Si5 0.376896 0.937835 0.684707
Si Si6 0.216050 0.777288 0.151342
O O1 0.824874 0.159831 0.228840
O O2 0.934390 0.127810 0.365498
O O3 0.757409 0.004507 0.317361
O O4 0.000000 0.000000 0.255534
O O5 0.842106 0.154793 0.082720
O O6 0.758095 0.979300 0.144777
O O7 0.000000 0.000000 0.090295
O O8 0.784066 0.000000 0.000000
O O9 0.615546 0.180718 0.902822
O O10 0.574718 0.095329 0.768862
O O11 0.500000 0.000000 0.894251
O O12 0.623921 0.236193 0.136113
O O13 0.500000 0.301231 0.000000
O O14 0.354128 0.831493 0.642093
O O15 0.500000 0.000000 0.645025
#
# Coordination Sequence:
#
# PCOD8164338 Si02
#       6
#     8   8   8   8   8   8
#     4  12  25  43  71 105 139 190 243 298 348 432
#     4  11  24  39  62  97 137 172 217 289 363 422
#     4  11  21  39  65  98 132 175 229 284 343 413
#     4  12  26  44  71 106 146 191 237 296 365 440
#     4  11  24  42  68 102 138 177 240 301 346 424
#     4  12  23  43  70 100 138 185 242 293 364 421
#
# _framework density 21.154651999999999
#
# number of rings (size 3 to 8) (size 9 to 14) (size 15 to 20)
#    0.000    0.500    6.667    2.500    0.000    1.667 
#    0.000    0.000    0.000    1.000    0.000    0.000 
#    0.000    0.000    0.000    0.000    0.000    0.000 
#
# Total GULP energy -297460.943558 kJ/mol
# GULP energy per Si atom -12394.205982 kJ/mol
# Density = 2.110650 g / cm^3
# Si number density = 21.154652 Si / 1000 Ang^3
#
#
#
# Elastic Constant Matrix: (Units=GPa)
#
#
# Indices 1 2 3 4 5 6 
#
# 1 131.9390 64.0620 19.2085 0.0000 0.0000 0.0000
# 2 64.0620 173.7366 48.6871 -0.0001 0.0000 0.0000
# 3 19.2085 48.6871 99.6116 -0.0001 0.0000 0.0000
# 4 0.0000 -0.0001 -0.0001 144.7980 0.0000 0.0000
# 5 0.0000 0.0000 0.0000 0.0000 138.7989 0.0000
# 6 0.0000 0.0000 0.0000 0.0000 0.0000 38.5871
#
#
#
# Elastic Compliance Matrix: (Units=1/GPa)
#
#
# Indices 1 2 3 4 5 6 
#
# 1 0.009234 -0.003367 -0.000135 0.000000 0.000000 0.000000
# 2 -0.003367 0.007897 -0.003211 0.000000 0.000000 0.000000
# 3 -0.000135 -0.003211 0.011634 0.000000 0.000000 0.000000
# 4 0.000000 0.000000 0.000000 0.006906 0.000000 0.000000
# 5 0.000000 0.000000 0.000000 0.000000 0.007205 0.000000
# 6 0.000000 0.000000 0.000000 0.000000 0.000000 0.025915
#
#
# Mechanical properties :
#
#
# Convention : Reuss Voigt Hill
#
# Bulk Modulus (GPa) = 65.18854 74.35584 69.77219
# Shear Modulus (GPa) = 57.25444 82.65877 69.95660
#
# Velocity S-wave (km/s) = 5.20802 6.25767 5.75682
# Velocity P-wave (km/s) = 8.18821 9.35073 8.78871
#
# Compressibility (1/GPa) = 0.01534012
#
# Stress axis : x y z
#
# Youngs Moduli (GPa) = 108.29898 126.62955 85.95322
#
# Poissons Ratio (x) = 0.42635 0.01160
# Poissons Ratio (y) = 0.36464 0.27596
# Poissons Ratio (z) = 0.01461 0.40655
#
# Static dielectric constant tensor:
#      x y z
#    x 3.847970 0.000000 0.000000 
#    y 0.000000 4.007300 0.000000 
#    z 0.000000 0.000000 3.921290 
# 
# 
# High freq. dielectric constant tensor:
#      x y z
#    x 1.837020 0.000000 0.000000 
#    y 0.000000 1.845150 0.000000 
#    z 0.000000 0.000000 1.805160 
# 
# From -- ./inp_files/23735.got.cif
#   From: 2010.03.12/outbox.cif.g09.slc.cpg/sg23_12_cif.got.tgz:23735.got - 2010.04.14 02:50:06.
