data_PCOD8164011
_publ_section_title
;
Structure prediction by ZEFSAII (Michael W. Deem and Ramdas Pophale) SiO2 
 PCOD8164011
Probable space group: I 2 2 2
;
_chemical_formula_sum "Si O2"
_cell_formula_units_Z 38
_cell_length_a 5.225507
_cell_length_b 24.851674
_cell_length_c 13.253081
_cell_angle_alpha 90.000000
_cell_angle_beta 90.000000
_cell_angle_gamma 90.000000
_cell_volume 1721.079510
_symmetry_space_group_name_H-M "I 2 2 2"
_symmetry_group_IT_number 23
_symmetry_cell_setting 'orthorhombic'
loop_
_space_group_symop_operation_xyz
x,y,z
-x,-y,z
x,-y,-z
-x,y,-z
1/2+x,1/2+y,1/2+z
1/2-x,1/2-y,1/2+z
1/2+x,1/2-y,1/2-z
1/2-x,1/2+y,1/2-z
loop_
_atom_site_type_symbol
_atom_site_label
_atom_site_fract_x
_atom_site_fract_y
_atom_site_fract_z
Si Si1 0.295322 0.895905 0.242809
Si Si2 0.668038 0.722104 0.287567
Si Si3 0.750465 0.439229 0.957131
Si Si4 0.702980 0.409078 0.380564
Si Si5 0.000000 0.000000 0.000000
Si Si6 0.500000 0.682124 0.500000
O O1 0.262109 0.832773 0.266383
O O2 0.253386 0.935363 0.337166
O O3 0.579434 0.907405 0.202990
O O4 0.083373 0.910981 0.162681
O O5 0.397644 0.736253 0.234119
O O6 0.624120 0.717473 0.409270
O O7 0.750728 0.500000 0.000000
O O8 0.500000 0.409169 0.000000
O O9 0.000000 0.408656 0.000000
O O10 0.709535 0.464493 0.440598
O O11 0.722568 0.356328 0.452598
#
# Coordination Sequence:
#
# PCOD8164011 Si02
#       6
#     8   8   8   8   2   4
#     4  11  23  43  65  91 133 175 226 276 340 409
#     4  11  24  43  69  99 129 177 236 285 351 419
#     4  10  22  40  63  89 126 174 220 265 333 403
#     4  10  23  40  68  94 135 175 215 276 334 404
#     4  10  24  38  60 110 130 166 228 254 334 402
#     4   9  22  45  68  94 140 178 211 296 355 392
#
# _framework density 22.079165
#
# number of rings (size 3 to 8) (size 9 to 14) (size 15 to 20)
#    0.000    1.684    0.000    3.789    0.000   18.526 
#    5.684    0.000    0.000    0.000    0.000    0.000 
#    0.000    0.000    0.000    0.000    0.000    0.000 
#
# Total GULP energy -235446.830101 kJ/mol
# GULP energy per Si atom -12391.938426 kJ/mol
# Density = 2.202891 g / cm^3
# Si number density = 22.079165 Si / 1000 Ang^3
#
#
#
# Elastic Constant Matrix: (Units=GPa)
#
#
# Indices 1 2 3 4 5 6 
#
# 1 154.1583 30.9305 47.5427 0.0000 0.0000 0.0000
# 2 30.9305 94.9563 54.1337 0.0000 0.0000 0.0000
# 3 47.5427 54.1337 141.5644 0.0002 0.0000 -0.0002
# 4 0.0000 0.0000 0.0002 49.6857 0.0000 -0.0001
# 5 0.0000 0.0000 0.0000 0.0000 33.9327 0.0000
# 6 0.0000 0.0000 -0.0002 -0.0001 0.0000 10.1776
#
#
#
# Elastic Compliance Matrix: (Units=1/GPa)
#
#
# Indices 1 2 3 4 5 6 
#
# 1 0.007353 -0.001263 -0.001987 0.000000 0.000000 0.000000
# 2 -0.001263 0.013684 -0.004809 0.000000 0.000000 0.000000
# 3 -0.001987 -0.004809 0.009570 0.000000 0.000000 0.000000
# 4 0.000000 0.000000 0.000000 0.020127 0.000000 0.000000
# 5 0.000000 0.000000 0.000000 0.000000 0.029470 0.000000
# 6 0.000000 0.000000 0.000000 0.000000 0.000000 0.098255
#
#
# Mechanical properties :
#
#
# Convention : Reuss Voigt Hill
#
# Bulk Modulus (GPa) = 69.00820 72.87696 70.94258
# Shear Modulus (GPa) = 25.07478 35.96401 30.51940
#
# Velocity S-wave (km/s) = 3.37364 4.04030 3.72192
# Velocity P-wave (km/s) = 6.81894 7.40568 7.11836
#
# Compressibility (1/GPa) = 0.01449103
#
# Stress axis : x y z
#
# Youngs Moduli (GPa) = 136.00239 73.07936 104.49460
#
# Poissons Ratio (x) = 0.09227 0.20758
# Poissons Ratio (y) = 0.17171 0.50247
# Poissons Ratio (z) = 0.27018 0.35141
#
# Static dielectric constant tensor:
#      x y z
#    x -1.331000 0.000000 0.000000 
#    y 0.000000 4.133530 0.000000 
#    z 0.000000 0.000000 4.281870 
# 
# 
# High freq. dielectric constant tensor:
#      x y z
#    x 1.889030 0.000000 0.000000 
#    y 0.000000 1.850560 0.000000 
#    z 0.000000 0.000000 1.869030 
# 
# From -- ./inp_files/13913.got.cif
#   From: 2010.03.12/outbox.cif.g09.slc.cpg/sg23_7_cif.got.tgz:13913.got - 2010.04.14 02:50:06.
