data_PCOD8164374
_publ_section_title
;
Structure prediction by ZEFSAII (Michael W. Deem and Ramdas Pophale) SiO2 
 PCOD8164374
Probable space group: I 2 2 2
;
_chemical_formula_sum "Si O2"
_cell_formula_units_Z 48
_cell_length_a 9.911802
_cell_length_b 16.858504
_cell_length_c 13.422738
_cell_angle_alpha 90.000000
_cell_angle_beta 90.000000
_cell_angle_gamma 90.000000
_cell_volume 2242.914737
_symmetry_space_group_name_H-M "I 2 2 2"
_symmetry_group_IT_number 23
_symmetry_cell_setting 'orthorhombic'
loop_
_space_group_symop_operation_xyz
x,y,z
-x,-y,z
x,-y,-z
-x,y,-z
1/2+x,1/2+y,1/2+z
1/2-x,1/2-y,1/2+z
1/2+x,1/2-y,1/2-z
1/2-x,1/2+y,1/2-z
loop_
_atom_site_type_symbol
_atom_site_label
_atom_site_fract_x
_atom_site_fract_y
_atom_site_fract_z
Si Si1 0.220792 0.711320 0.069504
Si Si2 0.559025 0.628816 0.393596
Si Si3 0.569919 0.279551 0.233308
Si Si4 0.856506 0.966884 0.723550
Si Si5 0.641571 0.959380 0.400231
Si Si6 0.205825 0.799027 0.347832
O O1 0.141876 0.789767 0.102311
O O2 0.352259 0.692512 0.134887
O O3 0.122972 0.634727 0.078227
O O4 0.270739 0.729635 0.959025
O O5 0.500000 0.601988 0.500000
O O6 0.440434 0.646593 0.312273
O O7 0.646041 0.557468 0.342625
O O8 0.656188 0.210504 0.285304
O O9 0.419580 0.249424 0.201256
O O10 0.833697 0.890477 0.654303
O O11 0.738949 0.028648 0.695326
O O12 0.000000 0.000000 0.691234
O O13 0.500000 0.000000 0.374450
O O14 0.702471 0.000000 0.500000
#
# Coordination Sequence:
#
# PCOD8164374 Si02
#       6
#     8   8   8   8   8   8
#     4  12  23  41  68 100 139 175 230 283 345 404
#     4  11  24  41  73  97 133 181 233 279 327 407
#     4  11  22  39  64 101 130 172 221 283 337 398
#     4  11  24  46  64  98 138 184 227 275 343 404
#     4  11  25  38  64 100 140 183 217 280 351 415
#     4  11  23  40  66  99 140 174 224 283 346 406
#
# _framework density 21.400725000000001
#
# number of rings (size 3 to 8) (size 9 to 14) (size 15 to 20)
#    0.000    0.833    6.667    2.500    4.667    0.667 
#    0.000    0.000    0.000    0.000    0.000    1.167 
#    0.000    0.000    0.000    0.000    0.000    0.000 
#
# Total GULP energy -297467.691041 kJ/mol
# GULP energy per Si atom -12394.487127 kJ/mol
# Density = 2.135202 g / cm^3
# Si number density = 21.400725 Si / 1000 Ang^3
#
#
#
# Elastic Constant Matrix: (Units=GPa)
#
#
# Indices 1 2 3 4 5 6 
#
# 1 124.0361 31.9575 60.3324 0.0000 0.0000 0.0000
# 2 31.9575 57.6479 21.8549 0.0000 0.0000 0.0000
# 3 60.3324 21.8549 142.5882 0.0000 0.0000 0.0000
# 4 0.0000 0.0000 0.0000 24.6296 0.0000 0.0000
# 5 0.0000 0.0000 0.0000 0.0000 38.0471 0.0000
# 6 0.0000 0.0000 0.0000 0.0000 0.0000 35.1539
#
#
#
# Elastic Compliance Matrix: (Units=1/GPa)
#
#
# Indices 1 2 3 4 5 6 
#
# 1 0.011235 -0.004699 -0.004033 0.000000 0.000000 0.000000
# 2 -0.004699 0.020382 -0.001136 0.000000 0.000000 0.000000
# 3 -0.004033 -0.001136 0.008894 0.000000 0.000000 0.000000
# 4 0.000000 0.000000 0.000000 0.040602 0.000000 0.000000
# 5 0.000000 0.000000 0.000000 0.000000 0.026283 0.000000
# 6 0.000000 0.000000 0.000000 0.000000 0.000000 0.028446
#
#
# Mechanical properties :
#
#
# Convention : Reuss Voigt Hill
#
# Bulk Modulus (GPa) = 48.13606 61.39576 54.76591
# Shear Modulus (GPa) = 30.76863 33.57462 32.17163
#
# Velocity S-wave (km/s) = 3.79586 3.96517 3.88144
# Velocity P-wave (km/s) = 6.46166 7.05084 6.76267
#
# Compressibility (1/GPa) = 0.02077445
#
# Stress axis : x y z
#
# Youngs Moduli (GPa) = 89.00950 49.06254 112.43604
#
# Poissons Ratio (x) = 0.23054 0.45351
# Poissons Ratio (y) = 0.41825 0.12771
# Poissons Ratio (z) = 0.35902 0.05573
#
# Static dielectric constant tensor:
#      x y z
#    x 3.979780 0.000000 0.000000 
#    y 0.000000 3.765190 0.000000 
#    z 0.000000 0.000000 4.142870 
# 
# 
# High freq. dielectric constant tensor:
#      x y z
#    x 1.834440 0.000000 0.000000 
#    y 0.000000 1.824910 0.000000 
#    z 0.000000 0.000000 1.850490 
# 
# From -- ./inp_files/20003.got.cif
#   From: 2010.03.12/outbox.cif.g09.slc.cpg/sg23_11_cif.got.tgz:20003.got - 2010.04.14 02:50:06.
