data_PCOD8164743
_publ_section_title
;
Structure prediction by ZEFSAII (Michael W. Deem and Ramdas Pophale) SiO2 
 PCOD8164743
Probable space group: I 21 21 21
;
_chemical_formula_sum "Si O2"
_cell_formula_units_Z 40
_cell_length_a 27.963014
_cell_length_b 8.665853
_cell_length_c 8.863573
_cell_angle_alpha 90.000000
_cell_angle_beta 90.000000
_cell_angle_gamma 90.000000
_cell_volume 2147.850869
_symmetry_space_group_name_H-M "I 21 21 21"
_symmetry_group_IT_number 24
_symmetry_cell_setting 'orthorhombic'
loop_
_space_group_symop_operation_xyz
x,y,z
-x,1/2-y,z
x,-y,1/2-z
1/2-x,y,-z
1/2+x,1/2+y,1/2+z
1/2-x,-y,1/2+z
1/2+x,1/2-y,-z
-x,1/2+y,1/2-z
loop_
_atom_site_type_symbol
_atom_site_label
_atom_site_fract_x
_atom_site_fract_y
_atom_site_fract_z
Si Si1 0.789487 0.500000 0.250000
Si Si2 0.601077 0.000000 0.750000
Si Si3 0.407466 0.500000 0.250000
Si Si4 0.619653 0.473091 0.589563
Si Si5 0.353792 0.305984 0.007687
Si Si6 0.054412 0.704660 0.004830
Si Si7 0.750000 0.708357 0.500000
O O1 0.826353 0.411110 0.366435
O O2 0.755515 0.609613 0.346611
O O3 0.634264 0.894918 0.645702
O O4 0.567138 0.108598 0.652549
O O5 0.374325 0.388328 0.153459
O O6 0.441270 0.602474 0.144811
O O7 0.591967 0.500000 0.750000
O O8 0.625231 0.632492 0.497519
O O9 0.590008 0.351667 0.490112
O O10 0.296648 0.311742 0.023540
O O11 0.000000 0.750000 0.021331
#
# Coordination Sequence:
#
# PCOD8164743 Si02
#       7
#     4   4   4   8   8   8   4
#     4   8  18  31  56  85 116 135 194 237 280 316
#     4  10  20  38  58  84 118 148 186 242 282 330
#     4  10  26  41  50  89 122 157 166 241 308 328
#     4   9  18  38  59  84 107 151 185 240 275 316
#     4  10  21  38  60  81 121 148 192 228 289 335
#     4  11  23  38  62  84 114 150 195 231 282 344
#     4  10  18  34  56  86 106 152 192 230 270 346
#
# _framework density 18.623266000000001
#
# number of rings (size 3 to 8) (size 9 to 14) (size 15 to 20)
#    0.600    1.600    2.000    0.000    1.400    6.400 
#    0.000    4.000    0.000    1.200    0.000    0.000 
#    0.000    0.000    0.000    0.000    0.000    0.000 
#
# Total GULP energy -247874.257667 kJ/mol
# GULP energy per Si atom -12393.712883 kJ/mol
# Density = 1.858088 g / cm^3
# Si number density = 18.623266 Si / 1000 Ang^3
#
#
#
# Elastic Constant Matrix: (Units=GPa)
#
#
# Indices 1 2 3 4 5 6 
#
# 1 145.7816 72.2493 62.6051 0.0000 0.0000 0.0000
# 2 72.2493 120.7790 59.4586 0.0000 0.0000 0.0000
# 3 62.6051 59.4586 112.3743 0.0000 0.0000 0.0000
# 4 0.0000 0.0000 0.0000 8.8638 0.0000 0.0000
# 5 0.0000 0.0000 0.0000 0.0000 13.3664 0.0000
# 6 0.0000 0.0000 0.0000 0.0000 0.0000 23.4766
#
#
#
# Elastic Compliance Matrix: (Units=1/GPa)
#
#
# Indices 1 2 3 4 5 6 
#
# 1 0.010665 -0.004672 -0.003470 0.000000 0.000000 0.000000
# 2 -0.004672 0.013242 -0.004404 0.000000 0.000000 0.000000
# 3 -0.003470 -0.004404 0.013162 0.000000 0.000000 0.000000
# 4 0.000000 0.000000 0.000000 0.112818 0.000000 0.000000
# 5 0.000000 0.000000 0.000000 0.000000 0.074815 0.000000
# 6 0.000000 0.000000 0.000000 0.000000 0.000000 0.042596
#
#
# Mechanical properties :
#
#
# Convention : Reuss Voigt Hill
#
# Bulk Modulus (GPa) = 83.48295 85.28454 84.38375
# Shear Modulus (GPa) = 16.87016 21.44947 19.15981
#
# Velocity S-wave (km/s) = 3.01302 3.39744 3.21099
# Velocity P-wave (km/s) = 7.55175 7.82842 7.69133
#
# Compressibility (1/GPa) = 0.01197849
#
# Stress axis : x y z
#
# Youngs Moduli (GPa) = 93.76596 75.51662 75.97574
#
# Poissons Ratio (x) = 0.35278 0.26362
# Poissons Ratio (y) = 0.43803 0.33460
# Poissons Ratio (z) = 0.32535 0.33258
#
# Static dielectric constant tensor:
#      x y z
#    x 3.256120 0.000000 0.000000 
#    y 0.000000 3.441420 0.000000 
#    z 0.000000 0.000000 3.645850 
# 
# 
# High freq. dielectric constant tensor:
#      x y z
#    x 1.714690 0.000000 0.000000 
#    y 0.000000 1.719110 0.000000 
#    z 0.000000 0.000000 1.725970 
# 
# From -- ./inp_files/16308.got.cif
#   From: 2010.03.12/outbox.cif.g09.slc.cpg/sg24_9_cif.got.tgz:16308.got - 2010.04.14 03:06:53.
