data_PCOD8164269
_publ_section_title
;
Structure prediction by ZEFSAII (Michael W. Deem and Ramdas Pophale) SiO2 
 PCOD8164269
Probable space group: I 2 2 2
;
_chemical_formula_sum "Si O2"
_cell_formula_units_Z 52
_cell_length_a 5.316782
_cell_length_b 19.869443
_cell_length_c 22.531836
_cell_angle_alpha 90.000000
_cell_angle_beta 90.000000
_cell_angle_gamma 90.000000
_cell_volume 2380.296883
_symmetry_space_group_name_H-M "I 2 2 2"
_symmetry_group_IT_number 23
_symmetry_cell_setting 'orthorhombic'
loop_
_space_group_symop_operation_xyz
x,y,z
-x,-y,z
x,-y,-z
-x,y,-z
1/2+x,1/2+y,1/2+z
1/2-x,1/2-y,1/2+z
1/2+x,1/2-y,1/2-z
1/2-x,1/2+y,1/2-z
loop_
_atom_site_type_symbol
_atom_site_label
_atom_site_fract_x
_atom_site_fract_y
_atom_site_fract_z
Si Si1 0.961106 0.850857 0.388186
Si Si2 0.560388 0.792815 0.933127
Si Si3 0.474492 0.920442 0.431722
Si Si4 0.440030 0.292419 0.758928
Si Si5 0.892911 0.913144 0.935009
Si Si6 0.500000 0.000000 0.122545
Si Si7 0.264015 0.123466 0.155550
O O1 0.910172 0.787134 0.430806
O O2 0.706177 0.893434 0.392768
O O3 0.000487 0.825959 0.321452
O O4 0.206067 0.893405 0.407844
O O5 0.806185 0.836333 0.919245
O O6 0.355531 0.812375 0.882870
O O7 0.500000 0.815465 0.000000
O O8 0.500000 0.897393 0.500000
O O9 0.500000 0.000000 0.426285
O O10 0.695932 0.256256 0.736319
O O11 0.374214 0.352391 0.714307
O O12 0.101189 0.925201 0.885726
O O13 0.698567 0.973066 0.926179
O O14 0.000000 0.917365 0.000000
O O15 0.531166 0.935342 0.167692
#
# Coordination Sequence:
#
# PCOD8164269 Si02
#       7
#     8   8   8   8   8   4   8
#     4  12  25  44  75 111 140 190 244 289 365 442
#     4  11  22  39  64 103 136 170 232 294 356 414
#     4  11  25  48  74 108 151 188 229 296 374 449
#     4  12  26  48  74 102 144 189 239 301 364 429
#     4  11  23  41  65  94 140 182 232 295 353 418
#     4  10  26  43  60 100 130 190 245 286 356 422
#     4  11  24  44  66  93 137 185 234 292 353 415
#
# _framework density 21.846014
#
# number of rings (size 3 to 8) (size 9 to 14) (size 15 to 20)
#    0.000    0.769    3.077    4.154    4.308    3.692 
#    1.385    1.538    0.000    0.000    0.000    0.000 
#    0.000    0.000    0.000    0.000    0.000    0.000 
#
# Total GULP energy -322115.089849 kJ/mol
# GULP energy per Si atom -12389.041917 kJ/mol
# Density = 2.179629 g / cm^3
# Si number density = 21.846014 Si / 1000 Ang^3
#
#
#
# Elastic Constant Matrix: (Units=GPa)
#
#
# Indices 1 2 3 4 5 6 
#
# 1 104.4345 41.1168 21.5615 0.0000 0.0000 0.0000
# 2 41.1168 134.0992 38.0605 0.0000 0.0000 0.0000
# 3 21.5615 38.0605 109.1211 0.0000 0.0000 0.0000
# 4 0.0000 0.0000 0.0000 37.1013 0.0000 0.0000
# 5 0.0000 0.0000 0.0000 0.0000 32.1488 0.0000
# 6 0.0000 0.0000 0.0000 0.0000 0.0000 -139.4273
#
#
#
# Elastic Compliance Matrix: (Units=1/GPa)
#
#
# Indices 1 2 3 4 5 6 
#
# 1 0.011009 -0.003061 -0.001108 0.000000 0.000000 0.000000
# 2 -0.003061 0.009128 -0.002579 0.000000 0.000000 0.000000
# 3 -0.001108 -0.002579 0.010282 0.000000 0.000000 0.000000
# 4 0.000000 0.000000 0.000000 0.026953 0.000000 0.000000
# 5 0.000000 0.000000 0.000000 0.000000 0.031105 0.000000
# 6 0.000000 0.000000 0.000000 0.000000 0.000000 -0.007172
#
#
# Mechanical properties :
#
#
# Convention : Reuss Voigt Hill
#
# Bulk Modulus (GPa) = 59.08716 61.01471 60.05094
# Shear Modulus (GPa) = 49.77970 2.42562 26.10266
#
# Velocity S-wave (km/s) = 4.77871 1.05486 3.46041
# Velocity P-wave (km/s) = 7.58643 5.42897 6.59650
#
# Compressibility (1/GPa) = 0.01692415
#
# Stress axis : x y z
#
# Youngs Moduli (GPa) = 90.83231 109.55657 97.25308
#
# Poissons Ratio (x) = 0.33538 0.10772
# Poissons Ratio (y) = 0.27806 0.25079
# Poissons Ratio (z) = 0.10061 0.28252
#
# Static dielectric constant tensor:
#      x y z
#    x 4.234590 0.000000 0.000000 
#    y 0.000000 4.072190 0.000000 
#    z 0.000000 0.000000 3.882950 
# 
# 
# High freq. dielectric constant tensor:
#      x y z
#    x 1.870540 0.000000 0.000000 
#    y 0.000000 1.877310 0.000000 
#    z 0.000000 0.000000 1.849230 
# 
# From -- ./inp_files/25736.got.cif
#   From: 2010.03.12/outbox.cif.g09.slc.cpg/sg23_13_cif.got.tgz:25736.got - 2010.04.14 02:50:06.
