data_PCOD8164931
_publ_section_title
;
Structure prediction by ZEFSAII (Michael W. Deem and Ramdas Pophale) SiO2 
 PCOD8164931
Probable space group: I 21 21 21
;
_chemical_formula_sum "Si O2"
_cell_formula_units_Z 52
_cell_length_a 12.159061
_cell_length_b 9.685570
_cell_length_c 24.841526
_cell_angle_alpha 90.000000
_cell_angle_beta 90.000000
_cell_angle_gamma 90.000000
_cell_volume 2925.522835
_symmetry_space_group_name_H-M "I 21 21 21"
_symmetry_group_IT_number 24
_symmetry_cell_setting 'orthorhombic'
loop_
_space_group_symop_operation_xyz
x,y,z
-x,1/2-y,z
x,-y,1/2-z
1/2-x,y,-z
1/2+x,1/2+y,1/2+z
1/2-x,-y,1/2+z
1/2+x,1/2-y,-z
-x,1/2+y,1/2-z
loop_
_atom_site_type_symbol
_atom_site_label
_atom_site_fract_x
_atom_site_fract_y
_atom_site_fract_z
Si Si1 0.000000 0.250000 0.613353
Si Si2 0.364646 0.038169 0.626240
Si Si3 0.308032 0.745856 0.787388
Si Si4 0.383848 0.550123 0.868965
Si Si5 0.264616 0.752178 0.062518
Si Si6 0.128115 0.252922 0.167381
Si Si7 0.929496 0.865058 0.785952
O O1 0.893814 0.259500 0.575483
O O2 0.989352 0.117144 0.655035
O O3 0.337915 0.110257 0.683552
O O4 0.492035 0.056153 0.608927
O O5 0.290708 0.102689 0.579203
O O6 0.336342 0.876073 0.630626
O O7 0.387312 0.624952 0.810409
O O8 0.310615 0.758972 0.723791
O O9 0.186422 0.698771 0.802967
O O10 0.299232 0.628549 0.907604
O O11 0.340065 0.393567 0.863153
O O12 0.250000 0.726523 0.000000
O O13 0.000000 0.250000 0.180767
O O14 0.000000 0.750000 0.752486
O O15 0.919597 0.000000 0.750000
#
# Coordination Sequence:
#
# PCOD8164931 Si02
#       7
#     4   8   8   8   8   8   8
#     4  10  22  40  58  82 118 136 202 236 278 350
#     4  10  20  35  53  84 115 144 187 228 279 334
#     4  11  18  30  52  80 117 151 186 219 266 334
#     4  10  19  35  55  83 114 141 191 230 275 338
#     4  11  23  39  62  82 101 146 190 250 289 328
#     4  10  20  31  53  83 117 155 175 226 280 334
#     4  10  20  34  52  78 114 155 188 230 278 343
#
# _framework density 17.774601000000001
#
# number of rings (size 3 to 8) (size 9 to 14) (size 15 to 20)
#    0.462    1.231    3.077    4.615    2.154    4.923 
#    0.000    0.769    0.000    0.000    0.000    0.000 
#    0.000    0.000    0.000    0.000    0.000    0.000 
#
# Total GULP energy -322175.460749 kJ/mol
# GULP energy per Si atom -12391.363875 kJ/mol
# Density = 1.773414 g / cm^3
# Si number density = 17.774601 Si / 1000 Ang^3
#
#
#
# Elastic Constant Matrix: (Units=GPa)
#
#
# Indices 1 2 3 4 5 6 
#
# 1 86.6959 31.8280 40.7803 0.0000 0.0000 0.0000
# 2 31.8280 125.1193 30.8597 0.0000 0.0000 0.0000
# 3 40.7803 30.8597 88.6792 0.0000 0.0000 0.0000
# 4 0.0000 0.0000 0.0000 8.0598 0.0000 0.0000
# 5 0.0000 0.0000 0.0000 0.0000 23.8487 0.0000
# 6 0.0000 0.0000 0.0000 0.0000 0.0000 14.4780
#
#
#
# Elastic Compliance Matrix: (Units=1/GPa)
#
#
# Indices 1 2 3 4 5 6 
#
# 1 0.015332 -0.002364 -0.006228 0.000000 0.000000 0.000000
# 2 -0.002364 0.009107 -0.002082 0.000000 0.000000 0.000000
# 3 -0.006228 -0.002082 0.014865 0.000000 0.000000 0.000000
# 4 0.000000 0.000000 0.000000 0.124073 0.000000 0.000000
# 5 0.000000 0.000000 0.000000 0.000000 0.041931 0.000000
# 6 0.000000 0.000000 0.000000 0.000000 0.000000 0.069070
#
#
# Mechanical properties :
#
#
# Convention : Reuss Voigt Hill
#
# Bulk Modulus (GPa) = 55.69118 56.38116 56.03617
# Shear Modulus (GPa) = 16.57208 22.41239 19.49224
#
# Velocity S-wave (km/s) = 3.05675 3.55480 3.31514
# Velocity P-wave (km/s) = 6.62255 6.97408 6.80058
#
# Compressibility (1/GPa) = 0.01795616
#
# Stress axis : x y z
#
# Youngs Moduli (GPa) = 65.22305 109.80210 67.27135
#
# Poissons Ratio (x) = 0.25958 0.41896
# Poissons Ratio (y) = 0.15419 0.14007
# Poissons Ratio (z) = 0.40621 0.22862
#
# Static dielectric constant tensor:
#      x y z
#    x 3.407010 0.000000 0.000000 
#    y 0.000000 3.377000 0.000000 
#    z 0.000000 0.000000 2.992600 
# 
# 
# High freq. dielectric constant tensor:
#      x y z
#    x 1.699750 0.000000 0.000000 
#    y 0.000000 1.679220 0.000000 
#    z 0.000000 0.000000 1.657470 
# 
# From -- ./inp_files/37169.got.cif
#   From: 2010.03.12/outbox.cif.g09.slc.cpg/sg24_19_cif.got.tgz:37169.got - 2010.04.14 03:06:53.
