data_PCOD8164594
_publ_section_title
;
Structure prediction by ZEFSAII (Michael W. Deem and Ramdas Pophale) SiO2 
 PCOD8164594
Probable space group: I 21 21 21
;
_chemical_formula_sum "Si O2"
_cell_formula_units_Z 56
_cell_length_a 17.629513
_cell_length_b 18.060903
_cell_length_c 10.123958
_cell_angle_alpha 90.000000
_cell_angle_beta 90.000000
_cell_angle_gamma 90.000000
_cell_volume 3223.518080
_symmetry_space_group_name_H-M "I 21 21 21"
_symmetry_group_IT_number 24
_symmetry_cell_setting 'orthorhombic'
loop_
_space_group_symop_operation_xyz
x,y,z
-x,1/2-y,z
x,-y,1/2-z
1/2-x,y,-z
1/2+x,1/2+y,1/2+z
1/2-x,-y,1/2+z
1/2+x,1/2-y,-z
-x,1/2+y,1/2-z
loop_
_atom_site_type_symbol
_atom_site_label
_atom_site_fract_x
_atom_site_fract_y
_atom_site_fract_z
Si Si1 0.072040 0.607139 0.923363
Si Si2 0.883472 0.084315 0.289763
Si Si3 0.771505 0.840274 0.855822
Si Si4 0.969030 0.500000 0.750000
Si Si5 0.182339 0.738831 0.596534
Si Si6 0.500000 0.250000 0.315885
Si Si7 0.417645 0.861495 0.374696
Si Si8 0.956623 0.176394 0.058264
O O1 0.158664 0.602517 0.872395
O O2 0.022138 0.546222 0.848486
O O3 0.045305 0.691996 0.906135
O O4 0.067604 0.589745 0.077550
O O5 0.798157 0.112336 0.303173
O O6 0.925484 0.133857 0.182917
O O7 0.880224 0.000000 0.250000
O O8 0.793469 0.778250 0.747595
O O9 0.750000 0.804359 0.000000
O O10 0.909621 0.442943 0.814934
O O11 0.250000 0.717493 0.500000
O O12 0.162785 0.827072 0.578080
O O13 0.109104 0.691586 0.549847
O O14 0.442914 0.202977 0.226578
O O15 0.480465 0.873929 0.487473
O O16 0.000000 0.250000 0.106898
#
# Coordination Sequence:
#
# PCOD8164594 Si02
#       8
#     8   8   8   4   8   4   8   8
#     4  10  21  35  54  79 112 142 183 226 269 326
#     4  11  23  36  49  82 116 148 173 220 280 332
#     4  10  21  36  51  78 115 145 182 218 267 332
#     4  10  20  34  58  80 104 148 178 228 286 314
#     4  11  18  34  58  81 104 145 188 230 267 321
#     4  10  16  32  56  78 100 136 182 226 260 310
#     4  10  18  34  56  82 105 135 187 233 264 332
#     4  10  20  35  56  80 109 142 189 225 265 332
#
# _framework density 17.372323000000002
#
# number of rings (size 3 to 8) (size 9 to 14) (size 15 to 20)
#    0.000    1.714    5.000    1.714    2.000    0.000 
#    5.143    0.000    0.000    0.857    7.429    0.000 
#    0.000    0.000    0.000    0.000    0.000    0.000 
#
# Total GULP energy -347008.279222 kJ/mol
# GULP energy per Si atom -12393.152829 kJ/mol
# Density = 1.733278 g / cm^3
# Si number density = 17.372323 Si / 1000 Ang^3
#
#
#
# Elastic Constant Matrix: (Units=GPa)
#
#
# Indices 1 2 3 4 5 6 
#
# 1 47.2844 26.7145 34.4997 0.0000 0.0000 0.0000
# 2 26.7145 104.9979 47.7293 0.0000 0.0000 0.0000
# 3 34.4997 47.7293 118.3407 0.0000 0.0000 0.0000
# 4 0.0000 0.0000 0.0000 28.0863 0.0000 0.0000
# 5 0.0000 0.0000 0.0000 0.0000 26.3570 0.0000
# 6 0.0000 0.0000 0.0000 0.0000 0.0000 17.9775
#
#
#
# Elastic Compliance Matrix: (Units=1/GPa)
#
#
# Indices 1 2 3 4 5 6 
#
# 1 0.028316 -0.004227 -0.006550 0.000000 0.000000 0.000000
# 2 -0.004227 0.012293 -0.003726 0.000000 0.000000 0.000000
# 3 -0.006550 -0.003726 0.011862 0.000000 0.000000 0.000000
# 4 0.000000 0.000000 0.000000 0.035605 0.000000 0.000000
# 5 0.000000 0.000000 0.000000 0.000000 0.037941 0.000000
# 6 0.000000 0.000000 0.000000 0.000000 0.000000 0.055625
#
#
# Mechanical properties :
#
#
# Convention : Reuss Voigt Hill
#
# Bulk Modulus (GPa) = 42.61521 54.27886 48.44704
# Shear Modulus (GPa) = 22.88656 25.26281 24.07469
#
# Velocity S-wave (km/s) = 3.63356 3.81753 3.72668
# Velocity P-wave (km/s) = 6.49519 7.12346 6.81657
#
# Compressibility (1/GPa) = 0.02346580
#
# Stress axis : x y z
#
# Youngs Moduli (GPa) = 35.31598 81.34653 84.29987
#
# Poissons Ratio (x) = 0.34384 0.55217
# Poissons Ratio (y) = 0.14928 0.31409
# Poissons Ratio (z) = 0.23132 0.30308
#
# Static dielectric constant tensor:
#      x y z
#    x 3.391450 0.000000 0.000000 
#    y 0.000000 3.215140 0.000000 
#    z 0.000000 0.000000 3.364470 
# 
# 
# High freq. dielectric constant tensor:
#      x y z
#    x 1.665720 0.000000 0.000000 
#    y 0.000000 1.657460 0.000000 
#    z 0.000000 0.000000 1.676850 
# 
# From -- ./inp_files/15386.got.cif
#   From: 2010.03.12/outbox.cif.g09.slc.cpg/sg24_8_cif.got.tgz:15386.got - 2010.04.14 03:06:53.
