data_PCOD8164704
_publ_section_title
;
Structure prediction by ZEFSAII (Michael W. Deem and Ramdas Pophale) SiO2 
 PCOD8164704
Probable space group: I 21 21 21
;
_chemical_formula_sum "Si O2"
_cell_formula_units_Z 64
_cell_length_a 30.773205
_cell_length_b 9.059765
_cell_length_c 11.944432
_cell_angle_alpha 90.000000
_cell_angle_beta 90.000000
_cell_angle_gamma 90.000000
_cell_volume 3330.083820
_symmetry_space_group_name_H-M "I 21 21 21"
_symmetry_group_IT_number 24
_symmetry_cell_setting 'orthorhombic'
loop_
_space_group_symop_operation_xyz
x,y,z
-x,1/2-y,z
x,-y,1/2-z
1/2-x,y,-z
1/2+x,1/2+y,1/2+z
1/2-x,-y,1/2+z
1/2+x,1/2-y,-z
-x,1/2+y,1/2-z
loop_
_atom_site_type_symbol
_atom_site_label
_atom_site_fract_x
_atom_site_fract_y
_atom_site_fract_z
Si Si1 0.925745 0.166245 0.250000
Si Si2 0.702386 0.325017 0.977386
Si Si3 0.162683 0.825207 0.250001
Si Si4 0.797614 0.325017 0.477384
Si Si5 0.543258 0.829447 0.993546
Si Si6 0.543259 0.829446 0.506452
Si Si7 0.878881 0.673269 0.620500
Si Si8 0.121119 0.826730 0.879503
O O1 0.887304 0.282601 0.250004
O O2 0.954662 0.192825 0.359877
O O3 0.954660 0.192830 0.140120
O O4 0.906647 0.000000 0.250000
O O5 0.685976 0.259327 0.859516
O O6 0.705901 0.499998 0.969414
O O7 0.750000 0.256538 0.000000
O O8 0.668629 0.280146 0.074819
O O9 0.185978 0.759326 0.140488
O O10 0.165022 0.000000 0.250000
O O11 0.750000 0.256540 0.500000
O O12 0.831371 0.280145 0.574816
O O13 0.500000 0.750000 0.038698
O O14 0.540664 0.000000 0.027283
O O15 0.585031 0.760386 0.052223
O O16 0.500000 0.750000 0.461302
O O17 0.585031 0.760387 0.447772
O O18 0.881161 0.717745 0.750001
O O19 0.886881 0.500000 0.602134
#
# Coordination Sequence:
#
# PCOD8164704 Si02
#       8
#     8   8   8   8   8   8   8   8
#     4  10  21  37  57  84 116 146 178 229 285 333
#     4   9  18  31  52  85 117 145 184 233 279 323
#     4  10  18  31  57  84 111 150 189 229 278 333
#     4   9  18  31  52  85 117 145 184 233 279 323
#     4  11  23  39  60  84 112 145 184 230 282 337
#     4  11  23  39  60  84 112 145 184 230 282 337
#     4  10  21  37  57  82 114 150 188 232 279 329
#     4  10  21  37  57  82 114 150 188 232 279 329
#
# _framework density 19.218736
#
# number of rings (size 3 to 8) (size 9 to 14) (size 15 to 20)
#    0.000    2.000    2.500    1.125    1.750    2.000 
#    0.000    0.000    0.000    3.000    0.000    0.000 
#    0.000    0.000    0.000    0.000    0.000    0.000 
#
# Total GULP energy -396821.553549 kJ/mol
# GULP energy per Si atom -12400.673548 kJ/mol
# Density = 1.917499 g / cm^3
# Si number density = 19.218736 Si / 1000 Ang^3
#
#
#
# Elastic Constant Matrix: (Units=GPa)
#
#
# Indices 1 2 3 4 5 6 
#
# 1 138.2709 46.7724 35.3451 0.0000 0.0000 0.0000
# 2 46.7724 51.8627 37.6372 0.0000 0.0000 0.0000
# 3 35.3451 37.6372 109.2058 0.0000 0.0000 0.0000
# 4 0.0000 0.0000 0.0000 16.9811 0.0000 0.0000
# 5 0.0000 0.0000 0.0000 0.0000 17.8768 0.0000
# 6 0.0000 0.0000 0.0000 0.0000 0.0000 18.8912
#
#
#
# Elastic Compliance Matrix: (Units=1/GPa)
#
#
# Indices 1 2 3 4 5 6 
#
# 1 0.010410 -0.009259 -0.000178 0.000000 0.000000 0.000000
# 2 -0.009259 0.033948 -0.008703 0.000000 0.000000 0.000000
# 3 -0.000178 -0.008703 0.012214 0.000000 0.000000 0.000000
# 4 0.000000 0.000000 0.000000 0.058889 0.000000 0.000000
# 5 0.000000 0.000000 0.000000 0.000000 0.055939 0.000000
# 6 0.000000 0.000000 0.000000 0.000000 0.000000 0.052935
#
#
# Mechanical properties :
#
#
# Convention : Reuss Voigt Hill
#
# Bulk Modulus (GPa) = 49.28215 59.87208 54.57711
# Shear Modulus (GPa) = 18.70015 22.72213 20.71114
#
# Velocity S-wave (km/s) = 3.12271 3.44218 3.28632
# Velocity P-wave (km/s) = 6.22094 6.85702 6.54671
#
# Compressibility (1/GPa) = 0.02029132
#
# Stress axis : x y z
#
# Youngs Moduli (GPa) = 96.06519 29.45718 81.87170
#
# Poissons Ratio (x) = 0.27273 0.01459
# Poissons Ratio (y) = 0.88943 0.71255
# Poissons Ratio (z) = 0.01712 0.25637
#
# Static dielectric constant tensor:
#      x y z
#    x 3.571420 0.000000 0.000000 
#    y 0.000000 3.230980 0.000000 
#    z 0.000000 0.000000 3.751170 
# 
# 
# High freq. dielectric constant tensor:
#      x y z
#    x 1.756240 0.000000 0.000000 
#    y 0.000000 1.714630 0.000000 
#    z 0.000000 0.000000 1.756370 
# 
# From -- ./inp_files/23176.got.cif
#   From: 2010.03.12/outbox.cif.g09.slc.cpg/sg24_12_cif.got.tgz:23176.got - 2010.04.14 03:06:53.
