data_PCOD8164467
_publ_section_title
;
Structure prediction by ZEFSAII (Michael W. Deem and Ramdas Pophale) SiO2 
 PCOD8164467
Probable space group: I 2 2 2
;
_chemical_formula_sum "Si O2"
_cell_formula_units_Z 48
_cell_length_a 25.128465
_cell_length_b 7.669771
_cell_length_c 9.009437
_cell_angle_alpha 90.000000
_cell_angle_beta 90.000000
_cell_angle_gamma 90.000000
_cell_volume 1736.384938
_symmetry_space_group_name_H-M "I 2 2 2"
_symmetry_group_IT_number 23
_symmetry_cell_setting 'orthorhombic'
loop_
_space_group_symop_operation_xyz
x,y,z
-x,-y,z
x,-y,-z
-x,y,-z
1/2+x,1/2+y,1/2+z
1/2-x,1/2-y,1/2+z
1/2+x,1/2-y,1/2-z
1/2-x,1/2+y,1/2-z
loop_
_atom_site_type_symbol
_atom_site_label
_atom_site_fract_x
_atom_site_fract_y
_atom_site_fract_z
Si Si1 0.084076 0.801065 0.495380
Si Si2 0.721144 0.102473 0.233077
Si Si3 0.297836 0.246277 0.064002
Si Si4 0.456540 0.229348 0.701100
Si Si5 0.571039 0.156289 0.677463
Si Si6 0.142237 0.180563 0.054219
O O1 0.147510 0.793729 0.518263
O O2 0.047812 0.713729 0.621569
O O3 0.076071 0.687018 0.350930
O O4 0.064703 0.000000 0.500000
O O5 0.773623 0.092325 0.339850
O O6 0.679721 0.209687 0.336453
O O7 0.698378 0.915475 0.182049
O O8 0.738319 0.201679 0.080381
O O9 0.516192 0.262979 0.640063
O O10 0.413013 0.369295 0.642216
O O11 0.436228 0.045329 0.636292
O O12 0.624050 0.218822 0.594420
O O13 0.169843 0.000000 0.000000
#
# Coordination Sequence:
#
# PCOD8164467 Si02
#       6
#     8   8   8   8   8   8
#     4  12  26  45  74 109 150 198 256 321 391 460
#     4  11  28  51  80 111 152 200 256 321 390 470
#     4  11  28  51  79 112 153 202 255 320 392 466
#     4  11  24  49  69 105 156 201 262 316 380 460
#     4  11  26  43  76 107 148 210 256 314 384 459
#     4  12  26  46  76 111 154 198 251 319 383 457
#
# _framework density 27.643640000000001
#
# number of rings (size 3 to 8) (size 9 to 14) (size 15 to 20)
#    0.000    0.667    1.667    4.000    9.333    6.667 
#    0.000    0.000    0.000    0.000    0.000    0.000 
#    0.000    0.000    0.000    0.000    0.000    0.000 
#
# Total GULP energy -297334.308616 kJ/mol
# GULP energy per Si atom -12388.929526 kJ/mol
# Density = 2.758072 g / cm^3
# Si number density = 27.643640 Si / 1000 Ang^3
#
#
#
# Elastic Constant Matrix: (Units=GPa)
#
#
# Indices 1 2 3 4 5 6 
#
# 1 71.6591 18.8181 9.4454 0.0000 0.0000 0.0000
# 2 18.8181 73.3905 16.8242 0.0000 0.0000 0.0000
# 3 9.4454 16.8242 130.0618 0.0000 0.0000 0.0000
# 4 0.0000 0.0000 0.0000 41.5035 0.0000 0.0000
# 5 0.0000 0.0000 0.0000 0.0000 1.0861 0.0000
# 6 0.0000 0.0000 0.0000 0.0000 0.0000 35.5555
#
#
#
# Elastic Compliance Matrix: (Units=1/GPa)
#
#
# Indices 1 2 3 4 5 6 
#
# 1 0.015009 -0.003709 -0.000610 0.000000 0.000000 0.000000
# 2 -0.003709 0.014959 -0.001666 0.000000 0.000000 0.000000
# 3 -0.000610 -0.001666 0.007948 0.000000 0.000000 0.000000
# 4 0.000000 0.000000 0.000000 0.024094 0.000000 0.000000
# 5 0.000000 0.000000 0.000000 0.000000 0.920721 0.000000
# 6 0.000000 0.000000 0.000000 0.000000 0.000000 0.028125
#
#
# Mechanical properties :
#
#
# Convention : Reuss Voigt Hill
#
# Bulk Modulus (GPa) = 38.53989 40.58743 39.56366
# Shear Modulus (GPa) = 4.84743 30.96393 17.90568
#
# Velocity S-wave (km/s) = 1.32565 3.35044 2.54782
# Velocity P-wave (km/s) = 4.03919 5.44807 4.79565
#
# Compressibility (1/GPa) = 0.02594714
#
# Stress axis : x y z
#
# Youngs Moduli (GPa) = 66.62534 66.85154 125.81100
#
# Poissons Ratio (x) = 0.24793 0.07678
# Poissons Ratio (y) = 0.24709 0.20956
# Poissons Ratio (z) = 0.04066 0.11135
#
# Static dielectric constant tensor:
#      x y z
#    x 5.421680 0.000000 0.000000 
#    y 0.000000 4.854090 0.000000 
#    z 0.000000 0.000000 5.360050 
# 
# 
# High freq. dielectric constant tensor:
#      x y z
#    x 2.118320 0.000000 0.000000 
#    y 0.000000 2.089940 0.000000 
#    z 0.000000 0.000000 2.149750 
# 
# From -- ./inp_files/13355.got.cif
#   From: 2010.03.12/outbox.cif.g09.slc.cpg/sg23_7_cif.got.tgz:13355.got - 2010.04.14 02:50:06.
