data_PCOD8164989
_publ_section_title
;
Structure prediction by ZEFSAII (Michael W. Deem and Ramdas Pophale) SiO2 
 PCOD8164989
Probable space group: I 21 21 21
;
_chemical_formula_sum "Si O2"
_cell_formula_units_Z 48
_cell_length_a 18.159617
_cell_length_b 13.629298
_cell_length_c 7.879391
_cell_angle_alpha 90.000000
_cell_angle_beta 90.000000
_cell_angle_gamma 90.000000
_cell_volume 1950.171584
_symmetry_space_group_name_H-M "I 21 21 21"
_symmetry_group_IT_number 24
_symmetry_cell_setting 'orthorhombic'
loop_
_space_group_symop_operation_xyz
x,y,z
-x,1/2-y,z
x,-y,1/2-z
1/2-x,y,-z
1/2+x,1/2+y,1/2+z
1/2-x,-y,1/2+z
1/2+x,1/2-y,-z
-x,1/2+y,1/2-z
loop_
_atom_site_type_symbol
_atom_site_label
_atom_site_fract_x
_atom_site_fract_y
_atom_site_fract_z
Si Si1 0.387360 0.103119 0.694236
Si Si2 0.798116 0.240092 0.167782
Si Si3 0.966913 0.648135 0.664951
Si Si4 0.334405 0.798558 0.127771
Si Si5 0.983452 0.957966 0.998341
Si Si6 0.171224 0.599690 0.060006
O O1 0.369591 0.187447 0.837863
O O2 0.348539 0.120877 0.513883
O O3 0.475658 0.095910 0.656492
O O4 0.353653 0.000000 0.750000
O O5 0.750193 0.294771 0.313849
O O6 0.820368 0.133292 0.241949
O O7 0.750000 0.226497 0.000000
O O8 0.882136 0.671898 0.707476
O O9 0.000000 0.750000 0.597959
O O10 0.010032 0.609207 0.831279
O O11 0.975804 0.563765 0.522314
O O12 0.354579 0.691257 0.055101
O O13 0.896866 0.975967 0.042584
O O14 0.250000 0.554150 0.000000
#
# Coordination Sequence:
#
# PCOD8164989 Si02
#       6
#     8   8   8   8   8   8
#     4  10  22  38  58  90 138 179 226 286 357 440
#     4  10  22  37  63  97 133 182 236 292 363 430
#     4  10  19  36  67 103 137 172 237 296 345 452
#     4   9  19  38  63  94 131 174 227 283 357 425
#     4  10  21  37  67 102 134 192 233 289 376 429
#     4   9  18  39  70  97 135 184 235 287 359 440
#
# _framework density 24.613219999999998
#
# number of rings (size 3 to 8) (size 9 to 14) (size 15 to 20)
#    0.000    2.333    1.667    1.500    2.333    1.333 
#    3.000    1.667    7.333    1.000    0.000    0.000 
#    0.000    0.000    0.000    0.000    0.000    0.000 
#
# Total GULP energy -297415.888274 kJ/mol
# GULP energy per Si atom -12392.328678 kJ/mol
# Density = 2.455720 g / cm^3
# Si number density = 24.613220 Si / 1000 Ang^3
#
#
#
# Elastic Constant Matrix: (Units=GPa)
#
#
# Indices 1 2 3 4 5 6 
#
# 1 114.6692 9.9619 9.5652 0.0000 0.0000 0.0000
# 2 9.9619 45.9462 6.3527 0.0000 0.0000 0.0000
# 3 9.5652 6.3527 64.1708 0.0000 0.0000 0.0000
# 4 0.0000 0.0000 0.0000 30.6156 0.0000 0.0000
# 5 0.0000 0.0000 0.0000 0.0000 32.9019 0.0000
# 6 0.0000 0.0000 0.0000 0.0000 0.0000 37.6666
#
#
#
# Elastic Compliance Matrix: (Units=1/GPa)
#
#
# Indices 1 2 3 4 5 6 
#
# 1 0.008973 -0.001785 -0.001161 0.000000 0.000000 0.000000
# 2 -0.001785 0.022422 -0.001954 0.000000 0.000000 0.000000
# 3 -0.001161 -0.001954 0.015950 0.000000 0.000000 0.000000
# 4 0.000000 0.000000 0.000000 0.032663 0.000000 0.000000
# 5 0.000000 0.000000 0.000000 0.000000 0.030393 0.000000
# 6 0.000000 0.000000 0.000000 0.000000 0.000000 0.026549
#
#
# Mechanical properties :
#
#
# Convention : Reuss Voigt Hill
#
# Bulk Modulus (GPa) = 26.63429 30.72731 28.68080
# Shear Modulus (GPa) = 31.39456 33.49722 32.44589
#
# Velocity S-wave (km/s) = 3.57531 3.69310 3.63468
# Velocity P-wave (km/s) = 5.28095 5.54044 5.41225
#
# Compressibility (1/GPa) = 0.03754559
#
# Stress axis : x y z
#
# Youngs Moduli (GPa) = 111.45003 44.59962 62.69660
#
# Poissons Ratio (x) = 0.07961 0.07277
# Poissons Ratio (y) = 0.19893 0.12249
# Poissons Ratio (z) = 0.12936 0.08713
#
# Static dielectric constant tensor:
#      x y z
#    x 4.500860 0.000000 0.000000 
#    y 0.000000 4.155150 0.000000 
#    z 0.000000 0.000000 4.358410 
# 
# 
# High freq. dielectric constant tensor:
#      x y z
#    x 1.982370 0.000000 0.000000 
#    y 0.000000 1.954370 0.000000 
#    z 0.000000 0.000000 1.978080 
# 
# From -- ./inp_files/14164.got.cif
#   From: 2010.03.12/outbox.cif.g09.slc.cpg/sg24_8_cif.got.tgz:14164.got - 2010.04.14 03:06:53.
