data_PCOD8164473
_publ_section_title
;
Structure prediction by ZEFSAII (Michael W. Deem and Ramdas Pophale) SiO2 
 PCOD8164473
Probable space group: I 2 2 2
;
_chemical_formula_sum "Si O2"
_cell_formula_units_Z 34
_cell_length_a 18.529408
_cell_length_b 11.960708
_cell_length_c 7.272978
_cell_angle_alpha 90.000000
_cell_angle_beta 90.000000
_cell_angle_gamma 90.000000
_cell_volume 1611.872575
_symmetry_space_group_name_H-M "I 2 2 2"
_symmetry_group_IT_number 23
_symmetry_cell_setting 'orthorhombic'
loop_
_space_group_symop_operation_xyz
x,y,z
-x,-y,z
x,-y,-z
-x,y,-z
1/2+x,1/2+y,1/2+z
1/2-x,1/2-y,1/2+z
1/2+x,1/2-y,1/2-z
1/2-x,1/2+y,1/2-z
loop_
_atom_site_type_symbol
_atom_site_label
_atom_site_fract_x
_atom_site_fract_y
_atom_site_fract_z
Si Si1 0.981962 0.375803 0.288115
Si Si2 0.833696 0.278234 0.179425
Si Si3 0.000000 0.000000 0.000000
Si Si4 0.412230 0.308799 0.665601
Si Si5 0.807668 0.870847 0.476208
O O1 0.897361 0.354494 0.259455
O O2 0.000000 0.500000 0.218586
O O3 0.000000 0.360178 0.500000
O O4 0.029021 0.289961 0.168818
O O5 0.805841 0.188611 0.326937
O O6 0.768907 0.360694 0.125776
O O7 0.857508 0.209011 0.001485
O O8 0.952212 0.925878 0.136536
O O9 0.369808 0.312254 0.856678
O O10 0.826359 0.000000 0.500000
#
# Coordination Sequence:
#
# PCOD8164473 Si02
#       5
#     8   8   2   8   8
#     4  11  25  45  75 107 142 186 239 295 349 415
#     4  12  25  49  70 105 139 185 241 284 352 425
#     4  12  24  44  76 104 140 182 238 294 346 424
#     4  12  25  46  72 106 142 184 240 285 354 422
#     4  12  28  46  73 102 146 187 229 295 357 418
#
# _framework density 21.093481000000001
#
# number of rings (size 3 to 8) (size 9 to 14) (size 15 to 20)
#    0.000    0.235    7.059    1.412    3.294    0.941 
#    0.000    0.000    0.000    0.000    0.000    0.000 
#    0.000    0.000    0.000    0.000    0.000    0.000 
#
# Total GULP energy -210949.639547 kJ/mol
# GULP energy per Si atom -12408.802326 kJ/mol
# Density = 2.104547 g / cm^3
# Si number density = 21.093481 Si / 1000 Ang^3
#
#
#
# Elastic Constant Matrix: (Units=GPa)
#
#
# Indices 1 2 3 4 5 6 
#
# 1 120.7758 48.3096 24.8530 0.0000 0.0000 0.0000
# 2 48.3096 137.7300 36.0590 0.0000 0.0000 0.0000
# 3 24.8530 36.0590 99.5080 0.0000 0.0000 0.0000
# 4 0.0000 0.0000 0.0000 35.5154 0.0000 0.0000
# 5 0.0000 0.0000 0.0000 0.0000 38.1286 0.0000
# 6 0.0000 0.0000 0.0000 0.0000 0.0000 35.8438
#
#
#
# Elastic Compliance Matrix: (Units=1/GPa)
#
#
# Indices 1 2 3 4 5 6 
#
# 1 0.009787 -0.003086 -0.001326 0.000000 0.000000 0.000000
# 2 -0.003086 0.008994 -0.002489 0.000000 0.000000 0.000000
# 3 -0.001326 -0.002489 0.011283 0.000000 0.000000 0.000000
# 4 0.000000 0.000000 0.000000 0.028157 0.000000 0.000000
# 5 0.000000 0.000000 0.000000 0.000000 0.026227 0.000000
# 6 0.000000 0.000000 0.000000 0.000000 0.000000 0.027899
#
#
# Mechanical properties :
#
#
# Convention : Reuss Voigt Hill
#
# Bulk Modulus (GPa) = 61.48987 64.05078 62.77032
# Shear Modulus (GPa) = 38.00299 38.48369 38.24334
#
# Velocity S-wave (km/s) = 4.24919 4.27597 4.26260
# Velocity P-wave (km/s) = 7.29990 7.40336 7.35181
#
# Compressibility (1/GPa) = 0.01626284
#
# Stress axis : x y z
#
# Youngs Moduli (GPa) = 102.17698 111.17989 88.63270
#
# Poissons Ratio (x) = 0.34306 0.11755
# Poissons Ratio (y) = 0.31528 0.22058
# Poissons Ratio (z) = 0.13551 0.27669
#
# Static dielectric constant tensor:
#      x y z
#    x 3.985820 0.000000 0.000000 
#    y 0.000000 3.741260 0.000000 
#    z 0.000000 0.000000 3.891680 
# 
# 
# High freq. dielectric constant tensor:
#      x y z
#    x 1.839200 0.000000 0.000000 
#    y 0.000000 1.825950 0.000000 
#    z 0.000000 0.000000 1.845810 
# 
# From -- ./inp_files/10686.got.cif
#   From: 2010.03.12/outbox.cif.g09.slc.cpg/sg23_6_cif.got.tgz:10686.got - 2010.04.14 02:50:06.
