data_PCOD8164297
_publ_section_title
;
Structure prediction by ZEFSAII (Michael W. Deem and Ramdas Pophale) SiO2 
 PCOD8164297
Probable space group: I 2 2 2
;
_chemical_formula_sum "Si O2"
_cell_formula_units_Z 64
_cell_length_a 20.371360
_cell_length_b 8.922951
_cell_length_c 17.930446
_cell_angle_alpha 90.000000
_cell_angle_beta 90.000000
_cell_angle_gamma 90.000000
_cell_volume 3259.264633
_symmetry_space_group_name_H-M "I 2 2 2"
_symmetry_group_IT_number 23
_symmetry_cell_setting 'orthorhombic'
loop_
_space_group_symop_operation_xyz
x,y,z
-x,-y,z
x,-y,-z
-x,y,-z
1/2+x,1/2+y,1/2+z
1/2-x,1/2-y,1/2+z
1/2+x,1/2-y,1/2-z
1/2-x,1/2+y,1/2-z
loop_
_atom_site_type_symbol
_atom_site_label
_atom_site_fract_x
_atom_site_fract_y
_atom_site_fract_z
Si Si1 0.607457 0.411073 0.928826
Si Si2 0.935101 0.416418 0.731516
Si Si3 0.747261 0.921986 0.932849
Si Si4 0.752782 0.355982 0.966427
Si Si5 0.604417 0.062805 0.923205
Si Si6 0.299790 0.485162 0.721679
Si Si7 0.565758 0.563639 0.780767
Si Si8 0.304347 0.848833 0.311876
O O1 0.686099 0.412475 0.927911
O O2 0.586510 0.237842 0.922160
O O3 0.576103 0.508642 0.864125
O O4 0.579808 0.500000 0.000000
O O5 0.924672 0.488820 0.650528
O O6 0.943298 0.241003 0.720067
O O7 0.872143 0.432154 0.787143
O O8 0.000000 0.500000 0.765813
O O9 0.682081 0.024771 0.923314
O O10 0.783681 0.927400 0.854649
O O11 0.735768 0.754585 0.964031
O O12 0.788993 0.000000 0.000000
O O13 0.801445 0.303879 0.899916
O O14 0.789463 0.500000 0.000000
O O15 0.572839 0.000000 0.000000
O O16 0.376815 0.510843 0.732127
O O17 0.291102 0.307327 0.728753
O O18 0.255774 0.545506 0.788885
O O19 0.500000 0.500000 0.744669
#
# Coordination Sequence:
#
# PCOD8164297 Si02
#       8
#     8   8   8   8   8   8   8   8
#     4  11  21  35  59  88 130 162 200 254 308 371
#     4  11  25  42  62  86 124 172 216 260 310 386
#     4  11  20  38  61  94 129 161 197 254 318 375
#     4  11  23  37  60  97 130 159 200 261 317 374
#     4  11  20  35  60  89 124 168 205 242 307 382
#     4  11  23  37  65  94 126 163 206 262 313 381
#     4  11  25  42  59  89 127 168 214 262 319 372
#     4  11  23  39  62  96 125 160 210 257 320 373
#
# _framework density 19.636330999999998
#
# number of rings (size 3 to 8) (size 9 to 14) (size 15 to 20)
#    0.000    1.000    6.250    1.500    3.500    1.500 
#    0.000    2.500    0.000    0.750    0.000    0.000 
#    0.000    0.000    0.000    0.000    0.000    0.000 
#
# Total GULP energy -396418.053181 kJ/mol
# GULP energy per Si atom -12388.064162 kJ/mol
# Density = 1.959164 g / cm^3
# Si number density = 19.636331 Si / 1000 Ang^3
#
#
#
# Elastic Constant Matrix: (Units=GPa)
#
#
# Indices 1 2 3 4 5 6 
#
# 1 106.9381 50.8562 30.6005 0.0000 0.0000 0.0000
# 2 50.8562 100.7755 24.6742 0.0000 0.0000 0.0000
# 3 30.6005 24.6742 58.0395 0.0000 0.0000 0.0000
# 4 0.0000 0.0000 0.0000 29.4249 0.0000 0.0000
# 5 0.0000 0.0000 0.0000 0.0000 24.5310 0.0000
# 6 0.0000 0.0000 0.0000 0.0000 0.0000 27.4210
#
#
#
# Elastic Compliance Matrix: (Units=1/GPa)
#
#
# Indices 1 2 3 4 5 6 
#
# 1 0.013344 -0.005594 -0.004657 0.000000 0.000000 0.000000
# 2 -0.005594 0.013421 -0.002756 0.000000 0.000000 0.000000
# 3 -0.004657 -0.002756 0.020857 0.000000 0.000000 0.000000
# 4 0.000000 0.000000 0.000000 0.033985 0.000000 0.000000
# 5 0.000000 0.000000 0.000000 0.000000 0.040765 0.000000
# 6 0.000000 0.000000 0.000000 0.000000 0.000000 0.036468
#
#
# Mechanical properties :
#
#
# Convention : Reuss Voigt Hill
#
# Bulk Modulus (GPa) = 46.28154 53.11277 49.69715
# Shear Modulus (GPa) = 26.03391 26.91687 26.47539
#
# Velocity S-wave (km/s) = 3.64511 3.70641 3.67588
# Velocity P-wave (km/s) = 6.42933 6.73970 6.58634
#
# Compressibility (1/GPa) = 0.02160689
#
# Stress axis : x y z
#
# Youngs Moduli (GPa) = 74.93927 74.51126 47.94551
#
# Poissons Ratio (x) = 0.41680 0.22330
# Poissons Ratio (y) = 0.41919 0.13215
# Poissons Ratio (z) = 0.34903 0.20538
#
# Static dielectric constant tensor:
#      x y z
#    x 3.640710 0.000000 0.000000 
#    y 0.000000 3.756240 0.000000 
#    z 0.000000 0.000000 3.709410 
# 
# 
# High freq. dielectric constant tensor:
#      x y z
#    x 1.738170 0.000000 0.000000 
#    y 0.000000 1.784030 0.000000 
#    z 0.000000 0.000000 1.759020 
# 
# From -- ./inp_files/25276.got.cif
#   From: 2010.03.12/outbox.cif.g09.slc.cpg/sg23_13_cif.got.tgz:25276.got - 2010.04.14 02:50:06.
