data_PCOD8164070
_publ_section_title
;
Structure prediction by ZEFSAII (Michael W. Deem and Ramdas Pophale) SiO2 
 PCOD8164070
Probable space group: I 2 2 2
;
_chemical_formula_sum "Si O2"
_cell_formula_units_Z 64
_cell_length_a 14.269072
_cell_length_b 8.782661
_cell_length_c 24.827876
_cell_angle_alpha 90.000000
_cell_angle_beta 90.000000
_cell_angle_gamma 90.000000
_cell_volume 3111.439902
_symmetry_space_group_name_H-M "I 2 2 2"
_symmetry_group_IT_number 23
_symmetry_cell_setting 'orthorhombic'
loop_
_space_group_symop_operation_xyz
x,y,z
-x,-y,z
x,-y,-z
-x,y,-z
1/2+x,1/2+y,1/2+z
1/2-x,1/2-y,1/2+z
1/2+x,1/2-y,1/2-z
1/2-x,1/2+y,1/2-z
loop_
_atom_site_type_symbol
_atom_site_label
_atom_site_fract_x
_atom_site_fract_y
_atom_site_fract_z
Si Si1 0.211526 0.167599 0.799734
Si Si2 0.692265 0.689765 0.697968
Si Si3 0.492415 0.320700 0.333723
Si Si4 0.034705 0.328982 0.943515
Si Si5 0.708646 0.814221 0.087625
Si Si6 0.734155 0.171433 0.514878
Si Si7 0.843666 0.664112 0.399122
Si Si8 0.514330 0.322784 0.937155
O O1 0.250159 0.227955 0.743954
O O2 0.285019 0.213262 0.846390
O O3 0.107345 0.238199 0.810351
O O4 0.200916 0.988892 0.793768
O O5 0.582655 0.743458 0.699124
O O6 0.737559 0.735032 0.641291
O O7 0.500000 0.500000 0.332539
O O8 0.503325 0.272872 0.395516
O O9 0.000000 0.500000 0.935519
O O10 0.146261 0.324152 0.945276
O O11 0.000000 0.260349 0.000000
O O12 0.779659 0.777443 0.038153
O O13 0.620595 0.705975 0.079739
O O14 0.675112 0.988403 0.088124
O O15 0.818954 0.235889 0.549019
O O16 0.759836 0.000000 0.500000
O O17 0.953137 0.712548 0.396659
O O18 0.500000 0.500000 0.924847
O O19 0.500000 0.281296 0.000000
#
# Coordination Sequence:
#
# PCOD8164070 Si02
#       8
#     8   8   8   8   8   8   8   8
#     4  10  23  44  66  93 124 162 213 262 317 375
#     4  10  24  42  67  93 124 163 211 264 316 376
#     4  10  22  44  64  91 125 161 208 260 309 374
#     4  11  22  38  56  92 129 168 207 251 307 370
#     4  11  24  41  64  95 128 168 216 263 318 380
#     4  12  22  37  60  90 132 167 207 257 311 378
#     4  11  23  41  65  93 127 169 214 263 318 378
#     4  11  23  40  61  93 131 169 213 263 318 380
#
# _framework density 20.569255999999999
#
# number of rings (size 3 to 8) (size 9 to 14) (size 15 to 20)
#    0.000    1.250    3.750    2.250    0.000    4.750 
#    2.250    2.500    0.000    0.000    0.000    0.000 
#    0.000    0.000    0.000    0.000    0.000    0.000 
#
# Total GULP energy -396725.125437 kJ/mol
# GULP energy per Si atom -12397.660170 kJ/mol
# Density = 2.052244 g / cm^3
# Si number density = 20.569256 Si / 1000 Ang^3
#
#
#
# Elastic Constant Matrix: (Units=GPa)
#
#
# Indices 1 2 3 4 5 6 
#
# 1 126.8923 24.8899 45.6739 0.0000 0.0000 0.0000
# 2 24.8899 45.4597 23.5112 0.0000 0.0000 0.0000
# 3 45.6739 23.5112 109.9213 0.0000 0.0000 0.0000
# 4 0.0000 0.0000 0.0000 36.0443 0.0000 0.0000
# 5 0.0000 0.0000 0.0000 0.0000 434.5250 0.0000
# 6 0.0000 0.0000 0.0000 0.0000 0.0000 27.5894
#
#
#
# Elastic Compliance Matrix: (Units=1/GPa)
#
#
# Indices 1 2 3 4 5 6 
#
# 1 0.009779 -0.003657 -0.003281 0.000000 0.000000 0.000000
# 2 -0.003657 0.026101 -0.004063 0.000000 0.000000 0.000000
# 3 -0.003281 -0.004063 0.011330 0.000000 0.000000 0.000000
# 4 0.000000 0.000000 0.000000 0.027744 0.000000 0.000000
# 5 0.000000 0.000000 0.000000 0.000000 0.002301 0.000000
# 6 0.000000 0.000000 0.000000 0.000000 0.000000 0.036246
#
#
# Mechanical properties :
#
#
# Convention : Reuss Voigt Hill
#
# Bulk Modulus (GPa) = 39.67127 52.26926 45.97026
# Shear Modulus (GPa) = 34.74477 112.17831 73.46154
#
# Velocity S-wave (km/s) = 4.11440 7.39292 5.98262
# Velocity P-wave (km/s) = 6.47299 9.91666 8.37376
#
# Compressibility (1/GPa) = 0.02520716
#
# Stress axis : x y z
#
# Youngs Moduli (GPa) = 102.25922 38.31218 88.26248
#
# Poissons Ratio (x) = 0.14012 0.28960
# Poissons Ratio (y) = 0.37399 0.35863
# Poissons Ratio (z) = 0.33552 0.15567
#
# Static dielectric constant tensor:
#      x y z
#    x 4.185350 0.000000 0.000000 
#    y 0.000000 3.299410 0.000000 
#    z 0.000000 0.000000 3.817350 
# 
# 
# High freq. dielectric constant tensor:
#      x y z
#    x 1.826470 0.000000 0.000000 
#    y 0.000000 1.797060 0.000000 
#    z 0.000000 0.000000 1.794900 
# 
# From -- ./inp_files/28567.got.cif
#   From: 2010.03.12/outbox.cif.g09.slc.cpg/sg23_15_cif.got.tgz:28567.got - 2010.04.14 02:50:06.
