data_PCOD8164592
_publ_section_title
;
Structure prediction by ZEFSAII (Michael W. Deem and Ramdas Pophale) SiO2 
 PCOD8164592
Probable space group: I 21 21 21
;
_chemical_formula_sum "Si O2"
_cell_formula_units_Z 32
_cell_length_a 10.717644
_cell_length_b 17.194524
_cell_length_c 7.636198
_cell_angle_alpha 90.000000
_cell_angle_beta 90.000000
_cell_angle_gamma 90.000000
_cell_volume 1407.235122
_symmetry_space_group_name_H-M "I 21 21 21"
_symmetry_group_IT_number 24
_symmetry_cell_setting 'orthorhombic'
loop_
_space_group_symop_operation_xyz
x,y,z
-x,1/2-y,z
x,-y,1/2-z
1/2-x,y,-z
1/2+x,1/2+y,1/2+z
1/2-x,-y,1/2+z
1/2+x,1/2-y,-z
-x,1/2+y,1/2-z
loop_
_atom_site_type_symbol
_atom_site_label
_atom_site_fract_x
_atom_site_fract_y
_atom_site_fract_z
Si Si1 0.112296 0.810277 0.500000
Si Si2 0.516775 0.590037 0.197767
Si Si3 0.750000 0.910392 0.705236
Si Si4 0.516776 0.409963 0.697767
O O1 0.250000 0.769736 0.500000
O O2 0.106732 0.863682 0.672615
O O3 0.106733 0.863683 0.327385
O O4 0.000000 0.750000 0.499996
O O5 0.516664 0.500000 0.250000
O O6 0.376295 0.625807 0.213806
O O7 0.565101 0.600760 0.000000
O O8 0.750000 0.896478 0.500000
O O9 0.623704 0.874194 0.786194
O O10 0.750004 0.000000 0.750000
O O11 0.516663 0.500000 0.750000
#
# Coordination Sequence:
#
# PCOD8164592 Si02
#       4
#     8   8   8   8
#     4  12  30  50  72 104 149 192 234 297 368 433
#     4  11  21  42  73 110 141 186 241 300 352 419
#     4  10  16  30  62 105 145 174 223 288 348 404
#     4  11  21  42  73 110 141 186 241 300 352 419
#
# _framework density 22.739626999999999
#
# number of rings (size 3 to 8) (size 9 to 14) (size 15 to 20)
#    0.000    1.000    5.000    5.250    3.500    3.000 
#    0.000    0.000    0.000    0.000    0.000    0.000 
#    0.000    0.000    0.000    0.000    0.000    0.000 
#
# Total GULP energy -198357.975719 kJ/mol
# GULP energy per Si atom -12397.373482 kJ/mol
# Density = 2.268787 g / cm^3
# Si number density = 22.739627 Si / 1000 Ang^3
#
#
#
# Elastic Constant Matrix: (Units=GPa)
#
#
# Indices 1 2 3 4 5 6 
#
# 1 144.7012 40.9367 34.6474 0.0000 0.0001 0.0001
# 2 40.9367 62.9201 41.3634 -0.0011 -0.0001 0.0001
# 3 34.6474 41.3634 219.4559 -0.0052 0.0008 0.0005
# 4 0.0000 -0.0011 -0.0052 17.0039 0.0002 0.0003
# 5 0.0001 -0.0001 0.0008 0.0002 7.1817 -0.0001
# 6 0.0001 0.0001 0.0005 0.0003 -0.0001 35.5843
#
#
#
# Elastic Compliance Matrix: (Units=1/GPa)
#
#
# Indices 1 2 3 4 5 6 
#
# 1 0.008492 -0.005300 -0.000342 0.000000 0.000000 0.000000
# 2 -0.005300 0.021449 -0.003206 0.000000 0.000001 0.000000
# 3 -0.000342 -0.003206 0.005215 0.000001 -0.000001 0.000000
# 4 0.000000 0.000000 0.000001 0.058810 -0.000002 0.000000
# 5 0.000000 0.000001 -0.000001 -0.000002 0.139242 0.000000
# 6 0.000000 0.000000 0.000000 0.000000 0.000000 0.028102
#
#
# Mechanical properties :
#
#
# Convention : Reuss Voigt Hill
#
# Bulk Modulus (GPa) = 57.27335 73.44136 65.35735
# Shear Modulus (GPa) = 17.55452 32.62930 25.09191
#
# Velocity S-wave (km/s) = 2.78147 3.79213 3.32542
# Velocity P-wave (km/s) = 5.96294 7.17917 6.59913
#
# Compressibility (1/GPa) = 0.01746013
#
# Stress axis : x y z
#
# Youngs Moduli (GPa) = 117.75594 46.62147 191.75692
#
# Poissons Ratio (x) = 0.24712 0.06552
# Poissons Ratio (y) = 0.62416 0.61477
# Poissons Ratio (z) = 0.04024 0.14947
#
# Static dielectric constant tensor:
#      x y z
#    x 4.651630 0.000000 0.000000 
#    y 0.000000 3.807230 0.000000 
#    z 0.000000 0.000000 4.219110 
# 
# 
# High freq. dielectric constant tensor:
#      x y z
#    x 1.895930 0.000000 0.000000 
#    y 0.000000 1.864550 0.000000 
#    z 0.000000 0.000000 1.909350 
# 
# From -- ./inp_files/8938.got.cif
#   From: 2010.03.12/outbox.cif.g09.slc.cpg/sg24_5_cif.got.tgz:8938.got - 2010.04.14 03:06:53.
