data_PCOD8164317
_publ_section_title
;
Structure prediction by ZEFSAII (Michael W. Deem and Ramdas Pophale) SiO2 
 PCOD8164317
Probable space group: I 2 2 2
;
_chemical_formula_sum "Si O2"
_cell_formula_units_Z 32
_cell_length_a 4.872850
_cell_length_b 17.028052
_cell_length_c 19.082268
_cell_angle_alpha 90.000000
_cell_angle_beta 90.000000
_cell_angle_gamma 90.000000
_cell_volume 1583.353920
_symmetry_space_group_name_H-M "I 2 2 2"
_symmetry_group_IT_number 23
_symmetry_cell_setting 'orthorhombic'
loop_
_space_group_symop_operation_xyz
x,y,z
-x,-y,z
x,-y,-z
-x,y,-z
1/2+x,1/2+y,1/2+z
1/2-x,1/2-y,1/2+z
1/2+x,1/2-y,1/2-z
1/2-x,1/2+y,1/2-z
loop_
_atom_site_type_symbol
_atom_site_label
_atom_site_fract_x
_atom_site_fract_y
_atom_site_fract_z
Si Si1 0.770834 0.448025 0.262430
Si Si2 0.902140 0.180733 0.426596
Si Si3 0.601668 0.082041 0.605465
Si Si4 0.329018 0.222750 0.208173
O O1 0.500000 0.500000 0.253219
O O2 0.908229 0.423266 0.189089
O O3 0.719513 0.366464 0.303354
O O4 0.000000 0.500000 0.303041
O O5 0.589225 0.151257 0.425658
O O6 0.942001 0.244424 0.365384
O O7 0.000000 0.219855 0.500000
O O8 0.087672 0.103107 0.414919
O O9 0.500000 0.000000 0.572042
O O10 0.579730 0.224430 0.263276
#
# Coordination Sequence:
#
# PCOD8164317 Si02
#       4
#     8   8   8   8
#     4  11  21  36  61  89 120 154 206 258 309 359
#     4  12  24  39  58  88 123 166 205 248 304 367
#     4  11  22  37  58  86 126 164 201 241 297 370
#     4  12  22  40  62  88 120 162 204 257 305 359
#
# _framework density 20.210260999999999
#
# number of rings (size 3 to 8) (size 9 to 14) (size 15 to 20)
#    0.000    0.500    5.000    6.000    0.000    3.000 
#    0.000    0.000    0.000    0.750    0.000    1.750 
#    0.000    0.000    0.000    0.000    0.000    0.000 
#
# Total GULP energy -198365.437440 kJ/mol
# GULP energy per Si atom -12397.839840 kJ/mol
# Density = 2.016426 g / cm^3
# Si number density = 20.210261 Si / 1000 Ang^3
#
#
#
# Elastic Constant Matrix: (Units=GPa)
#
#
# Indices 1 2 3 4 5 6 
#
# 1 104.7384 38.9447 22.7869 0.0000 0.0000 0.0000
# 2 38.9447 118.7111 55.9850 0.0000 0.0000 0.0000
# 3 22.7869 55.9850 85.5577 0.0000 0.0000 0.0000
# 4 0.0000 0.0000 0.0000 14.1396 0.0000 0.0000
# 5 0.0000 0.0000 0.0000 0.0000 17.7666 0.0000
# 6 0.0000 0.0000 0.0000 0.0000 0.0000 32.2360
#
#
#
# Elastic Compliance Matrix: (Units=1/GPa)
#
#
# Indices 1 2 3 4 5 6 
#
# 1 0.010913 -0.003196 -0.000815 0.000000 0.000000 0.000000
# 2 -0.003196 0.013119 -0.007734 0.000000 0.000000 0.000000
# 3 -0.000815 -0.007734 0.016966 0.000000 0.000000 0.000000
# 4 0.000000 0.000000 0.000000 0.070723 0.000000 0.000000
# 5 0.000000 0.000000 0.000000 0.000000 0.056285 0.000000
# 6 0.000000 0.000000 0.000000 0.000000 0.000000 0.031021
#
#
# Mechanical properties :
#
#
# Convention : Reuss Voigt Hill
#
# Bulk Modulus (GPa) = 57.11387 60.49339 58.80363
# Shear Modulus (GPa) = 21.89582 25.58114 23.73848
#
# Velocity S-wave (km/s) = 3.29508 3.56160 3.43093
# Velocity P-wave (km/s) = 6.54201 6.84911 6.69732
#
# Compressibility (1/GPa) = 0.01750888
#
# Stress axis : x y z
#
# Youngs Moduli (GPa) = 91.63179 76.22281 58.94224
#
# Poissons Ratio (x) = 0.24358 0.04807
# Poissons Ratio (y) = 0.29282 0.45584
# Poissons Ratio (z) = 0.07472 0.58948
#
# Static dielectric constant tensor:
#      x y z
#    x 3.732720 0.000000 0.000000 
#    y 0.000000 3.837440 0.000000 
#    z 0.000000 0.000000 3.430920 
# 
# 
# High freq. dielectric constant tensor:
#      x y z
#    x 1.811110 0.000000 0.000000 
#    y 0.000000 1.778060 0.000000 
#    z 0.000000 0.000000 1.749760 
# 
# From -- ./inp_files/2180.got.cif
#   From: 2010.03.12/outbox.cif.g09.slc.cpg/sg23_2_cif.got.tgz:2180.got - 2010.04.14 02:50:06.
