data_PCOD8164615
_publ_section_title
;
Structure prediction by ZEFSAII (Michael W. Deem and Ramdas Pophale) SiO2 
 PCOD8164615
Probable space group: I 21 21 21
;
_chemical_formula_sum "Si O2"
_cell_formula_units_Z 64
_cell_length_a 21.578562
_cell_length_b 9.204264
_cell_length_c 19.939596
_cell_angle_alpha 90.000000
_cell_angle_beta 90.000000
_cell_angle_gamma 90.000000
_cell_volume 3960.298501
_symmetry_space_group_name_H-M "I 21 21 21"
_symmetry_group_IT_number 24
_symmetry_cell_setting 'orthorhombic'
loop_
_space_group_symop_operation_xyz
x,y,z
-x,1/2-y,z
x,-y,1/2-z
1/2-x,y,-z
1/2+x,1/2+y,1/2+z
1/2-x,-y,1/2+z
1/2+x,1/2-y,-z
-x,1/2+y,1/2-z
loop_
_atom_site_type_symbol
_atom_site_label
_atom_site_fract_x
_atom_site_fract_y
_atom_site_fract_z
Si Si1 0.751278 0.668510 0.768815
Si Si2 0.224338 0.676357 0.894351
Si Si3 0.414866 0.970163 0.906000
Si Si4 0.604803 0.775237 0.642096
Si Si5 0.054924 0.436693 0.398201
Si Si6 0.609649 0.721999 0.789634
Si Si7 0.651787 0.225072 0.523315
Si Si8 0.231834 0.589064 0.316223
O O1 0.753780 0.500000 0.750000
O O2 0.789084 0.702879 0.836574
O O3 0.683343 0.735833 0.782420
O O4 0.773732 0.770336 0.706516
O O5 0.289412 0.702769 0.929703
O O6 0.226059 0.513047 0.863944
O O7 0.168089 0.699098 0.945840
O O8 0.484099 0.910814 0.919398
O O9 0.400439 0.928381 0.828664
O O10 0.372214 0.888130 0.960736
O O11 0.399355 0.140785 0.910133
O O12 0.581237 0.722975 0.715283
O O13 0.672396 0.850716 0.643081
O O14 0.556601 0.892123 0.615033
O O15 0.078118 0.351664 0.331947
O O16 0.098647 0.391400 0.459796
O O17 0.210203 0.500000 0.250000
#
# Coordination Sequence:
#
# PCOD8164615 Si02
#       8
#     8   8   8   8   8   8   8   8
#     4  10  17  29  51  74  97 118 147 196 252 283
#     4  10  18  33  53  65  88 125 163 196 233 282
#     4  11  22  31  44  66  95 126 163 206 234 271
#     4  11  19  29  45  65  93 125 162 202 241 266
#     4  11  20  33  45  63  94 126 169 201 229 272
#     4  10  18  29  44  61  93 129 163 198 227 270
#     4  10  20  34  48  63  89 127 170 196 229 272
#     4   9  17  30  49  71  92 121 158 196 238 282
#
# _framework density 16.160397
#
# number of rings (size 3 to 8) (size 9 to 14) (size 15 to 20)
#    0.000    1.750    3.750    5.625    0.000    3.000 
#    0.000    1.250    0.000    0.000    0.000    0.000 
#    0.000   12.000    0.000    0.000    0.000    0.000 
#
# Total GULP energy -396508.114885 kJ/mol
# GULP energy per Si atom -12390.878590 kJ/mol
# Density = 1.612362 g / cm^3
# Si number density = 16.160397 Si / 1000 Ang^3
#
#
#
# Elastic Constant Matrix: (Units=GPa)
#
#
# Indices 1 2 3 4 5 6 
#
# 1 50.5348 24.6046 39.3777 0.0000 0.0000 0.0000
# 2 24.6046 122.5710 40.0460 0.0000 0.0000 0.0000
# 3 39.3777 40.0460 79.4095 0.0000 0.0000 0.0000
# 4 0.0000 0.0000 0.0000 14.9432 0.0000 0.0000
# 5 0.0000 0.0000 0.0000 0.0000 16.5825 0.0000
# 6 0.0000 0.0000 0.0000 0.0000 0.0000 12.7953
#
#
#
# Elastic Compliance Matrix: (Units=1/GPa)
#
#
# Indices 1 2 3 4 5 6 
#
# 1 0.032480 -0.001506 -0.015347 0.000000 0.000000 0.000000
# 2 -0.001506 0.009838 -0.004214 0.000000 0.000000 0.000000
# 3 -0.015347 -0.004214 0.022328 0.000000 0.000000 0.000000
# 4 0.000000 0.000000 0.000000 0.066920 0.000000 0.000000
# 5 0.000000 0.000000 0.000000 0.000000 0.060304 0.000000
# 6 0.000000 0.000000 0.000000 0.000000 0.000000 0.078154
#
#
# Mechanical properties :
#
#
# Convention : Reuss Voigt Hill
#
# Bulk Modulus (GPa) = 44.42071 51.17467 47.79769
# Shear Modulus (GPa) = 15.64147 18.76334 17.20240
#
# Velocity S-wave (km/s) = 3.11447 3.41114 3.26617
# Velocity P-wave (km/s) = 6.36241 6.87386 6.62308
#
# Compressibility (1/GPa) = 0.02251202
#
# Stress axis : x y z
#
# Youngs Moduli (GPa) = 30.78801 101.64936 44.78582
#
# Poissons Ratio (x) = 0.15308 0.68732
# Poissons Ratio (y) = 0.04636 0.18875
# Poissons Ratio (z) = 0.47250 0.42839
#
# Static dielectric constant tensor:
#      x y z
#    x 2.758290 0.000000 0.000000 
#    y 0.000000 3.249540 0.000000 
#    z 0.000000 0.000000 3.104230 
# 
# 
# High freq. dielectric constant tensor:
#      x y z
#    x 1.577300 0.000000 0.000000 
#    y 0.000000 1.640790 0.000000 
#    z 0.000000 0.000000 1.588050 
# 
# From -- ./inp_files/34198.got.cif
#   From: 2010.03.12/outbox.cif.g09.slc.cpg/sg24_18_cif.got.tgz:34198.got - 2010.04.14 03:06:53.
