data_PCOD8164254
_publ_section_title
;
Structure prediction by ZEFSAII (Michael W. Deem and Ramdas Pophale) SiO2 
 PCOD8164254
Probable space group: I 2 2 2
;
_chemical_formula_sum "Si O2"
_cell_formula_units_Z 56
_cell_length_a 15.286691
_cell_length_b 11.055410
_cell_length_c 15.020923
_cell_angle_alpha 90.000000
_cell_angle_beta 90.000000
_cell_angle_gamma 90.000000
_cell_volume 2538.545549
_symmetry_space_group_name_H-M "I 2 2 2"
_symmetry_group_IT_number 23
_symmetry_cell_setting 'orthorhombic'
loop_
_space_group_symop_operation_xyz
x,y,z
-x,-y,z
x,-y,-z
-x,y,-z
1/2+x,1/2+y,1/2+z
1/2-x,1/2-y,1/2+z
1/2+x,1/2-y,1/2-z
1/2-x,1/2+y,1/2-z
loop_
_atom_site_type_symbol
_atom_site_label
_atom_site_fract_x
_atom_site_fract_y
_atom_site_fract_z
Si Si1 0.766309 0.514949 0.302296
Si Si2 0.095044 0.486996 0.148105
Si Si3 0.530615 0.336432 0.901347
Si Si4 0.376771 0.111851 0.053975
Si Si5 0.404391 0.807815 0.499659
Si Si6 0.764899 0.258655 0.583548
Si Si7 0.636006 0.551240 0.834106
O O1 0.834359 0.495246 0.223650
O O2 0.796657 0.434568 0.385872
O O3 0.761645 0.655417 0.329910
O O4 0.671239 0.472129 0.266399
O O5 0.096154 0.587179 0.072257
O O6 0.000000 0.500000 0.194704
O O7 0.112454 0.358726 0.099592
O O8 0.552946 0.192851 0.891178
O O9 0.614504 0.420946 0.878658
O O10 0.451630 0.366013 0.832369
O O11 0.500000 0.371153 0.000000
O O12 0.343584 0.206031 0.980877
O O13 0.420562 0.000000 0.000000
O O14 0.500000 0.742425 0.500000
O O15 0.325340 0.721110 0.529142
O O16 0.786018 0.120708 0.612652
#
# Coordination Sequence:
#
# PCOD8164254 Si02
#       7
#     8   8   8   8   8   8   8
#     4  11  25  42  64  99 143 176 223 285 351 411
#     4   9  19  36  61  94 126 164 221 282 329 387
#     4  11  24  43  70 101 136 181 229 285 354 416
#     4  10  25  46  67  97 140 182 229 280 350 433
#     4   9  19  37  64  95 123 165 226 274 324 393
#     4  11  23  41  67  96 133 186 225 276 345 418
#     4  11  24  40  66 102 135 175 234 280 341 421
#
# _framework density 22.059877
#
# number of rings (size 3 to 8) (size 9 to 14) (size 15 to 20)
#    0.000    1.714    2.857    1.714    4.000    1.429 
#    0.000    8.571    0.000    3.000    0.000    0.000 
#    0.000    0.000    0.000    0.000    0.000    0.000 
#
# Total GULP energy -347018.965356 kJ/mol
# GULP energy per Si atom -12393.534477 kJ/mol
# Density = 2.200967 g / cm^3
# Si number density = 22.059877 Si / 1000 Ang^3
#
#
#
# Elastic Constant Matrix: (Units=GPa)
#
#
# Indices 1 2 3 4 5 6 
#
# 1 115.6245 47.4086 34.2341 0.0000 0.0000 0.0000
# 2 47.4086 113.3386 33.6746 0.0000 0.0000 0.0000
# 3 34.2341 33.6746 79.2587 0.0000 0.0000 0.0000
# 4 0.0000 0.0000 0.0000 9.1659 0.0000 0.0000
# 5 0.0000 0.0000 0.0000 0.0000 27.3954 0.0000
# 6 0.0000 0.0000 0.0000 0.0000 0.0000 23.2649
#
#
#
# Elastic Compliance Matrix: (Units=1/GPa)
#
#
# Indices 1 2 3 4 5 6 
#
# 1 0.011120 -0.003690 -0.003235 0.000000 0.000000 0.000000
# 2 -0.003690 0.011322 -0.003217 0.000000 0.000000 0.000000
# 3 -0.003235 -0.003217 0.015381 0.000000 0.000000 0.000000
# 4 0.000000 0.000000 0.000000 0.109099 0.000000 0.000000
# 5 0.000000 0.000000 0.000000 0.000000 0.036502 0.000000
# 6 0.000000 0.000000 0.000000 0.000000 0.000000 0.042983
#
#
# Mechanical properties :
#
#
# Convention : Reuss Voigt Hill
#
# Bulk Modulus (GPa) = 57.01509 59.87294 58.44402
# Shear Modulus (GPa) = 19.79900 24.82553 22.31227
#
# Velocity S-wave (km/s) = 2.99910 3.35829 3.18377
# Velocity P-wave (km/s) = 6.15585 6.49904 6.32977
#
# Compressibility (1/GPa) = 0.01753922
#
# Stress axis : x y z
#
# Youngs Moduli (GPa) = 89.93198 88.32085 65.01568
#
# Poissons Ratio (x) = 0.32591 0.21033
# Poissons Ratio (y) = 0.33185 0.20914
# Poissons Ratio (z) = 0.29094 0.28410
#
# Static dielectric constant tensor:
#      x y z
#    x 4.400040 0.000000 0.000000 
#    y 0.000000 3.918970 0.000000 
#    z 0.000000 0.000000 3.939170 
# 
# 
# High freq. dielectric constant tensor:
#      x y z
#    x 1.876690 0.000000 0.000000 
#    y 0.000000 1.850750 0.000000 
#    z 0.000000 0.000000 1.850800 
# 
# From -- ./inp_files/21611.got.cif
#   From: 2010.03.12/outbox.cif.g09.slc.cpg/sg23_11_cif.got.tgz:21611.got - 2010.04.14 02:50:06.
