data_PCOD8164350
_publ_section_title
;
Structure prediction by ZEFSAII (Michael W. Deem and Ramdas Pophale) SiO2 
 PCOD8164350
Probable space group: I 2 2 2
;
_chemical_formula_sum "Si O2"
_cell_formula_units_Z 40
_cell_length_a 20.505336
_cell_length_b 9.306052
_cell_length_c 9.365954
_cell_angle_alpha 90.000000
_cell_angle_beta 90.000000
_cell_angle_gamma 90.000000
_cell_volume 1787.246213
_symmetry_space_group_name_H-M "I 2 2 2"
_symmetry_group_IT_number 23
_symmetry_cell_setting 'orthorhombic'
loop_
_space_group_symop_operation_xyz
x,y,z
-x,-y,z
x,-y,-z
-x,y,-z
1/2+x,1/2+y,1/2+z
1/2-x,1/2-y,1/2+z
1/2+x,1/2-y,1/2-z
1/2-x,1/2+y,1/2-z
loop_
_atom_site_type_symbol
_atom_site_label
_atom_site_fract_x
_atom_site_fract_y
_atom_site_fract_z
Si Si1 0.184159 0.336936 0.439982
Si Si2 0.046052 0.225103 0.384743
Si Si3 0.892744 0.500000 0.000000
Si Si4 0.804503 0.256875 0.888248
Si Si5 0.000000 0.000000 0.179301
Si Si6 0.000000 0.500000 0.232075
Si Si7 0.113379 0.000000 0.000000
O O1 0.179558 0.500000 0.500000
O O2 0.115748 0.256171 0.454491
O O3 0.203943 0.319832 0.272361
O O4 0.233641 0.250479 0.540287
O O5 0.047249 0.113213 0.256518
O O6 0.011448 0.369073 0.335815
O O7 0.000000 0.149816 0.500000
O O8 0.847784 0.637466 0.018490
O O9 0.935975 0.472721 0.138923
O O10 0.839837 0.101689 0.904229
O O11 0.058145 0.913378 0.094528
#
# Coordination Sequence:
#
# PCOD8164350 Si02
#       7
#     8   8   4   8   4   4   4
#     4  12  28  51  73 112 156 207 262 309 394 472
#     4  12  25  44  72 107 148 193 247 325 386 447
#     4  11  24  42  74 112 143 198 270 308 389 458
#     4  12  27  47  78 110 154 207 253 326 381 467
#     4  11  23  44  74 112 151 187 248 314 391 458
#     4  11  21  44  74 104 147 199 256 312 373 472
#     4  11  22  48  78 108 153 194 250 318 391 466
#
# _framework density 22.380801000000002
#
# number of rings (size 3 to 8) (size 9 to 14) (size 15 to 20)
#    0.000    0.400    5.000    3.000    2.800    4.800 
#    3.600    0.000    0.000    0.000    0.000    0.000 
#    0.000    0.000    0.000    0.000    0.000    0.000 
#
# Total GULP energy -247763.540527 kJ/mol
# GULP energy per Si atom -12388.177026 kJ/mol
# Density = 2.232986 g / cm^3
# Si number density = 22.380801 Si / 1000 Ang^3
#
#
#
# Elastic Constant Matrix: (Units=GPa)
#
#
# Indices 1 2 3 4 5 6 
#
# 1 177.1590 47.8952 56.4735 0.0000 0.0000 0.0000
# 2 47.8952 86.5355 39.1024 0.0000 0.0000 0.0000
# 3 56.4735 39.1024 108.2271 0.0000 0.0000 0.0000
# 4 0.0000 0.0000 0.0000 35.3831 0.0000 0.0000
# 5 0.0000 0.0000 0.0000 0.0000 51.9819 0.0000
# 6 0.0000 0.0000 0.0000 0.0000 0.0000 35.8196
#
#
#
# Elastic Compliance Matrix: (Units=1/GPa)
#
#
# Indices 1 2 3 4 5 6 
#
# 1 0.007286 -0.002766 -0.002802 0.000000 0.000000 0.000000
# 2 -0.002766 0.014861 -0.003926 0.000000 0.000000 0.000000
# 3 -0.002802 -0.003926 0.012121 0.000000 0.000000 0.000000
# 4 0.000000 0.000000 0.000000 0.028262 0.000000 0.000000
# 5 0.000000 0.000000 0.000000 0.000000 0.019237 0.000000
# 6 0.000000 0.000000 0.000000 0.000000 0.000000 0.027918
#
#
# Mechanical properties :
#
#
# Convention : Reuss Voigt Hill
#
# Bulk Modulus (GPa) = 65.45155 73.20708 69.32932
# Shear Modulus (GPa) = 37.37869 39.86695 38.62282
#
# Velocity S-wave (km/s) = 4.09115 4.22513 4.15868
# Velocity P-wave (km/s) = 7.18503 7.52217 7.35553
#
# Compressibility (1/GPa) = 0.01527848
#
# Stress axis : x y z
#
# Youngs Moduli (GPa) = 137.25305 67.29054 82.50480
#
# Poissons Ratio (x) = 0.18614 0.23121
# Poissons Ratio (y) = 0.37967 0.32390
# Poissons Ratio (z) = 0.38463 0.26417
#
# Static dielectric constant tensor:
#      x y z
#    x 4.256350 0.000000 0.000000 
#    y 0.000000 3.818710 0.000000 
#    z 0.000000 0.000000 4.222720 
# 
# 
# High freq. dielectric constant tensor:
#      x y z
#    x 1.903410 0.000000 0.000000 
#    y 0.000000 1.870620 0.000000 
#    z 0.000000 0.000000 1.892910 
# 
# From -- ./inp_files/11869.got.cif
#   From: 2010.03.12/outbox.cif.g09.slc.cpg/sg23_6_cif.got.tgz:11869.got - 2010.04.14 02:50:06.
