data_PCOD8164313
_publ_section_title
;
Structure prediction by ZEFSAII (Michael W. Deem and Ramdas Pophale) SiO2 
 PCOD8164313
Probable space group: I 2 2 2
;
_chemical_formula_sum "Si O2"
_cell_formula_units_Z 64
_cell_length_a 26.674599
_cell_length_b 14.520444
_cell_length_c 8.713676
_cell_angle_alpha 90.000000
_cell_angle_beta 90.000000
_cell_angle_gamma 90.000000
_cell_volume 3375.042167
_symmetry_space_group_name_H-M "I 2 2 2"
_symmetry_group_IT_number 23
_symmetry_cell_setting 'orthorhombic'
loop_
_space_group_symop_operation_xyz
x,y,z
-x,-y,z
x,-y,-z
-x,y,-z
1/2+x,1/2+y,1/2+z
1/2-x,1/2-y,1/2+z
1/2+x,1/2-y,1/2-z
1/2-x,1/2+y,1/2-z
loop_
_atom_site_type_symbol
_atom_site_label
_atom_site_fract_x
_atom_site_fract_y
_atom_site_fract_z
Si Si1 0.199847 0.912763 0.563398
Si Si2 0.943483 0.340742 0.014549
Si Si3 0.177838 0.270441 0.579087
Si Si4 0.147373 0.425802 0.399657
Si Si5 0.847465 0.764401 0.925517
Si Si6 0.443549 0.004182 0.737513
Si Si7 0.724300 0.402283 0.417821
Si Si8 0.695720 0.089201 0.423169
O O1 0.175308 0.814288 0.538975
O O2 0.215622 0.923014 0.739375
O O3 0.244994 0.919451 0.437937
O O4 0.166351 0.000000 0.500000
O O5 0.905784 0.253240 0.026200
O O6 0.934137 0.405233 0.161120
O O7 0.933542 0.407615 0.871333
O O8 0.000000 0.301526 0.000000
O O9 0.135976 0.336819 0.504458
O O10 0.161433 0.231970 0.743336
O O11 0.229962 0.328578 0.569716
O O12 0.179525 0.500000 0.500000
O O13 0.095662 0.479846 0.371293
O O14 0.180140 0.399327 0.252491
O O15 0.825486 0.855889 0.005956
O O16 0.817220 0.677006 0.979591
O O17 0.500000 0.000000 0.801254
O O18 0.734022 0.500000 0.500000
O O19 0.668525 0.000000 0.500000
#
# Coordination Sequence:
#
# PCOD8164313 Si02
#       8
#     8   8   8   8   8   8   8   8
#     4  11  25  40  57  83 118 157 195 250 297 350
#     4   9  18  34  59  86 115 154 202 248 298 356
#     4  12  24  38  56  88 120 159 203 244 295 365
#     4  12  24  33  52  83 118 160 203 242 291 353
#     4  12  22  39  61  84 117 156 204 249 300 354
#     4   9  18  34  55  84 120 159 197 245 300 350
#     4  12  25  40  59  85 118 158 204 248 295 356
#     4  11  21  34  55  79 111 155 200 239 293 344
#
# _framework density 18.962727000000001
#
# number of rings (size 3 to 8) (size 9 to 14) (size 15 to 20)
#    0.000    1.000    3.750    4.875    7.000    0.250 
#    0.000    0.000    0.000    0.375    0.000    0.000 
#    0.000    0.000    0.000    0.000    0.000    0.000 
#
# Total GULP energy -396427.071404 kJ/mol
# GULP energy per Si atom -12388.345981 kJ/mol
# Density = 1.891957 g / cm^3
# Si number density = 18.962727 Si / 1000 Ang^3
#
#
#
# Elastic Constant Matrix: (Units=GPa)
#
#
# Indices 1 2 3 4 5 6 
#
# 1 90.3602 27.8052 19.5370 0.0000 0.0000 0.0000
# 2 27.8052 104.1239 29.4562 0.0000 0.0000 0.0000
# 3 19.5370 29.4562 100.5431 0.0000 0.0000 0.0000
# 4 0.0000 0.0000 0.0000 32.6181 0.0000 0.0000
# 5 0.0000 0.0000 0.0000 0.0000 2.7518 0.0000
# 6 0.0000 0.0000 0.0000 0.0000 0.0000 0.8294
#
#
#
# Elastic Compliance Matrix: (Units=1/GPa)
#
#
# Indices 1 2 3 4 5 6 
#
# 1 0.012276 -0.002839 -0.001554 0.000000 0.000000 0.000000
# 2 -0.002839 0.011128 -0.002709 0.000000 0.000000 0.000000
# 3 -0.001554 -0.002709 0.011041 0.000000 0.000000 0.000000
# 4 0.000000 0.000000 0.000000 0.030658 0.000000 0.000000
# 5 0.000000 0.000000 0.000000 0.000000 0.363394 0.000000
# 6 0.000000 0.000000 0.000000 0.000000 0.000000 1.205623
#
#
# Mechanical properties :
#
#
# Convention : Reuss Voigt Hill
#
# Bulk Modulus (GPa) = 49.39810 49.84712 49.62261
# Shear Modulus (GPa) = 3.02102 21.78845 12.40473
#
# Velocity S-wave (km/s) = 1.26356 3.39339 2.56044
# Velocity P-wave (km/s) = 5.31370 6.45735 5.91324
#
# Compressibility (1/GPa) = 0.02024369
#
# Stress axis : x y z
#
# Youngs Moduli (GPa) = 81.45794 89.86135 90.56767
#
# Poissons Ratio (x) = 0.25509 0.14073
# Poissons Ratio (y) = 0.23123 0.24532
# Poissons Ratio (z) = 0.12657 0.24340
#
# Static dielectric constant tensor:
#      x y z
#    x 3.429940 0.000000 0.000000 
#    y 0.000000 3.820580 0.000000 
#    z 0.000000 0.000000 8.614380 
# 
# 
# High freq. dielectric constant tensor:
#      x y z
#    x 1.700940 0.000000 0.000000 
#    y 0.000000 1.730050 0.000000 
#    z 0.000000 0.000000 1.753690 
# 
# From -- ./inp_files/13528.got.cif
#   From: 2010.03.12/outbox.cif.g09.slc.cpg/sg23_7_cif.got.tgz:13528.got - 2010.04.14 02:50:06.
