data_PCOD8164550
_publ_section_title
;
Structure prediction by ZEFSAII (Michael W. Deem and Ramdas Pophale) SiO2 
 PCOD8164550
Probable space group: I 2 2 2
;
_chemical_formula_sum "Si O2"
_cell_formula_units_Z 38
_cell_length_a 18.342848
_cell_length_b 5.317314
_cell_length_c 15.929376
_cell_angle_alpha 90.000000
_cell_angle_beta 90.000000
_cell_angle_gamma 90.000000
_cell_volume 1553.666630
_symmetry_space_group_name_H-M "I 2 2 2"
_symmetry_group_IT_number 23
_symmetry_cell_setting 'orthorhombic'
loop_
_space_group_symop_operation_xyz
x,y,z
-x,-y,z
x,-y,-z
-x,y,-z
1/2+x,1/2+y,1/2+z
1/2-x,1/2-y,1/2+z
1/2+x,1/2-y,1/2-z
1/2-x,1/2+y,1/2-z
loop_
_atom_site_type_symbol
_atom_site_label
_atom_site_fract_x
_atom_site_fract_y
_atom_site_fract_z
Si Si1 0.741790 0.506123 0.300835
Si Si2 0.383214 0.270475 0.620420
Si Si3 0.544103 0.244768 0.209061
Si Si4 0.153217 0.644140 0.575978
Si Si5 0.773889 0.500000 0.000000
Si Si6 0.500000 0.500000 0.500000
O O1 0.758694 0.783717 0.266652
O O2 0.663875 0.514306 0.349891
O O3 0.809073 0.438845 0.362631
O O4 0.415811 0.152629 0.705827
O O5 0.325878 0.086860 0.576066
O O6 0.448971 0.329360 0.557730
O O7 0.500000 0.500000 0.228004
O O8 0.597297 0.311478 0.130599
O O9 0.500000 0.000000 0.178891
O O10 0.112039 0.500000 0.500000
O O11 0.221893 0.791275 0.538608
#
# Coordination Sequence:
#
# PCOD8164550 Si02
#       6
#     8   8   8   8   4   2
#     4  12  26  47  81 117 151 207 265 335 396 470
#     4  12  27  48  82 112 167 203 270 320 416 480
#     4  12  32  53  80 115 161 221 265 320 405 500
#     4  12  28  50  81 118 159 203 281 341 408 474
#     4  12  28  51  81 124 152 210 266 356 406 470
#     4  12  28  46  72 116 166 214 256 324 402 504
#
# _framework density 24.458269000000001
#
# number of rings (size 3 to 8) (size 9 to 14) (size 15 to 20)
#    0.000    0.000    5.263    2.526    8.842    0.421 
#    0.000    0.000    0.000    0.000    0.000    0.000 
#    0.000    0.000    0.000    0.000    0.000    0.000 
#
# Total GULP energy -235470.445413 kJ/mol
# GULP energy per Si atom -12393.181338 kJ/mol
# Density = 2.440260 g / cm^3
# Si number density = 24.458269 Si / 1000 Ang^3
#
#
#
# Elastic Constant Matrix: (Units=GPa)
#
#
# Indices 1 2 3 4 5 6 
#
# 1 113.8898 36.1566 66.2195 0.0000 0.0000 0.0000
# 2 36.1566 92.6013 39.5465 0.0000 0.0000 0.0000
# 3 66.2195 39.5465 172.5713 0.0000 0.0000 0.0000
# 4 0.0000 0.0000 0.0000 24.7116 0.0000 0.0000
# 5 0.0000 0.0000 0.0000 0.0000 62.2127 0.0000
# 6 0.0000 0.0000 0.0000 0.0000 0.0000 21.3598
#
#
#
# Elastic Compliance Matrix: (Units=1/GPa)
#
#
# Indices 1 2 3 4 5 6 
#
# 1 0.012018 -0.003018 -0.003920 0.000000 0.000000 0.000000
# 2 -0.003018 0.012729 -0.001759 0.000000 0.000000 0.000000
# 3 -0.003920 -0.001759 0.007702 0.000000 0.000000 0.000000
# 4 0.000000 0.000000 0.000000 0.040467 0.000000 0.000000
# 5 0.000000 0.000000 0.000000 0.000000 0.016074 0.000000
# 6 0.000000 0.000000 0.000000 0.000000 0.000000 0.046817
#
#
# Mechanical properties :
#
#
# Convention : Reuss Voigt Hill
#
# Bulk Modulus (GPa) = 66.42534 73.65637 70.04085
# Shear Modulus (GPa) = 31.60200 37.46613 34.53407
#
# Velocity S-wave (km/s) = 3.59845 3.91812 3.76168
# Velocity P-wave (km/s) = 6.66954 7.11684 6.89681
#
# Compressibility (1/GPa) = 0.01505450
#
# Stress axis : x y z
#
# Youngs Moduli (GPa) = 83.21010 78.56327 129.83919
#
# Poissons Ratio (x) = 0.23714 0.50894
# Poissons Ratio (y) = 0.25116 0.22834
# Poissons Ratio (z) = 0.32617 0.13817
#
# Static dielectric constant tensor:
#      x y z
#    x 4.736860 0.000000 0.000000 
#    y 0.000000 3.920240 0.000000 
#    z 0.000000 0.000000 5.224260 
# 
# 
# High freq. dielectric constant tensor:
#      x y z
#    x 1.984490 0.000000 0.000000 
#    y 0.000000 1.942080 0.000000 
#    z 0.000000 0.000000 2.004960 
# 
# From -- ./inp_files/24976.got.cif
#   From: 2010.03.12/outbox.cif.g09.slc.cpg/sg23_13_cif.got.tgz:24976.got - 2010.04.14 02:50:06.
