data_PCOD8164772
_publ_section_title
;
Structure prediction by ZEFSAII (Michael W. Deem and Ramdas Pophale) SiO2 
 PCOD8164772
Probable space group: I 21 21 21
;
_chemical_formula_sum "Si O2"
_cell_formula_units_Z 52
_cell_length_a 16.249433
_cell_length_b 18.147436
_cell_length_c 8.483332
_cell_angle_alpha 90.000000
_cell_angle_beta 90.000000
_cell_angle_gamma 90.000000
_cell_volume 2501.611984
_symmetry_space_group_name_H-M "I 21 21 21"
_symmetry_group_IT_number 24
_symmetry_cell_setting 'orthorhombic'
loop_
_space_group_symop_operation_xyz
x,y,z
-x,1/2-y,z
x,-y,1/2-z
1/2-x,y,-z
1/2+x,1/2+y,1/2+z
1/2-x,-y,1/2+z
1/2+x,1/2-y,-z
-x,1/2+y,1/2-z
loop_
_atom_site_type_symbol
_atom_site_label
_atom_site_fract_x
_atom_site_fract_y
_atom_site_fract_z
Si Si1 0.050723 0.679509 0.913967
Si Si2 0.534488 0.571762 0.319192
Si Si3 0.750000 0.941506 0.500000
Si Si4 0.293361 0.686794 0.277970
Si Si5 0.582726 0.043327 0.901340
Si Si6 0.891642 0.802381 0.252856
Si Si7 0.084801 0.215857 0.962906
O O1 0.146223 0.684613 0.869850
O O2 0.000000 0.750000 0.856924
O O3 0.010288 0.608815 0.831254
O O4 0.051435 0.678099 0.103724
O O5 0.583490 0.500000 0.250000
O O6 0.472256 0.535546 0.444601
O O7 0.591762 0.629909 0.412657
O O8 0.712327 0.892459 0.359451
O O9 0.673896 0.991444 0.562603
O O10 0.204331 0.710639 0.212729
O O11 0.332477 0.744264 0.403284
O O12 0.595428 0.130357 0.873998
O O13 0.545631 0.000000 0.750000
O O14 0.919776 0.727948 0.346825
O O15 0.000000 0.250000 0.889404
#
# Coordination Sequence:
#
# PCOD8164772 Si02
#       7
#     8   8   4   8   8   8   8
#     4  12  22  38  62  93 122 158 203 257 306 368
#     4  12  24  39  60  87 126 165 204 257 317 363
#     4  10  18  36  58  84 122 162 206 236 298 368
#     4  11  18  38  62  90 120 155 210 254 302 362
#     4  11  22  39  56  83 126 167 202 244 302 369
#     4  11  23  36  62  95 120 156 211 258 302 368
#     4  12  18  40  65  84 118 162 211 257 301 364
#
# _framework density 20.786597
#
# number of rings (size 3 to 8) (size 9 to 14) (size 15 to 20)
#    0.000    0.615    9.231    1.846    0.000    0.615 
#    5.538    0.000    0.000    0.000    8.000    0.000 
#    0.000    0.000    0.000    0.000    0.000    0.000 
#
# Total GULP energy -322161.501940 kJ/mol
# GULP energy per Si atom -12390.826998 kJ/mol
# Density = 2.073929 g / cm^3
# Si number density = 20.786597 Si / 1000 Ang^3
#
#
#
# Elastic Constant Matrix: (Units=GPa)
#
#
# Indices 1 2 3 4 5 6 
#
# 1 40.7392 12.1839 1.8616 0.0000 0.0000 0.0000
# 2 12.1839 90.2170 29.8326 0.0000 0.0000 0.0000
# 3 1.8616 29.8326 115.2016 0.0000 0.0000 0.0000
# 4 0.0000 0.0000 0.0000 57.7238 0.0000 0.0000
# 5 0.0000 0.0000 0.0000 0.0000 29.2038 0.0000
# 6 0.0000 0.0000 0.0000 0.0000 0.0000 17.1024
#
#
#
# Elastic Compliance Matrix: (Units=1/GPa)
#
#
# Indices 1 2 3 4 5 6 
#
# 1 0.025609 -0.003633 0.000527 0.000000 0.000000 0.000000
# 2 -0.003633 0.012638 -0.003214 0.000000 0.000000 0.000000
# 3 0.000527 -0.003214 0.009504 0.000000 0.000000 0.000000
# 4 0.000000 0.000000 0.000000 0.017324 0.000000 0.000000
# 5 0.000000 0.000000 0.000000 0.000000 0.034242 0.000000
# 6 0.000000 0.000000 0.000000 0.000000 0.000000 0.058471
#
#
# Mechanical properties :
#
#
# Convention : Reuss Voigt Hill
#
# Bulk Modulus (GPa) = 28.48098 37.10154 32.79126
# Shear Modulus (GPa) = 27.45274 34.29133 30.87204
#
# Velocity S-wave (km/s) = 3.63808 4.06604 3.85800
# Velocity P-wave (km/s) = 5.60168 6.31910 5.97118
#
# Compressibility (1/GPa) = 0.03511115
#
# Stress axis : x y z
#
# Youngs Moduli (GPa) = 39.04919 79.12786 105.21656
#
# Poissons Ratio (x) = 0.28745 -0.05544
# Poissons Ratio (y) = 0.14185 0.33816
# Poissons Ratio (z) = -0.02058 0.25431
#
# Static dielectric constant tensor:
#      x y z
#    x 3.652090 0.000000 0.000000 
#    y 0.000000 3.582920 0.000000 
#    z 0.000000 0.000000 3.813690 
# 
# 
# High freq. dielectric constant tensor:
#      x y z
#    x 1.784390 0.000000 0.000000 
#    y 0.000000 1.786460 0.000000 
#    z 0.000000 0.000000 1.834590 
# 
# From -- ./inp_files/14413.got.cif
#   From: 2010.03.12/outbox.cif.g09.slc.cpg/sg24_8_cif.got.tgz:14413.got - 2010.04.14 03:06:53.
