data_PCOD8164733
_publ_section_title
;
Structure prediction by ZEFSAII (Michael W. Deem and Ramdas Pophale) SiO2 
 PCOD8164733
Probable space group: I 21 21 21
;
_chemical_formula_sum "Si O2"
_cell_formula_units_Z 64
_cell_length_a 12.057857
_cell_length_b 31.166267
_cell_length_c 8.575351
_cell_angle_alpha 90.000000
_cell_angle_beta 90.000000
_cell_angle_gamma 90.000000
_cell_volume 3222.603106
_symmetry_space_group_name_H-M "I 21 21 21"
_symmetry_group_IT_number 24
_symmetry_cell_setting 'orthorhombic'
loop_
_space_group_symop_operation_xyz
x,y,z
-x,1/2-y,z
x,-y,1/2-z
1/2-x,y,-z
1/2+x,1/2+y,1/2+z
1/2-x,-y,1/2+z
1/2+x,1/2-y,-z
-x,1/2+y,1/2-z
loop_
_atom_site_type_symbol
_atom_site_label
_atom_site_fract_x
_atom_site_fract_y
_atom_site_fract_z
Si Si1 0.375499 0.124789 0.686081
Si Si2 0.482437 0.455639 0.684557
Si Si3 0.250001 0.338404 0.319174
Si Si4 0.980635 0.203102 0.316831
Si Si5 0.249996 0.569972 0.681899
Si Si6 0.482443 0.544361 0.184558
Si Si7 0.980637 0.203103 0.683160
Si Si8 0.375496 0.124789 0.313922
O O1 0.442393 0.083432 0.748756
O O2 0.434615 0.167723 0.752580
O O3 0.377661 0.125017 0.500002
O O4 0.250001 0.123183 0.749729
O O5 0.532893 0.500000 0.750000
O O6 0.357130 0.451165 0.741682
O O7 0.484265 0.456317 0.499999
O O8 0.250000 0.353417 0.500000
O O9 0.250005 0.379424 0.209880
O O10 0.355641 0.309893 0.278487
O O11 0.144362 0.309893 0.278483
O O12 0.000000 0.250000 0.240741
O O13 0.001887 0.205781 0.499995
O O14 0.250000 0.559832 0.500000
O O15 0.142862 0.548833 0.758306
O O16 0.532905 0.500000 0.250000
O O17 0.557611 0.583433 0.248756
O O18 0.000000 0.250000 0.759249
O O19 0.065388 0.167724 0.752573
#
# Coordination Sequence:
#
# PCOD8164733 Si02
#       8
#     8   8   8   8   8   8   8   8
#     4   9  18  32  51  78 113 148 182 226 277 328
#     4  11  22  38  58  83 113 145 183 229 282 335
#     4  10  18  33  55  84 116 150 186 231 285 330
#     4   9  17  28  49  82 115 145 180 227 278 330
#     4  12  23  37  58  84 113 148 188 231 281 333
#     4  11  22  38  58  83 113 145 183 229 282 335
#     4   9  17  28  49  82 115 145 180 227 278 330
#     4   9  18  32  51  78 113 148 182 226 277 328
#
# _framework density 19.859721
#
# number of rings (size 3 to 8) (size 9 to 14) (size 15 to 20)
#    0.000    2.000    2.500    2.250    1.750    0.500 
#    0.000    0.000    0.000    3.000    0.000    0.000 
#    0.000    0.000    0.000    0.000    0.000    0.000 
#
# Total GULP energy -396812.259229 kJ/mol
# GULP energy per Si atom -12400.383101 kJ/mol
# Density = 1.981452 g / cm^3
# Si number density = 19.859721 Si / 1000 Ang^3
#
#
#
# Elastic Constant Matrix: (Units=GPa)
#
#
# Indices 1 2 3 4 5 6 
#
# 1 160.0296 82.5059 14.1238 0.0008 0.0001 0.0000
# 2 82.5059 198.8982 20.3379 -0.0033 0.0000 0.0005
# 3 14.1238 20.3379 38.2603 -0.0036 0.0176 0.0040
# 4 0.0008 -0.0033 -0.0036 23.6396 -0.0002 -0.0003
# 5 0.0001 0.0000 0.0176 -0.0002 -3.8786 -0.0002
# 6 0.0000 0.0005 0.0040 -0.0003 -0.0002 31.6142
#
#
#
# Elastic Compliance Matrix: (Units=1/GPa)
#
#
# Indices 1 2 3 4 5 6 
#
# 1 0.008006 -0.003192 -0.001258 -0.000001 -0.000005 0.000000
# 2 -0.003192 0.006590 -0.002324 0.000001 -0.000011 0.000000
# 3 -0.001258 -0.002324 0.027837 0.000004 0.000127 -0.000003
# 4 -0.000001 0.000001 0.000004 0.042302 -0.000002 0.000000
# 5 -0.000005 -0.000011 0.000127 -0.000002 -0.257826 -0.000001
# 6 0.000000 0.000000 -0.000003 0.000000 -0.000001 0.031631
#
#
# Mechanical properties :
#
#
# Convention : Reuss Voigt Hill
#
# Bulk Modulus (GPa) = 34.62358 70.12479 52.37419
# Shear Modulus (GPa) = -42.27159 28.95641 -6.65759
#
# Velocity S-wave (km/s) = -4.61858 3.82258 -1.83292
# Velocity P-wave (km/s) = 3.31207 7.40740 4.68507
#
# Compressibility (1/GPa) = 0.02888205
#
# Stress axis : x y z
#
# Youngs Moduli (GPa) = 124.91097 151.75557 35.92363
#
# Poissons Ratio (x) = 0.48443 0.04521
# Poissons Ratio (y) = 0.39874 0.08350
# Poissons Ratio (z) = 0.15719 0.35274
#
# Static dielectric constant tensor:
#      x y z
#    x 3.780890 0.000000 0.000000 
#    y 0.000000 4.078300 -0.000010 
#    z 0.000000 -0.000010 3.066530 
# 
# 
# High freq. dielectric constant tensor:
#      x y z
#    x 1.780450 0.000000 0.000000 
#    y 0.000000 1.795150 0.000000 
#    z 0.000000 0.000000 1.717630 
# 
# From -- ./inp_files/11639.got.cif
#   From: 2010.03.12/outbox.cif.g09.slc.cpg/sg24_6_cif.got.tgz:11639.got - 2010.04.14 03:06:53.
