data_PCOD8164734
_publ_section_title
;
Structure prediction by ZEFSAII (Michael W. Deem and Ramdas Pophale) SiO2 
 PCOD8164734
Probable space group: I 21 21 21
;
_chemical_formula_sum "Si O2"
_cell_formula_units_Z 60
_cell_length_a 12.155024
_cell_length_b 20.593229
_cell_length_c 12.209769
_cell_angle_alpha 90.000000
_cell_angle_beta 90.000000
_cell_angle_gamma 90.000000
_cell_volume 3056.241841
_symmetry_space_group_name_H-M "I 21 21 21"
_symmetry_group_IT_number 24
_symmetry_cell_setting 'orthorhombic'
loop_
_space_group_symop_operation_xyz
x,y,z
-x,1/2-y,z
x,-y,1/2-z
1/2-x,y,-z
1/2+x,1/2+y,1/2+z
1/2-x,-y,1/2+z
1/2+x,1/2-y,-z
-x,1/2+y,1/2-z
loop_
_atom_site_type_symbol
_atom_site_label
_atom_site_fract_x
_atom_site_fract_y
_atom_site_fract_z
Si Si1 0.536805 0.318796 0.588949
Si Si2 0.560129 0.830839 0.669938
Si Si3 0.599241 0.791752 0.267284
Si Si4 0.663306 0.695816 0.599218
Si Si5 0.478338 0.106785 0.380123
Si Si6 0.088898 0.500000 0.750000
Si Si7 0.267823 0.603945 0.375758
Si Si8 0.767570 0.323993 0.683402
O O1 0.500000 0.250000 0.535749
O O2 0.482828 0.324536 0.707222
O O3 0.500597 0.378108 0.509032
O O4 0.669016 0.319598 0.596458
O O5 0.632219 0.768315 0.636807
O O6 0.456399 0.839974 0.584951
O O7 0.643344 0.891146 0.670572
O O8 0.500000 0.750000 0.322580
O O9 0.554969 0.845804 0.187518
O O10 0.667375 0.826902 0.364359
O O11 0.673996 0.745994 0.191400
O O12 0.750000 0.694269 0.500000
O O13 0.724955 0.657467 0.695830
O O14 0.511949 0.034291 0.342302
O O15 0.350551 0.119506 0.353628
O O16 0.167524 0.548742 0.686823
O O17 0.250000 0.584535 0.500000
#
# Coordination Sequence:
#
# PCOD8164734 Si02
#       8
#     8   8   8   8   8   4   8   8
#     4  11  18  34  59  92 131 152 185 245 321 379
#     4  10  20  35  54  91 127 153 193 245 290 393
#     4   9  18  33  52  89 124 145 188 237 304 388
#     4  10  19  33  54  86 130 163 180 230 308 371
#     4  10  22  36  58  80 114 167 204 258 303 349
#     4  10  26  46  56  80 118 154 232 266 294 358
#     4  11  22  40  61  83 113 161 201 253 309 357
#     4  10  18  33  55  92 124 152 197 239 303 394
#
# _framework density 19.631954
#
# number of rings (size 3 to 8) (size 9 to 14) (size 15 to 20)
#    0.000    1.867    4.000    2.000    0.000    4.267 
#    2.400    2.000    0.000   11.200    0.000    1.867 
#    0.000    0.000    0.000    0.000    0.000    0.000 
#
# Total GULP energy -371700.891794 kJ/mol
# GULP energy per Si atom -12390.029726 kJ/mol
# Density = 1.958727 g / cm^3
# Si number density = 19.631954 Si / 1000 Ang^3
#
#
#
# Elastic Constant Matrix: (Units=GPa)
#
#
# Indices 1 2 3 4 5 6 
#
# 1 148.7462 60.5144 54.2455 0.0001 -0.0001 0.0000
# 2 60.5144 81.4484 36.2751 0.0001 -0.0001 0.0000
# 3 54.2455 36.2751 96.7748 0.0000 -0.0002 0.0000
# 4 0.0001 0.0001 0.0000 23.4177 -0.0001 0.0000
# 5 -0.0001 -0.0001 -0.0002 -0.0001 33.1076 0.0000
# 6 0.0000 0.0000 0.0000 0.0000 0.0000 25.5472
#
#
#
# Elastic Compliance Matrix: (Units=1/GPa)
#
#
# Indices 1 2 3 4 5 6 
#
# 1 0.010577 -0.006264 -0.003581 0.000000 0.000000 0.000000
# 2 -0.006264 0.018447 -0.003404 0.000000 0.000000 0.000000
# 3 -0.003581 -0.003404 0.013616 0.000000 0.000000 0.000000
# 4 0.000000 0.000000 0.000000 0.042703 0.000000 0.000000
# 5 0.000000 0.000000 0.000000 0.000000 0.030205 0.000000
# 6 0.000000 0.000000 0.000000 0.000000 0.000000 0.039143
#
#
# Mechanical properties :
#
#
# Convention : Reuss Voigt Hill
#
# Bulk Modulus (GPa) = 61.94239 69.89326 65.91782
# Shear Modulus (GPa) = 26.79969 28.14348 27.47159
#
# Velocity S-wave (km/s) = 3.69874 3.79034 3.74482
# Velocity P-wave (km/s) = 7.06125 7.40504 7.23519
#
# Compressibility (1/GPa) = 0.01614403
#
# Stress axis : x y z
#
# Youngs Moduli (GPa) = 94.54480 54.20802 73.44092
#
# Poissons Ratio (x) = 0.33954 0.26298
# Poissons Ratio (y) = 0.59219 0.24998
# Poissons Ratio (z) = 0.33856 0.18452
#
# Static dielectric constant tensor:
#      x y z
#    x 4.265320 0.000000 0.000000 
#    y 0.000000 3.356680 0.000000 
#    z 0.000000 0.000000 3.524760 
# 
# 
# High freq. dielectric constant tensor:
#      x y z
#    x 1.794140 0.000000 0.000000 
#    y 0.000000 1.713310 0.000000 
#    z 0.000000 0.000000 1.763100 
# 
# From -- ./inp_files/19988.got.cif
#   From: 2010.03.12/outbox.cif.g09.slc.cpg/sg24_10_cif.got.tgz:19988.got - 2010.04.14 03:06:53.
