data_PCOD8164695
_publ_section_title
;
Structure prediction by ZEFSAII (Michael W. Deem and Ramdas Pophale) SiO2 
 PCOD8164695
Probable space group: I 21 21 21
;
_chemical_formula_sum "Si O2"
_cell_formula_units_Z 52
_cell_length_a 11.077359
_cell_length_b 17.022268
_cell_length_c 14.747323
_cell_angle_alpha 90.000000
_cell_angle_beta 90.000000
_cell_angle_gamma 90.000000
_cell_volume 2780.781381
_symmetry_space_group_name_H-M "I 21 21 21"
_symmetry_group_IT_number 24
_symmetry_cell_setting 'orthorhombic'
loop_
_space_group_symop_operation_xyz
x,y,z
-x,1/2-y,z
x,-y,1/2-z
1/2-x,y,-z
1/2+x,1/2+y,1/2+z
1/2-x,-y,1/2+z
1/2+x,1/2-y,-z
-x,1/2+y,1/2-z
loop_
_atom_site_type_symbol
_atom_site_label
_atom_site_fract_x
_atom_site_fract_y
_atom_site_fract_z
Si Si1 0.205174 0.293044 0.305469
Si Si2 0.000000 0.750000 0.329747
Si Si3 0.702741 0.375285 0.274132
Si Si4 0.339342 0.952743 0.920818
Si Si5 0.952826 0.837686 0.832784
Si Si6 0.175971 0.870040 0.414264
Si Si7 0.548479 0.162289 0.537250
O O1 0.246276 0.203288 0.323272
O O2 0.326911 0.340815 0.275441
O O3 0.166209 0.334678 0.399160
O O4 0.098164 0.296147 0.231621
O O5 0.936334 0.686474 0.393736
O O6 0.770390 0.446612 0.324393
O O7 0.558488 0.388762 0.286285
O O8 0.730120 0.372444 0.168256
O O9 0.456995 0.899208 0.917797
O O10 0.376096 0.043484 0.935610
O O11 0.250000 0.923092 0.000000
O O12 0.000000 0.750000 0.835779
O O13 0.924811 0.866319 0.935294
O O14 0.250000 0.836809 0.500000
O O15 0.500000 0.250000 0.539511
#
# Coordination Sequence:
#
# PCOD8164695 Si02
#       7
#     8   4   8   8   8   8   8
#     4  10  18  31  51  83 117 147 189 220 263 343
#     4  10  20  42  60  78 106 138 198 252 286 322
#     4  10  18  35  53  82 118 148 185 231 278 326
#     4  11  20  33  57  88 116 145 184 228 278 336
#     4   9  19  27  48  83 117 153 179 213 268 336
#     4  10  23  40  61  84 103 142 198 247 286 323
#     4  11  17  28  51  82 125 155 175 209 267 344
#
# _framework density 18.699780000000001
#
# number of rings (size 3 to 8) (size 9 to 14) (size 15 to 20)
#    0.000    1.846    3.846    1.846    0.000    0.000 
#    6.923    0.000    0.000    5.538    0.000    0.000 
#    0.000    0.000    0.000    0.000    0.000    0.000 
#
# Total GULP energy -322266.194219 kJ/mol
# GULP energy per Si atom -12394.853624 kJ/mol
# Density = 1.865722 g / cm^3
# Si number density = 18.699780 Si / 1000 Ang^3
#
#
#
# Elastic Constant Matrix: (Units=GPa)
#
#
# Indices 1 2 3 4 5 6 
#
# 1 134.4402 38.8305 53.8284 0.0000 0.0000 0.0000
# 2 38.8305 56.4277 21.0620 0.0001 0.0000 0.0000
# 3 53.8284 21.0620 105.6388 0.0001 0.0000 0.0000
# 4 0.0000 0.0001 0.0001 18.5609 0.0000 0.0000
# 5 0.0000 0.0000 0.0000 0.0000 27.4137 0.0000
# 6 0.0000 0.0000 0.0000 0.0000 0.0000 15.7498
#
#
#
# Elastic Compliance Matrix: (Units=1/GPa)
#
#
# Indices 1 2 3 4 5 6 
#
# 1 0.010882 -0.005854 -0.004378 0.000000 0.000000 0.000000
# 2 -0.005854 0.022296 -0.001462 0.000000 0.000000 0.000000
# 3 -0.004378 -0.001462 0.011988 0.000000 0.000000 0.000000
# 4 0.000000 0.000000 0.000000 0.053877 0.000000 0.000000
# 5 0.000000 0.000000 0.000000 0.000000 0.036478 0.000000
# 6 0.000000 0.000000 0.000000 0.000000 0.000000 0.063493
#
#
# Mechanical properties :
#
#
# Convention : Reuss Voigt Hill
#
# Bulk Modulus (GPa) = 45.91795 58.21651 52.06723
# Shear Modulus (GPa) = 21.77109 24.53060 23.15084
#
# Velocity S-wave (km/s) = 3.41580 3.62582 3.52238
# Velocity P-wave (km/s) = 6.33763 6.98059 6.66686
#
# Compressibility (1/GPa) = 0.02177797
#
# Stress axis : x y z
#
# Youngs Moduli (GPa) = 91.89525 44.85060 83.41385
#
# Poissons Ratio (x) = 0.26257 0.36516
# Poissons Ratio (y) = 0.53799 0.12197
# Poissons Ratio (z) = 0.40229 0.06558
#
# Static dielectric constant tensor:
#      x y z
#    x 3.696940 0.000000 0.000000 
#    y 0.000000 3.178290 0.000000 
#    z 0.000000 0.000000 3.375980 
# 
# 
# High freq. dielectric constant tensor:
#      x y z
#    x 1.730230 0.000000 0.000000 
#    y 0.000000 1.691910 0.000000 
#    z 0.000000 0.000000 1.716710 
# 
# From -- ./inp_files/25939.got.cif
#   From: 2010.03.12/outbox.cif.g09.slc.cpg/sg24_13_cif.got.tgz:25939.got - 2010.04.14 03:06:53.
