data_PCOD8164905
_publ_section_title
;
Structure prediction by ZEFSAII (Michael W. Deem and Ramdas Pophale) SiO2 
 PCOD8164905
Probable space group: I 21 21 21
;
_chemical_formula_sum "Si O2"
_cell_formula_units_Z 48
_cell_length_a 8.892348
_cell_length_b 14.992554
_cell_length_c 18.334146
_cell_angle_alpha 90.000000
_cell_angle_beta 90.000000
_cell_angle_gamma 90.000000
_cell_volume 2444.290149
_symmetry_space_group_name_H-M "I 21 21 21"
_symmetry_group_IT_number 24
_symmetry_cell_setting 'orthorhombic'
loop_
_space_group_symop_operation_xyz
x,y,z
-x,1/2-y,z
x,-y,1/2-z
1/2-x,y,-z
1/2+x,1/2+y,1/2+z
1/2-x,-y,1/2+z
1/2+x,1/2-y,-z
-x,1/2+y,1/2-z
loop_
_atom_site_type_symbol
_atom_site_label
_atom_site_fract_x
_atom_site_fract_y
_atom_site_fract_z
Si Si1 0.111918 0.406292 0.213826
Si Si2 0.076405 0.159215 0.654249
Si Si3 0.075083 0.977587 0.415267
Si Si4 0.936327 0.154231 0.807296
Si Si5 0.078791 0.022728 0.918106
Si Si6 0.575419 0.662230 0.844967
O O1 0.161357 0.500000 0.250000
O O2 0.256288 0.343654 0.201813
O O3 0.030186 0.418566 0.136200
O O4 0.995322 0.356851 0.266104
O O5 0.249964 0.180076 0.666973
O O6 0.000000 0.250000 0.625858
O O7 0.008693 0.126100 0.730710
O O8 0.048191 0.082001 0.595410
O O9 0.036001 0.956165 0.498715
O O10 0.248795 0.954256 0.399234
O O11 0.046044 0.081935 0.400766
O O12 0.000000 0.250000 0.832361
O O13 0.972301 0.081608 0.868153
O O14 0.500000 0.750000 0.879790
#
# Coordination Sequence:
#
# PCOD8164905 Si02
#       6
#     8   8   8   8   8   8
#     4  10  20  36  57  82 109 142 182 226 274 326
#     4  10  20  34  57  85 110 144 184 222 273 326
#     4   9  21  37  56  79 109 149 184 216 276 330
#     4  11  22  36  55  81 109 141 186 232 274 321
#     4  10  20  39  57  77 114 150 179 225 273 326
#     4  10  19  34  56  82 112 142 179 227 271 323
#
# _framework density 19.637602999999999
#
# number of rings (size 3 to 8) (size 9 to 14) (size 15 to 20)
#    0.000    2.000    0.000    4.500    0.000    5.333 
#    0.000    4.167    0.000    0.000    0.000    0.000 
#    0.000    0.000    0.000    0.000    0.000    0.000 
#
# Total GULP energy -297671.882878 kJ/mol
# GULP energy per Si atom -12402.995120 kJ/mol
# Density = 1.959291 g / cm^3
# Si number density = 19.637603 Si / 1000 Ang^3
#
#
#
# Elastic Constant Matrix: (Units=GPa)
#
#
# Indices 1 2 3 4 5 6 
#
# 1 116.5047 35.2026 26.5706 0.0000 0.0000 0.0000
# 2 35.2026 63.6159 5.7466 0.0000 0.0000 0.0000
# 3 26.5706 5.7466 68.3437 0.0000 0.0000 0.0000
# 4 0.0000 0.0000 0.0000 20.5354 0.0000 0.0000
# 5 0.0000 0.0000 0.0000 0.0000 21.3767 0.0000
# 6 0.0000 0.0000 0.0000 0.0000 0.0000 38.8171
#
#
#
# Elastic Compliance Matrix: (Units=1/GPa)
#
#
# Indices 1 2 3 4 5 6 
#
# 1 0.011241 -0.005870 -0.003877 0.000000 0.000000 0.000000
# 2 -0.005870 0.018905 0.000693 0.000000 0.000000 0.000000
# 3 -0.003877 0.000693 0.016081 0.000000 0.000000 0.000000
# 4 0.000000 0.000000 0.000000 0.048696 0.000000 0.000000
# 5 0.000000 0.000000 0.000000 0.000000 0.046780 0.000000
# 6 0.000000 0.000000 0.000000 0.000000 0.000000 0.025762
#
#
# Mechanical properties :
#
#
# Convention : Reuss Voigt Hill
#
# Bulk Modulus (GPa) = 35.56382 42.61154 39.08768
# Shear Modulus (GPa) = 25.64800 28.20881 26.92840
#
# Velocity S-wave (km/s) = 3.61787 3.79419 3.70708
# Velocity P-wave (km/s) = 5.96669 6.39848 6.18635
#
# Compressibility (1/GPa) = 0.02811846
#
# Stress axis : x y z
#
# Youngs Moduli (GPa) = 88.95822 52.89562 62.18556
#
# Poissons Ratio (x) = 0.31051 0.24108
# Poissons Ratio (y) = 0.52221 -0.04307
# Poissons Ratio (z) = 0.34487 -0.03664
#
# Static dielectric constant tensor:
#      x y z
#    x 3.634630 0.000000 0.000000 
#    y 0.000000 3.555150 0.000000 
#    z 0.000000 0.000000 3.407080 
# 
# 
# High freq. dielectric constant tensor:
#      x y z
#    x 1.773340 0.000000 0.000000 
#    y 0.000000 1.763200 0.000000 
#    z 0.000000 0.000000 1.754540 
# 
# From -- ./inp_files/12771.got.cif
#   From: 2010.03.12/outbox.cif.g09.slc.cpg/sg24_7_cif.got.tgz:12771.got - 2010.04.14 03:06:53.
