data_PCOD8164309
_publ_section_title
;
Structure prediction by ZEFSAII (Michael W. Deem and Ramdas Pophale) SiO2 
 PCOD8164309
Probable space group: I 2 2 2
;
_chemical_formula_sum "Si O2"
_cell_formula_units_Z 56
_cell_length_a 14.867502
_cell_length_b 20.706764
_cell_length_c 9.428409
_cell_angle_alpha 90.000000
_cell_angle_beta 90.000000
_cell_angle_gamma 90.000000
_cell_volume 2902.609773
_symmetry_space_group_name_H-M "I 2 2 2"
_symmetry_group_IT_number 23
_symmetry_cell_setting 'orthorhombic'
loop_
_space_group_symop_operation_xyz
x,y,z
-x,-y,z
x,-y,-z
-x,y,-z
1/2+x,1/2+y,1/2+z
1/2-x,1/2-y,1/2+z
1/2+x,1/2-y,1/2-z
1/2-x,1/2+y,1/2-z
loop_
_atom_site_type_symbol
_atom_site_label
_atom_site_fract_x
_atom_site_fract_y
_atom_site_fract_z
Si Si1 0.335725 0.115621 0.840370
Si Si2 0.087803 0.252133 0.745800
Si Si3 0.500000 0.685153 0.500000
Si Si4 0.805980 0.842531 0.059266
Si Si5 0.291881 0.866452 0.667082
Si Si6 0.500000 0.169301 0.000000
Si Si7 0.246160 0.303659 0.110310
Si Si8 0.104775 0.495281 0.833215
O O1 0.326783 0.174271 0.727817
O O2 0.339923 0.048740 0.754018
O O3 0.251411 0.115935 0.947278
O O4 0.424709 0.123238 0.934121
O O5 0.145874 0.304450 0.826672
O O6 0.037150 0.283134 0.616346
O O7 0.155616 0.197614 0.684554
O O8 0.015108 0.226643 0.857836
O O9 0.589634 0.643177 0.525938
O O10 0.787913 0.865905 0.218664
O O11 0.781226 0.766236 0.046146
O O12 0.249263 0.860017 0.510027
O O13 0.355168 0.926266 0.705902
O O14 0.000000 0.500000 0.792527
O O15 0.119624 0.500000 0.000000
#
# Coordination Sequence:
#
# PCOD8164309 Si02
#       8
#     8   8   4   8   8   4   8   8
#     4  12  23  43  62  90 135 168 212 266 312 386
#     4  11  24  36  62  96 125 170 211 256 331 378
#     4  12  22  40  64  93 129 168 208 268 326 384
#     4  11  23  39  62  96 124 167 210 261 331 373
#     4  11  22  42  61  91 130 167 212 259 316 386
#     4  12  24  38  61  96 126 169 216 258 320 384
#     4  11  20  41  63  88 135 168 205 266 318 393
#     4  11  25  42  64  92 124 175 220 251 314 390
#
# _framework density 19.292981999999999
#
# number of rings (size 3 to 8) (size 9 to 14) (size 15 to 20)
#    0.000    0.714    7.143    2.571    2.000    1.714 
#    0.000    0.000    0.000    1.714    0.000    1.000 
#    0.000    0.000    0.000    0.000    0.000    0.000 
#
# Total GULP energy -347129.633910 kJ/mol
# GULP energy per Si atom -12397.486925 kJ/mol
# Density = 1.924907 g / cm^3
# Si number density = 19.292982 Si / 1000 Ang^3
#
#
#
# Elastic Constant Matrix: (Units=GPa)
#
#
# Indices 1 2 3 4 5 6 
#
# 1 104.9090 44.3870 57.9829 0.0000 0.0000 0.0000
# 2 44.3870 47.9815 44.7761 0.0000 0.0000 0.0000
# 3 57.9829 44.7761 127.3037 0.0000 0.0000 0.0000
# 4 0.0000 0.0000 0.0000 37.9975 0.0000 0.0000
# 5 0.0000 0.0000 0.0000 0.0000 45.7372 0.0000
# 6 0.0000 0.0000 0.0000 0.0000 0.0000 16.5170
#
#
#
# Elastic Compliance Matrix: (Units=1/GPa)
#
#
# Indices 1 2 3 4 5 6 
#
# 1 0.016491 -0.012275 -0.003194 0.000000 0.000000 0.000000
# 2 -0.012275 0.040162 -0.008535 0.000000 0.000000 0.000000
# 3 -0.003194 -0.008535 0.012312 0.000000 0.000000 0.000000
# 4 0.000000 0.000000 0.000000 0.026317 0.000000 0.000000
# 5 0.000000 0.000000 0.000000 0.000000 0.021864 0.000000
# 6 0.000000 0.000000 0.000000 0.000000 0.000000 0.060544
#
#
# Mechanical properties :
#
#
# Convention : Reuss Voigt Hill
#
# Bulk Modulus (GPa) = 47.71698 63.83179 55.77438
# Shear Modulus (GPa) = 21.48850 28.92022 25.20436
#
# Velocity S-wave (km/s) = 3.34098 3.87590 3.61834
# Velocity P-wave (km/s) = 6.29837 7.29297 6.81384
#
# Compressibility (1/GPa) = 0.02095690
#
# Stress axis : x y z
#
# Youngs Moduli (GPa) = 60.64007 24.89931 81.22311
#
# Poissons Ratio (x) = 0.30564 0.25939
# Poissons Ratio (y) = 0.74437 0.69324
# Poissons Ratio (z) = 0.19366 0.21252
#
# Static dielectric constant tensor:
#      x y z
#    x 3.652750 0.000000 0.000000 
#    y 0.000000 3.300020 0.000000 
#    z 0.000000 0.000000 3.828120 
# 
# 
# High freq. dielectric constant tensor:
#      x y z
#    x 1.745310 0.000000 0.000000 
#    y 0.000000 1.712690 0.000000 
#    z 0.000000 0.000000 1.782780 
# 
# From -- ./inp_files/10258.got.cif
#   From: 2010.03.12/outbox.cif.g09.slc.cpg/sg23_6_cif.got.tgz:10258.got - 2010.04.14 02:50:06.
