data_PCOD8164750
_publ_section_title
;
Structure prediction by ZEFSAII (Michael W. Deem and Ramdas Pophale) SiO2 
 PCOD8164750
Probable space group: I 21 21 21
;
_chemical_formula_sum "Si O2"
_cell_formula_units_Z 60
_cell_length_a 8.641036
_cell_length_b 22.270235
_cell_length_c 14.838147
_cell_angle_alpha 90.000000
_cell_angle_beta 90.000000
_cell_angle_gamma 90.000000
_cell_volume 2855.421884
_symmetry_space_group_name_H-M "I 21 21 21"
_symmetry_group_IT_number 24
_symmetry_cell_setting 'orthorhombic'
loop_
_space_group_symop_operation_xyz
x,y,z
-x,1/2-y,z
x,-y,1/2-z
1/2-x,y,-z
1/2+x,1/2+y,1/2+z
1/2-x,-y,1/2+z
1/2+x,1/2-y,-z
-x,1/2+y,1/2-z
loop_
_atom_site_type_symbol
_atom_site_label
_atom_site_fract_x
_atom_site_fract_y
_atom_site_fract_z
Si Si1 0.854281 0.500000 0.250000
Si Si2 0.425855 0.312054 0.317619
Si Si3 0.569094 0.313102 0.985626
Si Si4 0.410990 0.874830 0.692929
Si Si5 0.855407 0.500002 0.916561
Si Si6 0.430177 0.875673 0.018248
Si Si7 0.066902 0.687273 0.144620
Si Si8 0.448265 0.879104 0.340899
O O1 0.958103 0.443296 0.218806
O O2 0.751803 0.522875 0.165561
O O3 0.500000 0.250000 0.280298
O O4 0.520155 0.328975 0.406269
O O5 0.248125 0.305173 0.342070
O O6 0.439724 0.364572 0.242573
O O7 0.500000 0.250000 0.956402
O O8 0.527691 0.360437 0.906976
O O9 0.750000 0.306496 0.000000
O O10 0.496298 0.335541 0.078991
O O11 0.484842 0.827999 0.761502
O O12 0.225755 0.868069 0.693821
O O13 0.959787 0.555630 0.950157
O O14 0.964440 0.447069 0.878299
O O15 0.750000 0.475453 0.000000
O O16 0.250000 0.865793 0.000000
O O17 0.530338 0.864302 0.928465
O O18 0.000000 0.750000 0.108113
#
# Coordination Sequence:
#
# PCOD8164750 Si02
#       8
#     4   8   8   8   8   8   8   8
#     4  10  18  34  60  92 122 152 196 246 296 356
#     4  12  25  41  61  90 125 163 204 253 307 366
#     4  10  21  35  56  83 117 155 197 244 292 345
#     4  10  20  37  60  89 121 157 200 250 300 358
#     4  10  19  35  64  95 120 155 202 251 296 356
#     4  11  22  40  66  92 120 159 203 251 304 363
#     4  12  25  41  61  90 125 163 204 253 307 366
#     4  10  20  38  62  90 121 158 203 250 299 358
#
# _framework density 21.012657000000001
#
# number of rings (size 3 to 8) (size 9 to 14) (size 15 to 20)
#    0.000    1.333    0.000    9.200    0.000    3.200 
#    0.000    1.333    0.000    6.400    0.000    0.000 
#    0.000    0.000    0.000    0.000    0.000    0.000 
#
# Total GULP energy -372050.572478 kJ/mol
# GULP energy per Si atom -12401.685749 kJ/mol
# Density = 2.096483 g / cm^3
# Si number density = 21.012657 Si / 1000 Ang^3
#
#
#
# Elastic Constant Matrix: (Units=GPa)
#
#
# Indices 1 2 3 4 5 6 
#
# 1 75.2144 56.0043 46.7557 0.0000 0.0000 0.0000
# 2 56.0043 134.4034 46.4731 0.0000 0.0000 0.0000
# 3 46.7557 46.4731 136.4904 -0.0001 0.0001 0.0000
# 4 0.0000 0.0000 -0.0001 40.7084 0.0000 0.0000
# 5 0.0000 0.0000 0.0001 0.0000 22.0622 0.0000
# 6 0.0000 0.0000 0.0000 0.0000 0.0000 23.6234
#
#
#
# Elastic Compliance Matrix: (Units=1/GPa)
#
#
# Indices 1 2 3 4 5 6 
#
# 1 0.021907 -0.007405 -0.004983 0.000000 0.000000 0.000000
# 2 -0.007405 0.010936 -0.001187 0.000000 0.000000 0.000000
# 3 -0.004983 -0.001187 0.009438 0.000000 0.000000 0.000000
# 4 0.000000 0.000000 0.000000 0.024565 0.000000 0.000000
# 5 0.000000 0.000000 0.000000 0.000000 0.045326 0.000000
# 6 0.000000 0.000000 0.000000 0.000000 0.000000 0.042331
#
#
# Mechanical properties :
#
#
# Convention : Reuss Voigt Hill
#
# Bulk Modulus (GPa) = 66.09196 71.61935 68.85566
# Shear Modulus (GPa) = 26.78137 30.40383 28.59260
#
# Velocity S-wave (km/s) = 3.57394 3.80798 3.69281
# Velocity P-wave (km/s) = 6.96795 7.31383 7.14299
#
# Compressibility (1/GPa) = 0.01513043
#
# Stress axis : x y z
#
# Youngs Moduli (GPa) = 45.64774 91.43746 105.95923
#
# Poissons Ratio (x) = 0.67713 0.52799
# Poissons Ratio (y) = 0.33804 0.12577
# Poissons Ratio (z) = 0.22746 0.10853
#
# Static dielectric constant tensor:
#      x y z
#    x 3.405190 0.000000 0.000000 
#    y 0.000000 3.936680 0.000000 
#    z 0.000000 0.000000 4.167300 
# 
# 
# High freq. dielectric constant tensor:
#      x y z
#    x 1.776010 0.000000 0.000000 
#    y 0.000000 1.832930 0.000000 
#    z 0.000000 0.000000 1.850810 
# 
# From -- ./inp_files/25176.got.cif
#   From: 2010.03.12/outbox.cif.g09.slc.cpg/sg24_13_cif.got.tgz:25176.got - 2010.04.14 03:06:53.
