data_PCOD8164572
_publ_section_title
;
Structure prediction by ZEFSAII (Michael W. Deem and Ramdas Pophale) SiO2 
 PCOD8164572
Probable space group: I 21 21 21
;
_chemical_formula_sum "Si O2"
_cell_formula_units_Z 44
_cell_length_a 18.955070
_cell_length_b 5.312228
_cell_length_c 28.966850
_cell_angle_alpha 90.000000
_cell_angle_beta 90.000000
_cell_angle_gamma 90.000000
_cell_volume 2916.777960
_symmetry_space_group_name_H-M "I 21 21 21"
_symmetry_group_IT_number 24
_symmetry_cell_setting 'orthorhombic'
loop_
_space_group_symop_operation_xyz
x,y,z
-x,1/2-y,z
x,-y,1/2-z
1/2-x,y,-z
1/2+x,1/2+y,1/2+z
1/2-x,-y,1/2+z
1/2+x,1/2-y,-z
-x,1/2+y,1/2-z
loop_
_atom_site_type_symbol
_atom_site_label
_atom_site_fract_x
_atom_site_fract_y
_atom_site_fract_z
Si Si1 0.700632 0.987735 0.954976
Si Si2 0.367842 0.019854 0.343167
Si Si3 0.332563 0.987053 0.512800
Si Si4 0.077227 0.822940 0.569640
Si Si5 0.953527 0.500000 0.750000
Si Si6 0.184451 0.470949 0.880504
O O1 0.651914 0.737280 0.957032
O O2 0.651448 0.236617 0.957075
O O3 0.742559 0.990364 0.907056
O O4 0.750000 0.987022 0.000000
O O5 0.404072 0.015463 0.294062
O O6 0.328233 0.285254 0.348916
O O7 0.427303 0.990704 0.383446
O O8 0.313485 0.782508 0.348497
O O9 0.250000 0.986555 0.500000
O O10 0.381754 0.990287 0.467860
O O11 0.122539 0.569780 0.581003
O O12 0.000000 0.750000 0.551735
O O13 0.000000 0.750000 0.746711
#
# Coordination Sequence:
#
# PCOD8164572 Si02
#       6
#     8   8   8   8   4   8
#     4  10  15  28  45  61  80 104 137 174 222 258
#     4  10  21  33  45  62  81 110 150 192 238 273
#     4  10  17  28  44  61  84 109 141 175 225 260
#     4  10  21  31  44  67  89 115 144 195 234 264
#     4  12  24  36  48  60  82 120 154 192 244 300
#     4  10  19  32  47  64  81 109 144 195 227 266
#
# _framework density 15.085138000000001
#
# number of rings (size 3 to 8) (size 9 to 14) (size 15 to 20)
#    1.091    0.727    3.636    4.909    2.545    0.000 
#    0.000    0.000    0.000    0.000    0.000    0.000 
#    0.000    0.000    0.000    0.000    0.000    0.000 
#
# Total GULP energy -272543.593117 kJ/mol
# GULP energy per Si atom -12388.345142 kJ/mol
# Density = 1.505080 g / cm^3
# Si number density = 15.085138 Si / 1000 Ang^3
#
#
#
# Elastic Constant Matrix: (Units=GPa)
#
#
# Indices 1 2 3 4 5 6 
#
# 1 21.6313 5.4591 23.6096 0.0000 0.0000 0.0000
# 2 5.4591 147.9718 36.4333 0.0000 0.0000 0.0000
# 3 23.6096 36.4333 79.2216 0.0000 0.0000 0.0000
# 4 0.0000 0.0000 0.0000 0.9239 0.0000 0.0000
# 5 0.0000 0.0000 0.0000 0.0000 19.0550 0.0000
# 6 0.0000 0.0000 0.0000 0.0000 0.0000 12.4068
#
#
#
# Elastic Compliance Matrix: (Units=1/GPa)
#
#
# Indices 1 2 3 4 5 6 
#
# 1 0.069575 0.002863 -0.022051 0.000000 0.000000 0.000000
# 2 0.002863 0.007739 -0.004412 0.000000 0.000000 0.000000
# 3 -0.022051 -0.004412 0.021224 0.000000 0.000000 0.000000
# 4 0.000000 0.000000 0.000000 1.082329 0.000000 0.000000
# 5 0.000000 0.000000 0.000000 0.000000 0.052480 0.000000
# 6 0.000000 0.000000 0.000000 0.000000 0.000000 0.080601
#
#
# Mechanical properties :
#
#
# Convention : Reuss Voigt Hill
#
# Bulk Modulus (GPa) = 19.47960 42.20321 30.84140
# Shear Modulus (GPa) = 3.62776 18.69866 11.16321
#
# Velocity S-wave (km/s) = 1.55244 3.52453 2.72327
# Velocity P-wave (km/s) = 4.01928 6.67836 5.51158
#
# Compressibility (1/GPa) = 0.05133576
#
# Stress axis : x y z
#
# Youngs Moduli (GPa) = 14.37303 129.21946 47.11737
#
# Poissons Ratio (x) = -0.36990 1.03899
# Poissons Ratio (y) = -0.04114 0.20789
# Poissons Ratio (z) = 0.31694 0.57013
#
# Static dielectric constant tensor:
#      x y z
#    x 2.453160 0.000000 0.000000 
#    y 0.000000 4.671080 0.000000 
#    z 0.000000 0.000000 2.661080 
# 
# 
# High freq. dielectric constant tensor:
#      x y z
#    x 1.517570 0.000000 0.000000 
#    y 0.000000 1.609960 0.000000 
#    z 0.000000 0.000000 1.545370 
# 
# From -- ./inp_files/36033.got.cif
#   From: 2010.03.12/outbox.cif.g09.slc.cpg/sg24_19_cif.got.tgz:36033.got - 2010.04.14 03:06:53.
