data_PCOD8164289
_publ_section_title
;
Structure prediction by ZEFSAII (Michael W. Deem and Ramdas Pophale) SiO2 
 PCOD8164289
Probable space group: I 2 2 2
;
_chemical_formula_sum "Si O2"
_cell_formula_units_Z 54
_cell_length_a 14.342490
_cell_length_b 13.940183
_cell_length_c 12.203419
_cell_angle_alpha 90.000000
_cell_angle_beta 90.000000
_cell_angle_gamma 90.000000
_cell_volume 2439.914195
_symmetry_space_group_name_H-M "I 2 2 2"
_symmetry_group_IT_number 23
_symmetry_cell_setting 'orthorhombic'
loop_
_space_group_symop_operation_xyz
x,y,z
-x,-y,z
x,-y,-z
-x,y,-z
1/2+x,1/2+y,1/2+z
1/2-x,1/2-y,1/2+z
1/2+x,1/2-y,1/2-z
1/2-x,1/2+y,1/2-z
loop_
_atom_site_type_symbol
_atom_site_label
_atom_site_fract_x
_atom_site_fract_y
_atom_site_fract_z
Si Si1 0.394098 0.640114 0.988871
Si Si2 0.130595 0.478986 0.122979
Si Si3 0.674327 0.511506 0.823247
Si Si4 0.123818 0.341197 0.606805
Si Si5 0.983675 0.660385 0.824527
Si Si6 0.000000 0.187684 0.000000
Si Si7 0.175911 0.074335 0.091306
Si Si8 0.500000 0.000000 0.000000
O O1 0.359132 0.587166 0.879040
O O2 0.380794 0.754637 0.980876
O O3 0.500000 0.610036 0.000000
O O4 0.343157 0.603362 0.098653
O O5 0.216382 0.499838 0.202750
O O6 0.056131 0.561086 0.135448
O O7 0.093231 0.372289 0.161224
O O8 0.168250 0.500000 0.000000
O O9 0.632237 0.527034 0.701887
O O10 0.062275 0.306906 0.710610
O O11 0.234212 0.360674 0.624988
O O12 0.069209 0.436107 0.571418
O O13 0.960696 0.748281 0.902104
O O14 0.088785 0.128422 0.038907
O O15 0.211808 0.000000 0.000000
#
# Coordination Sequence:
#
# PCOD8164289 Si02
#       8
#     8   8   8   8   8   4   8   2
#     4  11  26  47  75 106 139 191 249 305 366 442
#     4  11  19  42  71 108 145 188 240 303 372 423
#     4  11  25  47  76 104 150 188 248 308 367 442
#     4  12  27  46  76 109 144 192 248 305 375 440
#     4  11  24  42  69 109 145 187 243 299 360 433
#     4  12  29  45  74 102 156 196 248 299 359 460
#     4  12  30  49  70 104 147 201 237 299 381 442
#     4  12  24  52  72 102 160 176 244 308 372 438
#
# _framework density 22.131926
#
# number of rings (size 3 to 8) (size 9 to 14) (size 15 to 20)
#    0.000    0.593    5.926    2.444    8.296    1.185 
#    0.000    0.000    0.000    0.000    0.000    0.000 
#    0.000    0.000    0.000    0.000    0.000    0.000 
#
# Total GULP energy -334511.883673 kJ/mol
# GULP energy per Si atom -12389.329025 kJ/mol
# Density = 2.208155 g / cm^3
# Si number density = 22.131926 Si / 1000 Ang^3
#
#
#
# Elastic Constant Matrix: (Units=GPa)
#
#
# Indices 1 2 3 4 5 6 
#
# 1 134.4960 36.8509 42.2873 0.0000 0.0000 0.0000
# 2 36.8509 103.0836 47.7366 0.0000 0.0000 0.0000
# 3 42.2873 47.7366 138.0006 0.0000 0.0000 0.0000
# 4 0.0000 0.0000 0.0000 64.9944 0.0000 0.0000
# 5 0.0000 0.0000 0.0000 0.0000 23.4585 0.0000
# 6 0.0000 0.0000 0.0000 0.0000 0.0000 22.5717
#
#
#
# Elastic Compliance Matrix: (Units=1/GPa)
#
#
# Indices 1 2 3 4 5 6 
#
# 1 0.008633 -0.002216 -0.001879 0.000000 0.000000 0.000000
# 2 -0.002216 0.012120 -0.003513 0.000000 0.000000 0.000000
# 3 -0.001879 -0.003513 0.009037 0.000000 0.000000 0.000000
# 4 0.000000 0.000000 0.000000 0.015386 0.000000 0.000000
# 5 0.000000 0.000000 0.000000 0.000000 0.042629 0.000000
# 6 0.000000 0.000000 0.000000 0.000000 0.000000 0.044303
#
#
# Mechanical properties :
#
#
# Convention : Reuss Voigt Hill
#
# Bulk Modulus (GPa) = 68.61626 69.92554 69.27090
# Shear Modulus (GPa) = 32.85515 38.78528 35.82022
#
# Velocity S-wave (km/s) = 3.85712 4.19078 4.02741
# Velocity P-wave (km/s) = 7.13492 7.42161 7.27968
#
# Compressibility (1/GPa) = 0.01457380
#
# Stress axis : x y z
#
# Youngs Moduli (GPa) = 115.83315 82.50732 110.65097
#
# Poissons Ratio (x) = 0.18285 0.20789
# Poissons Ratio (y) = 0.25670 0.38877
# Poissons Ratio (z) = 0.21763 0.28989
#
# Static dielectric constant tensor:
#      x y z
#    x 4.221790 0.000000 0.000000 
#    y 0.000000 3.783440 0.000000 
#    z 0.000000 0.000000 4.070680 
# 
# 
# High freq. dielectric constant tensor:
#      x y z
#    x 1.884880 0.000000 0.000000 
#    y 0.000000 1.867110 0.000000 
#    z 0.000000 0.000000 1.870670 
# 
# From -- ./inp_files/16828.got.cif
#   From: 2010.03.12/outbox.cif.g09.slc.cpg/sg23_9_cif.got.tgz:16828.got - 2010.04.14 02:50:06.
