data_PCOD8164155
_publ_section_title
;
Structure prediction by ZEFSAII (Michael W. Deem and Ramdas Pophale) SiO2 
 PCOD8164155
Probable space group: I 2 2 2
;
_chemical_formula_sum "Si O2"
_cell_formula_units_Z 54
_cell_length_a 14.007027
_cell_length_b 13.009514
_cell_length_c 14.230735
_cell_angle_alpha 90.000000
_cell_angle_beta 90.000000
_cell_angle_gamma 90.000000
_cell_volume 2593.190190
_symmetry_space_group_name_H-M "I 2 2 2"
_symmetry_group_IT_number 23
_symmetry_cell_setting 'orthorhombic'
loop_
_space_group_symop_operation_xyz
x,y,z
-x,-y,z
x,-y,-z
-x,y,-z
1/2+x,1/2+y,1/2+z
1/2-x,1/2-y,1/2+z
1/2+x,1/2-y,1/2-z
1/2-x,1/2+y,1/2-z
loop_
_atom_site_type_symbol
_atom_site_label
_atom_site_fract_x
_atom_site_fract_y
_atom_site_fract_z
Si Si1 0.362072 0.582055 0.843442
Si Si2 0.000000 0.000000 0.500000
Si Si3 0.444982 0.787934 0.405673
Si Si4 0.000000 0.500000 0.817131
Si Si5 0.702398 0.020257 0.766196
Si Si6 0.764591 0.283557 0.388777
Si Si7 0.761260 0.901959 0.938225
Si Si8 0.546326 0.398627 0.651392
O O1 0.425323 0.561416 0.935357
O O2 0.265882 0.511508 0.825969
O O3 0.339513 0.702820 0.849132
O O4 0.424386 0.560153 0.752836
O O5 0.500000 0.758276 0.500000
O O6 0.472223 0.903279 0.379790
O O7 0.331791 0.779493 0.408147
O O8 0.476513 0.698176 0.333613
O O9 0.091157 0.465194 0.756479
O O10 0.744337 0.124426 0.812739
O O11 0.703254 0.928243 0.843483
O O12 0.795890 0.324040 0.492941
O O13 0.863803 0.856984 0.908531
O O14 0.784528 0.000000 0.000000
O O15 0.500000 0.500000 0.602260
#
# Coordination Sequence:
#
# PCOD8164155 Si02
#       8
#     8   2   8   4   8   8   8   8
#     4  11  24  47  64  97 131 178 219 271 334 399
#     4  12  28  48  68  94 136 176 224 268 332 406
#     4  12  24  39  67 101 134 176 224 277 341 410
#     4  12  25  46  63  98 142 194 222 261 340 431
#     4  10  23  45  71  96 138 173 226 282 335 402
#     4  11  22  44  67 101 134 171 224 284 337 391
#     4   9  19  37  64  97 129 162 211 284 335 373
#     4  11  21  38  68  99 130 165 224 281 334 389
#
# _framework density 20.823772000000002
#
# number of rings (size 3 to 8) (size 9 to 14) (size 15 to 20)
#    0.000    1.185    3.704    3.778    0.000    1.185 
#   10.667    2.593    0.000    0.000    0.000    0.000 
#    0.000    0.000    0.000    0.000    0.000    0.000 
#
# Total GULP energy -334542.202896 kJ/mol
# GULP energy per Si atom -12390.451959 kJ/mol
# Density = 2.077638 g / cm^3
# Si number density = 20.823772 Si / 1000 Ang^3
#
#
#
# Elastic Constant Matrix: (Units=GPa)
#
#
# Indices 1 2 3 4 5 6 
#
# 1 95.6153 33.6379 39.5867 0.0000 0.0000 0.0000
# 2 33.6379 121.6572 21.3030 0.0000 0.0000 0.0000
# 3 39.5867 21.3030 75.0051 0.0000 0.0000 0.0000
# 4 0.0000 0.0000 0.0000 23.4281 0.0000 0.0000
# 5 0.0000 0.0000 0.0000 0.0000 20.4678 0.0000
# 6 0.0000 0.0000 0.0000 0.0000 0.0000 33.1061
#
#
#
# Elastic Compliance Matrix: (Units=1/GPa)
#
#
# Indices 1 2 3 4 5 6 
#
# 1 0.014208 -0.002752 -0.006717 0.000000 0.000000 0.000000
# 2 -0.002752 0.009183 -0.001156 0.000000 0.000000 0.000000
# 3 -0.006717 -0.001156 0.017206 0.000000 0.000000 0.000000
# 4 0.000000 0.000000 0.000000 0.042684 0.000000 0.000000
# 5 0.000000 0.000000 0.000000 0.000000 0.048857 0.000000
# 6 0.000000 0.000000 0.000000 0.000000 0.000000 0.030206
#
#
# Mechanical properties :
#
#
# Convention : Reuss Voigt Hill
#
# Bulk Modulus (GPa) = 51.68745 53.48143 52.58444
# Shear Modulus (GPa) = 26.30992 28.58374 27.44683
#
# Velocity S-wave (km/s) = 3.55837 3.70895 3.63444
# Velocity P-wave (km/s) = 6.46204 6.63930 6.55127
#
# Compressibility (1/GPa) = 0.01934706
#
# Stress axis : x y z
#
# Youngs Moduli (GPa) = 70.38393 108.89500 58.11998
#
# Poissons Ratio (x) = 0.29970 0.39039
# Poissons Ratio (y) = 0.19371 0.06716
# Poissons Ratio (z) = 0.47277 0.12584
#
# Static dielectric constant tensor:
#      x y z
#    x 3.733370 0.000000 0.000000 
#    y 0.000000 3.786800 0.000000 
#    z 0.000000 0.000000 3.916870 
# 
# 
# High freq. dielectric constant tensor:
#      x y z
#    x 1.809740 0.000000 0.000000 
#    y 0.000000 1.817500 0.000000 
#    z 0.000000 0.000000 1.811630 
# 
# From -- ./inp_files/16813.got.cif
#   From: 2010.03.12/outbox.cif.g09.slc.cpg/sg23_9_cif.got.tgz:16813.got - 2010.04.14 02:50:06.
