data_PCOD8164192
_publ_section_title
;
Structure prediction by ZEFSAII (Michael W. Deem and Ramdas Pophale) SiO2 
 PCOD8164192
Probable space group: I 2 2 2
;
_chemical_formula_sum "Si O2"
_cell_formula_units_Z 40
_cell_length_a 8.646895
_cell_length_b 10.285708
_cell_length_c 21.106889
_cell_angle_alpha 90.000000
_cell_angle_beta 90.000000
_cell_angle_gamma 90.000000
_cell_volume 1877.234826
_symmetry_space_group_name_H-M "I 2 2 2"
_symmetry_group_IT_number 23
_symmetry_cell_setting 'orthorhombic'
loop_
_space_group_symop_operation_xyz
x,y,z
-x,-y,z
x,-y,-z
-x,y,-z
1/2+x,1/2+y,1/2+z
1/2-x,1/2-y,1/2+z
1/2+x,1/2-y,1/2-z
1/2-x,1/2+y,1/2-z
loop_
_atom_site_type_symbol
_atom_site_label
_atom_site_fract_x
_atom_site_fract_y
_atom_site_fract_z
Si Si1 0.330911 0.132067 0.975841
Si Si2 0.340459 0.134936 0.528766
Si Si3 0.929982 0.139605 0.257057
Si Si4 0.835068 0.530379 0.161200
Si Si5 0.206422 0.243016 0.340056
O O1 0.322262 0.161304 0.900003
O O2 0.500000 0.108085 0.000000
O O3 0.282059 0.254792 0.016755
O O4 0.240572 0.000000 0.000000
O O5 0.500000 0.183252 0.500000
O O6 0.375149 0.120422 0.602284
O O7 0.279876 0.000000 0.500000
O O8 0.774484 0.117407 0.296280
O O9 0.863521 0.210920 0.195098
O O10 0.053567 0.231015 0.294600
O O11 0.000000 0.000000 0.237710
O O12 0.744053 0.402464 0.136741
O O13 0.000000 0.500000 0.195708
#
# Coordination Sequence:
#
# PCOD8164192 Si02
#       5
#     8   8   8   8   8
#     4  11  25  45  62  97 136 177 220 268 340 406
#     4  11  20  39  65  98 127 167 220 268 328 394
#     4  10  24  42  65  98 126 177 225 278 343 389
#     4  11  20  39  66  97 129 165 221 275 330 397
#     4  11  22  45  65  95 135 170 229 277 336 410
#
# _framework density 21.307938
#
# number of rings (size 3 to 8) (size 9 to 14) (size 15 to 20)
#    0.000    1.200    4.000    2.400    0.000    0.800 
#   32.400    0.000    0.000    0.000    0.000    0.000 
#    0.000    0.000    0.000    0.000    0.000    0.000 
#
# Total GULP energy -247816.898154 kJ/mol
# GULP energy per Si atom -12390.844908 kJ/mol
# Density = 2.125944 g / cm^3
# Si number density = 21.307938 Si / 1000 Ang^3
#
#
#
# Elastic Constant Matrix: (Units=GPa)
#
#
# Indices 1 2 3 4 5 6 
#
# 1 102.8359 23.5070 36.3818 0.0000 0.0000 0.0000
# 2 23.5070 89.5451 26.7197 0.0000 0.0000 0.0000
# 3 36.3818 26.7197 106.5494 0.0000 0.0000 0.0000
# 4 0.0000 0.0000 0.0000 33.9395 0.0000 0.0000
# 5 0.0000 0.0000 0.0000 0.0000 33.7243 0.0000
# 6 0.0000 0.0000 0.0000 0.0000 0.0000 43.1964
#
#
#
# Elastic Compliance Matrix: (Units=1/GPa)
#
#
# Indices 1 2 3 4 5 6 
#
# 1 0.011375 -0.001975 -0.003389 0.000000 0.000000 0.000000
# 2 -0.001975 0.012414 -0.002439 0.000000 0.000000 0.000000
# 3 -0.003389 -0.002439 0.011154 0.000000 0.000000 0.000000
# 4 0.000000 0.000000 0.000000 0.029464 0.000000 0.000000
# 5 0.000000 0.000000 0.000000 0.000000 0.029652 0.000000
# 6 0.000000 0.000000 0.000000 0.000000 0.000000 0.023150
#
#
# Mechanical properties :
#
#
# Convention : Reuss Voigt Hill
#
# Bulk Modulus (GPa) = 51.71224 52.46081 52.08652
# Shear Modulus (GPa) = 35.90436 36.32684 36.11560
#
# Velocity S-wave (km/s) = 4.10936 4.13346 4.12143
# Velocity P-wave (km/s) = 6.84379 6.88872 6.86629
#
# Compressibility (1/GPa) = 0.01933778
#
# Stress axis : x y z
#
# Youngs Moduli (GPa) = 87.91592 80.55631 89.65434
#
# Poissons Ratio (x) = 0.15909 0.30381
# Poissons Ratio (y) = 0.17362 0.21864
# Poissons Ratio (z) = 0.29792 0.19645
#
# Static dielectric constant tensor:
#      x y z
#    x 3.905590 0.000000 0.000000 
#    y 0.000000 3.960550 0.000000 
#    z 0.000000 0.000000 3.689800 
# 
# 
# High freq. dielectric constant tensor:
#      x y z
#    x 1.842470 0.000000 0.000000 
#    y 0.000000 1.841030 0.000000 
#    z 0.000000 0.000000 1.828410 
# 
# From -- ./inp_files/11818.got.cif
#   From: 2010.03.12/outbox.cif.g09.slc.cpg/sg23_6_cif.got.tgz:11818.got - 2010.04.14 02:50:06.
