data_PCOD8164813
_publ_section_title
;
Structure prediction by ZEFSAII (Michael W. Deem and Ramdas Pophale) SiO2 
 PCOD8164813
Probable space group: I 21 21 21
;
_chemical_formula_sum "Si O2"
_cell_formula_units_Z 48
_cell_length_a 9.055626
_cell_length_b 29.151580
_cell_length_c 8.721608
_cell_angle_alpha 90.000000
_cell_angle_beta 90.000000
_cell_angle_gamma 90.000000
_cell_volume 2302.380716
_symmetry_space_group_name_H-M "I 21 21 21"
_symmetry_group_IT_number 24
_symmetry_cell_setting 'orthorhombic'
loop_
_space_group_symop_operation_xyz
x,y,z
-x,1/2-y,z
x,-y,1/2-z
1/2-x,y,-z
1/2+x,1/2+y,1/2+z
1/2-x,-y,1/2+z
1/2+x,1/2-y,-z
-x,1/2+y,1/2-z
loop_
_atom_site_type_symbol
_atom_site_label
_atom_site_fract_x
_atom_site_fract_y
_atom_site_fract_z
Si Si1 0.243932 0.679636 0.657903
Si Si2 0.922211 0.912055 0.390086
Si Si3 0.012500 0.699269 0.125683
Si Si4 0.494489 0.863741 0.165433
Si Si5 0.140468 0.551728 0.719233
Si Si6 0.193539 0.856391 0.329334
O O1 0.250000 0.710229 0.500000
O O2 0.337048 0.635594 0.605247
O O3 0.324239 0.702377 0.801728
O O4 0.077866 0.667665 0.708869
O O5 0.932131 0.933502 0.558538
O O6 0.820649 0.945137 0.282975
O O7 0.087243 0.901628 0.329598
O O8 0.891376 0.687767 0.257414
O O9 0.000000 0.750000 0.052835
O O10 0.001959 0.659662 0.999931
O O11 0.573431 0.913688 0.152732
O O12 0.326888 0.869472 0.217729
O O13 0.091220 0.500000 0.750000
O O14 0.250000 0.844112 0.500000
#
# Coordination Sequence:
#
# PCOD8164813 Si02
#       6
#     8   8   8   8   8   8
#     4  10  18  40  67  86 121 170 219 262 319 387
#     4   9  18  39  61  93 122 165 220 269 305 383
#     4  11  26  42  61  97 133 168 219 278 338 400
#     4  11  21  39  66  92 132 171 206 275 340 388
#     4  10  19  38  65  95 129 166 223 273 324 391
#     4  11  21  41  71  86 126 181 216 266 330 393
#
# _framework density 20.847985999999999
#
# number of rings (size 3 to 8) (size 9 to 14) (size 15 to 20)
#    0.000    1.667    5.000    2.000    0.000    3.333 
#   18.000    2.500    3.667    0.000    0.000    0.000 
#    0.000    0.000    0.000    0.000    0.000    0.000 
#
# Total GULP energy -297373.659718 kJ/mol
# GULP energy per Si atom -12390.569155 kJ/mol
# Density = 2.080054 g / cm^3
# Si number density = 20.847986 Si / 1000 Ang^3
#
#
#
# Elastic Constant Matrix: (Units=GPa)
#
#
# Indices 1 2 3 4 5 6 
#
# 1 136.9350 32.6141 41.2725 -0.0114 -0.0023 -0.0015
# 2 32.6141 120.1397 49.1666 -0.0120 -0.0005 -0.0004
# 3 41.2725 49.1666 105.0155 -0.0403 -0.0052 -0.0049
# 4 -0.0114 -0.0120 -0.0403 23.2580 -0.0018 -0.0021
# 5 -0.0023 -0.0005 -0.0052 -0.0018 31.1738 -0.0087
# 6 -0.0015 -0.0004 -0.0049 -0.0021 -0.0087 16.4108
#
#
#
# Elastic Compliance Matrix: (Units=1/GPa)
#
#
# Indices 1 2 3 4 5 6 
#
# 1 0.008411 -0.001151 -0.002767 -0.000001 0.000000 0.000000
# 2 -0.001151 0.010454 -0.004442 -0.000003 -0.000001 -0.000001
# 3 -0.002767 -0.004442 0.012689 0.000018 0.000002 0.000003
# 4 -0.000001 -0.000003 0.000018 0.042996 0.000002 0.000005
# 5 0.000000 -0.000001 0.000002 0.000002 0.032078 0.000017
# 6 0.000000 -0.000001 0.000003 0.000005 0.000017 0.060935
#
#
# Mechanical properties :
#
#
# Convention : Reuss Voigt Hill
#
# Bulk Modulus (GPa) = 67.40914 67.57739 67.49326
# Shear Modulus (GPa) = 26.42313 30.10431 28.26372
#
# Velocity S-wave (km/s) = 3.56394 3.80411 3.68598
# Velocity P-wave (km/s) = 7.02420 7.19581 7.11053
#
# Compressibility (1/GPa) = 0.01483478
#
# Stress axis : x y z
#
# Youngs Moduli (GPa) = 118.89546 95.65731 78.80571
#
# Poissons Ratio (x) = 0.11010 0.21803
# Poissons Ratio (y) = 0.13685 0.35006
# Poissons Ratio (z) = 0.32894 0.42491
#
# Static dielectric constant tensor:
#      x y z
#    x 4.552250 0.000000 -0.000010 
#    y 0.000000 3.527520 0.000010 
#    z -0.000010 0.000010 3.865610 
# 
# 
# High freq. dielectric constant tensor:
#      x y z
#    x 1.822050 0.000000 0.000000 
#    y 0.000000 1.776890 0.000000 
#    z 0.000000 0.000000 1.819460 
# 
# From -- ./inp_files/9735.got.cif
#   From: 2010.03.12/outbox.cif.g09.slc.cpg/sg24_5_cif.got.tgz:9735.got - 2010.04.14 03:06:53.
