data_PCOD8164121
_publ_section_title
;
Structure prediction by ZEFSAII (Michael W. Deem and Ramdas Pophale) SiO2 
 PCOD8164121
Probable space group: I 2 2 2
;
_chemical_formula_sum "Si O2"
_cell_formula_units_Z 40
_cell_length_a 12.320027
_cell_length_b 5.109949
_cell_length_c 28.821728
_cell_angle_alpha 90.000000
_cell_angle_beta 90.000000
_cell_angle_gamma 90.000000
_cell_volume 1814.463518
_symmetry_space_group_name_H-M "I 2 2 2"
_symmetry_group_IT_number 23
_symmetry_cell_setting 'orthorhombic'
loop_
_space_group_symop_operation_xyz
x,y,z
-x,-y,z
x,-y,-z
-x,y,-z
1/2+x,1/2+y,1/2+z
1/2-x,1/2-y,1/2+z
1/2+x,1/2-y,1/2-z
1/2-x,1/2+y,1/2-z
loop_
_atom_site_type_symbol
_atom_site_label
_atom_site_fract_x
_atom_site_fract_y
_atom_site_fract_z
Si Si1 0.622414 0.749512 0.979142
Si Si2 0.820673 0.789156 0.755708
Si Si3 0.430365 0.744347 0.648243
Si Si4 0.111105 0.618719 0.338270
Si Si5 0.203779 0.853776 0.619803
O O1 0.633529 0.747810 0.923865
O O2 0.684991 0.500000 0.000000
O O3 0.500000 0.749081 0.000000
O O4 0.683805 0.000000 0.000000
O O5 0.739831 0.546243 0.763044
O O6 0.887286 0.850758 0.801812
O O7 0.904080 0.712679 0.714384
O O8 0.500000 0.500000 0.627418
O O9 0.334207 0.840846 0.613044
O O10 0.500000 0.000000 0.656810
O O11 0.190457 0.366663 0.339781
O O12 0.000000 0.500000 0.358927
O O13 0.158683 0.858379 0.368615
#
# Coordination Sequence:
#
# PCOD8164121 Si02
#       5
#     8   8   8   8   8
#     4  10  23  41  68  98 132 174 208 272 360 445
#     4  12  22  43  63  94 141 188 238 293 353 393
#     4  12  25  43  70  93 135 194 241 289 341 410
#     4  12  25  39  65 100 139 185 221 293 349 424
#     4  12  25  44  67 102 139 174 236 288 348 430
#
# _framework density 22.045083000000002
#
# number of rings (size 3 to 8) (size 9 to 14) (size 15 to 20)
#    0.000    0.400    4.000    4.800    8.400    1.600 
#    0.000    0.000    0.000    3.600    0.000    0.000 
#    0.000    0.000    0.000    0.000    0.000    0.000 
#
# Total GULP energy -247822.692285 kJ/mol
# GULP energy per Si atom -12391.134614 kJ/mol
# Density = 2.199491 g / cm^3
# Si number density = 22.045083 Si / 1000 Ang^3
#
#
#
# Elastic Constant Matrix: (Units=GPa)
#
#
# Indices 1 2 3 4 5 6 
#
# 1 116.8986 49.2862 38.0962 0.0000 0.0000 0.0000
# 2 49.2862 190.4282 19.3474 0.0000 0.0000 0.0000
# 3 38.0962 19.3474 68.5479 0.0000 0.0000 0.0000
# 4 0.0000 0.0000 0.0000 27.3604 0.0000 0.0000
# 5 0.0000 0.0000 0.0000 0.0000 25.3102 0.0000
# 6 0.0000 0.0000 0.0000 0.0000 0.0000 42.6492
#
#
#
# Elastic Compliance Matrix: (Units=1/GPa)
#
#
# Indices 1 2 3 4 5 6 
#
# 1 0.011403 -0.002375 -0.005667 0.000000 0.000000 0.000000
# 2 -0.002375 0.005901 -0.000345 0.000000 0.000000 0.000000
# 3 -0.005667 -0.000345 0.017835 0.000000 0.000000 0.000000
# 4 0.000000 0.000000 0.000000 0.036549 0.000000 0.000000
# 5 0.000000 0.000000 0.000000 0.000000 0.039510 0.000000
# 6 0.000000 0.000000 0.000000 0.000000 0.000000 0.023447
#
#
# Mechanical properties :
#
#
# Convention : Reuss Voigt Hill
#
# Bulk Modulus (GPa) = 54.45461 65.48159 59.96810
# Shear Modulus (GPa) = 31.73765 37.00695 34.37230
#
# Velocity S-wave (km/s) = 3.79842 4.10163 3.95293
# Velocity P-wave (km/s) = 6.63267 7.22490 6.93511
#
# Compressibility (1/GPa) = 0.01836392
#
# Stress axis : x y z
#
# Youngs Moduli (GPa) = 87.69861 169.45606 56.06902
#
# Poissons Ratio (x) = 0.40254 0.31773
# Poissons Ratio (y) = 0.20833 0.01937
# Poissons Ratio (z) = 0.49696 0.05853
#
# Static dielectric constant tensor:
#      x y z
#    x 4.068910 0.000000 0.000000 
#    y 0.000000 0.033270 0.000000 
#    z 0.000000 0.000000 3.726530 
# 
# 
# High freq. dielectric constant tensor:
#      x y z
#    x 1.845880 0.000000 0.000000 
#    y 0.000000 1.905350 0.000000 
#    z 0.000000 0.000000 1.841130 
# 
# From -- ./inp_files/13969.got.cif
#   From: 2010.03.12/outbox.cif.g09.slc.cpg/sg23_7_cif.got.tgz:13969.got - 2010.04.14 02:50:06.
