data_PCOD8164961
_publ_section_title
;
Structure prediction by ZEFSAII (Michael W. Deem and Ramdas Pophale) SiO2 
 PCOD8164961
Probable space group: I 21 21 21
;
_chemical_formula_sum "Si O2"
_cell_formula_units_Z 40
_cell_length_a 23.988940
_cell_length_b 5.059608
_cell_length_c 14.880688
_cell_angle_alpha 90.000000
_cell_angle_beta 90.000000
_cell_angle_gamma 90.000000
_cell_volume 1806.138041
_symmetry_space_group_name_H-M "I 21 21 21"
_symmetry_group_IT_number 24
_symmetry_cell_setting 'orthorhombic'
loop_
_space_group_symop_operation_xyz
x,y,z
-x,1/2-y,z
x,-y,1/2-z
1/2-x,y,-z
1/2+x,1/2+y,1/2+z
1/2-x,-y,1/2+z
1/2+x,1/2-y,-z
-x,1/2+y,1/2-z
loop_
_atom_site_type_symbol
_atom_site_label
_atom_site_fract_x
_atom_site_fract_y
_atom_site_fract_z
Si Si1 0.053595 0.621188 0.656856
Si Si2 0.646793 0.201593 0.413914
Si Si3 0.864365 0.500000 0.750000
Si Si4 0.186800 0.195029 0.010172
Si Si5 0.000000 0.250000 0.187970
Si Si6 0.378595 0.250212 0.813484
O O1 0.030901 0.500000 0.750000
O O2 0.082083 0.393711 0.595913
O O3 0.099856 0.841462 0.676701
O O4 0.000000 0.750000 0.606846
O O5 0.669949 0.297048 0.314434
O O6 0.648406 0.447076 0.481945
O O7 0.682638 0.953503 0.447285
O O8 0.169128 0.266131 0.111148
O O9 0.250000 0.096192 0.000000
O O10 0.999650 0.500000 0.250000
O O11 0.940083 0.250619 0.136053
O O12 0.371598 0.500000 0.750000
O O13 0.369764 0.000000 0.750000
#
# Coordination Sequence:
#
# PCOD8164961 Si02
#       6
#     8   8   4   8   4   8
#     4  10  19  35  65  96 139 187 231 270 329 410
#     4  11  24  43  65  95 136 183 232 289 339 409
#     4  10  20  42  62  98 132 186 230 268 330 416
#     4  12  26  47  66  97 141 177 231 307 357 408
#     4   8  16  34  66  92 122 156 210 274 336 414
#     4  10  21  43  69  98 126 175 226 278 353 431
#
# _framework density 22.146702999999999
#
# number of rings (size 3 to 8) (size 9 to 14) (size 15 to 20)
#    0.000    1.600    3.000    1.800    0.000    0.000 
#    7.200    0.000    0.000    0.000    0.000    0.000 
#    0.000    0.000    0.000    0.000    0.000    0.000 
#
# Total GULP energy -247779.188329 kJ/mol
# GULP energy per Si atom -12388.959416 kJ/mol
# Density = 2.209630 g / cm^3
# Si number density = 22.146703 Si / 1000 Ang^3
#
#
#
# Elastic Constant Matrix: (Units=GPa)
#
#
# Indices 1 2 3 4 5 6 
#
# 1 110.6490 35.6122 69.6747 0.0000 0.0000 0.0000
# 2 35.6122 165.8108 53.3048 0.0000 0.0000 0.0000
# 3 69.6747 53.3048 91.8069 0.0000 0.0000 0.0000
# 4 0.0000 0.0000 0.0000 35.1628 0.0000 0.0000
# 5 0.0000 0.0000 0.0000 0.0000 29.2698 0.0000
# 6 0.0000 0.0000 0.0000 0.0000 0.0000 29.3713
#
#
#
# Elastic Compliance Matrix: (Units=1/GPa)
#
#
# Indices 1 2 3 4 5 6 
#
# 1 0.017362 0.000623 -0.013538 0.000000 0.000000 0.000000
# 2 0.000623 0.007437 -0.004791 0.000000 0.000000 0.000000
# 3 -0.013538 -0.004791 0.023949 0.000000 0.000000 0.000000
# 4 0.000000 0.000000 0.000000 0.028439 0.000000 0.000000
# 5 0.000000 0.000000 0.000000 0.000000 0.034165 0.000000
# 6 0.000000 0.000000 0.000000 0.000000 0.000000 0.034047
#
#
# Mechanical properties :
#
#
# Convention : Reuss Voigt Hill
#
# Bulk Modulus (GPa) = 74.98729 76.16112 75.57420
# Shear Modulus (GPa) = 26.98944 32.73908 29.86426
#
# Velocity S-wave (km/s) = 3.49473 3.84902 3.67614
# Velocity P-wave (km/s) = 7.08640 7.36324 7.22614
#
# Compressibility (1/GPa) = 0.01333559
#
# Stress axis : x y z
#
# Youngs Moduli (GPa) = 57.59708 134.45508 41.75520
#
# Poissons Ratio (x) = -0.08382 0.56530
# Poissons Ratio (y) = -0.03591 0.20007
# Poissons Ratio (z) = 0.77977 0.64423
#
# Static dielectric constant tensor:
#      x y z
#    x 3.950700 0.000000 0.000000 
#    y 0.000000 4.341720 0.000000 
#    z 0.000000 0.000000 3.710630 
# 
# 
# High freq. dielectric constant tensor:
#      x y z
#    x 1.846490 0.000000 0.000000 
#    y 0.000000 1.906510 0.000000 
#    z 0.000000 0.000000 1.837440 
# 
# From -- ./inp_files/27741.got.cif
#   From: 2010.03.12/outbox.cif.g09.slc.cpg/sg24_14_cif.got.tgz:27741.got - 2010.04.14 03:06:53.
