data_PCOD8164579
_publ_section_title
;
Structure prediction by ZEFSAII (Michael W. Deem and Ramdas Pophale) SiO2 
 PCOD8164579
Probable space group: I 21 21 21
;
_chemical_formula_sum "Si O2"
_cell_formula_units_Z 36
_cell_length_a 10.136746
_cell_length_b 9.808643
_cell_length_c 18.063024
_cell_angle_alpha 90.000000
_cell_angle_beta 90.000000
_cell_angle_gamma 90.000000
_cell_volume 1795.965341
_symmetry_space_group_name_H-M "I 21 21 21"
_symmetry_group_IT_number 24
_symmetry_cell_setting 'orthorhombic'
loop_
_space_group_symop_operation_xyz
x,y,z
-x,1/2-y,z
x,-y,1/2-z
1/2-x,y,-z
1/2+x,1/2+y,1/2+z
1/2-x,-y,1/2+z
1/2+x,1/2-y,-z
-x,1/2+y,1/2-z
loop_
_atom_site_type_symbol
_atom_site_label
_atom_site_fract_x
_atom_site_fract_y
_atom_site_fract_z
Si Si1 0.612472 0.855210 0.780886
Si Si2 0.153450 0.545823 0.067143
Si Si3 0.000000 0.250000 0.926862
Si Si4 0.775439 0.769304 0.368370
Si Si5 0.381629 0.966739 0.535216
O O1 0.500000 0.750000 0.801517
O O2 0.701059 0.785318 0.718548
O O3 0.557133 0.000000 0.750000
O O4 0.696809 0.879354 0.856585
O O5 0.156383 0.382374 0.079074
O O6 0.995308 0.577446 0.055678
O O7 0.250000 0.591254 0.000000
O O8 0.120110 0.293006 0.874909
O O9 0.048503 0.123372 0.973677
O O10 0.834083 0.624393 0.394864
O O11 0.250000 0.037427 0.500000
#
# Coordination Sequence:
#
# PCOD8164579 Si02
#       5
#     8   8   4   8   8
#     4  10  22  37  60  83 114 152 195 235 284 336
#     4  11  18  33  56  81 112 151 193 228 281 351
#     4  10  16  26  52  84 120 138 184 244 296 320
#     4  10  17  30  53  85 116 145 188 243 290 328
#     4  10  17  28  52  88 115 143 183 244 287 326
#
# _framework density 20.044929
#
# number of rings (size 3 to 8) (size 9 to 14) (size 15 to 20)
#    0.000    1.778    4.444    3.333    0.000    0.000 
#    0.000    1.111    7.333    1.333    0.000    0.000 
#    0.000    0.000    0.000    0.000    0.000    0.000 
#
# Total GULP energy -223019.919637 kJ/mol
# GULP energy per Si atom -12389.995535 kJ/mol
# Density = 1.999931 g / cm^3
# Si number density = 20.044929 Si / 1000 Ang^3
#
#
#
# Elastic Constant Matrix: (Units=GPa)
#
#
# Indices 1 2 3 4 5 6 
#
# 1 144.3303 11.9065 60.9039 0.0000 0.0000 0.0000
# 2 11.9065 29.9307 29.5249 0.0000 0.0000 0.0000
# 3 60.9039 29.5249 153.7075 0.0000 0.0000 0.0000
# 4 0.0000 0.0000 0.0000 9.8011 0.0000 0.0000
# 5 0.0000 0.0000 0.0000 0.0000 26.7230 0.0000
# 6 0.0000 0.0000 0.0000 0.0000 0.0000 11.0456
#
#
#
# Elastic Compliance Matrix: (Units=1/GPa)
#
#
# Indices 1 2 3 4 5 6 
#
# 1 0.008320 -0.000071 -0.003283 0.000000 0.000000 0.000000
# 2 -0.000071 0.041222 -0.007890 0.000000 0.000000 0.000000
# 3 -0.003283 -0.007890 0.009322 0.000000 0.000000 0.000000
# 4 0.000000 0.000000 0.000000 0.102029 0.000000 0.000000
# 5 0.000000 0.000000 0.000000 0.000000 0.037421 0.000000
# 6 0.000000 0.000000 0.000000 0.000000 0.000000 0.090533
#
#
# Mechanical properties :
#
#
# Convention : Reuss Voigt Hill
#
# Bulk Modulus (GPa) = 27.49092 59.18215 43.33653
# Shear Modulus (GPa) = 15.45786 24.55617 20.00701
#
# Velocity S-wave (km/s) = 2.77999 3.50388 3.16271
# Velocity P-wave (km/s) = 4.90397 6.77926 5.91639
#
# Compressibility (1/GPa) = 0.03637565
#
# Stress axis : x y z
#
# Youngs Moduli (GPa) = 120.19640 24.25909 107.27132
#
# Poissons Ratio (x) = 0.00173 0.35216
# Poissons Ratio (y) = 0.00857 0.84635
# Poissons Ratio (z) = 0.39459 0.19140
#
# Static dielectric constant tensor:
#      x y z
#    x 4.271180 0.000000 0.000000 
#    y 0.000000 3.257320 0.000000 
#    z 0.000000 0.000000 3.749580 
# 
# 
# High freq. dielectric constant tensor:
#      x y z
#    x 1.779220 0.000000 0.000000 
#    y 0.000000 1.739920 0.000000 
#    z 0.000000 0.000000 1.785990 
# 
# From -- ./inp_files/19564.got.cif
#   From: 2010.03.12/outbox.cif.g09.slc.cpg/sg24_10_cif.got.tgz:19564.got - 2010.04.14 03:06:53.
