data_PCOD8164538
_publ_section_title
;
Structure prediction by ZEFSAII (Michael W. Deem and Ramdas Pophale) SiO2 
 PCOD8164538
Probable space group: I 2 2 2
;
_chemical_formula_sum "Si O2"
_cell_formula_units_Z 36
_cell_length_a 6.887069
_cell_length_b 18.006974
_cell_length_c 12.467270
_cell_angle_alpha 90.000000
_cell_angle_beta 90.000000
_cell_angle_gamma 90.000000
_cell_volume 1546.131885
_symmetry_space_group_name_H-M "I 2 2 2"
_symmetry_group_IT_number 23
_symmetry_cell_setting 'orthorhombic'
loop_
_space_group_symop_operation_xyz
x,y,z
-x,-y,z
x,-y,-z
-x,y,-z
1/2+x,1/2+y,1/2+z
1/2-x,1/2-y,1/2+z
1/2+x,1/2-y,1/2-z
1/2-x,1/2+y,1/2-z
loop_
_atom_site_type_symbol
_atom_site_label
_atom_site_fract_x
_atom_site_fract_y
_atom_site_fract_z
Si Si1 0.010934 0.260957 0.375270
Si Si2 0.500000 0.500000 0.000000
Si Si3 0.143510 0.847894 0.206323
Si Si4 0.000000 0.500000 0.500000
Si Si5 0.253235 0.600610 0.344930
Si Si6 0.289461 0.019087 0.673427
O O1 0.231708 0.287236 0.356480
O O2 0.000000 0.241722 0.500000
O O3 0.966218 0.186911 0.308842
O O4 0.860091 0.322456 0.334245
O O5 0.644333 0.545079 0.078469
O O6 0.293144 0.913151 0.241888
O O7 0.978051 0.880240 0.125900
O O8 0.143570 0.551055 0.432042
O O9 0.276382 0.556226 0.232942
O O10 0.500000 0.000000 0.625666
#
# Coordination Sequence:
#
# PCOD8164538 Si02
#       6
#     8   2   8   2   8   8
#     4  12  27  49  76 109 150 199 255 301 384 458
#     4  12  26  44  70 112 140 200 250 294 392 436
#     4  12  26  50  74 108 155 199 245 320 372 448
#     4  12  24  48  80 118 150 200 254 318 380 454
#     4  12  24  49  77 111 157 188 253 317 374 446
#     4  12  25  47  75 109 148 195 253 318 367 445
#
# _framework density 23.283911
#
# number of rings (size 3 to 8) (size 9 to 14) (size 15 to 20)
#    0.000    0.000    8.889    0.333    1.556    0.889 
#    4.000    0.000    0.000    0.000    0.000    0.000 
#    0.000    0.000    0.000    0.000    0.000    0.000 
#
# Total GULP energy -223131.607650 kJ/mol
# GULP energy per Si atom -12396.200425 kJ/mol
# Density = 2.323092 g / cm^3
# Si number density = 23.283911 Si / 1000 Ang^3
#
#
#
# Elastic Constant Matrix: (Units=GPa)
#
#
# Indices 1 2 3 4 5 6 
#
# 1 173.7470 36.3917 53.5658 0.0000 0.0000 0.0000
# 2 36.3917 83.8718 19.0202 0.0001 0.0000 0.0000
# 3 53.5658 19.0202 107.3618 0.0002 -0.0001 0.0000
# 4 0.0000 0.0001 0.0002 16.9540 0.0000 0.0000
# 5 0.0000 0.0000 -0.0001 0.0000 35.5585 0.0000
# 6 0.0000 0.0000 0.0000 0.0000 0.0000 45.6543
#
#
#
# Elastic Compliance Matrix: (Units=1/GPa)
#
#
# Indices 1 2 3 4 5 6 
#
# 1 0.007245 -0.002421 -0.003186 0.000000 0.000000 0.000000
# 2 -0.002421 0.013231 -0.001136 0.000000 0.000000 0.000000
# 3 -0.003186 -0.001136 0.011105 0.000000 0.000000 0.000000
# 4 0.000000 0.000000 0.000000 0.058983 0.000000 0.000000
# 5 0.000000 0.000000 0.000000 0.000000 0.028123 0.000000
# 6 0.000000 0.000000 0.000000 0.000000 0.000000 0.021904
#
#
# Mechanical properties :
#
#
# Convention : Reuss Voigt Hill
#
# Bulk Modulus (GPa) = 55.26333 64.77067 60.01700
# Shear Modulus (GPa) = 31.22901 36.70022 33.96461
#
# Velocity S-wave (km/s) = 3.66625 3.97445 3.82346
# Velocity P-wave (km/s) = 6.45817 6.99570 6.73230
#
# Compressibility (1/GPa) = 0.01809518
#
# Stress axis : x y z
#
# Youngs Moduli (GPa) = 138.03150 75.57968 90.04951
#
# Poissons Ratio (x) = 0.18298 0.28687
# Poissons Ratio (y) = 0.33418 0.10231
# Poissons Ratio (z) = 0.43973 0.08587
#
# Static dielectric constant tensor:
#      x y z
#    x 4.516740 0.000000 0.000000 
#    y 0.000000 4.156580 0.000000 
#    z 0.000000 0.000000 4.033110 
# 
# 
# High freq. dielectric constant tensor:
#      x y z
#    x 1.945020 0.000000 0.000000 
#    y 0.000000 1.918840 0.000000 
#    z 0.000000 0.000000 1.906360 
# 
# From -- ./inp_files/13854.got.cif
#   From: 2010.03.12/outbox.cif.g09.slc.cpg/sg23_7_cif.got.tgz:13854.got - 2010.04.14 02:50:06.
