data_PCOD8164179
_publ_section_title
;
Structure prediction by ZEFSAII (Michael W. Deem and Ramdas Pophale) SiO2 
 PCOD8164179
Probable space group: I 2 2 2
;
_chemical_formula_sum "Si O2"
_cell_formula_units_Z 32
_cell_length_a 22.270734
_cell_length_b 5.108420
_cell_length_c 10.673365
_cell_angle_alpha 90.000000
_cell_angle_beta 90.000000
_cell_angle_gamma 90.000000
_cell_volume 1214.290196
_symmetry_space_group_name_H-M "I 2 2 2"
_symmetry_group_IT_number 23
_symmetry_cell_setting 'orthorhombic'
loop_
_space_group_symop_operation_xyz
x,y,z
-x,-y,z
x,-y,-z
-x,y,-z
1/2+x,1/2+y,1/2+z
1/2-x,1/2-y,1/2+z
1/2+x,1/2-y,1/2-z
1/2-x,1/2+y,1/2-z
loop_
_atom_site_type_symbol
_atom_site_label
_atom_site_fract_x
_atom_site_fract_y
_atom_site_fract_z
Si Si1 0.500000 0.500000 0.000000
Si Si2 0.394178 0.189276 0.386144
Si Si3 0.231170 0.150219 0.825790
Si Si4 0.802528 0.000000 0.500000
Si Si5 0.102093 0.313900 0.614821
Si Si6 0.000000 0.000000 0.000000
O O1 0.538409 0.679554 0.092133
O O2 0.338538 0.388839 0.367188
O O3 0.400837 0.042531 0.250578
O O4 0.457261 0.330105 0.411111
O O5 0.378430 0.000000 0.500000
O O6 0.239849 0.375840 0.717976
O O7 0.263775 0.256656 0.950342
O O8 0.844992 0.094158 0.384349
O O9 0.118015 0.500000 0.500000
#
# Coordination Sequence:
#
# PCOD8164179 Si02
#       6
#     2   8   8   4   8   2
#     4  10  24  40  76 108 138 210 266 340 402 484
#     4  12  28  50  79 115 164 221 276 349 416 506
#     4  12  27  48  81 119 166 215 278 345 429 502
#     4  11  24  43  74 115 154 205 266 338 418 507
#     4  11  24  47  75 109 155 201 271 339 413 492
#     4  12  32  52  80 116 174 220 302 324 432 500
#
# _framework density 26.352846
#
# number of rings (size 3 to 8) (size 9 to 14) (size 15 to 20)
#    0.000    0.500    3.750    3.000    3.500    8.000 
#    0.000    0.000    0.000    0.000    0.000    0.000 
#    0.000    0.000    0.000    0.000    0.000    0.000 
#
# Total GULP energy -198332.513926 kJ/mol
# GULP energy per Si atom -12395.782120 kJ/mol
# Density = 2.629287 g / cm^3
# Si number density = 26.352846 Si / 1000 Ang^3
#
#
#
# Elastic Constant Matrix: (Units=GPa)
#
#
# Indices 1 2 3 4 5 6 
#
# 1 188.6132 19.0078 26.0348 0.0000 0.0000 0.0000
# 2 19.0078 48.3139 9.2734 0.0000 0.0000 0.0000
# 3 26.0348 9.2734 205.5830 0.0000 0.0000 0.0000
# 4 0.0000 0.0000 0.0000 44.0147 0.0000 0.0000
# 5 0.0000 0.0000 0.0000 0.0000 24.2022 0.0000
# 6 0.0000 0.0000 0.0000 0.0000 0.0000 26.8420
#
#
#
# Elastic Compliance Matrix: (Units=1/GPa)
#
#
# Indices 1 2 3 4 5 6 
#
# 1 0.005597 -0.002084 -0.000615 0.000000 0.000000 0.000000
# 2 -0.002084 0.021655 -0.000713 0.000000 0.000000 0.000000
# 3 -0.000615 -0.000713 0.004974 0.000000 0.000000 0.000000
# 4 0.000000 0.000000 0.000000 0.022720 0.000000 0.000000
# 5 0.000000 0.000000 0.000000 0.000000 0.041319 0.000000
# 6 0.000000 0.000000 0.000000 0.000000 0.000000 0.037255
#
#
# Mechanical properties :
#
#
# Convention : Reuss Voigt Hill
#
# Bulk Modulus (GPa) = 39.36614 61.23802 50.30208
# Shear Modulus (GPa) = 33.60000 44.89138 39.24569
#
# Velocity S-wave (km/s) = 3.57459 4.13179 3.86325
# Velocity P-wave (km/s) = 5.65752 6.78605 6.24732
#
# Compressibility (1/GPa) = 0.02540254
#
# Stress axis : x y z
#
# Youngs Moduli (GPa) = 178.67602 46.17940 201.03629
#
# Poissons Ratio (x) = 0.09623 0.12359
# Poissons Ratio (y) = 0.37234 0.14332
# Poissons Ratio (z) = 0.10984 0.03292
#
# Static dielectric constant tensor:
#      x y z
#    x 5.040080 0.000000 0.000000 
#    y 0.000000 4.555120 0.000000 
#    z 0.000000 0.000000 5.141940 
# 
# 
# High freq. dielectric constant tensor:
#      x y z
#    x 2.085810 0.000000 0.000000 
#    y 0.000000 2.021970 0.000000 
#    z 0.000000 0.000000 2.083550 
# 
# From -- ./inp_files/1544.got.cif
#   From: 2010.03.12/outbox.cif.g09.slc.cpg/sg23_1_cif.got.tgz:1544.got - 2010.04.14 02:50:06.
