data_PCOD8164459
_publ_section_title
;
Structure prediction by ZEFSAII (Michael W. Deem and Ramdas Pophale) SiO2 
 PCOD8164459
Probable space group: I 2 2 2
;
_chemical_formula_sum "Si O2"
_cell_formula_units_Z 34
_cell_length_a 10.298932
_cell_length_b 12.822456
_cell_length_c 11.465740
_cell_angle_alpha 90.000000
_cell_angle_beta 90.000000
_cell_angle_gamma 90.000000
_cell_volume 1514.138134
_symmetry_space_group_name_H-M "I 2 2 2"
_symmetry_group_IT_number 23
_symmetry_cell_setting 'orthorhombic'
loop_
_space_group_symop_operation_xyz
x,y,z
-x,-y,z
x,-y,-z
-x,y,-z
1/2+x,1/2+y,1/2+z
1/2-x,1/2-y,1/2+z
1/2+x,1/2-y,1/2-z
1/2-x,1/2+y,1/2-z
loop_
_atom_site_type_symbol
_atom_site_label
_atom_site_fract_x
_atom_site_fract_y
_atom_site_fract_z
Si Si1 0.500000 0.500000 0.000000
Si Si2 0.339108 0.609355 0.188656
Si Si3 0.115114 0.223905 0.092982
Si Si4 0.873689 0.563264 0.229860
Si Si5 0.858232 0.302548 0.552667
O O1 0.425702 0.577193 0.082139
O O2 0.422042 0.643502 0.302828
O O3 0.242766 0.516725 0.215344
O O4 0.283214 0.716942 0.134755
O O5 0.138013 0.340958 0.139742
O O6 0.253353 0.177947 0.048676
O O7 0.000000 0.220284 0.000000
O O8 0.879121 0.597069 0.365032
O O9 0.000000 0.500000 0.194739
O O10 0.000000 0.272831 0.500000
#
# Coordination Sequence:
#
# PCOD8164459 Si02
#       5
#     2   8   8   8   8
#     4  12  24  44  68  96 138 188 232 284 352 432
#     4  11  25  43  72 101 137 187 234 288 353 419
#     4  11  26  45  71 107 145 180 240 304 348 409
#     4  11  25  45  72 102 140 190 235 279 357 426
#     4  11  24  45  70 101 146 186 229 291 353 421
#
# _framework density 22.455020000000001
#
# number of rings (size 3 to 8) (size 9 to 14) (size 15 to 20)
#    0.000    0.941    1.176    4.235    3.294    9.412 
#    0.000    0.000    0.000    0.000    0.000    0.000 
#    0.000    0.000    0.000    0.000    0.000    0.000 
#
# Total GULP energy -210637.555646 kJ/mol
# GULP energy per Si atom -12390.444450 kJ/mol
# Density = 2.240391 g / cm^3
# Si number density = 22.455020 Si / 1000 Ang^3
#
#
#
# Elastic Constant Matrix: (Units=GPa)
#
#
# Indices 1 2 3 4 5 6 
#
# 1 117.1368 61.8538 60.8702 0.0000 0.0000 0.0000
# 2 61.8538 109.1207 68.0607 -0.0002 0.0000 0.0000
# 3 60.8702 68.0607 153.4390 -0.0002 0.0000 0.0000
# 4 0.0000 -0.0002 -0.0002 43.7203 0.0000 0.0000
# 5 0.0000 0.0000 0.0000 0.0000 33.2102 0.0000
# 6 0.0000 0.0000 0.0000 0.0000 0.0000 46.4086
#
#
#
# Elastic Compliance Matrix: (Units=1/GPa)
#
#
# Indices 1 2 3 4 5 6 
#
# 1 0.012887 -0.005690 -0.002588 0.000000 0.000000 0.000000
# 2 -0.005690 0.015182 -0.004477 0.000000 0.000000 0.000000
# 3 -0.002588 -0.004477 0.009530 0.000000 0.000000 0.000000
# 4 0.000000 0.000000 0.000000 0.022873 0.000000 0.000000
# 5 0.000000 0.000000 0.000000 0.000000 0.030111 0.000000
# 6 0.000000 0.000000 0.000000 0.000000 0.000000 0.021548
#
#
# Mechanical properties :
#
#
# Convention : Reuss Voigt Hill
#
# Bulk Modulus (GPa) = 82.72873 84.58508 83.65691
# Shear Modulus (GPa) = 35.29320 37.26193 36.27756
#
# Velocity S-wave (km/s) = 3.96880 4.07800 4.02377
# Velocity P-wave (km/s) = 7.61077 7.74105 7.67619
#
# Compressibility (1/GPa) = 0.01208770
#
# Stress axis : x y z
#
# Youngs Moduli (GPa) = 77.59885 65.86741 104.93431
#
# Poissons Ratio (x) = 0.37481 0.27159
# Poissons Ratio (y) = 0.44157 0.46977
# Poissons Ratio (z) = 0.20084 0.29488
#
# Static dielectric constant tensor:
#      x y z
#    x 3.557840 0.000000 0.000000 
#    y 0.000000 4.477330 0.000000 
#    z 0.000000 0.000000 4.307230 
# 
# 
# High freq. dielectric constant tensor:
#      x y z
#    x 1.868190 0.000000 0.000000 
#    y 0.000000 1.902160 0.000000 
#    z 0.000000 0.000000 1.910600 
# 
# From -- ./inp_files/7984.got.cif
#   From: 2010.03.12/outbox.cif.g09.slc.cpg/sg23_4_cif.got.tgz:7984.got - 2010.04.14 02:50:06.
