data_PCOD8164470
_publ_section_title
;
Structure prediction by ZEFSAII (Michael W. Deem and Ramdas Pophale) SiO2 
 PCOD8164470
Probable space group: I 2 2 2
;
_chemical_formula_sum "Si O2"
_cell_formula_units_Z 36
_cell_length_a 6.736040
_cell_length_b 10.493686
_cell_length_c 21.051555
_cell_angle_alpha 90.000000
_cell_angle_beta 90.000000
_cell_angle_gamma 90.000000
_cell_volume 1488.047873
_symmetry_space_group_name_H-M "I 2 2 2"
_symmetry_group_IT_number 23
_symmetry_cell_setting 'orthorhombic'
loop_
_space_group_symop_operation_xyz
x,y,z
-x,-y,z
x,-y,-z
-x,y,-z
1/2+x,1/2+y,1/2+z
1/2-x,1/2-y,1/2+z
1/2+x,1/2-y,1/2-z
1/2-x,1/2+y,1/2-z
loop_
_atom_site_type_symbol
_atom_site_label
_atom_site_fract_x
_atom_site_fract_y
_atom_site_fract_z
Si Si1 0.388152 0.871133 0.105991
Si Si2 0.888152 0.628867 0.727343
Si Si3 0.000000 0.817522 0.500000
Si Si4 0.500000 0.317522 0.666667
Si Si5 0.388152 0.128867 0.560676
O O1 0.500000 0.811194 0.166667
O O2 0.380317 0.771722 0.049030
O O3 0.160841 0.901776 0.127987
O O4 0.500000 0.000000 0.084488
O O5 0.660841 0.598224 0.705347
O O6 0.880317 0.728278 0.784303
O O7 0.000000 0.500000 0.748845
O O8 0.839159 0.901776 0.538680
O O9 0.380317 0.228278 0.617637
O O10 0.500000 0.188806 0.500000
O O11 0.500000 0.000000 0.582179
#
# Coordination Sequence:
#
# PCOD8164470 Si02
#       5
#     8   8   4   8   8
#     4  11  25  44  74 107 140 188 236 291 358 417
#     4  11  25  44  74 107 140 188 236 291 358 417
#     4  12  23  49  74 104 148 184 238 298 350 426
#     4  12  23  49  74 104 148 184 238 298 350 426
#     4  11  25  44  74 107 140 188 236 291 358 417
#
# _framework density 24.192772000000001
#
# number of rings (size 3 to 8) (size 9 to 14) (size 15 to 20)
#    0.000    0.667    6.667    1.000    0.000    5.333 
#    0.000    0.000    0.000    0.000    0.000    0.000 
#    0.000    0.000    0.000    0.000    0.000    0.000 
#
# Total GULP energy -223102.146262 kJ/mol
# GULP energy per Si atom -12394.563681 kJ/mol
# Density = 2.413771 g / cm^3
# Si number density = 24.192772 Si / 1000 Ang^3
#
#
#
# Elastic Constant Matrix: (Units=GPa)
#
#
# Indices 1 2 3 4 5 6 
#
# 1 177.3207 34.3717 -1.9018 0.0000 0.0000 0.0000
# 2 34.3717 89.2468 6.1255 0.0000 0.0000 0.0000
# 3 -1.9018 6.1255 58.4246 0.0000 0.0000 0.0000
# 4 0.0000 0.0000 0.0000 32.1620 0.0000 0.0000
# 5 0.0000 0.0000 0.0000 0.0000 47.8947 0.0000
# 6 0.0000 0.0000 0.0000 0.0000 0.0000 34.0762
#
#
#
# Elastic Compliance Matrix: (Units=1/GPa)
#
#
# Indices 1 2 3 4 5 6 
#
# 1 0.006106 -0.002382 0.000449 0.000000 0.000000 0.000000
# 2 -0.002382 0.012216 -0.001358 0.000000 0.000000 0.000000
# 3 0.000449 -0.001358 0.017273 0.000000 0.000000 0.000000
# 4 0.000000 0.000000 0.000000 0.031093 0.000000 0.000000
# 5 0.000000 0.000000 0.000000 0.000000 0.020879 0.000000
# 6 0.000000 0.000000 0.000000 0.000000 0.000000 0.029346
#
#
# Mechanical properties :
#
#
# Convention : Reuss Voigt Hill
#
# Bulk Modulus (GPa) = 34.47030 44.68700 39.57865
# Shear Modulus (GPa) = 37.54681 41.91970 39.73325
#
# Velocity S-wave (km/s) = 3.94380 4.16713 4.05700
# Velocity P-wave (km/s) = 5.91753 6.45481 6.19200
#
# Compressibility (1/GPa) = 0.02901048
#
# Stress axis : x y z
#
# Youngs Moduli (GPa) = 163.77006 81.86212 57.89356
#
# Poissons Ratio (x) = 0.19503 -0.02597
# Poissons Ratio (y) = 0.39017 0.07864
# Poissons Ratio (z) = -0.07346 0.11119
#
# Static dielectric constant tensor:
#      x y z
#    x 4.581190 0.000000 0.000000 
#    y 0.000000 3.791400 0.000000 
#    z 0.000000 0.000000 4.351030 
# 
# 
# High freq. dielectric constant tensor:
#      x y z
#    x 1.983760 0.000000 0.000000 
#    y 0.000000 1.932160 0.000000 
#    z 0.000000 0.000000 1.962520 
# 
# From -- ./inp_files/27544.got.cif
#   From: 2010.03.12/outbox.cif.g09.slc.cpg/sg23_14_cif.got.tgz:27544.got - 2010.04.14 02:50:06.
