data_PCOD8164809
_publ_section_title
;
Structure prediction by ZEFSAII (Michael W. Deem and Ramdas Pophale) SiO2 
 PCOD8164809
Probable space group: I 21 21 21
;
_chemical_formula_sum "Si O2"
_cell_formula_units_Z 48
_cell_length_a 16.640041
_cell_length_b 13.473824
_cell_length_c 11.239816
_cell_angle_alpha 90.000000
_cell_angle_beta 90.000000
_cell_angle_gamma 90.000000
_cell_volume 2520.022764
_symmetry_space_group_name_H-M "I 21 21 21"
_symmetry_group_IT_number 24
_symmetry_cell_setting 'orthorhombic'
loop_
_space_group_symop_operation_xyz
x,y,z
-x,1/2-y,z
x,-y,1/2-z
1/2-x,y,-z
1/2+x,1/2+y,1/2+z
1/2-x,-y,1/2+z
1/2+x,1/2-y,-z
-x,1/2+y,1/2-z
loop_
_atom_site_type_symbol
_atom_site_label
_atom_site_fract_x
_atom_site_fract_y
_atom_site_fract_z
Si Si1 0.334844 0.864130 0.051901
Si Si2 0.590044 0.500000 0.250000
Si Si3 0.162335 0.556479 0.483438
Si Si4 0.961305 0.857788 0.655456
Si Si5 0.086528 0.500000 0.250000
Si Si6 0.011504 0.144240 0.411377
Si Si7 0.620011 0.855115 0.100283
O O1 0.331270 0.747313 0.085079
O O2 0.354851 0.928889 0.168804
O O3 0.250000 0.898966 0.000000
O O4 0.397223 0.882636 0.943916
O O5 0.533988 0.435924 0.162054
O O6 0.250000 0.606646 0.500000
O O7 0.090803 0.622528 0.537827
O O8 0.145015 0.554542 0.342539
O O9 0.168344 0.447237 0.543925
O O10 0.898242 0.873138 0.761976
O O11 0.000000 0.750000 0.652341
O O12 0.026159 0.432208 0.322031
O O13 0.000000 0.250000 0.346736
O O14 0.966387 0.150897 0.537803
#
# Coordination Sequence:
#
# PCOD8164809 Si02
#       7
#     8   4   8   8   4   8   8
#     4  11  22  36  59  95 121 157 210 258 306 355
#     4  12  20  38  64  88 120 166 210 252 300 372
#     4  11  24  38  61  95 125 154 200 266 321 356
#     4  12  21  39  68  92 121 162 212 255 302 377
#     4  10  22  38  56  82 118 162 196 238 304 378
#     4   9  18  37  59  81 111 157 206 238 290 368
#     4  10  18  39  67  90 114 157 213 259 297 365
#
# _framework density 19.047446999999998
#
# number of rings (size 3 to 8) (size 9 to 14) (size 15 to 20)
#    0.000    1.333    5.000    2.000    2.333    1.333 
#    0.000    0.833    0.000    0.000    0.000    0.000 
#    0.000    0.000    0.000    0.000    0.000    0.000 
#
# Total GULP energy -297589.059811 kJ/mol
# GULP energy per Si atom -12399.544159 kJ/mol
# Density = 1.900409 g / cm^3
# Si number density = 19.047447 Si / 1000 Ang^3
#
#
#
# Elastic Constant Matrix: (Units=GPa)
#
#
# Indices 1 2 3 4 5 6 
#
# 1 120.6152 13.1040 37.2151 0.0000 0.0000 0.0000
# 2 13.1040 62.8752 8.0309 0.0000 0.0000 0.0000
# 3 37.2151 8.0309 102.5923 0.0000 0.0000 0.0000
# 4 0.0000 0.0000 0.0000 14.4390 0.0000 0.0000
# 5 0.0000 0.0000 0.0000 0.0000 18.2794 0.0000
# 6 0.0000 0.0000 0.0000 0.0000 0.0000 23.4546
#
#
#
# Elastic Compliance Matrix: (Units=1/GPa)
#
#
# Indices 1 2 3 4 5 6 
#
# 1 0.009483 -0.001553 -0.003319 0.000000 0.000000 0.000000
# 2 -0.001553 0.016319 -0.000714 0.000000 0.000000 0.000000
# 3 -0.003319 -0.000714 0.011007 0.000000 0.000000 0.000000
# 4 0.000000 0.000000 0.000000 0.069257 0.000000 0.000000
# 5 0.000000 0.000000 0.000000 0.000000 0.054706 0.000000
# 6 0.000000 0.000000 0.000000 0.000000 0.000000 0.042636
#
#
# Mechanical properties :
#
#
# Convention : Reuss Voigt Hill
#
# Bulk Modulus (GPa) = 39.00315 44.75362 41.87838
# Shear Modulus (GPa) = 22.40889 26.41680 24.41285
#
# Velocity S-wave (km/s) = 3.43370 3.72814 3.58395
# Velocity P-wave (km/s) = 6.02011 6.48683 6.25782
#
# Compressibility (1/GPa) = 0.02563896
#
# Stress axis : x y z
#
# Youngs Moduli (GPa) = 105.44719 61.27701 90.85109
#
# Poissons Ratio (x) = 0.09514 0.30149
# Poissons Ratio (y) = 0.16372 0.06489
# Poissons Ratio (z) = 0.34993 0.04377
#
# Static dielectric constant tensor:
#      x y z
#    x 3.369090 0.000000 0.000000 
#    y 0.000000 4.604870 0.000000 
#    z 0.000000 0.000000 3.474270 
# 
# 
# High freq. dielectric constant tensor:
#      x y z
#    x 1.736830 0.000000 0.000000 
#    y 0.000000 1.738140 0.000000 
#    z 0.000000 0.000000 1.732970 
# 
# From -- ./inp_files/20771.got.cif
#   From: 2010.03.12/outbox.cif.g09.slc.cpg/sg24_11_cif.got.tgz:20771.got - 2010.04.14 03:06:53.
