data_PCOD8164436
_publ_section_title
;
Structure prediction by ZEFSAII (Michael W. Deem and Ramdas Pophale) SiO2 
 PCOD8164436
Probable space group: I 2 2 2
;
_chemical_formula_sum "Si O2"
_cell_formula_units_Z 64
_cell_length_a 8.557994
_cell_length_b 22.042672
_cell_length_c 14.696385
_cell_angle_alpha 90.000000
_cell_angle_beta 90.000000
_cell_angle_gamma 90.000000
_cell_volume 2772.341567
_symmetry_space_group_name_H-M "I 2 2 2"
_symmetry_group_IT_number 23
_symmetry_cell_setting 'orthorhombic'
loop_
_space_group_symop_operation_xyz
x,y,z
-x,-y,z
x,-y,-z
-x,y,-z
1/2+x,1/2+y,1/2+z
1/2-x,1/2-y,1/2+z
1/2+x,1/2-y,1/2-z
1/2-x,1/2+y,1/2-z
loop_
_atom_site_type_symbol
_atom_site_label
_atom_site_fract_x
_atom_site_fract_y
_atom_site_fract_z
Si Si1 0.400543 0.304762 0.187519
Si Si2 0.321981 0.794765 0.475909
Si Si3 0.185080 0.998683 0.395025
Si Si4 0.173017 0.673367 0.475201
Si Si5 0.796161 0.132685 0.629424
Si Si6 0.762408 0.593077 0.264862
Si Si7 0.829687 0.059274 0.046322
Si Si8 0.928080 0.669541 0.718467
O O1 0.240284 0.297370 0.127784
O O2 0.525680 0.348200 0.141112
O O3 0.340807 0.345286 0.271304
O O4 0.482295 0.240603 0.212558
O O5 0.500000 0.807317 0.500000
O O6 0.284717 0.726912 0.510078
O O7 0.232388 0.849023 0.525537
O O8 0.237042 0.062227 0.350722
O O9 0.247735 0.000000 0.500000
O O10 0.253126 0.943984 0.331558
O O11 0.000000 0.000000 0.396095
O O12 0.214603 0.614472 0.531044
O O13 0.183192 0.657474 0.368408
O O14 0.000000 0.695615 0.500000
O O15 0.677988 0.169286 0.692844
O O16 0.684620 0.550821 0.344108
O O17 0.939221 0.617450 0.279683
O O18 0.000000 0.070521 0.000000
O O19 0.756709 0.000000 0.000000
#
# Coordination Sequence:
#
# PCOD8164436 Si02
#       8
#     8   8   8   8   8   8   8   8
#     4  11  24  44  73 105 150 190 245 307 375 457
#     4  11  24  43  71 106 148 190 240 310 381 450
#     4  11  26  47  75 107 139 196 255 304 376 455
#     4  11  23  47  69 105 145 194 245 304 382 457
#     4  12  25  42  73 103 142 187 250 295 372 452
#     4  12  25  49  76 106 153 196 246 321 379 456
#     4  11  28  45  73 104 145 193 258 310 380 458
#     4  11  26  43  69 112 147 191 245 308 385 452
#
# _framework density 23.085177000000002
#
# number of rings (size 3 to 8) (size 9 to 14) (size 15 to 20)
#    0.000    0.750    2.500    4.500    8.750    1.750 
#    0.000    0.625    0.000    0.000    0.000    0.000 
#    0.000    0.000    0.000    0.000    0.000    0.000 
#
# Total GULP energy -396456.778264 kJ/mol
# GULP energy per Si atom -12389.274321 kJ/mol
# Density = 2.303263 g / cm^3
# Si number density = 23.085177 Si / 1000 Ang^3
#
#
#
# Elastic Constant Matrix: (Units=GPa)
#
#
# Indices 1 2 3 4 5 6 
#
# 1 92.1061 18.9685 21.3691 0.0000 0.0000 0.0000
# 2 18.9685 125.6937 37.8275 -0.0001 0.0000 0.0000
# 3 21.3691 37.8275 120.4734 -0.0005 0.0001 0.0000
# 4 0.0000 -0.0001 -0.0005 37.9147 0.0000 0.0000
# 5 0.0000 0.0000 0.0001 0.0000 27.3358 0.0000
# 6 0.0000 0.0000 0.0000 0.0000 0.0000 36.2120
#
#
#
# Elastic Compliance Matrix: (Units=1/GPa)
#
#
# Indices 1 2 3 4 5 6 
#
# 1 0.011495 -0.001238 -0.001650 0.000000 0.000000 0.000000
# 2 -0.001238 0.008919 -0.002581 0.000000 0.000000 0.000000
# 3 -0.001650 -0.002581 0.009404 0.000000 0.000000 0.000000
# 4 0.000000 0.000000 0.000000 0.026375 0.000000 0.000000
# 5 0.000000 0.000000 0.000000 0.000000 0.036582 0.000000
# 6 0.000000 0.000000 0.000000 0.000000 0.000000 0.027615
#
#
# Mechanical properties :
#
#
# Convention : Reuss Voigt Hill
#
# Bulk Modulus (GPa) = 52.96755 54.95594 53.96174
# Shear Modulus (GPa) = 36.33140 37.63302 36.98221
#
# Velocity S-wave (km/s) = 3.97142 4.04193 4.00683
# Velocity P-wave (km/s) = 6.63504 6.75576 6.69567
#
# Compressibility (1/GPa) = 0.01887948
#
# Stress axis : x y z
#
# Youngs Moduli (GPa) = 86.99535 112.11463 106.34108
#
# Poissons Ratio (x) = 0.13881 0.17548
# Poissons Ratio (y) = 0.10771 0.27447
# Poissons Ratio (z) = 0.14356 0.28937
#
# Static dielectric constant tensor:
#      x y z
#    x 4.048810 0.000000 0.000000 
#    y 0.000000 4.393720 0.000000 
#    z 0.000000 0.000000 4.468530 
# 
# 
# High freq. dielectric constant tensor:
#      x y z
#    x 1.900520 0.000000 0.000000 
#    y 0.000000 1.925040 0.000000 
#    z 0.000000 0.000000 1.918240 
# 
# From -- ./inp_files/20343.got.cif
#   From: 2010.03.12/outbox.cif.g09.slc.cpg/sg23_11_cif.got.tgz:20343.got - 2010.04.14 02:50:06.
