data_PCOD8164652
_publ_section_title
;
Structure prediction by ZEFSAII (Michael W. Deem and Ramdas Pophale) SiO2 
 PCOD8164652
Probable space group: I 21 21 21
;
_chemical_formula_sum "Si O2"
_cell_formula_units_Z 56
_cell_length_a 17.389602
_cell_length_b 9.390917
_cell_length_c 22.784894
_cell_angle_alpha 90.000000
_cell_angle_beta 90.000000
_cell_angle_gamma 90.000000
_cell_volume 3720.871371
_symmetry_space_group_name_H-M "I 21 21 21"
_symmetry_group_IT_number 24
_symmetry_cell_setting 'orthorhombic'
loop_
_space_group_symop_operation_xyz
x,y,z
-x,1/2-y,z
x,-y,1/2-z
1/2-x,y,-z
1/2+x,1/2+y,1/2+z
1/2-x,-y,1/2+z
1/2+x,1/2-y,-z
-x,1/2+y,1/2-z
loop_
_atom_site_type_symbol
_atom_site_label
_atom_site_fract_x
_atom_site_fract_y
_atom_site_fract_z
Si Si1 0.714572 0.907364 0.935331
Si Si2 0.413467 0.086954 0.980305
Si Si3 0.876810 0.583560 0.904308
Si Si4 0.913467 0.913046 0.480305
Si Si5 0.785428 0.407364 0.435331
Si Si6 0.123190 0.583560 0.904308
Si Si7 1.000000 0.084807 0.690372
O O1 0.683358 0.750000 0.919463
O O2 0.786043 0.949882 0.892809
O O3 0.750000 0.908448 0.000000
O O4 0.643894 0.017635 0.932010
O O5 0.356106 0.017635 0.932010
O O6 0.388742 0.250000 0.989946
O O7 0.500000 0.075963 0.955441
O O8 0.409719 0.007131 0.042122
O O9 0.786043 0.550118 0.892808
O O10 0.888059 0.750000 0.920519
O O11 0.923889 0.543087 0.846227
O O12 0.909719 0.992869 0.542122
O O13 0.750000 0.408448 0.500000
O O14 0.076111 0.543087 0.846227
O O15 0.000000 0.250000 0.706187
O O16 1.000000 0.000000 0.750000
#
# Coordination Sequence:
#
# PCOD8164652 Si02
#       7
#     8   8   8   8   8   8   8
#     4   8  15  26  40  57  76 104 140 168 198 243
#     4  10  18  25  37  60  86 110 136 166 202 245
#     4   9  17  30  44  56  76 109 142 172 205 241
#     4  10  18  25  37  60  86 110 136 166 202 245
#     4   8  15  26  40  57  76 104 140 168 198 243
#     4   9  17  30  44  56  76 109 142 172 205 241
#     4  10  20  32  46  62  82 108 142 180 211 242
#
# _framework density 15.050238
#
# number of rings (size 3 to 8) (size 9 to 14) (size 15 to 20)
#    0.000    2.857    1.429    2.571    0.000    8.000 
#    0.000    0.000    0.000    0.000    0.000    0.000 
#    0.000    1.143    0.000    2.571    0.000    4.571 
#
# Total GULP energy -347007.684740 kJ/mol
# GULP energy per Si atom -12393.131598 kJ/mol
# Density = 1.501598 g / cm^3
# Si number density = 15.050238 Si / 1000 Ang^3
#
#
#
# Elastic Constant Matrix: (Units=GPa)
#
#
# Indices 1 2 3 4 5 6 
#
# 1 125.6172 65.8105 49.1467 0.0000 0.0000 0.0000
# 2 65.8105 86.4822 31.1783 0.0000 0.0000 0.0000
# 3 49.1467 31.1783 54.9914 0.0000 0.0000 0.0000
# 4 0.0000 0.0000 0.0000 18.4238 0.0000 0.0000
# 5 0.0000 0.0000 0.0000 0.0000 16.0604 0.0000
# 6 0.0000 0.0000 0.0000 0.0000 0.0000 25.1323
#
#
#
# Elastic Compliance Matrix: (Units=1/GPa)
#
#
# Indices 1 2 3 4 5 6 
#
# 1 0.016456 -0.009076 -0.009562 0.000000 0.000000 0.000000
# 2 -0.009076 0.019539 -0.002967 0.000000 0.000000 0.000000
# 3 -0.009562 -0.002967 0.028412 0.000000 0.000000 0.000000
# 4 0.000000 0.000000 0.000000 0.054278 0.000000 0.000000
# 5 0.000000 0.000000 0.000000 0.000000 0.062265 0.000000
# 6 0.000000 0.000000 0.000000 0.000000 0.000000 0.039789
#
#
# Mechanical properties :
#
#
# Convention : Reuss Voigt Hill
#
# Bulk Modulus (GPa) = 47.17186 62.15129 54.66158
# Shear Modulus (GPa) = 18.44920 19.98699 19.21810
#
# Velocity S-wave (km/s) = 3.50500 3.64815 3.57729
# Velocity P-wave (km/s) = 6.91310 7.68966 7.31170
#
# Compressibility (1/GPa) = 0.02119908
#
# Stress axis : x y z
#
# Youngs Moduli (GPa) = 60.76690 51.17973 35.19606
#
# Poissons Ratio (x) = 0.46449 0.33653
# Poissons Ratio (y) = 0.55150 0.10442
# Poissons Ratio (z) = 0.58104 0.15185
#
# Static dielectric constant tensor:
#      x y z
#    x 3.444610 0.000000 0.000000 
#    y 0.000000 2.975740 0.000000 
#    z 0.000000 0.000000 2.434820 
# 
# 
# High freq. dielectric constant tensor:
#      x y z
#    x 1.591610 0.000000 0.000000 
#    y 0.000000 1.583440 0.000000 
#    z 0.000000 0.000000 1.503130 
# 
# From -- ./inp_files/14620.got.cif
#   From: 2010.03.12/outbox.cif.g09.slc.cpg/sg24_8_cif.got.tgz:14620.got - 2010.04.14 03:06:53.
