data_PCOD8164408
_publ_section_title
;
Structure prediction by ZEFSAII (Michael W. Deem and Ramdas Pophale) SiO2 
 PCOD8164408
Probable space group: I 2 2 2
;
_chemical_formula_sum "Si O2"
_cell_formula_units_Z 48
_cell_length_a 8.793716
_cell_length_b 19.700814
_cell_length_c 12.259178
_cell_angle_alpha 90.000000
_cell_angle_beta 90.000000
_cell_angle_gamma 90.000000
_cell_volume 2123.821228
_symmetry_space_group_name_H-M "I 2 2 2"
_symmetry_group_IT_number 23
_symmetry_cell_setting 'orthorhombic'
loop_
_space_group_symop_operation_xyz
x,y,z
-x,-y,z
x,-y,-z
-x,y,-z
1/2+x,1/2+y,1/2+z
1/2-x,1/2-y,1/2+z
1/2+x,1/2-y,1/2-z
1/2-x,1/2+y,1/2-z
loop_
_atom_site_type_symbol
_atom_site_label
_atom_site_fract_x
_atom_site_fract_y
_atom_site_fract_z
Si Si1 0.500000 0.864058 0.000000
Si Si2 0.091922 0.694786 0.204968
Si Si3 0.929534 0.928323 0.729977
Si Si4 0.000000 0.862557 0.500000
Si Si5 0.571932 0.071251 0.230617
Si Si6 0.249668 0.750645 0.003266
Si Si7 0.402665 0.306393 0.696777
O O1 0.482660 0.910415 0.107744
O O2 0.650493 0.818532 0.002199
O O3 0.241780 0.667342 0.262026
O O4 0.991703 0.627757 0.184317
O O5 0.991529 0.750696 0.276152
O O6 0.141529 0.743821 0.106882
O O7 0.985319 0.909000 0.607822
O O8 0.750695 0.931770 0.749429
O O9 0.994479 0.873235 0.816487
O O10 0.000000 0.000000 0.761765
O O11 0.848273 0.817749 0.498764
O O12 0.500000 0.000000 0.264114
O O13 0.127616 0.758195 0.907010
#
# Coordination Sequence:
#
# PCOD8164408 Si02
#       7
#     4   8   8   4   8   8   8
#     4  11  23  46  74 112 146 200 250 320 396 440
#     4  12  23  42  70 107 144 191 248 314 374 443
#     4  12  27  48  76 108 155 207 255 314 390 465
#     4  11  23  46  74 112 146 200 250 320 396 440
#     4  12  27  48  76 108 155 207 255 314 390 465
#     4  11  23  40  76 110 144 188 256 316 370 450
#     4  12  23  42  70 107 144 191 248 314 374 443
#
# _framework density 22.600771000000002
#
# number of rings (size 3 to 8) (size 9 to 14) (size 15 to 20)
#    0.000    0.333    3.333    7.000    0.000    0.000 
#    0.000    0.000    0.000    0.000    0.000    0.000 
#    0.000    0.000    0.000    0.000    0.000    0.000 
#
# Total GULP energy -297342.272482 kJ/mol
# GULP energy per Si atom -12389.261353 kJ/mol
# Density = 2.254933 g / cm^3
# Si number density = 22.600771 Si / 1000 Ang^3
#
#
#
# Elastic Constant Matrix: (Units=GPa)
#
#
# Indices 1 2 3 4 5 6 
#
# 1 133.3773 81.0422 39.1361 0.0013 -0.0004 0.0002
# 2 81.0422 186.5332 26.7177 0.0003 -0.0001 0.0000
# 3 39.1361 26.7177 83.2926 -0.0008 0.0002 0.0000
# 4 0.0013 0.0003 -0.0008 -2.3379 0.0001 0.0000
# 5 -0.0004 -0.0001 0.0002 0.0001 28.5184 0.0000
# 6 0.0002 0.0000 0.0000 0.0000 0.0000 50.5112
#
#
#
# Elastic Compliance Matrix: (Units=1/GPa)
#
#
# Indices 1 2 3 4 5 6 
#
# 1 0.011283 -0.004342 -0.003909 0.000007 0.000000 0.000000
# 2 -0.004342 0.007290 -0.000298 -0.000001 0.000000 0.000000
# 3 -0.003909 -0.000298 0.013938 -0.000007 0.000000 0.000000
# 4 0.000007 -0.000001 -0.000007 -0.427739 0.000001 0.000000
# 5 0.000000 0.000000 0.000000 0.000001 0.035065 0.000000
# 6 0.000000 0.000000 0.000000 0.000000 0.000000 0.019798
#
#
# Mechanical properties :
#
#
# Convention : Reuss Voigt Hill
#
# Bulk Modulus (GPa) = 64.87976 77.44389 71.16182
# Shear Modulus (GPa) = -15.71685 32.42546 8.35431
#
# Velocity S-wave (km/s) = -2.63993 3.79186 1.92471
# Velocity P-wave (km/s) = 4.41327 7.31515 6.04104
#
# Compressibility (1/GPa) = 0.01541313
#
# Stress axis : x y z
#
# Youngs Moduli (GPa) = 88.63103 137.17044 71.74623
#
# Poissons Ratio (x) = 0.59561 0.28042
# Poissons Ratio (y) = 0.38485 0.02140
# Poissons Ratio (z) = 0.34642 0.04091
#
# Static dielectric constant tensor:
#      x y z
#    x 4.557050 0.000000 0.000000 
#    y 0.000000 4.047840 0.000000 
#    z 0.000000 0.000000 4.263090 
# 
# 
# High freq. dielectric constant tensor:
#      x y z
#    x 1.934960 0.000000 0.000000 
#    y 0.000000 1.893110 0.000000 
#    z 0.000000 0.000000 1.870140 
# 
# From -- ./inp_files/20040.got.cif
#   From: 2010.03.12/outbox.cif.g09.slc.cpg/sg23_11_cif.got.tgz:20040.got - 2010.04.14 02:50:06.
