data_PCOD8164738
_publ_section_title
;
Structure prediction by ZEFSAII (Michael W. Deem and Ramdas Pophale) SiO2 
 PCOD8164738
Probable space group: I 21 21 21
;
_chemical_formula_sum "Si O2"
_cell_formula_units_Z 56
_cell_length_a 12.272578
_cell_length_b 20.717166
_cell_length_c 11.999574
_cell_angle_alpha 90.000000
_cell_angle_beta 90.000000
_cell_angle_gamma 90.000000
_cell_volume 3050.928116
_symmetry_space_group_name_H-M "I 21 21 21"
_symmetry_group_IT_number 24
_symmetry_cell_setting 'orthorhombic'
loop_
_space_group_symop_operation_xyz
x,y,z
-x,1/2-y,z
x,-y,1/2-z
1/2-x,y,-z
1/2+x,1/2+y,1/2+z
1/2-x,-y,1/2+z
1/2+x,1/2-y,-z
-x,1/2+y,1/2-z
loop_
_atom_site_type_symbol
_atom_site_label
_atom_site_fract_x
_atom_site_fract_y
_atom_site_fract_z
Si Si1 0.121393 0.145268 0.210086
Si Si2 0.743163 0.768963 0.813633
Si Si3 0.831056 0.573919 0.729515
Si Si4 0.531509 0.179025 0.616504
Si Si5 0.069430 0.843271 0.547160
Si Si6 0.839022 0.794656 0.592143
Si Si7 0.857762 0.337574 0.567776
O O1 0.180659 0.209387 0.255074
O O2 0.201134 0.084274 0.224285
O O3 0.013365 0.132390 0.284755
O O4 0.088971 0.152329 0.083120
O O5 0.664035 0.817747 0.884495
O O6 0.797259 0.811564 0.716263
O O7 0.834052 0.736816 0.894787
O O8 0.859239 0.500000 0.750000
O O9 0.883725 0.594964 0.611862
O O10 0.882393 0.615911 0.829202
O O11 0.500000 0.250000 0.654691
O O12 0.470091 0.160710 0.502063
O O13 0.131228 0.780744 0.592924
O O14 0.941230 0.839740 0.567471
O O15 0.750000 0.811392 0.500000
O O16 0.750000 0.361823 0.500000
#
# Coordination Sequence:
#
# PCOD8164738 Si02
#       7
#     8   8   8   8   8   8   8
#     4  10  18  34  51  79 115 140 183 218 272 332
#     4  10  19  32  49  81 116 149 179 215 273 337
#     4  11  23  38  55  77 110 153 188 239 274 318
#     4  10  19  31  53  76 113 155 171 222 268 335
#     4  11  21  33  55  86 114 145 179 226 277 339
#     4  11  19  32  55  87 120 143 173 221 285 348
#     4  11  19  34  49  77 112 146 192 214 268 327
#
# _framework density 18.355070999999999
#
# number of rings (size 3 to 8) (size 9 to 14) (size 15 to 20)
#    0.000    1.429    8.571    1.286    4.000    2.286 
#    0.000    0.000    0.000    0.000    3.714    0.000 
#    0.000    0.000    0.000    0.000    0.000    0.000 
#
# Total GULP energy -347008.581651 kJ/mol
# GULP energy per Si atom -12393.163630 kJ/mol
# Density = 1.831329 g / cm^3
# Si number density = 18.355071 Si / 1000 Ang^3
#
#
#
# Elastic Constant Matrix: (Units=GPa)
#
#
# Indices 1 2 3 4 5 6 
#
# 1 83.7711 24.1753 31.5540 -0.0003 0.0000 0.0000
# 2 24.1753 46.5819 7.4931 -0.0005 0.0001 -0.0001
# 3 31.5540 7.4931 83.6155 -0.0001 0.0003 -0.0003
# 4 -0.0003 -0.0005 -0.0001 11.0268 0.0002 -0.0002
# 5 0.0000 0.0001 0.0003 0.0002 16.8298 -0.0001
# 6 0.0000 -0.0001 -0.0003 -0.0002 -0.0001 11.8154
#
#
#
# Elastic Compliance Matrix: (Units=1/GPa)
#
#
# Indices 1 2 3 4 5 6 
#
# 1 0.016145 -0.007507 -0.005420 0.000000 0.000000 0.000000
# 2 -0.007507 0.025272 0.000568 0.000001 0.000000 0.000000
# 3 -0.005420 0.000568 0.013954 0.000000 0.000000 0.000000
# 4 0.000000 0.000001 0.000000 0.090688 -0.000001 0.000001
# 5 0.000000 0.000000 0.000000 -0.000001 0.059419 0.000000
# 6 0.000000 0.000000 0.000000 0.000001 0.000000 0.084635
#
#
# Mechanical properties :
#
#
# Convention : Reuss Voigt Hill
#
# Bulk Modulus (GPa) = 32.62266 37.82367 35.22317
# Shear Modulus (GPa) = 15.38227 17.98414 16.68320
#
# Velocity S-wave (km/s) = 2.89803 3.13356 3.01809
# Velocity P-wave (km/s) = 5.38608 5.80893 5.60149
#
# Compressibility (1/GPa) = 0.03065354
#
# Stress axis : x y z
#
# Youngs Moduli (GPa) = 61.93725 39.56891 71.66441
#
# Poissons Ratio (x) = 0.29706 0.38842
# Poissons Ratio (y) = 0.46498 -0.04073
# Poissons Ratio (z) = 0.33570 -0.02249
#
# Static dielectric constant tensor:
#      x y z
#    x 3.821480 0.000000 0.000000 
#    y 0.000000 2.861610 0.000000 
#    z 0.000000 0.000000 3.690800 
# 
# 
# High freq. dielectric constant tensor:
#      x y z
#    x 1.711680 0.000000 0.000000 
#    y 0.000000 1.630470 0.000000 
#    z 0.000000 0.000000 1.737230 
# 
# From -- ./inp_files/20083.got.cif
#   From: 2010.03.12/outbox.cif.g09.slc.cpg/sg24_11_cif.got.tgz:20083.got - 2010.04.14 03:06:53.
