data_PCOD8164182
_publ_section_title
;
Structure prediction by ZEFSAII (Michael W. Deem and Ramdas Pophale) SiO2 
 PCOD8164182
Probable space group: I 2 2 2
;
_chemical_formula_sum "Si O2"
_cell_formula_units_Z 44
_cell_length_a 28.041069
_cell_length_b 9.143171
_cell_length_c 8.672061
_cell_angle_alpha 90.000000
_cell_angle_beta 90.000000
_cell_angle_gamma 90.000000
_cell_volume 2223.380193
_symmetry_space_group_name_H-M "I 2 2 2"
_symmetry_group_IT_number 23
_symmetry_cell_setting 'orthorhombic'
loop_
_space_group_symop_operation_xyz
x,y,z
-x,-y,z
x,-y,-z
-x,y,-z
1/2+x,1/2+y,1/2+z
1/2-x,1/2-y,1/2+z
1/2+x,1/2-y,1/2-z
1/2-x,1/2+y,1/2-z
loop_
_atom_site_type_symbol
_atom_site_label
_atom_site_fract_x
_atom_site_fract_y
_atom_site_fract_z
Si Si1 0.190905 0.691390 0.325214
Si Si2 0.779592 0.131361 0.608681
Si Si3 0.874810 0.500000 0.500000
Si Si4 0.653031 0.523329 0.331409
Si Si5 0.051970 0.246568 0.499222
Si Si6 0.551802 0.513216 0.243198
O O1 0.206976 0.733466 0.499458
O O2 0.236742 0.659671 0.224166
O O3 0.157590 0.548673 0.352278
O O4 0.161681 0.815819 0.236488
O O5 0.825816 0.092322 0.709991
O O6 0.762947 0.000000 0.500000
O O7 0.907639 0.637172 0.453305
O O8 0.676851 0.500000 0.500000
O O9 0.596744 0.491797 0.355231
O O10 0.060275 0.172392 0.665789
O O11 0.000000 0.324334 0.500000
O O12 0.052194 0.115189 0.380083
O O13 0.500000 0.500000 0.328664
#
# Coordination Sequence:
#
# PCOD8164182 Si02
#       6
#     8   8   4   8   8   8
#     4  11  24  39  61  89 121 159 203 256 315 370
#     4  10  24  41  61  82 120 160 207 249 301 369
#     4  12  21  32  60  92 126 146 207 246 320 354
#     4  11  22  39  61  87 120 160 209 255 301 367
#     4   9  18  34  58  88 123 157 195 251 306 369
#     4   9  18  36  59  86 118 158 205 246 303 367
#
# _framework density 19.78969
#
# number of rings (size 3 to 8) (size 9 to 14) (size 15 to 20)
#    0.000    1.818    1.818    3.545   11.455    0.364 
#    3.273    0.000    0.000    0.000    0.000    0.000 
#    0.000    0.000    0.000    0.000    0.000    0.000 
#
# Total GULP energy -272618.177146 kJ/mol
# GULP energy per Si atom -12391.735325 kJ/mol
# Density = 1.974465 g / cm^3
# Si number density = 19.789690 Si / 1000 Ang^3
#
#
#
# Elastic Constant Matrix: (Units=GPa)
#
#
# Indices 1 2 3 4 5 6 
#
# 1 151.1079 57.8013 49.3019 0.0000 0.0000 0.0000
# 2 57.8013 80.3666 36.8075 0.0000 0.0000 0.0000
# 3 49.3019 36.8075 109.1983 0.0000 0.0000 0.0000
# 4 0.0000 0.0000 0.0000 16.1930 0.0000 0.0000
# 5 0.0000 0.0000 0.0000 0.0000 24.7173 0.0000
# 6 0.0000 0.0000 0.0000 0.0000 0.0000 19.0522
#
#
#
# Elastic Compliance Matrix: (Units=1/GPa)
#
#
# Indices 1 2 3 4 5 6 
#
# 1 0.009625 -0.005833 -0.002380 0.000000 0.000000 0.000000
# 2 -0.005833 0.018249 -0.003518 0.000000 0.000000 0.000000
# 3 -0.002380 -0.003518 0.011418 0.000000 0.000000 0.000000
# 4 0.000000 0.000000 0.000000 0.061755 0.000000 0.000000
# 5 0.000000 0.000000 0.000000 0.000000 0.040458 0.000000
# 6 0.000000 0.000000 0.000000 0.000000 0.000000 0.052487
#
#
# Mechanical properties :
#
#
# Convention : Reuss Voigt Hill
#
# Bulk Modulus (GPa) = 63.16430 69.83266 66.49848
# Shear Modulus (GPa) = 22.44866 25.10996 23.77931
#
# Velocity S-wave (km/s) = 3.37168 3.56594 3.47017
# Velocity P-wave (km/s) = 6.86620 7.23316 7.05207
#
# Compressibility (1/GPa) = 0.01583173
#
# Stress axis : x y z
#
# Youngs Moduli (GPa) = 103.89203 54.79678 87.58265
#
# Poissons Ratio (x) = 0.31962 0.20842
# Poissons Ratio (y) = 0.60599 0.30810
# Poissons Ratio (z) = 0.24723 0.19276
#
# Static dielectric constant tensor:
#      x y z
#    x 3.956060 0.000000 0.000000 
#    y 0.000000 3.743700 0.000000 
#    z 0.000000 0.000000 3.475410 
# 
# 
# High freq. dielectric constant tensor:
#      x y z
#    x 1.794760 0.000000 0.000000 
#    y 0.000000 1.760180 0.000000 
#    z 0.000000 0.000000 1.748180 
# 
# From -- ./inp_files/7251.got.cif
#   From: 2010.03.12/outbox.cif.g09.slc.cpg/sg23_4_cif.got.tgz:7251.got - 2010.04.14 02:50:06.
