data_PCOD8164654
_publ_section_title
;
Structure prediction by ZEFSAII (Michael W. Deem and Ramdas Pophale) SiO2 
 PCOD8164654
Probable space group: I 21 21 21
;
_chemical_formula_sum "Si O2"
_cell_formula_units_Z 40
_cell_length_a 5.118886
_cell_length_b 19.987895
_cell_length_c 25.872663
_cell_angle_alpha 90.000000
_cell_angle_beta 90.000000
_cell_angle_gamma 90.000000
_cell_volume 2647.181072
_symmetry_space_group_name_H-M "I 21 21 21"
_symmetry_group_IT_number 24
_symmetry_cell_setting 'orthorhombic'
loop_
_space_group_symop_operation_xyz
x,y,z
-x,1/2-y,z
x,-y,1/2-z
1/2-x,y,-z
1/2+x,1/2+y,1/2+z
1/2-x,-y,1/2+z
1/2+x,1/2-y,-z
-x,1/2+y,1/2-z
loop_
_atom_site_type_symbol
_atom_site_label
_atom_site_fract_x
_atom_site_fract_y
_atom_site_fract_z
Si Si1 0.254402 0.207090 0.439575
Si Si2 0.910237 0.973155 0.168567
Si Si3 0.099934 0.396229 0.224234
Si Si4 0.401438 0.902917 0.138801
Si Si5 0.909553 0.674121 0.754487
O O1 0.500000 0.250000 0.423225
O O2 0.250000 0.190637 0.500000
O O3 0.298479 0.137283 0.410893
O O4 0.000000 0.250000 0.422289
O O5 0.901620 0.938757 0.223899
O O6 0.679565 0.941120 0.132992
O O7 0.190201 0.961149 0.143645
O O8 0.903512 0.053474 0.175375
O O9 0.375690 0.360347 0.218735
O O10 0.866744 0.341084 0.226188
O O11 0.403992 0.853209 0.187334
O O12 0.000000 0.750000 0.758267
#
# Coordination Sequence:
#
# PCOD8164654 Si02
#       5
#     8   8   8   8   8
#     4  10  20  32  44  59  82 109 136 172 215 249
#     4   9  17  28  42  57  74 101 134 172 206 235
#     4   9  17  28  39  55  79 102 131 168 205 240
#     4  10  18  28  43  59  76 102 141 176 202 237
#     4  10  18  26  39  58  80 106 135 168 202 236
#
# _framework density 15.110412999999999
#
# number of rings (size 3 to 8) (size 9 to 14) (size 15 to 20)
#    0.000    2.400    0.000    3.600    0.000    8.000 
#    0.000    0.000    0.000    0.000    0.000    0.000 
#    0.000    0.000    0.000    0.000    0.000   56.000 
#
# Total GULP energy -247807.402523 kJ/mol
# GULP energy per Si atom -12390.370126 kJ/mol
# Density = 1.507602 g / cm^3
# Si number density = 15.110413 Si / 1000 Ang^3
#
#
#
# Elastic Constant Matrix: (Units=GPa)
#
#
# Indices 1 2 3 4 5 6 
#
# 1 106.1560 30.2036 19.2724 0.0000 0.0000 0.0000
# 2 30.2036 59.7805 28.1988 0.0000 0.0000 0.0000
# 3 19.2724 28.1988 29.6204 0.0000 0.0000 0.0000
# 4 0.0000 0.0000 0.0000 16.5772 0.0000 0.0000
# 5 0.0000 0.0000 0.0000 0.0000 20.3659 0.0000
# 6 0.0000 0.0000 0.0000 0.0000 0.0000 25.9247
#
#
#
# Elastic Compliance Matrix: (Units=1/GPa)
#
#
# Indices 1 2 3 4 5 6 
#
# 1 0.011192 -0.004029 -0.003446 0.000000 0.000000 0.000000
# 2 -0.004029 0.031813 -0.027665 0.000000 0.000000 0.000000
# 3 -0.003446 -0.027665 0.062340 0.000000 0.000000 0.000000
# 4 0.000000 0.000000 0.000000 0.060324 0.000000 0.000000
# 5 0.000000 0.000000 0.000000 0.000000 0.049102 0.000000
# 6 0.000000 0.000000 0.000000 0.000000 0.000000 0.038573
#
#
# Mechanical properties :
#
#
# Convention : Reuss Voigt Hill
#
# Bulk Modulus (GPa) = 28.51878 38.98961 33.75419
# Shear Modulus (GPa) = 14.91147 20.43238 17.67193
#
# Velocity S-wave (km/s) = 3.14480 3.68122 3.42353
# Velocity P-wave (km/s) = 5.66577 6.62780 6.16557
#
# Compressibility (1/GPa) = 0.03506462
#
# Stress axis : x y z
#
# Youngs Moduli (GPa) = 89.34840 31.43362 16.04113
#
# Poissons Ratio (x) = 0.12665 0.05529
# Poissons Ratio (y) = 0.35999 0.44377
# Poissons Ratio (z) = 0.30794 0.86960
#
# Static dielectric constant tensor:
#      x y z
#    x 3.289640 0.000000 0.000000 
#    y 0.000000 2.917210 0.000000 
#    z 0.000000 0.000000 2.535970 
# 
# 
# High freq. dielectric constant tensor:
#      x y z
#    x 1.606420 0.000000 0.000000 
#    y 0.000000 1.571290 0.000000 
#    z 0.000000 0.000000 1.517290 
# 
# From -- ./inp_files/3488.got.cif
#   From: 2010.03.12/outbox.cif.g09.slc.cpg/sg24_2_cif.got.tgz:3488.got - 2010.04.14 03:06:53.
