data_PCOD8164746
_publ_section_title
;
Structure prediction by ZEFSAII (Michael W. Deem and Ramdas Pophale) SiO2 
 PCOD8164746
Probable space group: I 21 21 21
;
_chemical_formula_sum "Si O2"
_cell_formula_units_Z 64
_cell_length_a 20.893591
_cell_length_b 9.602266
_cell_length_c 16.558476
_cell_angle_alpha 90.000000
_cell_angle_beta 90.000000
_cell_angle_gamma 90.000000
_cell_volume 3322.057800
_symmetry_space_group_name_H-M "I 21 21 21"
_symmetry_group_IT_number 24
_symmetry_cell_setting 'orthorhombic'
loop_
_space_group_symop_operation_xyz
x,y,z
-x,1/2-y,z
x,-y,1/2-z
1/2-x,y,-z
1/2+x,1/2+y,1/2+z
1/2-x,-y,1/2+z
1/2+x,1/2-y,-z
-x,1/2+y,1/2-z
loop_
_atom_site_type_symbol
_atom_site_label
_atom_site_fract_x
_atom_site_fract_y
_atom_site_fract_z
Si Si1 0.069830 0.313942 0.922329
Si Si2 0.761696 0.991921 0.090489
Si Si3 0.938673 0.163728 0.743850
Si Si4 0.638077 0.777772 0.579960
Si Si5 0.126943 0.401680 0.592082
Si Si6 0.042348 0.494925 0.154850
Si Si7 0.368902 0.708161 0.916597
Si Si8 0.605762 0.501296 0.655028
O O1 0.088653 0.278391 0.829393
O O2 0.072776 0.483066 0.931215
O O3 0.000000 0.250000 0.942644
O O4 0.122645 0.254632 0.984728
O O5 0.690406 0.983373 0.126753
O O6 0.810713 0.876831 0.126500
O O7 0.794545 0.143731 0.094332
O O8 0.750000 0.945560 0.000000
O O9 0.891412 0.192299 0.668933
O O10 0.000000 0.250000 0.719559
O O11 0.954977 0.000000 0.750000
O O12 0.646232 0.629781 0.621370
O O13 0.579350 0.863413 0.618229
O O14 0.136000 0.303261 0.514113
O O15 0.053877 0.500000 0.250000
O O16 0.065550 0.639642 0.115602
O O17 0.968263 0.478076 0.132821
O O18 0.365440 0.866126 0.888178
O O19 0.616556 0.500000 0.750000
#
# Coordination Sequence:
#
# PCOD8164746 Si02
#       8
#     8   8   8   8   8   8   8   8
#     4  10  18  34  58  86 115 147 189 244 295 349
#     4   9  18  38  63  80 110 147 200 245 278 344
#     4   9  20  36  57  86 122 151 183 246 304 354
#     4  11  20  35  61  82 114 157 200 241 288 352
#     4  10  19  39  63  86 114 152 197 240 291 353
#     4  10  19  34  54  79 113 155 194 235 283 342
#     4  10  20  35  56  82 112 151 197 239 286 357
#     4  11  23  36  51  83 125 152 186 244 299 339
#
# _framework density 19.265167999999999
#
# number of rings (size 3 to 8) (size 9 to 14) (size 15 to 20)
#    0.000    2.000    3.750    2.250    0.000    3.000 
#    4.500   13.125    0.000    0.750    0.000    0.000 
#    0.000    0.000    0.000    0.000    0.000    0.000 
#
# Total GULP energy -396531.158553 kJ/mol
# GULP energy per Si atom -12391.598705 kJ/mol
# Density = 1.922132 g / cm^3
# Si number density = 19.265168 Si / 1000 Ang^3
#
#
#
# Elastic Constant Matrix: (Units=GPa)
#
#
# Indices 1 2 3 4 5 6 
#
# 1 93.0932 48.0900 49.9734 0.0000 0.0000 0.0000
# 2 48.0900 121.8136 47.5865 0.0000 0.0000 0.0000
# 3 49.9734 47.5865 105.5859 0.0000 0.0000 0.0000
# 4 0.0000 0.0000 0.0000 28.2948 0.0000 0.0000
# 5 0.0000 0.0000 0.0000 0.0000 7.6723 0.0000
# 6 0.0000 0.0000 0.0000 0.0000 0.0000 21.8682
#
#
#
# Elastic Compliance Matrix: (Units=1/GPa)
#
#
# Indices 1 2 3 4 5 6 
#
# 1 0.015891 -0.004048 -0.005697 0.000000 0.000000 0.000000
# 2 -0.004048 0.010995 -0.003039 0.000000 0.000000 0.000000
# 3 -0.005697 -0.003039 0.013537 0.000000 0.000000 0.000000
# 4 0.000000 0.000000 0.000000 0.035342 0.000000 0.000000
# 5 0.000000 0.000000 0.000000 0.000000 0.130339 0.000000
# 6 0.000000 0.000000 0.000000 0.000000 0.000000 0.045728
#
#
# Mechanical properties :
#
#
# Convention : Reuss Voigt Hill
#
# Bulk Modulus (GPa) = 67.31939 67.97694 67.64817
# Shear Modulus (GPa) = 17.70837 23.22324 20.46580
#
# Velocity S-wave (km/s) = 3.03511 3.47573 3.26286
# Velocity P-wave (km/s) = 6.87764 7.17420 7.02748
#
# Compressibility (1/GPa) = 0.01485456
#
# Stress axis : x y z
#
# Youngs Moduli (GPa) = 62.92787 90.95307 73.87175
#
# Poissons Ratio (x) = 0.36819 0.42083
# Poissons Ratio (y) = 0.25474 0.22451
# Poissons Ratio (z) = 0.35849 0.27643
#
# Static dielectric constant tensor:
#      x y z
#    x 4.069900 0.000000 0.000000 
#    y 0.000000 3.345020 0.000000 
#    z 0.000000 0.000000 3.742150 
# 
# 
# High freq. dielectric constant tensor:
#      x y z
#    x 1.734140 0.000000 0.000000 
#    y 0.000000 1.728830 0.000000 
#    z 0.000000 0.000000 1.759290 
# 
# From -- ./inp_files/31401.got.cif
#   From: 2010.03.12/outbox.cif.g09.slc.cpg/sg24_16_cif.got.tgz:31401.got - 2010.04.14 03:06:53.
