data_PCOD8164715
_publ_section_title
;
Structure prediction by ZEFSAII (Michael W. Deem and Ramdas Pophale) SiO2 
 PCOD8164715
Probable space group: I 21 21 21
;
_chemical_formula_sum "Si O2"
_cell_formula_units_Z 40
_cell_length_a 8.366959
_cell_length_b 9.064236
_cell_length_c 27.598405
_cell_angle_alpha 90.000000
_cell_angle_beta 90.000000
_cell_angle_gamma 90.000000
_cell_volume 2093.065546
_symmetry_space_group_name_H-M "I 21 21 21"
_symmetry_group_IT_number 24
_symmetry_cell_setting 'orthorhombic'
loop_
_space_group_symop_operation_xyz
x,y,z
-x,1/2-y,z
x,-y,1/2-z
1/2-x,y,-z
1/2+x,1/2+y,1/2+z
1/2-x,-y,1/2+z
1/2+x,1/2-y,-z
-x,1/2+y,1/2-z
loop_
_atom_site_type_symbol
_atom_site_label
_atom_site_fract_x
_atom_site_fract_y
_atom_site_fract_z
Si Si1 0.942720 0.588961 0.701769
Si Si2 0.525433 0.921865 0.916726
Si Si3 0.846865 0.932407 0.610945
Si Si4 0.565062 0.093515 0.008026
Si Si5 0.154877 0.157772 0.143641
O O1 0.973180 0.500000 0.750000
O O2 0.753994 0.591259 0.688735
O O3 0.000000 0.750000 0.714682
O O4 0.050008 0.522725 0.657858
O O5 0.500000 0.750000 0.908694
O O6 0.702568 0.953626 0.896482
O O7 0.395539 0.018762 0.888441
O O8 0.500097 0.963194 0.973419
O O9 0.967606 0.938984 0.564760
O O10 0.775619 0.766239 0.614622
O O11 0.500000 0.250000 0.989891
O O12 0.750000 0.105259 0.000000
O O13 0.000000 0.250000 0.161773
#
# Coordination Sequence:
#
# PCOD8164715 Si02
#       5
#     8   8   8   8   8
#     4  10  21  38  59  82 106 135 179 229 275 319
#     4  10  20  34  52  80 114 143 175 221 274 322
#     4   9  19  37  56  77 106 143 185 223 260 320
#     4  10  18  32  54  78 104 142 184 217 257 318
#     4   9  18  37  59  77 105 143 182 218 260 325
#
# _framework density 19.110724000000001
#
# number of rings (size 3 to 8) (size 9 to 14) (size 15 to 20)
#    0.000    2.400    0.000    4.800    0.000    1.600 
#    0.000   26.000    0.000    0.000    0.000    0.000 
#    0.000    0.000    0.000    0.000    0.000    0.000 
#
# Total GULP energy -247903.938263 kJ/mol
# GULP energy per Si atom -12395.196913 kJ/mol
# Density = 1.906723 g / cm^3
# Si number density = 19.110724 Si / 1000 Ang^3
#
#
#
# Elastic Constant Matrix: (Units=GPa)
#
#
# Indices 1 2 3 4 5 6 
#
# 1 79.4012 41.0918 61.0985 0.0000 0.0000 0.0000
# 2 41.0918 113.8429 60.3834 0.0000 0.0000 0.0000
# 3 61.0985 60.3834 156.6380 0.0000 0.0000 0.0000
# 4 0.0000 0.0000 0.0000 22.6782 0.0000 0.0000
# 5 0.0000 0.0000 0.0000 0.0000 21.0870 0.0000
# 6 0.0000 0.0000 0.0000 0.0000 0.0000 19.1800
#
#
#
# Elastic Compliance Matrix: (Units=1/GPa)
#
#
# Indices 1 2 3 4 5 6 
#
# 1 0.019167 -0.003712 -0.006045 0.000000 0.000000 0.000000
# 2 -0.003712 0.011761 -0.003086 0.000000 0.000000 0.000000
# 3 -0.006045 -0.003086 0.009932 0.000000 0.000000 0.000000
# 4 0.000000 0.000000 0.000000 0.044095 0.000000 0.000000
# 5 0.000000 0.000000 0.000000 0.000000 0.047422 0.000000
# 6 0.000000 0.000000 0.000000 0.000000 0.000000 0.052138
#
#
# Mechanical properties :
#
#
# Convention : Reuss Voigt Hill
#
# Bulk Modulus (GPa) = 65.90523 75.00327 70.45425
# Shear Modulus (GPa) = 23.22785 25.07628 24.15207
#
# Velocity S-wave (km/s) = 3.49009 3.62630 3.55885
# Velocity P-wave (km/s) = 7.12754 7.54091 7.33714
#
# Compressibility (1/GPa) = 0.01517330
#
# Stress axis : x y z
#
# Youngs Moduli (GPa) = 52.17256 85.02982 100.68642
#
# Poissons Ratio (x) = 0.31562 0.60870
# Poissons Ratio (y) = 0.19366 0.31070
# Poissons Ratio (z) = 0.31541 0.26239
#
# Static dielectric constant tensor:
#      x y z
#    x 3.670420 0.000000 0.000000 
#    y 0.000000 3.236060 0.000000 
#    z 0.000000 0.000000 3.885320 
# 
# 
# High freq. dielectric constant tensor:
#      x y z
#    x 1.749940 0.000000 0.000000 
#    y 0.000000 1.723100 0.000000 
#    z 0.000000 0.000000 1.736310 
# 
# From -- ./inp_files/9271.got.cif
#   From: 2010.03.12/outbox.cif.g09.slc.cpg/sg24_5_cif.got.tgz:9271.got - 2010.04.14 03:06:53.
