data_PCOD8164926
_publ_section_title
;
Structure prediction by ZEFSAII (Michael W. Deem and Ramdas Pophale) SiO2 
 PCOD8164926
Probable space group: I 21 21 21
;
_chemical_formula_sum "Si O2"
_cell_formula_units_Z 60
_cell_length_a 7.980545
_cell_length_b 11.825525
_cell_length_c 30.735705
_cell_angle_alpha 90.000000
_cell_angle_beta 90.000000
_cell_angle_gamma 90.000000
_cell_volume 2900.655555
_symmetry_space_group_name_H-M "I 21 21 21"
_symmetry_group_IT_number 24
_symmetry_cell_setting 'orthorhombic'
loop_
_space_group_symop_operation_xyz
x,y,z
-x,1/2-y,z
x,-y,1/2-z
1/2-x,y,-z
1/2+x,1/2+y,1/2+z
1/2-x,-y,1/2+z
1/2+x,1/2-y,-z
-x,1/2+y,1/2-z
loop_
_atom_site_type_symbol
_atom_site_label
_atom_site_fract_x
_atom_site_fract_y
_atom_site_fract_z
Si Si1 0.657484 0.478341 0.872839
Si Si2 0.786117 0.000574 0.369920
Si Si3 0.202123 0.116559 0.547860
Si Si4 0.467020 0.877775 0.334299
Si Si5 0.781229 0.843295 0.211545
Si Si6 0.525890 0.000000 0.250000
Si Si7 0.808506 0.124116 0.547000
Si Si8 0.851568 0.405582 0.284127
O O1 0.464940 0.432951 0.868914
O O2 0.695293 0.541363 0.917978
O O3 0.800347 0.382621 0.864885
O O4 0.668214 0.567996 0.834379
O O5 0.633178 0.916685 0.360181
O O6 0.772883 0.108803 0.337620
O O7 0.784048 0.047161 0.418392
O O8 0.250000 0.072233 0.500000
O O9 0.253932 0.247281 0.553143
O O10 0.004703 0.106767 0.554726
O O11 0.500000 0.750000 0.319329
O O12 0.426268 0.962841 0.293785
O O13 0.746492 0.710255 0.217757
O O14 0.959958 0.879966 0.231063
O O15 0.639964 0.892234 0.242087
O O16 0.750000 0.080166 0.500000
O O17 0.779242 0.500000 0.250000
#
# Coordination Sequence:
#
# PCOD8164926 Si02
#       8
#     8   8   8   8   8   4   8   8
#     4  11  23  39  62  91 122 168 209 253 324 379
#     4  10  21  42  63  88 127 168 206 257 326 380
#     4  10  20  35  59  97 134 165 209 258 310 383
#     4  11  26  44  63  91 126 161 218 271 316 387
#     4   9  19  36  55  85 125 163 206 261 309 373
#     4  10  22  40  60  86 120 166 208 266 322 360
#     4  10  19  34  61  96 133 169 203 253 317 376
#     4  10  20  33  57  88 124 164 212 253 312 380
#
# _framework density 20.684978000000001
#
# number of rings (size 3 to 8) (size 9 to 14) (size 15 to 20)
#    0.000    1.867    2.000    1.600    2.800    3.200 
#    0.000    0.000    0.000    0.800    0.000    0.000 
#    0.000    0.000    0.000    0.000    0.000    0.000 
#
# Total GULP energy -371757.783817 kJ/mol
# GULP energy per Si atom -12391.926127 kJ/mol
# Density = 2.063790 g / cm^3
# Si number density = 20.684978 Si / 1000 Ang^3
#
#
#
# Elastic Constant Matrix: (Units=GPa)
#
#
# Indices 1 2 3 4 5 6 
#
# 1 119.6748 18.0514 28.9188 0.0000 0.0000 0.0000
# 2 18.0514 77.9741 25.6242 0.0000 0.0000 0.0000
# 3 28.9188 25.6242 106.9860 0.0000 0.0000 0.0000
# 4 0.0000 0.0000 0.0000 24.6910 0.0000 0.0000
# 5 0.0000 0.0000 0.0000 0.0000 65.1171 0.0000
# 6 0.0000 0.0000 0.0000 0.0000 0.0000 17.8463
#
#
#
# Elastic Compliance Matrix: (Units=1/GPa)
#
#
# Indices 1 2 3 4 5 6 
#
# 1 0.009080 -0.001406 -0.002118 0.000000 0.000000 0.000000
# 2 -0.001406 0.014138 -0.003006 0.000000 0.000000 0.000000
# 3 -0.002118 -0.003006 0.010639 0.000000 0.000000 0.000000
# 4 0.000000 0.000000 0.000000 0.040501 0.000000 0.000000
# 5 0.000000 0.000000 0.000000 0.000000 0.015357 0.000000
# 6 0.000000 0.000000 0.000000 0.000000 0.000000 0.056034
#
#
# Mechanical properties :
#
#
# Convention : Reuss Voigt Hill
#
# Bulk Modulus (GPa) = 48.08215 49.98041 49.03128
# Shear Modulus (GPa) = 30.16749 37.00022 33.58386
#
# Velocity S-wave (km/s) = 3.82308 4.23395 4.03375
# Velocity P-wave (km/s) = 6.54089 6.93663 6.74167
#
# Compressibility (1/GPa) = 0.02079774
#
# Stress axis : x y z
#
# Youngs Moduli (GPa) = 110.13500 70.73036 93.99032
#
# Poissons Ratio (x) = 0.09946 0.19903
# Poissons Ratio (y) = 0.15487 0.28255
# Poissons Ratio (z) = 0.23321 0.21263
#
# Static dielectric constant tensor:
#      x y z
#    x 4.121230 0.000000 0.000000 
#    y 0.000000 3.436960 0.000000 
#    z 0.000000 0.000000 3.688570 
# 
# 
# High freq. dielectric constant tensor:
#      x y z
#    x 1.839550 0.000000 0.000000 
#    y 0.000000 1.772730 0.000000 
#    z 0.000000 0.000000 1.808580 
# 
# From -- ./inp_files/36916.got.cif
#   From: 2010.03.12/outbox.cif.g09.slc.cpg/sg24_19_cif.got.tgz:36916.got - 2010.04.14 03:06:53.
