data_PCOD8164495
_publ_section_title
;
Structure prediction by ZEFSAII (Michael W. Deem and Ramdas Pophale) SiO2 
 PCOD8164495
Probable space group: I 2 2 2
;
_chemical_formula_sum "Si O2"
_cell_formula_units_Z 22
_cell_length_a 13.959773
_cell_length_b 10.903325
_cell_length_c 6.885187
_cell_angle_alpha 90.000000
_cell_angle_beta 90.000000
_cell_angle_gamma 90.000000
_cell_volume 1047.980143
_symmetry_space_group_name_H-M "I 2 2 2"
_symmetry_group_IT_number 23
_symmetry_cell_setting 'orthorhombic'
loop_
_space_group_symop_operation_xyz
x,y,z
-x,-y,z
x,-y,-z
-x,y,-z
1/2+x,1/2+y,1/2+z
1/2-x,1/2-y,1/2+z
1/2+x,1/2-y,1/2-z
1/2-x,1/2+y,1/2-z
loop_
_atom_site_type_symbol
_atom_site_label
_atom_site_fract_x
_atom_site_fract_y
_atom_site_fract_z
Si Si1 0.000000 0.000000 0.000000
Si Si2 0.752767 0.000000 0.500000
Si Si3 0.093483 0.435686 0.703378
Si Si4 0.579223 0.649789 0.154920
O O1 0.065311 0.914121 0.135955
O O2 0.687713 0.948420 0.329736
O O3 0.816899 0.886858 0.573563
O O4 0.114889 0.500000 0.500000
O O5 0.070615 0.293973 0.677897
O O6 0.000000 0.500000 0.799989
O O7 0.500000 0.604912 0.000000
#
# Coordination Sequence:
#
# PCOD8164495 Si02
#       4
#     2   4   8   8
#     4  12  26  44  78  94 150 192 226 290 364 402
#     4  12  28  42  72 114 134 186 244 290 348 424
#     4  11  27  47  72 101 151 189 231 291 361 420
#     4  12  26  48  72 107 145 183 241 291 357 427
#
# _framework density 20.992766
#
# number of rings (size 3 to 8) (size 9 to 14) (size 15 to 20)
#    0.000    0.364    7.273    0.545   12.727    0.000 
#    0.000    0.000    0.000    0.000    0.000    0.000 
#    0.000    0.000    0.000    0.000    0.000    0.000 
#
# Total GULP energy -136438.085923 kJ/mol
# GULP energy per Si atom -12403.462357 kJ/mol
# Density = 2.094499 g / cm^3
# Si number density = 20.992766 Si / 1000 Ang^3
#
#
#
# Elastic Constant Matrix: (Units=GPa)
#
#
# Indices 1 2 3 4 5 6 
#
# 1 163.6841 57.0806 71.3764 0.0000 0.0000 0.0000
# 2 57.0806 181.7717 64.1257 0.0000 0.0000 0.0000
# 3 71.3764 64.1257 142.4373 0.0000 0.0000 0.0000
# 4 0.0000 0.0000 0.0000 23.1558 0.0000 0.0000
# 5 0.0000 0.0000 0.0000 0.0000 59.5772 0.0000
# 6 0.0000 0.0000 0.0000 0.0000 0.0000 25.3774
#
#
#
# Elastic Compliance Matrix: (Units=1/GPa)
#
#
# Indices 1 2 3 4 5 6 
#
# 1 0.008074 -0.001317 -0.003453 0.000000 0.000000 0.000000
# 2 -0.001317 0.006755 -0.002381 0.000000 0.000000 0.000000
# 3 -0.003453 -0.002381 0.009823 0.000000 0.000000 0.000000
# 4 0.000000 0.000000 0.000000 0.043186 0.000000 0.000000
# 5 0.000000 0.000000 0.000000 0.000000 0.016785 0.000000
# 6 0.000000 0.000000 0.000000 0.000000 0.000000 0.039405
#
#
# Mechanical properties :
#
#
# Convention : Reuss Voigt Hill
#
# Bulk Modulus (GPa) = 96.62275 97.00651 96.81463
# Shear Modulus (GPa) = 35.26561 41.30944 38.28753
#
# Velocity S-wave (km/s) = 4.10310 4.44079 4.27528
# Velocity P-wave (km/s) = 8.28093 8.52080 8.40172
#
# Compressibility (1/GPa) = 0.01034953
#
# Stress axis : x y z
#
# Youngs Moduli (GPa) = 123.84671 148.03688 101.80260
#
# Poissons Ratio (x) = 0.19502 0.35153
# Poissons Ratio (y) = 0.16316 0.24239
# Poissons Ratio (z) = 0.42765 0.35248
#
# Static dielectric constant tensor:
#      x y z
#    x 3.914580 0.000000 0.000000 
#    y 0.000000 3.730190 0.000000 
#    z 0.000000 0.000000 3.852900 
# 
# 
# High freq. dielectric constant tensor:
#      x y z
#    x 1.827500 0.000000 0.000000 
#    y 0.000000 1.840830 0.000000 
#    z 0.000000 0.000000 1.834190 
# 
# From -- ./inp_files/1931.got.cif
#   From: 2010.03.12/outbox.cif.g09.slc.cpg/sg23_1_cif.got.tgz:1931.got - 2010.04.14 02:50:06.
