data_PCOD8164034
_publ_section_title
;
Structure prediction by ZEFSAII (Michael W. Deem and Ramdas Pophale) SiO2 
 PCOD8164034
Probable space group: I 2 2 2
;
_chemical_formula_sum "Si O2"
_cell_formula_units_Z 58
_cell_length_a 9.239640
_cell_length_b 16.102625
_cell_length_c 17.509619
_cell_angle_alpha 90.000000
_cell_angle_beta 90.000000
_cell_angle_gamma 90.000000
_cell_volume 2605.124154
_symmetry_space_group_name_H-M "I 2 2 2"
_symmetry_group_IT_number 23
_symmetry_cell_setting 'orthorhombic'
loop_
_space_group_symop_operation_xyz
x,y,z
-x,-y,z
x,-y,-z
-x,y,-z
1/2+x,1/2+y,1/2+z
1/2-x,1/2-y,1/2+z
1/2+x,1/2-y,1/2-z
1/2-x,1/2+y,1/2-z
loop_
_atom_site_type_symbol
_atom_site_label
_atom_site_fract_x
_atom_site_fract_y
_atom_site_fract_z
Si Si1 0.500000 0.500000 0.000000
Si Si2 0.388447 0.429579 0.236408
Si Si3 0.074857 0.582348 0.808492
Si Si4 0.419605 0.631919 0.120208
Si Si5 0.146104 0.290590 0.475746
Si Si6 0.824611 0.743468 0.115056
Si Si7 0.310683 0.179717 0.265818
Si Si8 0.393120 0.671481 0.625931
O O1 0.405655 0.559144 0.056161
O O2 0.500000 0.500000 0.208733
O O3 0.217292 0.448208 0.236964
O O4 0.427901 0.362877 0.168769
O O5 0.429928 0.409221 0.323830
O O6 0.123829 0.648589 0.872140
O O7 0.000000 0.500000 0.844587
O O8 0.961087 0.629364 0.751730
O O9 0.406776 0.720617 0.081950
O O10 0.291551 0.619889 0.182767
O O11 0.208523 0.242735 0.548582
O O12 0.267014 0.348335 0.435900
O O13 0.000000 0.341483 0.500000
O O14 0.767280 0.794152 0.188153
O O15 0.964711 0.794221 0.084300
O O16 0.338129 0.264070 0.310795
#
# Coordination Sequence:
#
# PCOD8164034 Si02
#       8
#     2   8   8   8   8   8   8   8
#     4  12  24  36  68  94 148 178 220 260 344 432
#     4  12  23  41  68  94 138 181 233 275 347 418
#     4  11  25  38  63 104 139 173 231 285 342 407
#     4  11  23  40  63  99 135 186 220 269 337 430
#     4  11  24  38  65 100 136 169 227 291 357 399
#     4  11  22  42  69  94 139 181 227 290 344 423
#     4  10  22  41  67  96 133 181 235 280 335 413
#     4  10  23  40  65  96 131 176 233 284 340 420
#
# _framework density 22.263815999999998
#
# number of rings (size 3 to 8) (size 9 to 14) (size 15 to 20)
#    0.000    1.103    4.138    2.069    1.931    0.000 
#    0.000    0.000    0.000    9.931    0.000    1.931 
#    0.000    0.000    0.000    0.000    0.000    0.000 
#
# Total GULP energy -359336.939813 kJ/mol
# GULP energy per Si atom -12390.928959 kJ/mol
# Density = 2.221314 g / cm^3
# Si number density = 22.263816 Si / 1000 Ang^3
#
#
#
# Elastic Constant Matrix: (Units=GPa)
#
#
# Indices 1 2 3 4 5 6 
#
# 1 148.8980 28.5229 40.0533 0.0000 0.0000 0.0000
# 2 28.5229 40.1601 32.0494 0.0000 0.0000 0.0000
# 3 40.0533 32.0494 94.0416 0.0000 0.0000 0.0000
# 4 0.0000 0.0000 0.0000 26.7939 0.0000 0.0000
# 5 0.0000 0.0000 0.0000 0.0000 36.1108 0.0000
# 6 0.0000 0.0000 0.0000 0.0000 0.0000 31.6008
#
#
#
# Elastic Compliance Matrix: (Units=1/GPa)
#
#
# Indices 1 2 3 4 5 6 
#
# 1 0.008047 -0.004093 -0.002032 0.000000 0.000000 0.000000
# 2 -0.004093 0.036285 -0.010622 0.000000 0.000000 0.000000
# 3 -0.002032 -0.010622 0.015119 0.000000 0.000000 0.000000
# 4 0.000000 0.000000 0.000000 0.037322 0.000000 0.000000
# 5 0.000000 0.000000 0.000000 0.000000 0.027693 0.000000
# 6 0.000000 0.000000 0.000000 0.000000 0.000000 0.031645
#
#
# Mechanical properties :
#
#
# Convention : Reuss Voigt Hill
#
# Bulk Modulus (GPa) = 38.52852 53.81676 46.17264
# Shear Modulus (GPa) = 25.21974 31.06604 28.14289
#
# Velocity S-wave (km/s) = 3.36931 3.73950 3.55923
# Velocity P-wave (km/s) = 5.69907 6.54752 6.13797
#
# Compressibility (1/GPa) = 0.02595480
#
# Stress axis : x y z
#
# Youngs Moduli (GPa) = 124.27338 27.55989 66.14076
#
# Poissons Ratio (x) = 0.11281 0.13441
# Poissons Ratio (y) = 0.50868 0.70258
# Poissons Ratio (z) = 0.25255 0.29275
#
# Static dielectric constant tensor:
#      x y z
#    x 4.591510 0.000000 0.000000 
#    y 0.000000 3.816070 0.000000 
#    z 0.000000 0.000000 3.928690 
# 
# 
# High freq. dielectric constant tensor:
#      x y z
#    x 1.904260 0.000000 0.000000 
#    y 0.000000 1.842300 0.000000 
#    z 0.000000 0.000000 1.858770 
# 
# From -- ./inp_files/23882.got.cif
#   From: 2010.03.12/outbox.cif.g09.slc.cpg/sg23_12_cif.got.tgz:23882.got - 2010.04.14 02:50:06.
