data_PCOD8164744
_publ_section_title
;
Structure prediction by ZEFSAII (Michael W. Deem and Ramdas Pophale) SiO2 
 PCOD8164744
Probable space group: I 21 21 21
;
_chemical_formula_sum "Si O2"
_cell_formula_units_Z 60
_cell_length_a 15.925800
_cell_length_b 9.277783
_cell_length_c 23.666413
_cell_angle_alpha 90.000000
_cell_angle_beta 90.000000
_cell_angle_gamma 90.000000
_cell_volume 3496.857276
_symmetry_space_group_name_H-M "I 21 21 21"
_symmetry_group_IT_number 24
_symmetry_cell_setting 'orthorhombic'
loop_
_space_group_symop_operation_xyz
x,y,z
-x,1/2-y,z
x,-y,1/2-z
1/2-x,y,-z
1/2+x,1/2+y,1/2+z
1/2-x,-y,1/2+z
1/2+x,1/2-y,-z
-x,1/2+y,1/2-z
loop_
_atom_site_type_symbol
_atom_site_label
_atom_site_fract_x
_atom_site_fract_y
_atom_site_fract_z
Si Si1 0.754654 0.706970 0.111812
Si Si2 0.093925 0.202755 0.462668
Si Si3 0.131443 0.596981 0.937966
Si Si4 0.092541 0.297144 0.912644
Si Si5 0.078309 0.354746 0.784353
Si Si6 0.000000 0.750000 0.863473
Si Si7 0.328303 0.026306 0.034660
Si Si8 0.348951 0.141914 0.287944
O O1 0.853035 0.701493 0.096098
O O2 0.713347 0.864617 0.100368
O O3 0.700540 0.606411 0.071470
O O4 0.736849 0.650919 0.175397
O O5 0.135957 0.323803 0.501982
O O6 0.000000 0.250000 0.447490
O O7 0.100312 0.043722 0.492764
O O8 0.127363 0.426137 0.951688
O O9 0.046515 0.637002 0.903961
O O10 0.099702 0.367525 0.850128
O O11 0.144394 0.152120 0.922921
O O12 0.000000 0.250000 0.929262
O O13 0.058434 0.500000 0.750000
O O14 0.156918 0.278399 0.753956
O O15 0.000000 0.250000 0.776238
O O16 0.932865 0.657141 0.827056
O O17 0.250000 0.089636 0.000000
O O18 0.353105 0.000000 0.250000
#
# Coordination Sequence:
#
# PCOD8164744 Si02
#       8
#     8   8   8   8   8   4   8   8
#     4   9  20  34  51  73  97 136 174 213 262 308
#     4  10  18  34  57  74  96 130 172 220 264 313
#     4  10  19  31  48  72 105 135 172 209 255 305
#     4  11  23  30  46  74 101 137 174 206 246 309
#     4  11  22  32  43  65  98 136 173 206 241 288
#     4  10  20  28  48  70 104 138 180 204 248 298
#     4   9  19  35  49  69 103 132 162 208 265 312
#     4  11  21  31  50  70 105 140 173 211 247 302
#
# _framework density 17.158263000000002
#
# number of rings (size 3 to 8) (size 9 to 14) (size 15 to 20)
#    0.000    1.867    1.333    4.800    7.467    1.067 
#    0.000    0.000    0.000    0.000    0.000    2.800 
#    0.000    2.133    0.000    0.000    0.000    0.000 
#
# Total GULP energy -371707.200686 kJ/mol
# GULP energy per Si atom -12390.240023 kJ/mol
# Density = 1.711921 g / cm^3
# Si number density = 17.158263 Si / 1000 Ang^3
#
#
#
# Elastic Constant Matrix: (Units=GPa)
#
#
# Indices 1 2 3 4 5 6 
#
# 1 75.7463 34.9255 31.3287 0.0000 0.0000 0.0000
# 2 34.9255 100.7409 31.6965 0.0000 0.0000 0.0000
# 3 31.3287 31.6965 68.8550 0.0000 0.0000 0.0000
# 4 0.0000 0.0000 0.0000 14.6763 0.0000 0.0000
# 5 0.0000 0.0000 0.0000 0.0000 18.5454 0.0000
# 6 0.0000 0.0000 0.0000 0.0000 0.0000 13.1711
#
#
#
# Elastic Compliance Matrix: (Units=1/GPa)
#
#
# Indices 1 2 3 4 5 6 
#
# 1 0.017664 -0.004204 -0.006102 0.000000 0.000000 0.000000
# 2 -0.004204 0.012608 -0.003891 0.000000 0.000000 0.000000
# 3 -0.006102 -0.003891 0.019091 0.000000 0.000000 0.000000
# 4 0.000000 0.000000 0.000000 0.068137 0.000000 0.000000
# 5 0.000000 0.000000 0.000000 0.000000 0.053922 0.000000
# 6 0.000000 0.000000 0.000000 0.000000 0.000000 0.075924
#
#
# Mechanical properties :
#
#
# Convention : Reuss Voigt Hill
#
# Bulk Modulus (GPa) = 47.68939 49.02708 48.35823
# Shear Modulus (GPa) = 17.68474 19.10466 18.39470
#
# Velocity S-wave (km/s) = 3.21391 3.34044 3.27779
# Velocity P-wave (km/s) = 6.45186 6.59648 6.52457
#
# Compressibility (1/GPa) = 0.02096903
#
# Stress axis : x y z
#
# Youngs Moduli (GPa) = 56.61193 79.31313 52.38109
#
# Poissons Ratio (x) = 0.33344 0.31962
# Poissons Ratio (y) = 0.23800 0.20383
# Poissons Ratio (z) = 0.34544 0.30862
#
# Static dielectric constant tensor:
#      x y z
#    x 3.524880 0.000000 0.000000 
#    y 0.000000 3.372720 0.000000 
#    z 0.000000 0.000000 3.455070 
# 
# 
# High freq. dielectric constant tensor:
#      x y z
#    x 1.623890 0.000000 0.000000 
#    y 0.000000 1.668310 0.000000 
#    z 0.000000 0.000000 1.648130 
# 
# From -- ./inp_files/28136.got.cif
#   From: 2010.03.12/outbox.cif.g09.slc.cpg/sg24_15_cif.got.tgz:28136.got - 2010.04.14 03:06:53.
