data_PCOD8164280
_publ_section_title
;
Structure prediction by ZEFSAII (Michael W. Deem and Ramdas Pophale) SiO2 
 PCOD8164280
Probable space group: I 2 2 2
;
_chemical_formula_sum "Si O2"
_cell_formula_units_Z 40
_cell_length_a 23.093531
_cell_length_b 5.958056
_cell_length_c 11.458035
_cell_angle_alpha 90.000000
_cell_angle_beta 90.000000
_cell_angle_gamma 90.000000
_cell_volume 1576.540264
_symmetry_space_group_name_H-M "I 2 2 2"
_symmetry_group_IT_number 23
_symmetry_cell_setting 'orthorhombic'
loop_
_space_group_symop_operation_xyz
x,y,z
-x,-y,z
x,-y,-z
-x,y,-z
1/2+x,1/2+y,1/2+z
1/2-x,1/2-y,1/2+z
1/2+x,1/2-y,1/2-z
1/2-x,1/2+y,1/2-z
loop_
_atom_site_type_symbol
_atom_site_label
_atom_site_fract_x
_atom_site_fract_y
_atom_site_fract_z
Si Si1 0.412712 0.154351 0.110023
Si Si2 0.500000 0.500000 0.000000
Si Si3 0.740585 0.165638 0.091367
Si Si4 0.912633 0.650718 0.177681
Si Si5 0.167512 0.994185 0.274565
Si Si6 0.500000 0.000000 0.500000
Si Si7 0.325663 0.000000 0.500000
O O1 0.461069 0.342708 0.083108
O O2 0.354090 0.275672 0.155105
O O3 0.435492 0.984191 0.209827
O O4 0.399209 0.000000 0.000000
O O5 0.687856 0.318422 0.133646
O O6 0.786439 0.282246 0.005967
O O7 0.775728 0.058651 0.198923
O O8 0.709805 0.000000 0.000000
O O9 0.887369 0.899144 0.204925
O O10 0.963174 0.669288 0.081371
O O11 0.861779 0.502998 0.119452
#
# Coordination Sequence:
#
# PCOD8164280 Si02
#       7
#     8   2   8   8   8   2   4
#     4  12  29  52  81 116 165 208 275 344 400 492
#     4  12  30  54  84 114 156 218 266 340 414 488
#     4  12  27  49  77 116 161 216 273 328 400 491
#     4  11  25  50  79 118 159 209 267 339 401 491
#     4  12  28  50  79 119 162 218 270 327 412 482
#     4  10  28  48  88 118 160 206 268 346 420 462
#     4  11  22  48  76 110 162 206 266 335 396 474
#
# _framework density 25.372014
#
# number of rings (size 3 to 8) (size 9 to 14) (size 15 to 20)
#    0.000    0.400    4.000    2.700    5.600    4.800 
#    0.000    1.000    0.000    0.000    0.000    0.000 
#    0.000    0.000    0.000    0.000    0.000    0.000 
#
# Total GULP energy -248023.022291 kJ/mol
# GULP energy per Si atom -12401.151115 kJ/mol
# Density = 2.531427 g / cm^3
# Si number density = 25.372014 Si / 1000 Ang^3
#
#
#
# Elastic Constant Matrix: (Units=GPa)
#
#
# Indices 1 2 3 4 5 6 
#
# 1 103.1431 28.4061 46.0475 0.0000 0.0000 0.0000
# 2 28.4061 102.1475 55.8436 0.0000 0.0000 0.0000
# 3 46.0475 55.8436 154.6722 0.0000 0.0000 0.0000
# 4 0.0000 0.0000 0.0000 53.2461 0.0000 0.0000
# 5 0.0000 0.0000 0.0000 0.0000 33.2843 0.0000
# 6 0.0000 0.0000 0.0000 0.0000 0.0000 45.5438
#
#
#
# Elastic Compliance Matrix: (Units=1/GPa)
#
#
# Indices 1 2 3 4 5 6 
#
# 1 0.011397 -0.001638 -0.002802 0.000000 0.000000 0.000000
# 2 -0.001638 0.012433 -0.004001 0.000000 0.000000 0.000000
# 3 -0.002802 -0.004001 0.008744 0.000000 0.000000 0.000000
# 4 0.000000 0.000000 0.000000 0.018781 0.000000 0.000000
# 5 0.000000 0.000000 0.000000 0.000000 0.030044 0.000000
# 6 0.000000 0.000000 0.000000 0.000000 0.000000 0.021957
#
#
# Mechanical properties :
#
#
# Convention : Reuss Voigt Hill
#
# Bulk Modulus (GPa) = 63.72481 68.95080 66.33780
# Shear Modulus (GPa) = 39.85092 41.72588 40.78840
#
# Velocity S-wave (km/s) = 3.96746 4.05972 4.01386
# Velocity P-wave (km/s) = 6.79399 7.01499 6.90537
#
# Compressibility (1/GPa) = 0.01569248
#
# Stress axis : x y z
#
# Youngs Moduli (GPa) = 87.74142 80.43359 114.36419
#
# Poissons Ratio (x) = 0.13173 0.32042
# Poissons Ratio (y) = 0.14369 0.45759
# Poissons Ratio (z) = 0.24583 0.32183
#
# Static dielectric constant tensor:
#      x y z
#    x 4.514190 0.000000 0.000000 
#    y 0.000000 4.671710 0.000000 
#    z 0.000000 0.000000 5.711210 
# 
# 
# High freq. dielectric constant tensor:
#      x y z
#    x 2.018150 0.000000 0.000000 
#    y 0.000000 2.007970 0.000000 
#    z 0.000000 0.000000 2.030770 
# 
# From -- ./inp_files/18529.got.cif
#   From: 2010.03.12/outbox.cif.g09.slc.cpg/sg23_10_cif.got.tgz:18529.got - 2010.04.14 02:50:06.
