data_PCOD8164190
_publ_section_title
;
Structure prediction by ZEFSAII (Michael W. Deem and Ramdas Pophale) SiO2 
 PCOD8164190
Probable space group: I 2 2 2
;
_chemical_formula_sum "Si O2"
_cell_formula_units_Z 48
_cell_length_a 9.722411
_cell_length_b 26.918040
_cell_length_c 8.940526
_cell_angle_alpha 90.000000
_cell_angle_beta 90.000000
_cell_angle_gamma 90.000000
_cell_volume 2339.809397
_symmetry_space_group_name_H-M "I 2 2 2"
_symmetry_group_IT_number 23
_symmetry_cell_setting 'orthorhombic'
loop_
_space_group_symop_operation_xyz
x,y,z
-x,-y,z
x,-y,-z
-x,y,-z
1/2+x,1/2+y,1/2+z
1/2-x,1/2-y,1/2+z
1/2+x,1/2-y,1/2-z
1/2-x,1/2+y,1/2-z
loop_
_atom_site_type_symbol
_atom_site_label
_atom_site_fract_x
_atom_site_fract_y
_atom_site_fract_z
Si Si1 0.887683 0.032444 0.650500
Si Si2 0.041007 0.853329 0.661463
Si Si3 0.069320 0.454164 0.836094
Si Si4 0.235413 0.293824 0.674131
Si Si5 0.515380 0.139081 0.162697
Si Si6 0.293733 0.309179 0.335427
O O1 0.949146 0.087612 0.641916
O O2 0.730142 0.036947 0.697056
O O3 0.881055 0.000000 0.500000
O O4 0.000000 0.000000 0.750623
O O5 0.185366 0.830286 0.712642
O O6 0.000000 0.830466 0.500000
O O7 0.930509 0.837831 0.786300
O O8 0.032714 0.399986 0.782575
O O9 0.000000 0.500000 0.745650
O O10 0.000000 0.455915 0.000000
O O11 0.077699 0.311412 0.667322
O O12 0.304572 0.294658 0.509920
O O13 0.235506 0.238461 0.734569
O O14 0.671436 0.152711 0.196818
O O15 0.500000 0.114187 0.000000
#
# Coordination Sequence:
#
# PCOD8164190 Si02
#       6
#     8   8   8   8   8   8
#     4  11  22  40  63  99 135 170 231 291 330 403
#     4  12  24  39  68  99 136 184 224 282 351 405
#     4  11  23  38  67  95 126 165 224 272 332 393
#     4  11  23  46  64  99 136 177 232 285 347 422
#     4  10  24  42  63  92 131 170 214 274 339 402
#     4  11  25  41  70  95 135 178 228 284 350 419
#
# _framework density 20.514491
#
# number of rings (size 3 to 8) (size 9 to 14) (size 15 to 20)
#    0.000    1.000    5.000    2.500    4.667    3.000 
#    0.000    0.000    0.000    2.000    0.000    0.000 
#    0.000    0.000    0.000    0.000    0.000    0.000 
#
# Total GULP energy -297322.787294 kJ/mol
# GULP energy per Si atom -12388.449471 kJ/mol
# Density = 2.046780 g / cm^3
# Si number density = 20.514491 Si / 1000 Ang^3
#
#
#
# Elastic Constant Matrix: (Units=GPa)
#
#
# Indices 1 2 3 4 5 6 
#
# 1 96.9503 32.0029 22.4693 -0.0026 -0.0042 0.1383
# 2 32.0029 126.2822 36.7097 -0.0095 -0.0011 0.0744
# 3 22.4693 36.7097 81.1369 0.0257 -0.0128 0.4644
# 4 -0.0026 -0.0095 0.0257 18.2295 -0.0004 0.2277
# 5 -0.0042 -0.0011 -0.0128 -0.0004 20.5466 0.0415
# 6 0.1383 0.0744 0.4644 0.2277 0.0415 322.0738
#
#
#
# Elastic Compliance Matrix: (Units=1/GPa)
#
#
# Indices 1 2 3 4 5 6 
#
# 1 0.011577 -0.002305 -0.002163 0.000004 0.000001 -0.000001
# 2 -0.002305 0.009577 -0.003695 0.000010 -0.000002 0.000004
# 3 -0.002163 -0.003695 0.014596 -0.000023 0.000008 -0.000019
# 4 0.000004 0.000010 -0.000023 0.054857 0.000001 -0.000039
# 5 0.000001 -0.000002 0.000008 0.000001 0.048670 -0.000006
# 6 -0.000001 0.000004 -0.000019 -0.000039 -0.000006 0.003105
#
#
# Mechanical properties :
#
#
# Convention : Reuss Voigt Hill
#
# Bulk Modulus (GPa) = 51.48340 54.08149 52.78245
# Shear Modulus (GPa) = 30.26982 86.38247 58.32614
#
# Velocity S-wave (km/s) = 3.84543 6.49611 5.33792
# Velocity P-wave (km/s) = 6.69829 9.09317 7.98601
#
# Compressibility (1/GPa) = 0.01942374
#
# Stress axis : x y z
#
# Youngs Moduli (GPa) = 86.37995 104.41729 68.51367
#
# Poissons Ratio (x) = 0.24069 0.14820
# Poissons Ratio (y) = 0.19911 0.25314
# Poissons Ratio (z) = 0.18684 0.38579
#
# Static dielectric constant tensor:
#      x y z
#    x 3.395720 0.000010 0.000850 
#    y 0.000010 3.857250 -0.000060 
#    z 0.000850 -0.000060 3.260530 
# 
# 
# High freq. dielectric constant tensor:
#      x y z
#    x 1.826200 0.000000 0.000000 
#    y 0.000000 1.816070 0.000000 
#    z 0.000000 0.000000 1.778300 
# 
# From -- ./inp_files/7322.got.cif
#   From: 2010.03.12/outbox.cif.g09.slc.cpg/sg23_4_cif.got.tgz:7322.got - 2010.04.14 02:50:06.
