data_PCOD8164977
_publ_section_title
;
Structure prediction by ZEFSAII (Michael W. Deem and Ramdas Pophale) SiO2 
 PCOD8164977
Probable space group: I 21 21 21
;
_chemical_formula_sum "Si O2"
_cell_formula_units_Z 48
_cell_length_a 12.560697
_cell_length_b 13.645424
_cell_length_c 14.105301
_cell_angle_alpha 90.000000
_cell_angle_beta 90.000000
_cell_angle_gamma 90.000000
_cell_volume 2417.592682
_symmetry_space_group_name_H-M "I 21 21 21"
_symmetry_group_IT_number 24
_symmetry_cell_setting 'orthorhombic'
loop_
_space_group_symop_operation_xyz
x,y,z
-x,1/2-y,z
x,-y,1/2-z
1/2-x,y,-z
1/2+x,1/2+y,1/2+z
1/2-x,-y,1/2+z
1/2+x,1/2-y,-z
-x,1/2+y,1/2-z
loop_
_atom_site_type_symbol
_atom_site_label
_atom_site_fract_x
_atom_site_fract_y
_atom_site_fract_z
Si Si1 0.750000 0.959225 0.500000
Si Si2 0.344026 0.420258 0.674854
Si Si3 0.053348 0.343950 0.912144
Si Si4 0.357317 0.189470 0.456018
Si Si5 0.883642 0.155781 0.703527
Si Si6 0.500000 0.750000 0.886249
Si Si7 0.570112 0.482254 0.352073
O O1 0.660001 0.887074 0.458683
O O2 0.687724 0.029580 0.574470
O O3 0.390032 0.500000 0.750000
O O4 0.236833 0.377153 0.718094
O O5 0.427189 0.328287 0.671010
O O6 0.079094 0.308125 0.805689
O O7 0.000000 0.250000 0.965711
O O8 0.956264 0.421004 0.910912
O O9 0.250000 0.232409 0.500000
O O10 0.398458 0.257489 0.371631
O O11 0.434467 0.179312 0.544945
O O12 0.346479 0.081085 0.412637
O O13 0.954274 0.066976 0.664247
O O14 0.624842 0.500000 0.250000
#
# Coordination Sequence:
#
# PCOD8164977 Si02
#       7
#     4   8   8   8   8   4   8
#     4  12  22  42  68  92 130 170 222 270 316 398
#     4  12  23  43  68  97 131 170 218 264 330 389
#     4  11  23  39  63  92 124 168 218 261 316 383
#     4  12  22  36  63  97 129 155 209 272 327 381
#     4  11  18  38  67  96 120 152 208 276 323 370
#     4  12  24  38  66 104 128 164 216 268 328 390
#     4  10  19  36  60  92 122 156 204 268 324 366
#
# _framework density 19.854461000000001
#
# number of rings (size 3 to 8) (size 9 to 14) (size 15 to 20)
#    0.000    0.667    6.667    4.500    0.000    0.000 
#    3.000    0.833    0.000    0.000    0.000    0.000 
#    0.000    0.000    0.000    0.000    0.000    0.000 
#
# Total GULP energy -297395.478045 kJ/mol
# GULP energy per Si atom -12391.478252 kJ/mol
# Density = 1.980927 g / cm^3
# Si number density = 19.854461 Si / 1000 Ang^3
#
#
#
# Elastic Constant Matrix: (Units=GPa)
#
#
# Indices 1 2 3 4 5 6 
#
# 1 54.3098 26.5773 17.3452 0.0000 0.0000 0.0000
# 2 26.5773 121.3721 39.4868 0.0002 0.0000 0.0000
# 3 17.3452 39.4868 78.8840 0.0003 0.0000 0.0000
# 4 0.0000 0.0002 0.0003 1479.0998 0.0001 0.0000
# 5 0.0000 0.0000 0.0000 0.0001 18.6561 0.0000
# 6 0.0000 0.0000 0.0000 0.0000 0.0000 38.7228
#
#
#
# Elastic Compliance Matrix: (Units=1/GPa)
#
#
# Indices 1 2 3 4 5 6 
#
# 1 0.021122 -0.003720 -0.002782 0.000000 0.000000 0.000000
# 2 -0.003720 0.010497 -0.004437 0.000000 0.000000 0.000000
# 3 -0.002782 -0.004437 0.015509 0.000000 0.000000 0.000000
# 4 0.000000 0.000000 0.000000 0.000676 0.000000 0.000000
# 5 0.000000 0.000000 0.000000 0.000000 0.053602 0.000000
# 6 0.000000 0.000000 0.000000 0.000000 0.000000 0.025825
#
#
# Mechanical properties :
#
#
# Convention : Reuss Voigt Hill
#
# Bulk Modulus (GPa) = 39.60265 46.82052 43.21158
# Shear Modulus (GPa) = 31.74093 318.70617 175.22355
#
# Velocity S-wave (km/s) = 4.00269 12.68344 9.40455
# Velocity P-wave (km/s) = 6.43054 15.43133 11.82112
#
# Compressibility (1/GPa) = 0.02525084
#
# Stress axis : x y z
#
# Youngs Moduli (GPa) = 47.34429 95.26464 64.47700
#
# Poissons Ratio (x) = 0.35438 0.17939
# Poissons Ratio (y) = 0.17612 0.28605
# Poissons Ratio (z) = 0.13172 0.42265
#
# Static dielectric constant tensor:
#      x y z
#    x -5.329570 0.000000 0.000000 
#    y 0.000000 3.813530 0.000000 
#    z 0.000000 0.000000 3.744660 
# 
# 
# High freq. dielectric constant tensor:
#      x y z
#    x 1.759820 0.000000 0.000000 
#    y 0.000000 1.781750 0.000000 
#    z 0.000000 0.000000 1.763530 
# 
# From -- ./inp_files/20763.got.cif
#   From: 2010.03.12/outbox.cif.g09.slc.cpg/sg24_11_cif.got.tgz:20763.got - 2010.04.14 03:06:53.
