data_PCOD8164507
_publ_section_title
;
Structure prediction by ZEFSAII (Michael W. Deem and Ramdas Pophale) SiO2 
 PCOD8164507
Probable space group: I 2 2 2
;
_chemical_formula_sum "Si O2"
_cell_formula_units_Z 36
_cell_length_a 18.437530
_cell_length_b 6.944002
_cell_length_c 13.233367
_cell_angle_alpha 90.000000
_cell_angle_beta 90.000000
_cell_angle_gamma 90.000000
_cell_volume 1694.271222
_symmetry_space_group_name_H-M "I 2 2 2"
_symmetry_group_IT_number 23
_symmetry_cell_setting 'orthorhombic'
loop_
_space_group_symop_operation_xyz
x,y,z
-x,-y,z
x,-y,-z
-x,y,-z
1/2+x,1/2+y,1/2+z
1/2-x,1/2-y,1/2+z
1/2+x,1/2-y,1/2-z
1/2-x,1/2+y,1/2-z
loop_
_atom_site_type_symbol
_atom_site_label
_atom_site_fract_x
_atom_site_fract_y
_atom_site_fract_z
Si Si1 0.000000 0.500000 0.000000
Si Si2 0.407719 0.184338 0.669338
Si Si3 0.500000 0.000000 0.000000
Si Si4 0.975221 0.208931 0.335514
Si Si5 0.830716 0.315435 0.245222
Si Si6 0.787385 0.023467 0.881975
O O1 0.952077 0.359459 0.931748
O O2 0.461589 0.205952 0.764340
O O3 0.363029 0.376741 0.647848
O O4 0.352297 0.012769 0.691359
O O5 0.544342 0.855152 0.072668
O O6 0.900921 0.189791 0.274575
O O7 0.000000 0.000000 0.376188
O O8 0.780779 0.354512 0.342183
O O9 0.785347 0.189311 0.165825
O O10 0.778171 0.000000 0.000000
#
# Coordination Sequence:
#
# PCOD8164507 Si02
#       6
#     2   8   2   8   8   8
#     4  12  22  40  78 106 140 186 240 288 366 422
#     4  12  24  45  70 105 144 183 238 306 352 424
#     4  12  24  44  68 104 140 180 252 290 372 428
#     4  12  25  44  73 103 141 191 243 306 361 421
#     4  12  24  49  68 103 149 186 241 303 356 434
#     4  12  28  45  74 103 144 196 239 290 378 439
#
# _framework density 21.248073999999999
#
# number of rings (size 3 to 8) (size 9 to 14) (size 15 to 20)
#    0.000    0.000    8.889    1.667    1.556    0.000 
#    0.000    0.000    0.000    0.000    0.000    0.000 
#    0.000    0.000    0.000    0.000    0.000    0.000 
#
# Total GULP energy -223232.375265 kJ/mol
# GULP energy per Si atom -12401.798626 kJ/mol
# Density = 2.119971 g / cm^3
# Si number density = 21.248074 Si / 1000 Ang^3
#
#
#
# Elastic Constant Matrix: (Units=GPa)
#
#
# Indices 1 2 3 4 5 6 
#
# 1 98.5841 41.7786 48.0069 0.0000 0.0000 0.0000
# 2 41.7786 127.5544 68.1732 0.0000 0.0000 0.0000
# 3 48.0069 68.1732 148.9059 0.0000 0.0000 0.0000
# 4 0.0000 0.0000 0.0000 40.0907 0.0000 0.0000
# 5 0.0000 0.0000 0.0000 0.0000 27.7137 0.0000
# 6 0.0000 0.0000 0.0000 0.0000 0.0000 27.9115
#
#
#
# Elastic Compliance Matrix: (Units=1/GPa)
#
#
# Indices 1 2 3 4 5 6 
#
# 1 0.012652 -0.002600 -0.002889 0.000000 0.000000 0.000000
# 2 -0.002600 0.010914 -0.004158 0.000000 0.000000 0.000000
# 3 -0.002889 -0.004158 0.009551 0.000000 0.000000 0.000000
# 4 0.000000 0.000000 0.000000 0.024943 0.000000 0.000000
# 5 0.000000 0.000000 0.000000 0.000000 0.036083 0.000000
# 6 0.000000 0.000000 0.000000 0.000000 0.000000 0.035828
#
#
# Mechanical properties :
#
#
# Convention : Reuss Voigt Hill
#
# Bulk Modulus (GPa) = 72.34577 76.77355 74.55966
# Shear Modulus (GPa) = 32.49432 33.61556 33.05494
#
# Velocity S-wave (km/s) = 3.91485 3.98182 3.94847
# Velocity P-wave (km/s) = 7.38626 7.57300 7.48021
#
# Compressibility (1/GPa) = 0.01382251
#
# Stress axis : x y z
#
# Youngs Moduli (GPa) = 79.03769 91.62568 104.70364
#
# Poissons Ratio (x) = 0.23824 0.30245
# Poissons Ratio (y) = 0.20551 0.43540
# Poissons Ratio (z) = 0.22831 0.38102
#
# Static dielectric constant tensor:
#      x y z
#    x 3.864680 0.000000 0.000000 
#    y 0.000000 4.240650 0.000000 
#    z 0.000000 0.000000 3.811610 
# 
# 
# High freq. dielectric constant tensor:
#      x y z
#    x 1.830790 0.000000 0.000000 
#    y 0.000000 1.849420 0.000000 
#    z 0.000000 0.000000 1.835640 
# 
# From -- ./inp_files/18201.got.cif
#   From: 2010.03.12/outbox.cif.g09.slc.cpg/sg23_10_cif.got.tgz:18201.got - 2010.04.14 02:50:06.
