data_PCOD8164300
_publ_section_title
;
Structure prediction by ZEFSAII (Michael W. Deem and Ramdas Pophale) SiO2 
 PCOD8164300
Probable space group: I 2 2 2
;
_chemical_formula_sum "Si O2"
_cell_formula_units_Z 64
_cell_length_a 18.604364
_cell_length_b 9.699024
_cell_length_c 18.545439
_cell_angle_alpha 90.000000
_cell_angle_beta 90.000000
_cell_angle_gamma 90.000000
_cell_volume 3346.416402
_symmetry_space_group_name_H-M "I 2 2 2"
_symmetry_group_IT_number 23
_symmetry_cell_setting 'orthorhombic'
loop_
_space_group_symop_operation_xyz
x,y,z
-x,-y,z
x,-y,-z
-x,y,-z
1/2+x,1/2+y,1/2+z
1/2-x,1/2-y,1/2+z
1/2+x,1/2-y,1/2-z
1/2-x,1/2+y,1/2-z
loop_
_atom_site_type_symbol
_atom_site_label
_atom_site_fract_x
_atom_site_fract_y
_atom_site_fract_z
Si Si1 0.702323 0.216708 0.683275
Si Si2 0.411763 0.405639 0.732200
Si Si3 0.062770 0.885874 0.608211
Si Si4 0.239625 0.030622 0.191902
Si Si5 0.448616 0.714797 0.722675
Si Si6 0.030863 0.350022 0.626640
Si Si7 0.213953 0.869801 0.541151
Si Si8 0.322532 0.881202 0.946055
O O1 0.713241 0.104331 0.746431
O O2 0.734178 0.366016 0.706852
O O3 0.615166 0.229096 0.670847
O O4 0.738561 0.161984 0.611085
O O5 0.407178 0.345990 0.812636
O O6 0.337524 0.393563 0.689922
O O7 0.427262 0.564615 0.751207
O O8 0.472646 0.318662 0.686593
O O9 0.132069 0.914993 0.559620
O O10 0.024718 0.745514 0.583007
O O11 0.000000 0.000000 0.604091
O O12 0.270340 0.052874 0.112953
O O13 0.460047 0.816995 0.789046
O O14 0.107763 0.322089 0.592095
O O15 0.000000 0.500000 0.616882
O O16 0.217979 0.739726 0.488383
O O17 0.248815 0.000000 0.500000
O O18 0.346347 0.000000 0.000000
#
# Coordination Sequence:
#
# PCOD8164300 Si02
#       8
#     8   8   8   8   8   8   8   8
#     4  11  23  40  64  92 119 164 208 258 304 365
#     4   9  17  35  63  88 112 151 203 259 295 354
#     4  11  20  37  57  85 120 164 214 241 286 363
#     4  11  23  38  66  89 122 160 210 256 309 358
#     4   9  18  36  60  88 118 146 202 258 304 347
#     4  11  22  33  57  84 122 166 198 239 300 368
#     4  12  27  39  60  89 128 168 211 248 304 365
#     4  12  25  43  54  86 131 168 200 251 304 366
#
# _framework density 19.124935000000001
#
# number of rings (size 3 to 8) (size 9 to 14) (size 15 to 20)
#    0.000    1.250    6.250    1.500    1.750    3.000 
#    0.000    0.000    0.000    0.750    0.000    0.875 
#    0.000    0.000    0.000    0.000    0.000    0.000 
#
# Total GULP energy -396499.955762 kJ/mol
# GULP energy per Si atom -12390.623618 kJ/mol
# Density = 1.908141 g / cm^3
# Si number density = 19.124935 Si / 1000 Ang^3
#
#
#
# Elastic Constant Matrix: (Units=GPa)
#
#
# Indices 1 2 3 4 5 6 
#
# 1 96.3189 26.2359 31.8692 0.0000 0.0000 0.0000
# 2 26.2359 91.5793 30.3295 0.0000 0.0000 0.0000
# 3 31.8692 30.3295 61.5932 0.0000 0.0000 0.0000
# 4 0.0000 0.0000 0.0000 31.1660 0.0000 0.0000
# 5 0.0000 0.0000 0.0000 0.0000 23.2615 0.0000
# 6 0.0000 0.0000 0.0000 0.0000 0.0000 24.9163
#
#
#
# Elastic Compliance Matrix: (Units=1/GPa)
#
#
# Indices 1 2 3 4 5 6 
#
# 1 0.012759 -0.001755 -0.005737 0.000000 0.000000 0.000000
# 2 -0.001755 0.013289 -0.005635 0.000000 0.000000 0.000000
# 3 -0.005737 -0.005635 0.021979 0.000000 0.000000 0.000000
# 4 0.000000 0.000000 0.000000 0.032086 0.000000 0.000000
# 5 0.000000 0.000000 0.000000 0.000000 0.042989 0.000000
# 6 0.000000 0.000000 0.000000 0.000000 0.000000 0.040134
#
#
# Mechanical properties :
#
#
# Convention : Reuss Voigt Hill
#
# Bulk Modulus (GPa) = 45.93313 47.37341 46.65327
# Shear Modulus (GPa) = 25.41315 26.60590 26.00952
#
# Velocity S-wave (km/s) = 3.64922 3.73388 3.69179
# Velocity P-wave (km/s) = 6.46725 6.58888 6.52835
#
# Compressibility (1/GPa) = 0.02177078
#
# Stress axis : x y z
#
# Youngs Moduli (GPa) = 78.37911 75.25212 45.49784
#
# Poissons Ratio (x) = 0.13207 0.26103
# Poissons Ratio (y) = 0.13756 0.25640
# Poissons Ratio (z) = 0.44968 0.42408
#
# Static dielectric constant tensor:
#      x y z
#    x 3.844590 0.000000 0.000000 
#    y 0.000000 3.589240 0.000000 
#    z 0.000000 0.000000 3.272110 
# 
# 
# High freq. dielectric constant tensor:
#      x y z
#    x 1.748480 0.000000 0.000000 
#    y 0.000000 1.752640 0.000000 
#    z 0.000000 0.000000 1.712060 
# 
# From -- ./inp_files/25269.got.cif
#   From: 2010.03.12/outbox.cif.g09.slc.cpg/sg23_13_cif.got.tgz:25269.got - 2010.04.14 02:50:06.
