data_PCOD8164656
_publ_section_title
;
Structure prediction by ZEFSAII (Michael W. Deem and Ramdas Pophale) SiO2 
 PCOD8164656
Probable space group: I 21 21 21
;
_chemical_formula_sum "Si O2"
_cell_formula_units_Z 40
_cell_length_a 9.489347
_cell_length_b 8.469861
_cell_length_c 23.879893
_cell_angle_alpha 90.000000
_cell_angle_beta 90.000000
_cell_angle_gamma 90.000000
_cell_volume 1919.309388
_symmetry_space_group_name_H-M "I 21 21 21"
_symmetry_group_IT_number 24
_symmetry_cell_setting 'orthorhombic'
loop_
_space_group_symop_operation_xyz
x,y,z
-x,1/2-y,z
x,-y,1/2-z
1/2-x,y,-z
1/2+x,1/2+y,1/2+z
1/2-x,-y,1/2+z
1/2+x,1/2-y,-z
-x,1/2+y,1/2-z
loop_
_atom_site_type_symbol
_atom_site_label
_atom_site_fract_x
_atom_site_fract_y
_atom_site_fract_z
Si Si1 0.715363 0.549037 0.080012
Si Si2 0.312238 0.079615 0.808570
Si Si3 0.531595 0.431744 0.989478
Si Si4 0.144932 0.435510 0.189803
Si Si5 0.135644 0.644756 0.088357
O O1 0.716557 0.510257 0.145842
O O2 0.743607 0.734287 0.068636
O O3 0.836683 0.442261 0.052248
O O4 0.567395 0.507293 0.050270
O O5 0.280393 0.265519 0.812639
O O6 0.477674 0.062647 0.819613
O O7 0.269626 0.000000 0.750000
O O8 0.500000 0.250000 0.998260
O O9 0.400241 0.525765 0.962488
O O10 0.187118 0.500000 0.250000
O O11 0.201143 0.548224 0.140553
O O12 0.000000 0.750000 0.106948
#
# Coordination Sequence:
#
# PCOD8164656 Si02
#       5
#     8   8   8   8   8
#     4  10  20  34  53  79 109 142 176 220 272 317
#     4  10  18  29  48  75 109 142 179 216 267 329
#     4  10  20  36  54  77 107 142 184 221 262 320
#     4  10  18  26  47  75 109 147 169 208 278 333
#     4  10  18  32  50  73 113 141 176 219 261 325
#
# _framework density 20.840827999999998
#
# number of rings (size 3 to 8) (size 9 to 14) (size 15 to 20)
#    0.000    2.000    4.000    2.400    2.800    0.000 
#    0.000   22.000    0.000    0.000    0.000    8.400 
#    0.000    0.000    0.000    0.200    0.000    0.000 
#
# Total GULP energy -247955.939719 kJ/mol
# GULP energy per Si atom -12397.796986 kJ/mol
# Density = 2.079339 g / cm^3
# Si number density = 20.840828 Si / 1000 Ang^3
#
#
#
# Elastic Constant Matrix: (Units=GPa)
#
#
# Indices 1 2 3 4 5 6 
#
# 1 19.1572 40.1125 38.8674 0.0000 0.0000 0.0000
# 2 40.1125 194.2135 81.5243 0.0000 0.0000 0.0000
# 3 38.8674 81.5243 166.4758 0.0000 0.0000 0.0000
# 4 0.0000 0.0000 0.0000 39.8215 0.0000 0.0000
# 5 0.0000 0.0000 0.0000 0.0000 8.1230 0.0000
# 6 0.0000 0.0000 0.0000 0.0000 0.0000 15.1115
#
#
#
# Elastic Compliance Matrix: (Units=1/GPa)
#
#
# Indices 1 2 3 4 5 6 
#
# 1 0.138832 -0.018967 -0.023125 0.000000 0.000000 0.000000
# 2 -0.018967 0.009072 -0.000015 0.000000 0.000000 0.000000
# 3 -0.023125 -0.000015 0.011413 0.000000 0.000000 0.000000
# 4 0.000000 0.000000 0.000000 0.025112 0.000000 0.000000
# 5 0.000000 0.000000 0.000000 0.000000 0.123107 0.000000
# 6 0.000000 0.000000 0.000000 0.000000 0.000000 0.066175
#
#
# Mechanical properties :
#
#
# Convention : Reuss Voigt Hill
#
# Bulk Modulus (GPa) = 13.31486 77.87275 45.59380
# Shear Modulus (GPa) = 10.35286 27.23403 18.79344
#
# Velocity S-wave (km/s) = 2.23123 3.61884 3.00619
# Velocity P-wave (km/s) = 3.61117 7.40999 5.82874
#
# Compressibility (1/GPa) = 0.07510405
#
# Stress axis : x y z
#
# Youngs Moduli (GPa) = 7.20297 110.22334 87.61859
#
# Poissons Ratio (x) = 2.09059 2.02619
# Poissons Ratio (y) = 0.13662 0.00128
# Poissons Ratio (z) = 0.16657 0.00161
#
# Static dielectric constant tensor:
#      x y z
#    x 3.148950 0.000000 0.000000 
#    y 0.000000 3.983680 0.000000 
#    z 0.000000 0.000000 3.926290 
# 
# 
# High freq. dielectric constant tensor:
#      x y z
#    x 1.735660 0.000000 0.000000 
#    y 0.000000 1.836040 0.000000 
#    z 0.000000 0.000000 1.824970 
# 
# From -- ./inp_files/9293.got.cif
#   From: 2010.03.12/outbox.cif.g09.slc.cpg/sg24_5_cif.got.tgz:9293.got - 2010.04.14 03:06:53.
