data_PCOD8164870
_publ_section_title
;
Structure prediction by ZEFSAII (Michael W. Deem and Ramdas Pophale) SiO2 
 PCOD8164870
Probable space group: I 21 21 21
;
_chemical_formula_sum "Si O2"
_cell_formula_units_Z 64
_cell_length_a 16.533471
_cell_length_b 21.795221
_cell_length_c 8.934760
_cell_angle_alpha 90.000000
_cell_angle_beta 90.000000
_cell_angle_gamma 90.000000
_cell_volume 3219.646612
_symmetry_space_group_name_H-M "I 21 21 21"
_symmetry_group_IT_number 24
_symmetry_cell_setting 'orthorhombic'
loop_
_space_group_symop_operation_xyz
x,y,z
-x,1/2-y,z
x,-y,1/2-z
1/2-x,y,-z
1/2+x,1/2+y,1/2+z
1/2-x,-y,1/2+z
1/2+x,1/2-y,-z
-x,1/2+y,1/2-z
loop_
_atom_site_type_symbol
_atom_site_label
_atom_site_fract_x
_atom_site_fract_y
_atom_site_fract_z
Si Si1 0.933367 0.909175 0.951488
Si Si2 0.742690 0.743839 0.822736
Si Si3 0.102135 0.546435 0.552299
Si Si4 0.120489 0.607177 0.263406
Si Si5 0.671514 0.670012 0.403062
Si Si6 0.556676 0.568988 0.281642
Si Si7 0.093898 0.741415 0.359082
Si Si8 0.704173 0.871837 0.239528
O O1 0.864595 0.864320 0.887360
O O2 0.021691 0.901886 0.874257
O O3 0.894373 0.975009 0.903880
O O4 0.944190 0.896613 0.127739
O O5 0.799864 0.690112 0.762552
O O6 0.648579 0.732290 0.777987
O O7 0.774018 0.801548 0.723547
O O8 0.750000 0.752288 0.000000
O O9 0.106250 0.550009 0.372900
O O10 0.174282 0.587462 0.620762
O O11 0.016743 0.572243 0.603451
O O12 0.109351 0.668088 0.366062
O O13 0.209380 0.600118 0.187683
O O14 0.750000 0.653163 0.500000
O O15 0.624228 0.607984 0.365649
O O16 0.617731 0.722182 0.487873
O O17 0.589094 0.500000 0.250000
O O18 0.000000 0.750000 0.321915
#
# Coordination Sequence:
#
# PCOD8164870 Si02
#       8
#     8   8   8   8   8   8   8   8
#     4  10  21  34  50  77 113 151 187 228 275 320
#     4  10  21  37  56  82 115 147 182 231 285 333
#     4  10  20  33  52  77 109 151 194 229 266 319
#     4  11  20  31  51  79 112 148 189 232 271 315
#     4  10  21  39  63  84 106 141 183 226 280 344
#     4   9  20  40  60  80 109 142 181 229 281 339
#     4  10  21  37  56  82 113 147 187 229 273 330
#     4  10  19  33  48  71 112 155 190 226 266 316
#
# _framework density 19.877956999999999
#
# number of rings (size 3 to 8) (size 9 to 14) (size 15 to 20)
#    0.000    2.000    0.000    5.250    0.000    7.000 
#    0.000    1.250    0.000    3.000    0.000    0.000 
#    0.000    0.000    0.000    0.000    0.000    0.000 
#
# Total GULP energy -396471.278661 kJ/mol
# GULP energy per Si atom -12389.727458 kJ/mol
# Density = 1.983271 g / cm^3
# Si number density = 19.877957 Si / 1000 Ang^3
#
#
#
# Elastic Constant Matrix: (Units=GPa)
#
#
# Indices 1 2 3 4 5 6 
#
# 1 108.0437 44.1690 30.1948 0.0000 0.0000 0.0000
# 2 44.1690 67.5100 23.8235 0.0000 0.0000 0.0000
# 3 30.1948 23.8235 95.2683 0.0000 0.0000 0.0000
# 4 0.0000 0.0000 0.0000 28.0946 0.0000 0.0000
# 5 0.0000 0.0000 0.0000 0.0000 17.0426 0.0000
# 6 0.0000 0.0000 0.0000 0.0000 0.0000 30.7624
#
#
#
# Elastic Compliance Matrix: (Units=1/GPa)
#
#
# Indices 1 2 3 4 5 6 
#
# 1 0.013040 -0.007757 -0.002193 0.000000 0.000000 0.000000
# 2 -0.007757 0.020861 -0.002758 0.000000 0.000000 0.000000
# 3 -0.002193 -0.002758 0.011881 0.000000 0.000000 0.000000
# 4 0.000000 0.000000 0.000000 0.035594 0.000000 0.000000
# 5 0.000000 0.000000 0.000000 0.000000 0.058676 0.000000
# 6 0.000000 0.000000 0.000000 0.000000 0.000000 0.032507
#
#
# Mechanical properties :
#
#
# Convention : Reuss Voigt Hill
#
# Bulk Modulus (GPa) = 49.10279 51.91075 50.50677
# Shear Modulus (GPa) = 24.41818 26.68890 25.55354
#
# Velocity S-wave (km/s) = 3.50866 3.66818 3.58931
# Velocity P-wave (km/s) = 6.41639 6.64170 6.53001
#
# Compressibility (1/GPa) = 0.02036544
#
# Stress axis : x y z
#
# Youngs Moduli (GPa) = 76.68892 47.93563 84.16505
#
# Poissons Ratio (x) = 0.37186 0.18457
# Poissons Ratio (y) = 0.59491 0.23213
# Poissons Ratio (z) = 0.16818 0.13221
#
# Static dielectric constant tensor:
#      x y z
#    x 3.534400 0.000000 0.000000 
#    y 0.000000 3.454760 0.000000 
#    z 0.000000 0.000000 3.510540 
# 
# 
# High freq. dielectric constant tensor:
#      x y z
#    x 1.760510 0.000000 0.000000 
#    y 0.000000 1.761900 0.000000 
#    z 0.000000 0.000000 1.775250 
# 
# From -- ./inp_files/13354.got.cif
#   From: 2010.03.12/outbox.cif.g09.slc.cpg/sg24_7_cif.got.tgz:13354.got - 2010.04.14 03:06:53.
