data_PCOD8164328
_publ_section_title
;
Structure prediction by ZEFSAII (Michael W. Deem and Ramdas Pophale) SiO2 
 PCOD8164328
Probable space group: I 2 2 2
;
_chemical_formula_sum "Si O2"
_cell_formula_units_Z 40
_cell_length_a 10.857178
_cell_length_b 20.157267
_cell_length_c 8.162161
_cell_angle_alpha 90.000000
_cell_angle_beta 90.000000
_cell_angle_gamma 90.000000
_cell_volume 1786.297389
_symmetry_space_group_name_H-M "I 2 2 2"
_symmetry_group_IT_number 23
_symmetry_cell_setting 'orthorhombic'
loop_
_space_group_symop_operation_xyz
x,y,z
-x,-y,z
x,-y,-z
-x,y,-z
1/2+x,1/2+y,1/2+z
1/2-x,1/2-y,1/2+z
1/2+x,1/2-y,1/2-z
1/2-x,1/2+y,1/2-z
loop_
_atom_site_type_symbol
_atom_site_label
_atom_site_fract_x
_atom_site_fract_y
_atom_site_fract_z
Si Si1 0.500000 0.114972 0.000000
Si Si2 0.643545 0.814748 0.452129
Si Si3 0.777208 0.686769 0.584686
Si Si4 0.754224 0.444523 0.890349
Si Si5 0.640197 0.568931 0.454210
Si Si6 0.000000 0.500000 0.253933
O O1 0.384444 0.162897 0.957814
O O2 0.464934 0.066848 0.148770
O O3 0.500000 0.816157 0.500000
O O4 0.713136 0.754719 0.539312
O O5 0.656493 0.805675 0.258593
O O6 0.714463 0.880453 0.503618
O O7 0.677649 0.628450 0.574194
O O8 0.670849 0.419696 0.737560
O O9 0.880406 0.482342 0.848393
O O10 0.681049 0.500000 0.000000
O O11 0.710785 0.500000 0.500000
O O12 0.500000 0.559154 0.500000
#
# Coordination Sequence:
#
# PCOD8164328 Si02
#       6
#     4   8   8   8   8   4
#     4  11  22  40  72 108 139 188 240 300 365 430
#     4  12  28  47  70 104 151 192 249 310 377 451
#     4  12  26  46  71 103 145 196 244 299 373 451
#     4  12  23  43  72 112 142 189 245 314 374 435
#     4  11  24  46  70 102 146 189 240 298 369 453
#     4  11  21  38  76 110 146 178 240 322 364 428
#
# _framework density 22.392689000000001
#
# number of rings (size 3 to 8) (size 9 to 14) (size 15 to 20)
#    0.000    0.400    2.000    8.100    2.800    0.000 
#    0.000    6.000    0.000    0.000    0.000    0.000 
#    0.000    0.000    0.000    0.000    0.000    0.000 
#
# Total GULP energy -247886.532790 kJ/mol
# GULP energy per Si atom -12394.326639 kJ/mol
# Density = 2.234172 g / cm^3
# Si number density = 22.392689 Si / 1000 Ang^3
#
#
#
# Elastic Constant Matrix: (Units=GPa)
#
#
# Indices 1 2 3 4 5 6 
#
# 1 89.8725 45.7698 30.5067 -0.0002 -0.0002 0.0002
# 2 45.7698 176.7290 43.4780 0.0010 0.0005 -0.0004
# 3 30.5067 43.4780 93.7070 -0.0010 0.0022 0.0000
# 4 -0.0002 0.0010 -0.0010 -5.4820 0.0009 -0.0017
# 5 -0.0002 0.0005 0.0022 0.0009 23.6032 -0.0011
# 6 0.0002 -0.0004 0.0000 -0.0017 -0.0011 20.2795
#
#
#
# Elastic Compliance Matrix: (Units=1/GPa)
#
#
# Indices 1 2 3 4 5 6 
#
# 1 0.013595 -0.002745 -0.003152 0.000000 0.000000 0.000000
# 2 -0.002745 0.006942 -0.002327 0.000002 0.000000 0.000000
# 3 -0.003152 -0.002327 0.012777 -0.000003 -0.000001 0.000000
# 4 0.000000 0.000002 -0.000003 -0.182415 0.000007 -0.000015
# 5 0.000000 0.000000 -0.000001 0.000007 0.042367 0.000002
# 6 0.000000 0.000000 0.000000 -0.000015 0.000002 0.049311
#
#
# Mechanical properties :
#
#
# Convention : Reuss Voigt Hill
#
# Bulk Modulus (GPa) = 59.29391 66.64638 62.97014
# Shear Modulus (GPa) = -141.43608 23.71706 -58.85951
#
# Velocity S-wave (km/s) = -7.95606 3.25798 -5.13247
# Velocity P-wave (km/s) = 7.60670 6.63172 2.63459
#
# Compressibility (1/GPa) = 0.01686514
#
# Stress axis : x y z
#
# Youngs Moduli (GPa) = 73.55642 144.05274 78.26279
#
# Poissons Ratio (x) = 0.39548 0.24669
# Poissons Ratio (y) = 0.20194 0.18213
# Poissons Ratio (z) = 0.23186 0.33523
#
# Static dielectric constant tensor:
#      x y z
#    x 4.013270 0.000000 0.000000 
#    y 0.000000 4.486000 0.000000 
#    z 0.000000 0.000000 4.303320 
# 
# 
# High freq. dielectric constant tensor:
#      x y z
#    x 1.874260 0.000000 0.000000 
#    y 0.000000 1.906120 0.000000 
#    z 0.000000 0.000000 1.885820 
# 
# From -- ./inp_files/8499.got.cif
#   From: 2010.03.12/outbox.cif.g09.slc.cpg/sg23_5_cif.got.tgz:8499.got - 2010.04.14 02:50:06.
