data_PCOD8164873
_publ_section_title
;
Structure prediction by ZEFSAII (Michael W. Deem and Ramdas Pophale) SiO2 
 PCOD8164873
Probable space group: I 21 21 21
;
_chemical_formula_sum "Si O2"
_cell_formula_units_Z 36
_cell_length_a 5.127127
_cell_length_b 26.165571
_cell_length_c 12.675766
_cell_angle_alpha 90.000000
_cell_angle_beta 90.000000
_cell_angle_gamma 90.000000
_cell_volume 1700.507317
_symmetry_space_group_name_H-M "I 21 21 21"
_symmetry_group_IT_number 24
_symmetry_cell_setting 'orthorhombic'
loop_
_space_group_symop_operation_xyz
x,y,z
-x,1/2-y,z
x,-y,1/2-z
1/2-x,y,-z
1/2+x,1/2+y,1/2+z
1/2-x,-y,1/2+z
1/2+x,1/2-y,-z
-x,1/2+y,1/2-z
loop_
_atom_site_type_symbol
_atom_site_label
_atom_site_fract_x
_atom_site_fract_y
_atom_site_fract_z
Si Si1 0.833629 0.433942 0.643236
Si Si2 0.147905 0.370322 0.339578
Si Si3 0.250000 0.283707 0.500000
Si Si4 0.846122 0.454101 0.878427
Si Si5 0.143417 0.392478 0.103001
O O1 0.602544 0.396478 0.603284
O O2 0.744556 0.448650 0.759979
O O3 0.844459 0.487404 0.580084
O O4 0.107908 0.405888 0.636190
O O5 0.189666 0.316208 0.394983
O O6 0.108321 0.360584 0.212188
O O7 0.500000 0.250000 0.472202
O O8 0.619650 0.421155 0.939059
O O9 0.141703 0.435653 0.878922
O O10 0.250000 0.359549 0.000000
#
# Coordination Sequence:
#
# PCOD8164873 Si02
#       5
#     8   8   4   8   8
#     4   9  17  33  53  78 114 148 194 223 259 315
#     4  10  21  38  59  80 105 144 183 235 286 334
#     4  12  26  46  66  84 104 134 190 250 310 348
#     4   9  17  30  50  77 117 161 187 220 245 305
#     4  10  19  33  52  82 117 151 187 211 267 328
#
# _framework density 21.170152000000002
#
# number of rings (size 3 to 8) (size 9 to 14) (size 15 to 20)
#    0.000    2.222    0.000    3.333    0.000    5.333 
#   12.000    0.000    0.000    1.333    0.000    0.000 
#    0.000    0.000    0.000    0.000    0.000    0.000 
#
# Total GULP energy -222987.925761 kJ/mol
# GULP energy per Si atom -12388.218098 kJ/mol
# Density = 2.112197 g / cm^3
# Si number density = 21.170152 Si / 1000 Ang^3
#
#
#
# Elastic Constant Matrix: (Units=GPa)
#
#
# Indices 1 2 3 4 5 6 
#
# 1 145.9043 39.6210 24.8996 0.0000 0.0000 0.0000
# 2 39.6210 90.7912 32.5627 0.0000 0.0000 0.0000
# 3 24.8996 32.5627 86.5383 0.0001 0.0000 0.0000
# 4 0.0000 0.0000 0.0001 -25.1140 0.0000 0.0000
# 5 0.0000 0.0000 0.0000 0.0000 23.9919 0.0000
# 6 0.0000 0.0000 0.0000 0.0000 0.0000 34.0294
#
#
#
# Elastic Compliance Matrix: (Units=1/GPa)
#
#
# Indices 1 2 3 4 5 6 
#
# 1 0.007869 -0.003031 -0.001124 0.000000 0.000000 0.000000
# 2 -0.003031 0.013900 -0.004358 0.000000 0.000000 0.000000
# 3 -0.001124 -0.004358 0.013519 0.000000 0.000000 0.000000
# 4 0.000000 0.000000 0.000000 -0.039818 0.000000 0.000000
# 5 0.000000 0.000000 0.000000 0.000000 0.041681 0.000000
# 6 0.000000 0.000000 0.000000 0.000000 0.000000 0.029386
#
#
# Mechanical properties :
#
#
# Convention : Reuss Voigt Hill
#
# Bulk Modulus (GPa) = 54.75835 57.48896 56.12366
# Shear Modulus (GPa) = 55.77321 21.65817 38.71569
#
# Velocity S-wave (km/s) = 5.13833 3.20199 4.28107
# Velocity P-wave (km/s) = 7.81826 6.39413 7.14178
#
# Compressibility (1/GPa) = 0.01826206
#
# Stress axis : x y z
#
# Youngs Moduli (GPa) = 127.08746 71.94217 73.97111
#
# Poissons Ratio (x) = 0.21805 0.08311
# Poissons Ratio (y) = 0.38518 0.32239
# Poissons Ratio (z) = 0.14279 0.31354
#
# Static dielectric constant tensor:
#      x y z
#    x 3.880170 0.000000 0.000000 
#    y 0.000000 3.375920 0.000000 
#    z 0.000000 0.000000 4.694990 
# 
# 
# High freq. dielectric constant tensor:
#      x y z
#    x 1.859690 0.000000 0.000000 
#    y 0.000000 1.757120 0.000000 
#    z 0.000000 0.000000 1.870210 
# 
# From -- ./inp_files/6268.got.cif
#   From: 2010.03.12/outbox.cif.g09.slc.cpg/sg24_4_cif.got.tgz:6268.got - 2010.04.14 03:06:53.
