data_PCOD8164088
_publ_section_title
;
Structure prediction by ZEFSAII (Michael W. Deem and Ramdas Pophale) SiO2 
 PCOD8164088
Probable space group: I 2 2 2
;
_chemical_formula_sum "Si O2"
_cell_formula_units_Z 60
_cell_length_a 21.093821
_cell_length_b 12.005636
_cell_length_c 10.935010
_cell_angle_alpha 90.000000
_cell_angle_beta 90.000000
_cell_angle_gamma 90.000000
_cell_volume 2769.233729
_symmetry_space_group_name_H-M "I 2 2 2"
_symmetry_group_IT_number 23
_symmetry_cell_setting 'orthorhombic'
loop_
_space_group_symop_operation_xyz
x,y,z
-x,-y,z
x,-y,-z
-x,y,-z
1/2+x,1/2+y,1/2+z
1/2-x,1/2-y,1/2+z
1/2+x,1/2-y,1/2-z
1/2-x,1/2+y,1/2-z
loop_
_atom_site_type_symbol
_atom_site_label
_atom_site_fract_x
_atom_site_fract_y
_atom_site_fract_z
Si Si1 0.500000 0.262633 0.000000
Si Si2 0.949556 0.599069 0.187674
Si Si3 0.812887 0.403521 0.909800
Si Si4 0.888553 0.620550 0.451845
Si Si5 0.401140 0.491894 0.355824
Si Si6 0.999885 0.830997 0.231150
Si Si7 0.266076 0.488327 0.314085
Si Si8 0.743579 0.821989 0.016613
O O1 0.441152 0.181825 0.032817
O O2 0.490922 0.336496 0.878796
O O3 0.889796 0.599337 0.094631
O O4 0.917298 0.600378 0.319370
O O5 0.991751 0.709143 0.173661
O O6 0.000000 0.500000 0.165329
O O7 0.781864 0.432822 0.780284
O O8 0.783642 0.288792 0.959558
O O9 0.790809 0.500000 0.000000
O O10 0.867993 0.500000 0.500000
O O11 0.826516 0.699860 0.459483
O O12 0.387241 0.500000 0.500000
O O13 0.446263 0.593187 0.325181
O O14 0.431940 0.375135 0.313078
O O15 0.338257 0.510541 0.271999
O O16 0.280408 0.397882 0.420097
O O17 0.236017 0.605549 0.358653
#
# Coordination Sequence:
#
# PCOD8164088 Si02
#       8
#     4   8   8   8   8   8   8   8
#     4  10  23  35  62 102 140 178 210 288 356 406
#     4  11  24  45  67  99 141 181 222 291 347 419
#     4  12  29  45  68 109 141 183 233 294 362 424
#     4  11  19  40  69  99 132 180 234 275 345 421
#     4  11  23  44  68  94 122 179 233 279 330 415
#     4  10  23  41  66  97 135 173 229 276 339 415
#     4  11  24  47  71 100 132 183 235 283 359 419
#     4  11  23  44  73  95 138 187 228 297 343 433
#
# _framework density 21.666642
#
# number of rings (size 3 to 8) (size 9 to 14) (size 15 to 20)
#    0.000    1.067    4.000    3.400    3.733    4.533 
#    2.400    0.000    0.000    0.000    0.000    0.000 
#    0.000    0.000    0.000    0.000    0.000    0.000 
#
# Total GULP energy -371820.654690 kJ/mol
# GULP energy per Si atom -12394.021823 kJ/mol
# Density = 2.161733 g / cm^3
# Si number density = 21.666642 Si / 1000 Ang^3
#
#
#
# Elastic Constant Matrix: (Units=GPa)
#
#
# Indices 1 2 3 4 5 6 
#
# 1 153.6588 48.8626 21.2618 0.0000 0.0000 0.0000
# 2 48.8626 147.9088 39.9741 0.0000 0.0000 0.0000
# 3 21.2618 39.9741 63.9914 0.0000 0.0000 0.0000
# 4 0.0000 0.0000 0.0000 29.7237 0.0000 0.0000
# 5 0.0000 0.0000 0.0000 0.0000 29.0740 0.0000
# 6 0.0000 0.0000 0.0000 0.0000 0.0000 25.2212
#
#
#
# Elastic Compliance Matrix: (Units=1/GPa)
#
#
# Indices 1 2 3 4 5 6 
#
# 1 0.007337 -0.002123 -0.001111 0.000000 0.000000 0.000000
# 2 -0.002123 0.008749 -0.004760 0.000000 0.000000 0.000000
# 3 -0.001111 -0.004760 0.018970 0.000000 0.000000 0.000000
# 4 0.000000 0.000000 0.000000 0.033643 0.000000 0.000000
# 5 0.000000 0.000000 0.000000 0.000000 0.034395 0.000000
# 6 0.000000 0.000000 0.000000 0.000000 0.000000 0.039649
#
#
# Mechanical properties :
#
#
# Convention : Reuss Voigt Hill
#
# Bulk Modulus (GPa) = 52.44798 65.08403 58.76601
# Shear Modulus (GPa) = 30.28707 33.83448 32.06077
#
# Velocity S-wave (km/s) = 3.74286 3.95599 3.85090
# Velocity P-wave (km/s) = 6.55271 7.13936 6.85232
#
# Compressibility (1/GPa) = 0.01906651
#
# Stress axis : x y z
#
# Youngs Moduli (GPa) = 136.29650 114.30177 52.71595
#
# Poissons Ratio (x) = 0.24272 0.05858
# Poissons Ratio (y) = 0.28942 0.25091
# Poissons Ratio (z) = 0.15147 0.54403
#
# Static dielectric constant tensor:
#      x y z
#    x 4.266300 0.000000 0.000000 
#    y 0.000000 4.076420 0.000000 
#    z 0.000000 0.000000 3.870520 
# 
# 
# High freq. dielectric constant tensor:
#      x y z
#    x 1.873980 0.000000 0.000000 
#    y 0.000000 1.848310 0.000000 
#    z 0.000000 0.000000 1.838070 
# 
# From -- ./inp_files/18039.got.cif
#   From: 2010.03.12/outbox.cif.g09.slc.cpg/sg23_10_cif.got.tgz:18039.got - 2010.04.14 02:50:06.
