data_PCOD8164866
_publ_section_title
;
Structure prediction by ZEFSAII (Michael W. Deem and Ramdas Pophale) SiO2 
 PCOD8164866
Probable space group: I 21 21 21
;
_chemical_formula_sum "Si O2"
_cell_formula_units_Z 56
_cell_length_a 11.114997
_cell_length_b 13.072098
_cell_length_c 18.372783
_cell_angle_alpha 90.000000
_cell_angle_beta 90.000000
_cell_angle_gamma 90.000000
_cell_volume 2669.497943
_symmetry_space_group_name_H-M "I 21 21 21"
_symmetry_group_IT_number 24
_symmetry_cell_setting 'orthorhombic'
loop_
_space_group_symop_operation_xyz
x,y,z
-x,1/2-y,z
x,-y,1/2-z
1/2-x,y,-z
1/2+x,1/2+y,1/2+z
1/2-x,-y,1/2+z
1/2+x,1/2-y,-z
-x,1/2+y,1/2-z
loop_
_atom_site_type_symbol
_atom_site_label
_atom_site_fract_x
_atom_site_fract_y
_atom_site_fract_z
Si Si1 0.383073 0.465253 0.921326
Si Si2 0.109005 0.591236 0.578840
Si Si3 0.333528 0.771981 0.326987
Si Si4 0.866803 0.718952 0.841249
Si Si5 0.088129 0.005247 0.833076
Si Si6 0.882215 0.821852 0.134507
Si Si7 0.597321 0.831682 0.705329
O O1 0.242644 0.447464 0.912214
O O2 0.403949 0.587268 0.923525
O O3 0.449687 0.418571 0.850122
O O4 0.430650 0.408385 0.993948
O O5 0.086026 0.701241 0.618303
O O6 0.031715 0.505373 0.619254
O O7 0.374790 0.753581 0.244237
O O8 0.335714 0.891546 0.349766
O O9 0.199371 0.731921 0.336521
O O10 0.839939 0.597846 0.852643
O O11 0.748928 0.768688 0.879998
O O12 0.000000 0.750000 0.873756
O O13 0.046564 0.000000 0.750000
O O14 0.868027 0.874310 0.214814
O O15 0.000000 0.750000 0.126347
O O16 0.500000 0.750000 0.725898
#
# Coordination Sequence:
#
# PCOD8164866 Si02
#       7
#     8   8   8   8   8   8   8
#     4  10  21  36  55  79 109 151 191 230 276 332
#     4  10  20  35  54  81 111 145 186 230 281 333
#     4   9  18  32  53  84 118 142 175 228 284 334
#     4  10  19  33  57  88 114 144 186 231 274 326
#     4  10  19  32  55  86 116 143 174 225 285 334
#     4  10  21  38  58  81 112 150 192 235 277 328
#     4   9  19  34  55  81 109 147 191 232 276 331
#
# _framework density 20.977726000000001
#
# number of rings (size 3 to 8) (size 9 to 14) (size 15 to 20)
#    0.000    2.286    0.000    3.429    0.000    4.571 
#    0.000    7.857    0.000    1.714    0.000    0.000 
#    0.000    0.000    0.000    0.000    0.000    0.000 
#
# Total GULP energy -346867.018840 kJ/mol
# GULP energy per Si atom -12388.107816 kJ/mol
# Density = 2.092998 g / cm^3
# Si number density = 20.977726 Si / 1000 Ang^3
#
#
#
# Elastic Constant Matrix: (Units=GPa)
#
#
# Indices 1 2 3 4 5 6 
#
# 1 76.3697 26.9831 11.8905 0.0000 0.0000 0.0000
# 2 26.9831 127.7285 40.0099 0.0000 0.0000 0.0000
# 3 11.8905 40.0099 62.1767 0.0000 0.0000 0.0000
# 4 0.0000 0.0000 0.0000 24.4257 0.0000 0.0000
# 5 0.0000 0.0000 0.0000 0.0000 19.9825 0.0000
# 6 0.0000 0.0000 0.0000 0.0000 0.0000 25.4173
#
#
#
# Elastic Compliance Matrix: (Units=1/GPa)
#
#
# Indices 1 2 3 4 5 6 
#
# 1 0.014198 -0.002691 -0.000983 0.000000 0.000000 0.000000
# 2 -0.002691 0.010316 -0.006123 0.000000 0.000000 0.000000
# 3 -0.000983 -0.006123 0.020212 0.000000 0.000000 0.000000
# 4 0.000000 0.000000 0.000000 0.040941 0.000000 0.000000
# 5 0.000000 0.000000 0.000000 0.000000 0.050044 0.000000
# 6 0.000000 0.000000 0.000000 0.000000 0.000000 0.039343
#
#
# Mechanical properties :
#
#
# Convention : Reuss Voigt Hill
#
# Bulk Modulus (GPa) = 39.79414 47.11576 43.45495
# Shear Modulus (GPa) = 24.62740 26.45784 25.54262
#
# Velocity S-wave (km/s) = 3.43005 3.55524 3.49321
# Velocity P-wave (km/s) = 5.89049 6.27388 6.08521
#
# Compressibility (1/GPa) = 0.02512933
#
# Stress axis : x y z
#
# Youngs Moduli (GPa) = 70.43126 96.93902 49.47667
#
# Poissons Ratio (x) = 0.26090 0.04865
# Poissons Ratio (y) = 0.18956 0.30296
# Poissons Ratio (z) = 0.06926 0.59359
#
# Static dielectric constant tensor:
#      x y z
#    x 3.754450 0.000000 0.000000 
#    y 0.000000 3.996300 0.000000 
#    z 0.000000 0.000000 3.791690 
# 
# 
# High freq. dielectric constant tensor:
#      x y z
#    x 1.808680 0.000000 0.000000 
#    y 0.000000 1.826510 0.000000 
#    z 0.000000 0.000000 1.797160 
# 
# From -- ./inp_files/33371.got.cif
#   From: 2010.03.12/outbox.cif.g09.slc.cpg/sg24_17_cif.got.tgz:33371.got - 2010.04.14 03:06:53.
