data_PCOD8164789
_publ_section_title
;
Structure prediction by ZEFSAII (Michael W. Deem and Ramdas Pophale) SiO2 
 PCOD8164789
Probable space group: I 21 21 21
;
_chemical_formula_sum "Si O2"
_cell_formula_units_Z 36
_cell_length_a 11.918273
_cell_length_b 17.354601
_cell_length_c 7.948150
_cell_angle_alpha 90.000000
_cell_angle_beta 90.000000
_cell_angle_gamma 90.000000
_cell_volume 1643.970488
_symmetry_space_group_name_H-M "I 21 21 21"
_symmetry_group_IT_number 24
_symmetry_cell_setting 'orthorhombic'
loop_
_space_group_symop_operation_xyz
x,y,z
-x,1/2-y,z
x,-y,1/2-z
1/2-x,y,-z
1/2+x,1/2+y,1/2+z
1/2-x,-y,1/2+z
1/2+x,1/2-y,-z
-x,1/2+y,1/2-z
loop_
_atom_site_type_symbol
_atom_site_label
_atom_site_fract_x
_atom_site_fract_y
_atom_site_fract_z
Si Si1 0.768998 0.719737 0.185969
Si Si2 0.641015 0.000000 0.750000
Si Si3 0.250000 0.891113 0.500000
Si Si4 0.500000 0.750000 0.685232
Si Si5 0.495653 0.912937 0.496915
Si Si6 0.803715 0.127397 0.812646
O O1 0.750963 0.656838 0.328651
O O2 0.685345 0.790854 0.220151
O O3 0.893583 0.754121 0.193911
O O4 0.750000 0.684522 0.000000
O O5 0.558779 0.020408 0.901592
O O6 0.723267 0.071203 0.704361
O O7 0.365397 0.940459 0.481140
O O8 0.496723 0.827197 0.574622
O O9 0.568424 0.905547 0.324930
O O10 0.750000 0.137145 0.000000
#
# Coordination Sequence:
#
# PCOD8164789 Si02
#       6
#     8   4   4   4   8   8
#     4  11  21  34  63  97 128 167 221 274 331 395
#     4  10  20  34  62  98 126 166 228 272 330 384
#     4  10  22  42  64  92 130 182 216 266 344 406
#     4  10  18  38  58  92 126 170 210 280 334 384
#     4  10  20  38  68  86 133 179 219 271 336 404
#     4  10  18  37  59  91 124 172 214 265 334 385
#
# _framework density 21.898205000000001
#
# number of rings (size 3 to 8) (size 9 to 14) (size 15 to 20)
#    0.000    1.778    5.556    1.333    0.000    4.444 
#    0.000    1.111    9.778    0.000    0.000    0.000 
#    0.000    0.000    0.000    0.000    0.000    0.000 
#
# Total GULP energy -222999.635839 kJ/mol
# GULP energy per Si atom -12388.868658 kJ/mol
# Density = 2.184836 g / cm^3
# Si number density = 21.898205 Si / 1000 Ang^3
#
#
#
# Elastic Constant Matrix: (Units=GPa)
#
#
# Indices 1 2 3 4 5 6 
#
# 1 192.2931 19.1694 36.6873 0.0000 0.0000 0.0000
# 2 19.1694 48.1772 23.6485 0.0000 0.0000 0.0000
# 3 36.6873 23.6485 98.4354 0.0000 0.0000 -0.0001
# 4 0.0000 0.0000 0.0000 16.7943 0.0000 0.0000
# 5 0.0000 0.0000 0.0000 0.0000 21.4564 0.0000
# 6 0.0000 0.0000 -0.0001 0.0000 0.0000 21.6627
#
#
#
# Elastic Compliance Matrix: (Units=1/GPa)
#
#
# Indices 1 2 3 4 5 6 
#
# 1 0.005679 -0.001384 -0.001784 0.000000 0.000000 0.000000
# 2 -0.001384 0.023869 -0.005219 0.000000 0.000000 0.000000
# 3 -0.001784 -0.005219 0.012078 0.000000 0.000000 0.000000
# 4 0.000000 0.000000 0.000000 0.059544 0.000000 0.000000
# 5 0.000000 0.000000 0.000000 0.000000 0.046606 0.000000
# 6 0.000000 0.000000 0.000000 0.000000 0.000000 0.046162
#
#
# Mechanical properties :
#
#
# Convention : Reuss Voigt Hill
#
# Bulk Modulus (GPa) = 40.23766 55.32403 47.78085
# Shear Modulus (GPa) = 22.83158 29.27604 26.05381
#
# Velocity S-wave (km/s) = 3.23247 3.66035 3.45305
# Velocity P-wave (km/s) = 5.68741 6.57140 6.14532
#
# Compressibility (1/GPa) = 0.02485234
#
# Stress axis : x y z
#
# Youngs Moduli (GPa) = 176.09618 41.89545 82.79789
#
# Poissons Ratio (x) = 0.05798 0.14771
# Poissons Ratio (y) = 0.24368 0.43209
# Poissons Ratio (z) = 0.31416 0.21864
#
# Static dielectric constant tensor:
#      x y z
#    x 4.969250 0.000000 0.000000 
#    y 0.000000 3.707100 0.000000 
#    z 0.000000 0.000000 3.666170 
# 
# 
# High freq. dielectric constant tensor:
#      x y z
#    x 1.880690 0.000000 0.000000 
#    y 0.000000 1.835060 0.000000 
#    z 0.000000 0.000000 1.825780 
# 
# From -- ./inp_files/10975.got.cif
#   From: 2010.03.12/outbox.cif.g09.slc.cpg/sg24_6_cif.got.tgz:10975.got - 2010.04.14 03:06:53.
