data_PCOD8164372
_publ_section_title
;
Structure prediction by ZEFSAII (Michael W. Deem and Ramdas Pophale) SiO2 
 PCOD8164372
Probable space group: I 2 2 2
;
_chemical_formula_sum "Si O2"
_cell_formula_units_Z 64
_cell_length_a 10.650265
_cell_length_b 9.812688
_cell_length_c 29.814454
_cell_angle_alpha 90.000000
_cell_angle_beta 90.000000
_cell_angle_gamma 90.000000
_cell_volume 3115.840836
_symmetry_space_group_name_H-M "I 2 2 2"
_symmetry_group_IT_number 23
_symmetry_cell_setting 'orthorhombic'
loop_
_space_group_symop_operation_xyz
x,y,z
-x,-y,z
x,-y,-z
-x,y,-z
1/2+x,1/2+y,1/2+z
1/2-x,1/2-y,1/2+z
1/2+x,1/2-y,1/2-z
1/2-x,1/2+y,1/2-z
loop_
_atom_site_type_symbol
_atom_site_label
_atom_site_fract_x
_atom_site_fract_y
_atom_site_fract_z
Si Si1 0.358501 0.979660 0.866440
Si Si2 0.768285 0.759871 0.897587
Si Si3 0.348534 0.870669 0.766908
Si Si4 0.232386 0.753494 0.924731
Si Si5 0.368218 0.655272 0.510931
Si Si6 0.016699 0.344524 0.132923
Si Si7 0.646968 0.509901 0.948876
Si Si8 0.619398 0.164614 0.269013
O O1 0.306287 0.133263 0.867194
O O2 0.500000 0.000000 0.880504
O O3 0.339961 0.911181 0.818488
O O4 0.296917 0.882898 0.902801
O O5 0.834777 0.838432 0.937559
O O6 0.684052 0.644150 0.921025
O O7 0.874350 0.707763 0.863407
O O8 0.488130 0.805843 0.757883
O O9 0.233082 0.767613 0.755089
O O10 0.334590 0.008999 0.738023
O O11 0.091979 0.736233 0.905427
O O12 0.307453 0.613868 0.917313
O O13 0.234409 0.777497 0.978251
O O14 0.381926 0.500000 0.500000
O O15 0.500000 0.730089 0.500000
O O16 0.090838 0.319034 0.178739
O O17 0.000000 0.500000 0.118875
O O18 0.500000 0.500000 0.952590
O O19 0.703479 0.500000 0.000000
#
# Coordination Sequence:
#
# PCOD8164372 Si02
#       8
#     8   8   8   8   8   8   8   8
#     4  12  26  46  66  99 139 182 230 280 345 413
#     4  12  25  41  70 101 135 181 234 287 338 409
#     4  11  25  47  74 102 140 179 226 289 352 434
#     4  12  23  42  67  95 139 176 227 286 340 405
#     4  11  22  39  61  97 137 176 224 285 350 394
#     4  12  24  42  70 102 135 169 221 286 349 409
#     4  11  24  41  62  93 136 187 233 274 331 407
#     4  11  25  48  73 103 139 178 221 288 356 421
#
# _framework density 20.540203000000002
#
# number of rings (size 3 to 8) (size 9 to 14) (size 15 to 20)
#    0.000    0.500    8.750    0.750    1.750    1.000 
#    0.000    2.500    0.000    0.000    0.000    0.000 
#    0.000    0.000    0.000    0.000    0.000    0.000 
#
# Total GULP energy -396640.458122 kJ/mol
# GULP energy per Si atom -12395.014316 kJ/mol
# Density = 2.049345 g / cm^3
# Si number density = 20.540203 Si / 1000 Ang^3
#
#
#
# Elastic Constant Matrix: (Units=GPa)
#
#
# Indices 1 2 3 4 5 6 
#
# 1 137.7471 68.6878 24.1240 0.0000 0.0000 0.0000
# 2 68.6878 121.8101 16.9674 0.0000 0.0000 0.0000
# 3 24.1240 16.9674 64.4376 0.0000 0.0000 0.0000
# 4 0.0000 0.0000 0.0000 16.9241 0.0000 0.0000
# 5 0.0000 0.0000 0.0000 0.0000 178.0009 0.0000
# 6 0.0000 0.0000 0.0000 0.0000 0.0000 27.5777
#
#
#
# Elastic Compliance Matrix: (Units=1/GPa)
#
#
# Indices 1 2 3 4 5 6 
#
# 1 0.010460 -0.005557 -0.002453 0.000000 0.000000 0.000000
# 2 -0.005557 0.011474 -0.000941 0.000000 0.000000 0.000000
# 3 -0.002453 -0.000941 0.016685 0.000000 0.000000 0.000000
# 4 0.000000 0.000000 0.000000 0.059087 0.000000 0.000000
# 5 0.000000 0.000000 0.000000 0.000000 0.005618 0.000000
# 6 0.000000 0.000000 0.000000 0.000000 0.000000 0.036261
#
#
# Mechanical properties :
#
#
# Convention : Reuss Voigt Hill
#
# Bulk Modulus (GPa) = 48.26732 60.39481 54.33106
# Shear Modulus (GPa) = 30.41501 58.78158 44.59830
#
# Velocity S-wave (km/s) = 3.85223 5.35537 4.66474
# Velocity P-wave (km/s) = 6.58303 8.22843 7.45128
#
# Compressibility (1/GPa) = 0.02071795
#
# Stress axis : x y z
#
# Youngs Moduli (GPa) = 95.60125 87.15392 59.93421
#
# Poissons Ratio (x) = 0.48429 0.14701
# Poissons Ratio (y) = 0.53123 0.05640
# Poissons Ratio (z) = 0.23450 0.08201
#
# Static dielectric constant tensor:
#      x y z
#    x 3.891280 0.000000 0.000000 
#    y 0.000000 3.834970 0.000000 
#    z 0.000000 0.000000 3.801620 
# 
# 
# High freq. dielectric constant tensor:
#      x y z
#    x 1.808020 0.000000 0.000000 
#    y 0.000000 1.809050 0.000000 
#    z 0.000000 0.000000 1.807040 
# 
# From -- ./inp_files/30481.got.cif
#   From: 2010.03.12/outbox.cif.g09.slc.cpg/sg23_16_cif.got.tgz:30481.got - 2010.04.14 02:50:06.
