data_PCOD8164373
_publ_section_title
;
Structure prediction by ZEFSAII (Michael W. Deem and Ramdas Pophale) SiO2 
 PCOD8164373
Probable space group: I 2 2 2
;
_chemical_formula_sum "Si O2"
_cell_formula_units_Z 34
_cell_length_a 10.204375
_cell_length_b 25.277913
_cell_length_c 5.617858
_cell_angle_alpha 90.000000
_cell_angle_beta 90.000000
_cell_angle_gamma 90.000000
_cell_volume 1449.100087
_symmetry_space_group_name_H-M "I 2 2 2"
_symmetry_group_IT_number 23
_symmetry_cell_setting 'orthorhombic'
loop_
_space_group_symop_operation_xyz
x,y,z
-x,-y,z
x,-y,-z
-x,y,-z
1/2+x,1/2+y,1/2+z
1/2-x,1/2-y,1/2+z
1/2+x,1/2-y,1/2-z
1/2-x,1/2+y,1/2-z
loop_
_atom_site_type_symbol
_atom_site_label
_atom_site_fract_x
_atom_site_fract_y
_atom_site_fract_z
Si Si1 0.000000 0.000000 0.000000
Si Si2 0.819645 0.173770 0.081464
Si Si3 0.641247 0.132284 0.477690
Si Si4 0.106867 0.092660 0.290004
Si Si5 0.390295 0.772043 0.814033
O O1 0.089520 0.035106 0.174106
O O2 0.706742 0.139804 0.217476
O O3 0.911481 0.209465 0.254586
O O4 0.909620 0.135729 0.920390
O O5 0.752323 0.220132 0.928979
O O6 0.500000 0.102026 0.500000
O O7 0.744547 0.096576 0.621443
O O8 0.609505 0.189692 0.587069
O O9 0.000000 0.103359 0.500000
O O10 0.500000 0.790295 0.000000
#
# Coordination Sequence:
#
# PCOD8164373 Si02
#       5
#     2   8   8   8   8
#     4  12  26  56  80 104 136 188 254 350 396 468
#     4  11  23  42  66 107 149 207 250 313 368 457
#     4  11  23  44  68 107 148 201 244 311 381 458
#     4  11  27  49  77 107 141 193 258 327 404 462
#     4  11  22  39  61  97 153 204 255 297 360 445
#
# _framework density 23.462837
#
# number of rings (size 3 to 8) (size 9 to 14) (size 15 to 20)
#    0.000    0.941    4.706    1.765    0.000    2.824 
#   10.588    0.000    0.000   19.765    0.000    0.000 
#    0.000    0.000    0.000    0.000    0.000    0.000 
#
# Total GULP energy -210633.687204 kJ/mol
# GULP energy per Si atom -12390.216894 kJ/mol
# Density = 2.340943 g / cm^3
# Si number density = 23.462837 Si / 1000 Ang^3
#
#
#
# Elastic Constant Matrix: (Units=GPa)
#
#
# Indices 1 2 3 4 5 6 
#
# 1 165.1075 63.9478 57.3276 0.0103 0.0187 0.0007
# 2 63.9478 133.7717 60.1286 0.0253 -0.0126 -0.0010
# 3 57.3276 60.1286 134.5085 -0.1466 0.1090 -0.0290
# 4 0.0103 0.0253 -0.1466 76.1068 0.0033 0.0247
# 5 0.0187 -0.0126 0.1090 0.0033 43.3286 -0.0012
# 6 0.0007 -0.0010 -0.0290 0.0247 -0.0012 32.3390
#
#
#
# Elastic Compliance Matrix: (Units=1/GPa)
#
#
# Indices 1 2 3 4 5 6 
#
# 1 0.007878 -0.002824 -0.002095 -0.000004 0.000001 -0.000002
# 2 -0.002824 0.010368 -0.003431 -0.000010 0.000013 -0.000003
# 3 -0.002095 -0.003431 0.009861 0.000020 -0.000025 0.000009
# 4 -0.000004 -0.000010 0.000020 0.013139 -0.000001 -0.000010
# 5 0.000001 0.000013 -0.000025 -0.000001 0.023080 0.000001
# 6 -0.000002 -0.000003 0.000009 -0.000010 0.000001 0.030922
#
#
# Mechanical properties :
#
#
# Convention : Reuss Voigt Hill
#
# Bulk Modulus (GPa) = 87.67112 88.46619 88.06866
# Shear Modulus (GPa) = 43.19624 47.15381 45.17503
#
# Velocity S-wave (km/s) = 4.29540 4.48786 4.39268
# Velocity P-wave (km/s) = 7.87704 8.03997 7.95892
#
# Compressibility (1/GPa) = 0.01140626
#
# Stress axis : x y z
#
# Youngs Moduli (GPa) = 126.93646 96.45361 101.40797
#
# Poissons Ratio (x) = 0.27241 0.21246
# Poissons Ratio (y) = 0.35850 0.34792
# Poissons Ratio (z) = 0.26594 0.33093
#
# Static dielectric constant tensor:
#      x y z
#    x 2.771290 -0.000150 0.003030 
#    y -0.000150 3.764780 0.000060 
#    z 0.003030 0.000060 4.693260 
# 
# 
# High freq. dielectric constant tensor:
#      x y z
#    x 1.950420 0.000000 0.000000 
#    y 0.000000 1.879120 0.000000 
#    z 0.000000 0.000000 1.948050 
# 
# From -- ./inp_files/1590.got.cif
#   From: 2010.03.12/outbox.cif.g09.slc.cpg/sg23_1_cif.got.tgz:1590.got - 2010.04.14 02:50:06.
