data_PCOD8164938
_publ_section_title
;
Structure prediction by ZEFSAII (Michael W. Deem and Ramdas Pophale) SiO2 
 PCOD8164938
Probable space group: I 21 21 21
;
_chemical_formula_sum "Si O2"
_cell_formula_units_Z 36
_cell_length_a 14.013349
_cell_length_b 21.869986
_cell_length_c 5.101476
_cell_angle_alpha 90.000000
_cell_angle_beta 90.000000
_cell_angle_gamma 90.000000
_cell_volume 1563.458259
_symmetry_space_group_name_H-M "I 21 21 21"
_symmetry_group_IT_number 24
_symmetry_cell_setting 'orthorhombic'
loop_
_space_group_symop_operation_xyz
x,y,z
-x,1/2-y,z
x,-y,1/2-z
1/2-x,y,-z
1/2+x,1/2+y,1/2+z
1/2-x,-y,1/2+z
1/2+x,1/2-y,-z
-x,1/2+y,1/2-z
loop_
_atom_site_type_symbol
_atom_site_label
_atom_site_fract_x
_atom_site_fract_y
_atom_site_fract_z
Si Si1 0.036797 0.118073 0.412470
Si Si2 0.849447 0.391013 0.909714
Si Si3 0.000000 0.750000 0.935338
Si Si4 0.191924 0.753186 0.730593
Si Si5 0.357743 0.458686 0.501147
O O1 0.108309 0.087891 0.629134
O O2 0.041478 0.192469 0.401922
O O3 0.929535 0.098073 0.480013
O O4 0.070993 0.094954 0.129844
O O5 0.828228 0.319940 0.881354
O O6 0.750000 0.423709 0.000000
O O7 0.087738 0.722355 0.765022
O O8 0.250000 0.717417 0.500000
O O9 0.250000 0.753728 0.000000
O O10 0.378385 0.500000 0.250000
O O11 0.250000 0.431843 0.500000
O O12 0.375456 0.500000 0.750000
#
# Coordination Sequence:
#
# PCOD8164938 Si02
#       5
#     8   8   4   8   8
#     4  11  22  36  61  89 118 156 198 247 306 360
#     4  10  19  35  56  82 116 155 192 228 286 360
#     4  10  22  36  56  90 124 150 194 250 304 368
#     4  10  20  34  51  75 114 162 195 226 285 357
#     4  10  22  43  66  88 118 158 206 255 299 347
#
# _framework density 23.025879
#
# number of rings (size 3 to 8) (size 9 to 14) (size 15 to 20)
#    0.000    1.778    0.000    7.333    0.000    8.889 
#    0.000    3.333    0.000   14.667    0.000    0.000 
#    0.000    0.000    0.000    0.000    0.000    0.000 
#
# Total GULP energy -223054.935810 kJ/mol
# GULP energy per Si atom -12391.940878 kJ/mol
# Density = 2.297347 g / cm^3
# Si number density = 23.025879 Si / 1000 Ang^3
#
#
#
# Elastic Constant Matrix: (Units=GPa)
#
#
# Indices 1 2 3 4 5 6 
#
# 1 159.6335 23.6366 49.1093 0.0001 0.0001 0.0000
# 2 23.6366 31.8223 15.3820 0.0000 0.0001 0.0000
# 3 49.1093 15.3820 161.0965 -0.0003 -0.0004 0.0001
# 4 0.0001 0.0000 -0.0003 4.1424 -0.0002 0.0000
# 5 0.0001 0.0001 -0.0004 -0.0002 42.7374 0.0000
# 6 0.0000 0.0000 0.0001 0.0000 0.0000 30.0345
#
#
#
# Elastic Compliance Matrix: (Units=1/GPa)
#
#
# Indices 1 2 3 4 5 6 
#
# 1 0.007528 -0.004699 -0.001846 0.000000 0.000000 0.000000
# 2 -0.004699 0.035878 -0.001993 0.000000 0.000000 0.000000
# 3 -0.001846 -0.001993 0.006961 0.000001 0.000000 0.000000
# 4 0.000000 0.000000 0.000001 0.241408 0.000001 0.000000
# 5 0.000000 0.000000 0.000000 0.000001 0.023399 0.000000
# 6 0.000000 0.000000 0.000000 0.000000 0.000000 0.033295
#
#
# Mechanical properties :
#
#
# Convention : Reuss Voigt Hill
#
# Bulk Modulus (GPa) = 30.03930 58.75645 44.39788
# Shear Modulus (GPa) = 13.27517 33.01114 23.14315
#
# Velocity S-wave (km/s) = 2.40371 3.79047 3.17376
# Velocity P-wave (km/s) = 4.55829 6.68804 5.72310
#
# Compressibility (1/GPa) = 0.03328973
#
# Stress axis : x y z
#
# Youngs Moduli (GPa) = 132.83531 27.87193 143.66607
#
# Poissons Ratio (x) = 0.13098 0.26524
# Poissons Ratio (y) = 0.62423 0.28636
# Poissons Ratio (z) = 0.24524 0.05556
#
# Static dielectric constant tensor:
#      x y z
#    x 5.592040 0.000000 0.000000 
#    y 0.000000 3.442440 0.000000 
#    z 0.000000 0.000000 4.475240 
# 
# 
# High freq. dielectric constant tensor:
#      x y z
#    x 1.939580 0.000000 0.000000 
#    y 0.000000 1.844390 0.000000 
#    z 0.000000 0.000000 1.920690 
# 
# From -- ./inp_files/2257.got.cif
#   From: 2010.03.12/outbox.cif.g09.slc.cpg/sg24_2_cif.got.tgz:2257.got - 2010.04.14 03:06:53.
