data_PCOD8164770
_publ_section_title
;
Structure prediction by ZEFSAII (Michael W. Deem and Ramdas Pophale) SiO2 
 PCOD8164770
Probable space group: I 21 21 21
;
_chemical_formula_sum "Si O2"
_cell_formula_units_Z 48
_cell_length_a 19.154244
_cell_length_b 7.967478
_cell_length_c 19.235662
_cell_angle_alpha 90.000000
_cell_angle_beta 90.000000
_cell_angle_gamma 90.000000
_cell_volume 2935.573954
_symmetry_space_group_name_H-M "I 21 21 21"
_symmetry_group_IT_number 24
_symmetry_cell_setting 'orthorhombic'
loop_
_space_group_symop_operation_xyz
x,y,z
-x,1/2-y,z
x,-y,1/2-z
1/2-x,y,-z
1/2+x,1/2+y,1/2+z
1/2-x,-y,1/2+z
1/2+x,1/2-y,-z
-x,1/2+y,1/2-z
loop_
_atom_site_type_symbol
_atom_site_label
_atom_site_fract_x
_atom_site_fract_y
_atom_site_fract_z
Si Si1 0.264248 0.000001 0.670624
Si Si2 0.334167 0.686234 0.171854
Si Si3 0.573288 0.683659 0.441402
Si Si4 0.426711 0.816340 0.058597
Si Si5 0.834169 0.186239 0.828144
Si Si6 0.827798 0.499997 0.030959
O O1 0.220637 0.832210 0.654151
O O2 0.292392 0.000000 0.750000
O O3 0.220643 0.167802 0.654150
O O4 0.327241 0.999994 0.615112
O O5 0.398851 0.694923 0.118985
O O6 0.362526 0.712737 0.249998
O O7 0.299912 0.499996 0.164556
O O8 0.500000 0.750000 0.471630
O O9 0.561610 0.499999 0.407553
O O10 0.601146 0.805074 0.381011
O O11 0.629924 0.665802 0.504355
O O12 0.500000 0.750000 0.028370
O O13 0.370077 0.834202 0.995643
O O14 0.750000 0.499999 0.000000
#
# Coordination Sequence:
#
# PCOD8164770 Si02
#       6
#     8   8   8   8   8   8
#     4  10  18  36  58  80 110 144 180 232 274 318
#     4  10  19  31  51  80 114 148 183 215 265 329
#     4  10  20  33  53  74 114 144 181 221 272 316
#     4  10  20  33  53  74 114 144 181 221 272 316
#     4  10  19  31  51  80 114 148 183 215 265 329
#     4  10  18  36  58  80 109 144 187 228 266 328
#
# _framework density 16.351147000000001
#
# number of rings (size 3 to 8) (size 9 to 14) (size 15 to 20)
#    1.000    1.000    5.000    1.000    0.000    0.667 
#    0.000    5.000    0.000    1.000    0.000    0.000 
#    0.000    0.000    0.000    0.000    0.000    0.000 
#
# Total GULP energy -297323.312407 kJ/mol
# GULP energy per Si atom -12388.471350 kJ/mol
# Density = 1.631393 g / cm^3
# Si number density = 16.351147 Si / 1000 Ang^3
#
#
#
# Elastic Constant Matrix: (Units=GPa)
#
#
# Indices 1 2 3 4 5 6 
#
# 1 97.7306 33.2909 65.6989 0.0000 0.0000 0.0000
# 2 33.2909 105.2038 33.4461 0.0000 0.0000 0.0000
# 3 65.6989 33.4461 116.3679 0.0000 0.0000 0.0000
# 4 0.0000 0.0000 0.0000 8.5835 0.0000 0.0000
# 5 0.0000 0.0000 0.0000 0.0000 17.4971 0.0000
# 6 0.0000 0.0000 0.0000 0.0000 0.0000 27.6575
#
#
#
# Elastic Compliance Matrix: (Units=1/GPa)
#
#
# Indices 1 2 3 4 5 6 
#
# 1 0.017104 -0.002578 -0.008915 0.000000 0.000000 0.000000
# 2 -0.002578 0.010850 -0.001663 0.000000 0.000000 0.000000
# 3 -0.008915 -0.001663 0.014105 0.000000 0.000000 0.000000
# 4 0.000000 0.000000 0.000000 0.116503 0.000000 0.000000
# 5 0.000000 0.000000 0.000000 0.000000 0.057152 0.000000
# 6 0.000000 0.000000 0.000000 0.000000 0.000000 0.036157
#
#
# Mechanical properties :
#
#
# Convention : Reuss Voigt Hill
#
# Bulk Modulus (GPa) = 63.50951 64.90824 64.20887
# Shear Modulus (GPa) = 17.64092 23.20537 20.42315
#
# Velocity S-wave (km/s) = 3.28819 3.77130 3.53800
# Velocity P-wave (km/s) = 7.30354 7.66461 7.48625
#
# Compressibility (1/GPa) = 0.01574567
#
# Stress axis : x y z
#
# Youngs Moduli (GPa) = 58.46677 92.16743 70.89748
#
# Poissons Ratio (x) = 0.23760 0.63208
# Poissons Ratio (y) = 0.15072 0.11790
# Poissons Ratio (z) = 0.52126 0.15327
#
# Static dielectric constant tensor:
#      x y z
#    x 2.809270 0.000000 0.000000 
#    y 0.000000 3.211270 0.000000 
#    z 0.000000 0.000000 3.098950 
# 
# 
# High freq. dielectric constant tensor:
#      x y z
#    x 1.593390 0.000000 0.000000 
#    y 0.000000 1.634950 0.000000 
#    z 0.000000 0.000000 1.618740 
# 
# From -- ./inp_files/31332.got.cif
#   From: 2010.03.12/outbox.cif.g09.slc.cpg/sg24_16_cif.got.tgz:31332.got - 2010.04.14 03:06:53.
