data_PCOD8164584
_publ_section_title
;
Structure prediction by ZEFSAII (Michael W. Deem and Ramdas Pophale) SiO2 
 PCOD8164584
Probable space group: I 21 21 21
;
_chemical_formula_sum "Si O2"
_cell_formula_units_Z 48
_cell_length_a 5.229953
_cell_length_b 16.248241
_cell_length_c 27.902522
_cell_angle_alpha 90.000000
_cell_angle_beta 90.000000
_cell_angle_gamma 90.000000
_cell_volume 2371.087589
_symmetry_space_group_name_H-M "I 21 21 21"
_symmetry_group_IT_number 24
_symmetry_cell_setting 'orthorhombic'
loop_
_space_group_symop_operation_xyz
x,y,z
-x,1/2-y,z
x,-y,1/2-z
1/2-x,y,-z
1/2+x,1/2+y,1/2+z
1/2-x,-y,1/2+z
1/2+x,1/2-y,-z
-x,1/2+y,1/2-z
loop_
_atom_site_type_symbol
_atom_site_label
_atom_site_fract_x
_atom_site_fract_y
_atom_site_fract_z
Si Si1 0.102932 0.906065 0.268838
Si Si2 0.609240 0.091619 0.272325
Si Si3 0.898474 0.443893 0.124273
Si Si4 0.503512 0.846791 0.029103
Si Si5 0.246830 0.800825 0.443920
Si Si6 0.094075 0.547702 0.878038
O O1 0.851449 0.859860 0.249286
O O2 0.352537 0.862551 0.245881
O O3 0.082255 0.895427 0.325931
O O4 0.090076 0.000000 0.250000
O O5 0.658240 0.094631 0.329106
O O6 0.595206 0.000000 0.250000
O O7 0.782937 0.387135 0.082534
O O8 0.679412 0.509444 0.133066
O O9 0.172549 0.484524 0.109664
O O10 0.500000 0.750000 0.038115
O O11 0.536746 0.888960 0.079967
O O12 0.250000 0.875432 0.000000
O O13 0.750000 0.874947 0.000000
O O14 0.500000 0.750000 0.428526
O O15 0.250000 0.820726 0.500000
O O16 0.000000 0.750000 0.428761
#
# Coordination Sequence:
#
# PCOD8164584 Si02
#       6
#     8   8   8   8   8   8
#     4  10  16  30  49  81 116 150 173 222 290 353
#     4  10  16  30  49  80 118 150 174 222 290 354
#     4  12  21  33  61  93 111 146 198 246 282 335
#     4  10  23  43  60  79 118 165 194 231 300 362
#     4  10  23  43  59  76 113 160 191 230 298 358
#     4  12  21  33  60  93 113 145 197 248 281 331
#
# _framework density 20.243874000000002
#
# number of rings (size 3 to 8) (size 9 to 14) (size 15 to 20)
#    0.000    1.333    6.667    2.000    0.000    2.000 
#    0.000    0.000    0.000    3.000    0.000    0.000 
#    0.000    0.000    0.000    0.000    0.000    0.000 
#
# Total GULP energy -297398.869127 kJ/mol
# GULP energy per Si atom -12391.619547 kJ/mol
# Density = 2.019780 g / cm^3
# Si number density = 20.243874 Si / 1000 Ang^3
#
#
#
# Elastic Constant Matrix: (Units=GPa)
#
#
# Indices 1 2 3 4 5 6 
#
# 1 186.6597 22.2768 54.6069 0.0000 0.0000 0.0000
# 2 22.2768 20.9320 34.1971 0.0000 0.0000 0.0000
# 3 54.6069 34.1971 139.5383 0.0000 0.0000 0.0000
# 4 0.0000 0.0000 0.0000 4.9809 0.0000 0.0000
# 5 0.0000 0.0000 0.0000 0.0000 2.1012 0.0000
# 6 0.0000 0.0000 0.0000 0.0000 0.0000 11.1553
#
#
#
# Elastic Compliance Matrix: (Units=1/GPa)
#
#
# Indices 1 2 3 4 5 6 
#
# 1 0.006290 -0.004457 -0.001369 0.000000 0.000000 0.000000
# 2 -0.004457 0.082832 -0.018556 0.000000 0.000000 0.000000
# 3 -0.001369 -0.018556 0.012250 0.000000 0.000000 0.000000
# 4 0.000000 0.000000 0.000000 0.200768 0.000000 0.000000
# 5 0.000000 0.000000 0.000000 0.000000 0.475930 0.000000
# 6 0.000000 0.000000 0.000000 0.000000 0.000000 0.089643
#
#
# Mechanical properties :
#
#
# Convention : Reuss Voigt Hill
#
# Bulk Modulus (GPa) = 19.00863 63.25463 41.13163
# Shear Modulus (GPa) = 5.35325 19.38409 12.36867
#
# Velocity S-wave (km/s) = 1.62792 3.09775 2.47449
# Velocity P-wave (km/s) = 3.59774 6.64145 5.34100
#
# Compressibility (1/GPa) = 0.05260767
#
# Stress axis : x y z
#
# Youngs Moduli (GPa) = 158.98716 12.07266 81.63428
#
# Poissons Ratio (x) = 0.05381 0.11177
# Poissons Ratio (y) = 0.70863 1.51477
# Poissons Ratio (z) = 0.21767 0.22402
#
# Static dielectric constant tensor:
#      x y z
#    x 5.693360 0.000000 0.000000 
#    y 0.000000 3.074000 0.000000 
#    z 0.000000 0.000000 2.847560 
# 
# 
# High freq. dielectric constant tensor:
#      x y z
#    x 1.830910 0.000000 0.000000 
#    y 0.000000 1.726220 0.000000 
#    z 0.000000 0.000000 1.803020 
# 
# From -- ./inp_files/37966.got.cif
#   From: 2010.03.12/outbox.cif.g09.slc.cpg/sg24_19_cif.got.tgz:37966.got - 2010.04.14 03:06:53.
