data_PCOD8164812
_publ_section_title
;
Structure prediction by ZEFSAII (Michael W. Deem and Ramdas Pophale) SiO2 
 PCOD8164812
Probable space group: I 21 21 21
;
_chemical_formula_sum "Si O2"
_cell_formula_units_Z 48
_cell_length_a 8.078976
_cell_length_b 16.215070
_cell_length_c 16.918314
_cell_angle_alpha 90.000000
_cell_angle_beta 90.000000
_cell_angle_gamma 90.000000
_cell_volume 2216.318782
_symmetry_space_group_name_H-M "I 21 21 21"
_symmetry_group_IT_number 24
_symmetry_cell_setting 'orthorhombic'
loop_
_space_group_symop_operation_xyz
x,y,z
-x,1/2-y,z
x,-y,1/2-z
1/2-x,y,-z
1/2+x,1/2+y,1/2+z
1/2-x,-y,1/2+z
1/2+x,1/2-y,-z
-x,1/2+y,1/2-z
loop_
_atom_site_type_symbol
_atom_site_label
_atom_site_fract_x
_atom_site_fract_y
_atom_site_fract_z
Si Si1 0.095318 0.080561 0.884294
Si Si2 0.102801 0.500000 0.750000
Si Si3 0.565562 0.995691 0.532014
Si Si4 0.398447 0.673761 0.942734
Si Si5 0.453821 0.928178 0.685585
Si Si6 0.500000 0.750000 0.320577
Si Si7 0.292312 0.668593 0.768859
O O1 0.285770 0.089363 0.861272
O O2 0.017344 0.171235 0.876589
O O3 0.011424 0.015771 0.825445
O O4 0.065315 0.048295 0.973255
O O5 0.214507 0.577616 0.771635
O O6 0.750000 0.991730 0.500000
O O7 0.498609 0.088323 0.551629
O O8 0.582152 0.952589 0.617047
O O9 0.500000 0.750000 0.977051
O O10 0.333656 0.698489 0.856338
O O11 0.250000 0.657345 0.000000
O O12 0.531279 0.843959 0.723237
O O13 0.428481 0.000000 0.750000
O O14 0.335005 0.735797 0.267158
#
# Coordination Sequence:
#
# PCOD8164812 Si02
#       7
#     8   4   8   8   8   4   8
#     4  11  24  42  69 102 137 178 236 298 349 435
#     4  10  18  40  66  94 128 184 232 272 346 432
#     4  11  23  46  71  97 137 183 237 290 359 432
#     4  11  25  41  62  98 138 184 230 289 362 418
#     4  12  23  42  71 104 133 186 241 291 360 431
#     4  10  26  42  70 104 138 186 234 290 368 428
#     4  11  22  43  68  96 144 183 236 292 358 437
#
# _framework density 21.657534999999999
#
# number of rings (size 3 to 8) (size 9 to 14) (size 15 to 20)
#    0.000    1.000    3.333    4.500    3.500    1.333 
#    0.000    5.000    0.000    0.000    0.000    0.000 
#    0.000    0.000    0.000    0.000    0.000    0.000 
#
# Total GULP energy -297562.187237 kJ/mol
# GULP energy per Si atom -12398.424468 kJ/mol
# Density = 2.160824 g / cm^3
# Si number density = 21.657535 Si / 1000 Ang^3
#
#
#
# Elastic Constant Matrix: (Units=GPa)
#
#
# Indices 1 2 3 4 5 6 
#
# 1 92.9435 8.6467 23.6495 0.0000 0.0000 0.0000
# 2 8.6467 73.8074 29.6989 0.0000 0.0000 0.0000
# 3 23.6495 29.6989 126.3891 0.0000 0.0000 0.0000
# 4 0.0000 0.0000 0.0000 44.3710 0.0000 0.0000
# 5 0.0000 0.0000 0.0000 0.0000 36.0372 0.0000
# 6 0.0000 0.0000 0.0000 0.0000 0.0000 17.8781
#
#
#
# Elastic Compliance Matrix: (Units=1/GPa)
#
#
# Indices 1 2 3 4 5 6 
#
# 1 0.011315 -0.000523 -0.001994 0.000000 0.000000 0.000000
# 2 -0.000523 0.014988 -0.003424 0.000000 0.000000 0.000000
# 3 -0.001994 -0.003424 0.009090 0.000000 0.000000 0.000000
# 4 0.000000 0.000000 0.000000 0.022537 0.000000 0.000000
# 5 0.000000 0.000000 0.000000 0.000000 0.027749 0.000000
# 6 0.000000 0.000000 0.000000 0.000000 0.000000 0.055934
#
#
# Mechanical properties :
#
#
# Convention : Reuss Voigt Hill
#
# Bulk Modulus (GPa) = 42.53491 46.34781 44.44136
# Shear Modulus (GPa) = 30.99172 35.06689 33.02930
#
# Velocity S-wave (km/s) = 3.78695 4.02824 3.90945
# Velocity P-wave (km/s) = 6.22926 6.56372 6.39867
#
# Compressibility (1/GPa) = 0.02351010
#
# Stress axis : x y z
#
# Youngs Moduli (GPa) = 88.37542 66.72087 110.01326
#
# Poissons Ratio (x) = 0.03490 0.21941
# Poissons Ratio (y) = 0.04623 0.37668
# Poissons Ratio (z) = 0.17625 0.22845
#
# Static dielectric constant tensor:
#      x y z
#    x 3.977090 0.000000 0.000000 
#    y 0.000000 4.230880 0.000000 
#    z 0.000000 0.000000 4.037500 
# 
# 
# High freq. dielectric constant tensor:
#      x y z
#    x 1.854740 0.000000 0.000000 
#    y 0.000000 1.847320 0.000000 
#    z 0.000000 0.000000 1.857890 
# 
# From -- ./inp_files/29526.got.cif
#   From: 2010.03.12/outbox.cif.g09.slc.cpg/sg24_15_cif.got.tgz:29526.got - 2010.04.14 03:06:53.
