data_PCOD8164223
_publ_section_title
;
Structure prediction by ZEFSAII (Michael W. Deem and Ramdas Pophale) SiO2 
 PCOD8164223
Probable space group: I 2 2 2
;
_chemical_formula_sum "Si O2"
_cell_formula_units_Z 26
_cell_length_a 22.168143
_cell_length_b 5.061267
_cell_length_c 9.354514
_cell_angle_alpha 90.000000
_cell_angle_beta 90.000000
_cell_angle_gamma 90.000000
_cell_volume 1049.566093
_symmetry_space_group_name_H-M "I 2 2 2"
_symmetry_group_IT_number 23
_symmetry_cell_setting 'orthorhombic'
loop_
_space_group_symop_operation_xyz
x,y,z
-x,-y,z
x,-y,-z
-x,y,-z
1/2+x,1/2+y,1/2+z
1/2-x,1/2-y,1/2+z
1/2+x,1/2-y,1/2-z
1/2-x,1/2+y,1/2-z
loop_
_atom_site_type_symbol
_atom_site_label
_atom_site_fract_x
_atom_site_fract_y
_atom_site_fract_z
Si Si1 0.963050 0.740108 0.729280
Si Si2 0.663810 0.431623 0.835929
Si Si3 0.000000 0.500000 0.000000
Si Si4 0.211608 0.750444 0.899364
O O1 0.894595 0.748618 0.677762
O O2 0.000000 0.500000 0.654489
O O3 0.959276 0.690276 0.900438
O O4 0.000000 0.000000 0.688335
O O5 0.726304 0.276232 0.807095
O O6 0.661033 0.680086 0.723542
O O7 0.668727 0.500000 0.000000
O O8 0.193511 0.500000 0.000000
O O9 0.218342 0.000000 0.000000
#
# Coordination Sequence:
#
# PCOD8164223 Si02
#       4
#     8   8   2   8
#     4  10  24  45  73 107 143 194 252 312 376 446
#     4  11  25  49  76 114 161 199 261 324 388 462
#     4   8  22  48  70 102 142 180 260 292 372 448
#     4  11  26  48  75 113 158 213 260 315 392 472
#
# _framework density 24.772141000000001
#
# number of rings (size 3 to 8) (size 9 to 14) (size 15 to 20)
#    0.923    0.615    0.000    4.154    0.000   12.923 
#   13.846    1.538    0.000    0.000    0.000    0.000 
#    0.000    0.000    0.000    0.000    0.000    0.000 
#
# Total GULP energy -161063.003707 kJ/mol
# GULP energy per Si atom -12389.461824 kJ/mol
# Density = 2.471576 g / cm^3
# Si number density = 24.772141 Si / 1000 Ang^3
#
#
#
# Elastic Constant Matrix: (Units=GPa)
#
#
# Indices 1 2 3 4 5 6 
#
# 1 128.0068 51.1390 38.6020 0.0000 0.0000 0.0000
# 2 51.1390 167.2390 36.6768 0.0000 0.0000 0.0000
# 3 38.6020 36.6768 101.3129 0.0000 0.0000 0.0000
# 4 0.0000 0.0000 0.0000 3.7164 0.0000 0.0000
# 5 0.0000 0.0000 0.0000 0.0000 10.7989 0.0000
# 6 0.0000 0.0000 0.0000 0.0000 0.0000 44.3081
#
#
#
# Elastic Compliance Matrix: (Units=1/GPa)
#
#
# Indices 1 2 3 4 5 6 
#
# 1 0.009585 -0.002314 -0.002815 0.000000 0.000000 0.000000
# 2 -0.002314 0.007054 -0.001672 0.000000 0.000000 0.000000
# 3 -0.002815 -0.001672 0.011548 0.000000 0.000000 0.000000
# 4 0.000000 0.000000 0.000000 0.269081 0.000000 0.000000
# 5 0.000000 0.000000 0.000000 0.000000 0.092602 0.000000
# 6 0.000000 0.000000 0.000000 0.000000 0.000000 0.022569
#
#
# Mechanical properties :
#
#
# Convention : Reuss Voigt Hill
#
# Bulk Modulus (GPa) = 68.55666 72.15491 70.35578
# Shear Modulus (GPa) = 11.60357 29.77405 20.68881
#
# Velocity S-wave (km/s) = 2.16663 3.47063 2.89306
# Velocity P-wave (km/s) = 5.83044 6.72689 6.29464
#
# Compressibility (1/GPa) = 0.01458648
#
# Stress axis : x y z
#
# Youngs Moduli (GPa) = 104.32763 141.77064 86.59462
#
# Poissons Ratio (x) = 0.32802 0.24372
# Poissons Ratio (y) = 0.24139 0.14478
# Poissons Ratio (z) = 0.29363 0.23703
#
# Static dielectric constant tensor:
#      x y z
#    x 5.202970 0.000000 0.000000 
#    y 0.000000 4.649770 0.000000 
#    z 0.000000 0.000000 4.648150 
# 
# 
# High freq. dielectric constant tensor:
#      x y z
#    x 1.968970 0.000000 0.000000 
#    y 0.000000 1.984770 0.000000 
#    z 0.000000 0.000000 2.000630 
# 
# From -- ./inp_files/12335.got.cif
#   From: 2010.03.12/outbox.cif.g09.slc.cpg/sg23_7_cif.got.tgz:12335.got - 2010.04.14 02:50:06.
