data_PCOD8164084
_publ_section_title
;
Structure prediction by ZEFSAII (Michael W. Deem and Ramdas Pophale) SiO2 
 PCOD8164084
Probable space group: I 2 2 2
;
_chemical_formula_sum "Si O2"
_cell_formula_units_Z 56
_cell_length_a 19.209854
_cell_length_b 16.348226
_cell_length_c 7.121163
_cell_angle_alpha 90.000000
_cell_angle_beta 90.000000
_cell_angle_gamma 90.000000
_cell_volume 2236.380123
_symmetry_space_group_name_H-M "I 2 2 2"
_symmetry_group_IT_number 23
_symmetry_cell_setting 'orthorhombic'
loop_
_space_group_symop_operation_xyz
x,y,z
-x,-y,z
x,-y,-z
-x,y,-z
1/2+x,1/2+y,1/2+z
1/2-x,1/2-y,1/2+z
1/2+x,1/2-y,1/2-z
1/2-x,1/2+y,1/2-z
loop_
_atom_site_type_symbol
_atom_site_label
_atom_site_fract_x
_atom_site_fract_y
_atom_site_fract_z
Si Si1 0.493255 0.906714 0.220781
Si Si2 0.334806 0.482810 0.799098
Si Si3 0.874619 0.682561 0.850222
Si Si4 0.436414 0.653062 0.244553
Si Si5 0.711067 0.914714 0.066817
Si Si6 0.589992 0.354517 0.685111
Si Si7 0.641379 0.184777 0.237700
O O1 0.545226 0.849707 0.345604
O O2 0.414273 0.886340 0.265637
O O3 0.500000 0.000000 0.281156
O O4 0.500000 0.890646 0.000000
O O5 0.400287 0.425743 0.847666
O O6 0.288264 0.434305 0.645258
O O7 0.360282 0.567964 0.711800
O O8 0.296632 0.500000 0.000000
O O9 0.832536 0.615098 0.740378
O O10 0.870802 0.771564 0.751594
O O11 0.834181 0.696095 0.048163
O O12 0.429106 0.652697 0.467812
O O13 0.518273 0.644474 0.193759
O O14 0.397908 0.733715 0.160540
O O15 0.704611 0.847082 0.898091
O O16 0.677179 0.000000 0.000000
#
# Coordination Sequence:
#
# PCOD8164084 Si02
#       7
#     8   8   8   8   8   8   8
#     4  11  21  37  65 107 154 192 247 314 388 451
#     4  12  29  49  73 111 152 210 271 323 400 489
#     4  11  24  44  75 114 147 202 255 313 392 471
#     4  10  22  47  79 116 148 197 261 333 414 468
#     4  12  28  49  70 103 154 205 258 314 383 483
#     4  10  22  47  81 113 155 192 258 346 403 471
#     4  11  24  44  74 109 150 197 250 321 390 469
#
# _framework density 25.040465000000001
#
# number of rings (size 3 to 8) (size 9 to 14) (size 15 to 20)
#    0.000    1.000    2.857    3.000    4.000    4.571 
#    7.714    0.000    0.000    0.000    0.000    0.000 
#    0.000    0.000    0.000    0.000    0.000    0.000 
#
# Total GULP energy -346971.424372 kJ/mol
# GULP energy per Si atom -12391.836585 kJ/mol
# Density = 2.498347 g / cm^3
# Si number density = 25.040465 Si / 1000 Ang^3
#
#
#
# Elastic Constant Matrix: (Units=GPa)
#
#
# Indices 1 2 3 4 5 6 
#
# 1 106.7618 60.4439 39.1417 0.0000 0.0000 0.0000
# 2 60.4439 163.2261 15.6253 0.0000 0.0000 0.0000
# 3 39.1417 15.6253 92.3783 0.0000 0.0000 0.0000
# 4 0.0000 0.0000 0.0000 34.8999 0.0000 0.0000
# 5 0.0000 0.0000 0.0000 0.0000 39.5141 0.0000
# 6 0.0000 0.0000 0.0000 0.0000 0.0000 36.6273
#
#
#
# Elastic Compliance Matrix: (Units=1/GPa)
#
#
# Indices 1 2 3 4 5 6 
#
# 1 0.013863 -0.004646 -0.005088 0.000000 0.000000 0.000000
# 2 -0.004646 0.007785 0.000652 0.000000 0.000000 0.000000
# 3 -0.005088 0.000652 0.012871 0.000000 0.000000 0.000000
# 4 0.000000 0.000000 0.000000 0.028653 0.000000 0.000000
# 5 0.000000 0.000000 0.000000 0.000000 0.025307 0.000000
# 6 0.000000 0.000000 0.000000 0.000000 0.000000 0.027302
#
#
# Mechanical properties :
#
#
# Convention : Reuss Voigt Hill
#
# Bulk Modulus (GPa) = 61.14958 65.86536 63.50747
# Shear Modulus (GPa) = 35.86905 38.68530 37.27717
#
# Velocity S-wave (km/s) = 3.78887 3.93480 3.86252
# Velocity P-wave (km/s) = 6.60409 6.85596 6.73120
#
# Compressibility (1/GPa) = 0.01635334
#
# Stress axis : x y z
#
# Youngs Moduli (GPa) = 72.13691 128.45814 77.69690
#
# Poissons Ratio (x) = 0.59686 0.39531
# Poissons Ratio (y) = 0.33517 -0.05066
# Poissons Ratio (z) = 0.36702 -0.08375
#
# Static dielectric constant tensor:
#      x y z
#    x 4.321710 0.000000 0.000000 
#    y 0.000000 4.724140 0.000000 
#    z 0.000000 0.000000 5.385570 
# 
# 
# High freq. dielectric constant tensor:
#      x y z
#    x 1.972940 0.000000 0.000000 
#    y 0.000000 2.011630 0.000000 
#    z 0.000000 0.000000 2.009010 
# 
# From -- ./inp_files/12045.got.cif
#   From: 2010.03.12/outbox.cif.g09.slc.cpg/sg23_7_cif.got.tgz:12045.got - 2010.04.14 02:50:06.
