data_PCOD8164056
_publ_section_title
;
Structure prediction by ZEFSAII (Michael W. Deem and Ramdas Pophale) SiO2 
 PCOD8164056
Probable space group: I 2 2 2
;
_chemical_formula_sum "Si O2"
_cell_formula_units_Z 18
_cell_length_a 16.964917
_cell_length_b 4.970483
_cell_length_c 8.752968
_cell_angle_alpha 90.000000
_cell_angle_beta 90.000000
_cell_angle_gamma 90.000000
_cell_volume 738.083799
_symmetry_space_group_name_H-M "I 2 2 2"
_symmetry_group_IT_number 23
_symmetry_cell_setting 'orthorhombic'
loop_
_space_group_symop_operation_xyz
x,y,z
-x,-y,z
x,-y,-z
-x,y,-z
1/2+x,1/2+y,1/2+z
1/2-x,1/2-y,1/2+z
1/2+x,1/2-y,1/2-z
1/2-x,1/2+y,1/2-z
loop_
_atom_site_type_symbol
_atom_site_label
_atom_site_fract_x
_atom_site_fract_y
_atom_site_fract_z
Si Si1 0.000000 0.000000 0.500000
Si Si2 0.723333 0.899546 0.336589
Si Si3 0.450526 0.741626 0.707910
O O1 0.945001 0.187077 0.391523
O O2 0.779321 0.658750 0.275843
O O3 0.636931 0.771850 0.357021
O O4 0.755632 0.000000 0.500000
O O5 0.500000 0.500000 0.629016
O O6 0.500000 0.000000 0.666184
#
# Coordination Sequence:
#
# PCOD8164056 Si02
#       3
#     2   8   8
#     4   8  22  36  74 102 134 188 234 312 346 440
#     4  12  28  48  74 112 153 202 249 311 380 447
#     4  10  22  42  71 106 141 190 247 300 367 437
#
# _framework density 24.387471999999999
#
# number of rings (size 3 to 8) (size 9 to 14) (size 15 to 20)
#    1.333    0.000    0.000    4.667    3.111    4.444 
#    0.000    2.222    0.000    0.000    0.000    0.000 
#    0.000    0.000    0.000    0.000    0.000    0.000 
#
# Total GULP energy -111558.292753 kJ/mol
# GULP energy per Si atom -12395.365861 kJ/mol
# Density = 2.433197 g / cm^3
# Si number density = 24.387472 Si / 1000 Ang^3
#
#
#
# Elastic Constant Matrix: (Units=GPa)
#
#
# Indices 1 2 3 4 5 6 
#
# 1 102.4549 49.1965 26.1839 0.0000 0.0000 0.0000
# 2 49.1965 204.4551 35.6151 0.0000 0.0000 0.0000
# 3 26.1839 35.6151 89.1215 0.0000 0.0000 0.0000
# 4 0.0000 0.0000 0.0000 74.7201 0.0000 0.0000
# 5 0.0000 0.0000 0.0000 0.0000 35.1232 0.0000
# 6 0.0000 0.0000 0.0000 0.0000 0.0000 51.2095
#
#
#
# Elastic Compliance Matrix: (Units=1/GPa)
#
#
# Indices 1 2 3 4 5 6 
#
# 1 0.011511 -0.002344 -0.002445 0.000000 0.000000 0.000000
# 2 -0.002344 0.005734 -0.001603 0.000000 0.000000 0.000000
# 3 -0.002445 -0.001603 0.012580 0.000000 0.000000 0.000000
# 4 0.000000 0.000000 0.000000 0.013383 0.000000 0.000000
# 5 0.000000 0.000000 0.000000 0.000000 0.028471 0.000000
# 6 0.000000 0.000000 0.000000 0.000000 0.000000 0.019528
#
#
# Mechanical properties :
#
#
# Convention : Reuss Voigt Hill
#
# Bulk Modulus (GPa) = 58.68305 68.66917 63.67611
# Shear Modulus (GPa) = 45.59096 51.21296 48.40196
#
# Velocity S-wave (km/s) = 4.32839 4.58751 4.45984
# Velocity P-wave (km/s) = 7.00678 7.50194 7.25858
#
# Compressibility (1/GPa) = 0.01704069
#
# Stress axis : x y z
#
# Youngs Moduli (GPa) = 86.87539 174.39096 79.49371
#
# Poissons Ratio (x) = 0.40874 0.19438
# Poissons Ratio (y) = 0.20362 0.12742
# Poissons Ratio (z) = 0.21243 0.27954
#
# Static dielectric constant tensor:
#      x y z
#    x 3.752820 0.000000 0.000000 
#    y 0.000000 4.591910 0.000000 
#    z 0.000000 0.000000 4.272890 
# 
# 
# High freq. dielectric constant tensor:
#      x y z
#    x 1.945920 0.000000 0.000000 
#    y 0.000000 1.986790 0.000000 
#    z 0.000000 0.000000 1.973300 
# 
# From -- ./inp_files/275.got.cif
#   From: 2010.03.12/outbox.cif.g09.slc.cpg/sg23_1_cif.got.tgz:275.got - 2010.04.14 02:50:06.
