data_PCOD8164563
_publ_section_title
;
Structure prediction by ZEFSAII (Michael W. Deem and Ramdas Pophale) SiO2 
 PCOD8164563
Probable space group: I 2 2 2
;
_chemical_formula_sum "Si O2"
_cell_formula_units_Z 64
_cell_length_a 18.325227
_cell_length_b 25.786076
_cell_length_c 9.413874
_cell_angle_alpha 90.000000
_cell_angle_beta 90.000000
_cell_angle_gamma 90.000000
_cell_volume 4448.391504
_symmetry_space_group_name_H-M "I 2 2 2"
_symmetry_group_IT_number 23
_symmetry_cell_setting 'orthorhombic'
loop_
_space_group_symop_operation_xyz
x,y,z
-x,-y,z
x,-y,-z
-x,y,-z
1/2+x,1/2+y,1/2+z
1/2-x,1/2-y,1/2+z
1/2+x,1/2-y,1/2-z
1/2-x,1/2+y,1/2-z
loop_
_atom_site_type_symbol
_atom_site_label
_atom_site_fract_x
_atom_site_fract_y
_atom_site_fract_z
Si Si1 0.584627 0.247517 0.334744
Si Si2 0.915373 0.747517 0.834744
Si Si3 0.294130 0.207469 0.164218
Si Si4 0.794130 0.292531 0.664217
Si Si5 0.341342 0.644937 0.338958
Si Si6 0.917421 0.941057 0.666559
Si Si7 0.082579 0.941057 0.666559
Si Si8 0.341342 0.355063 0.338958
O O1 0.500000 0.242596 0.298478
O O2 0.601224 0.237151 0.500000
O O3 0.626811 0.203888 0.240590
O O4 0.612477 0.304653 0.290749
O O5 0.873189 0.703888 0.740590
O O6 0.887522 0.804653 0.790749
O O7 0.250000 0.250000 0.250000
O O8 0.246048 0.154958 0.174721
O O9 0.303739 0.223918 0.000000
O O10 0.746049 0.345042 0.674721
O O11 0.360527 0.596291 0.242607
O O12 0.362338 0.631138 0.500000
O O13 0.909239 0.932789 0.500000
O O14 0.860527 0.903709 0.742607
O O15 0.000000 0.927952 0.714556
O O16 0.898244 1.000000 0.708340
#
# Coordination Sequence:
#
# PCOD8164563 Si02
#       8
#     8   8   8   8   8   8   8   8
#     4   9  17  28  41  59  83 107 133 166 199 233
#     4   9  17  28  41  59  83 107 133 166 199 233
#     4   9  17  28  40  56  79 105 134 166 198 234
#     4   9  17  28  40  56  79 105 134 166 198 234
#     4   9  17  28  41  57  78 105 135 165 196 230
#     4   9  18  30  41  56  79 104 132 167 201 232
#     4   9  18  30  41  56  79 104 132 167 201 232
#     4   9  17  28  41  57  78 105 135 165 196 230
#
# _framework density 14.387222
#
# number of rings (size 3 to 8) (size 9 to 14) (size 15 to 20)
#    0.000    3.000    0.000    3.750    0.000    7.500 
#    0.000    1.250    0.000    0.000    0.000    0.000 
#    0.000    1.000    0.000   11.000    0.000    8.000 
#
# Total GULP energy -396596.347693 kJ/mol
# GULP energy per Si atom -12393.635865 kJ/mol
# Density = 1.435448 g / cm^3
# Si number density = 14.387222 Si / 1000 Ang^3
#
#
#
# Elastic Constant Matrix: (Units=GPa)
#
#
# Indices 1 2 3 4 5 6 
#
# 1 103.1120 44.3457 52.8637 0.0000 0.0000 0.0000
# 2 44.3457 62.6766 41.9298 0.0000 0.0000 0.0000
# 3 52.8637 41.9298 72.8690 0.0000 0.0000 0.0000
# 4 0.0000 0.0000 0.0000 25.2651 0.0000 0.0000
# 5 0.0000 0.0000 0.0000 0.0000 28.0531 0.0000
# 6 0.0000 0.0000 0.0000 0.0000 0.0000 21.9933
#
#
#
# Elastic Compliance Matrix: (Units=1/GPa)
#
#
# Indices 1 2 3 4 5 6 
#
# 1 0.016742 -0.006049 -0.008665 0.000000 0.000000 0.000000
# 2 -0.006049 0.028126 -0.011796 0.000000 0.000000 0.000000
# 3 -0.008665 -0.011796 0.026797 0.000000 0.000000 0.000000
# 4 0.000000 0.000000 0.000000 0.039580 0.000000 0.000000
# 5 0.000000 0.000000 0.000000 0.000000 0.035647 0.000000
# 6 0.000000 0.000000 0.000000 0.000000 0.000000 0.045468
#
#
# Mechanical properties :
#
#
# Convention : Reuss Voigt Hill
#
# Bulk Modulus (GPa) = 53.63265 57.43736 55.53501
# Shear Modulus (GPa) = 19.87320 21.69687 20.78503
#
# Velocity S-wave (km/s) = 3.72063 3.88759 3.80503
# Velocity P-wave (km/s) = 7.47103 7.75631 7.61501
#
# Compressibility (1/GPa) = 0.01864536
#
# Stress axis : x y z
#
# Youngs Moduli (GPa) = 59.72977 35.55457 37.31742
#
# Poissons Ratio (x) = 0.21505 0.32337
# Poissons Ratio (y) = 0.36128 0.44019
# Poissons Ratio (z) = 0.51758 0.41940
#
# Static dielectric constant tensor:
#      x y z
#    x 3.177150 0.000000 0.000000 
#    y 0.000000 2.571920 0.000000 
#    z 0.000000 0.000000 2.911920 
# 
# 
# High freq. dielectric constant tensor:
#      x y z
#    x 1.544380 0.000000 0.000000 
#    y 0.000000 1.507580 0.000000 
#    z 0.000000 0.000000 1.559430 
# 
# From -- ./inp_files/12295.got.cif
#   From: 2010.03.12/outbox.cif.g09.slc.cpg/sg23_7_cif.got.tgz:12295.got - 2010.04.14 02:50:06.
