data_PCOD8164966
_publ_section_title
;
Structure prediction by ZEFSAII (Michael W. Deem and Ramdas Pophale) SiO2 
 PCOD8164966
Probable space group: I 21 21 21
;
_chemical_formula_sum "Si O2"
_cell_formula_units_Z 64
_cell_length_a 8.816433
_cell_length_b 18.202848
_cell_length_c 21.610684
_cell_angle_alpha 90.000000
_cell_angle_beta 90.000000
_cell_angle_gamma 90.000000
_cell_volume 3468.173113
_symmetry_space_group_name_H-M "I 21 21 21"
_symmetry_group_IT_number 24
_symmetry_cell_setting 'orthorhombic'
loop_
_space_group_symop_operation_xyz
x,y,z
-x,1/2-y,z
x,-y,1/2-z
1/2-x,y,-z
1/2+x,1/2+y,1/2+z
1/2-x,-y,1/2+z
1/2+x,1/2-y,-z
-x,1/2+y,1/2-z
loop_
_atom_site_type_symbol
_atom_site_label
_atom_site_fract_x
_atom_site_fract_y
_atom_site_fract_z
Si Si1 0.395638 0.950216 0.968889
Si Si2 0.980781 0.045434 0.341665
Si Si3 0.307719 0.933236 0.206075
Si Si4 0.262887 0.674617 0.149495
Si Si5 0.699414 0.963067 0.313025
Si Si6 0.042178 0.671603 0.732775
Si Si7 0.841651 0.715754 0.057179
Si Si8 0.971188 0.062514 0.597797
O O1 0.468259 0.988113 0.908742
O O2 0.339759 0.871830 0.942080
O O3 0.250000 0.991070 0.000000
O O4 0.516484 0.946332 0.024233
O O5 0.124636 0.068576 0.299364
O O6 0.881038 0.119519 0.348358
O O7 0.882226 0.977766 0.312137
O O8 0.387574 0.863036 0.238772
O O9 0.354814 0.000000 0.250000
O O10 0.371228 0.943582 0.136011
O O11 0.330071 0.687847 0.216522
O O12 0.220858 0.754396 0.122655
O O13 0.395720 0.641790 0.106767
O O14 0.634531 0.880167 0.315545
O O15 0.641811 0.001671 0.375051
O O16 0.632247 0.000000 0.250000
O O17 0.000000 0.750000 0.701349
O O18 0.000000 0.750000 0.044425
O O19 0.750000 0.747680 0.000000
#
# Coordination Sequence:
#
# PCOD8164966 Si02
#       8
#     8   8   8   8   8   8   8   8
#     4  11  22  33  49  83 113 152 201 248 285 352
#     4  11  22  34  61  80 117 150 201 258 287 346
#     4  11  20  37  60  85 109 160 199 242 311 349
#     4  10  22  34  50  75 108 167 197 242 285 343
#     4  11  19  41  58  82 111 154 209 260 298 361
#     4  11  23  37  59  86 117 149 203 252 314 370
#     4  11  22  33  45  66 115 160 205 229 285 325
#     4  10  19  36  58  71 114 151 215 239 286 348
#
# _framework density 18.453520000000001
#
# number of rings (size 3 to 8) (size 9 to 14) (size 15 to 20)
#    0.000    1.250    7.500    1.125    1.750    3.000 
#    0.000    0.000    0.000    0.000    0.000    0.000 
#   11.250    0.000    0.000    0.000    0.000    0.000 
#
# Total GULP energy -396440.545252 kJ/mol
# GULP energy per Si atom -12388.767039 kJ/mol
# Density = 1.841152 g / cm^3
# Si number density = 18.453520 Si / 1000 Ang^3
#
#
#
# Elastic Constant Matrix: (Units=GPa)
#
#
# Indices 1 2 3 4 5 6 
#
# 1 109.8265 30.0089 24.0025 0.0000 0.0000 0.0000
# 2 30.0089 79.1332 33.1970 0.0000 0.0000 0.0000
# 3 24.0025 33.1970 63.1412 0.0000 0.0000 0.0000
# 4 0.0000 0.0000 0.0000 31.9518 0.0000 0.0000
# 5 0.0000 0.0000 0.0000 0.0000 36.3857 0.0000
# 6 0.0000 0.0000 0.0000 0.0000 0.0000 51.4982
#
#
#
# Elastic Compliance Matrix: (Units=1/GPa)
#
#
# Indices 1 2 3 4 5 6 
#
# 1 0.010438 -0.002943 -0.002421 0.000000 0.000000 0.000000
# 2 -0.002943 0.017042 -0.007841 0.000000 0.000000 0.000000
# 3 -0.002421 -0.007841 0.020880 0.000000 0.000000 0.000000
# 4 0.000000 0.000000 0.000000 0.031297 0.000000 0.000000
# 5 0.000000 0.000000 0.000000 0.000000 0.027483 0.000000
# 6 0.000000 0.000000 0.000000 0.000000 0.000000 0.019418
#
#
# Mechanical properties :
#
#
# Convention : Reuss Voigt Hill
#
# Bulk Modulus (GPa) = 45.55604 47.39085 46.47344
# Shear Modulus (GPa) = 31.19395 34.95999 33.07697
#
# Velocity S-wave (km/s) = 4.11592 4.35729 4.23832
# Velocity P-wave (km/s) = 6.87955 7.14504 7.01355
#
# Compressibility (1/GPa) = 0.02195099
#
# Stress axis : x y z
#
# Youngs Moduli (GPa) = 95.79959 58.67684 47.89158
#
# Poissons Ratio (x) = 0.17268 0.11594
# Poissons Ratio (y) = 0.28193 0.37554
# Poissons Ratio (z) = 0.23191 0.46011
#
# Static dielectric constant tensor:
#      x y z
#    x 3.734690 0.000000 0.000000 
#    y 0.000000 3.051770 0.000000 
#    z 0.000000 0.000000 3.322370 
# 
# 
# High freq. dielectric constant tensor:
#      x y z
#    x 1.741420 0.000000 0.000000 
#    y 0.000000 1.668710 0.000000 
#    z 0.000000 0.000000 1.699340 
# 
# From -- ./inp_files/35325.got.cif
#   From: 2010.03.12/outbox.cif.g09.slc.cpg/sg24_18_cif.got.tgz:35325.got - 2010.04.14 03:06:53.
