data_PCOD8164258
_publ_section_title
;
Structure prediction by ZEFSAII (Michael W. Deem and Ramdas Pophale) SiO2 
 PCOD8164258
Probable space group: I 2 2 2
;
_chemical_formula_sum "Si O2"
_cell_formula_units_Z 32
_cell_length_a 10.018152
_cell_length_b 8.912897
_cell_length_c 14.664215
_cell_angle_alpha 90.000000
_cell_angle_beta 90.000000
_cell_angle_gamma 90.000000
_cell_volume 1309.378857
_symmetry_space_group_name_H-M "I 2 2 2"
_symmetry_group_IT_number 23
_symmetry_cell_setting 'orthorhombic'
loop_
_space_group_symop_operation_xyz
x,y,z
-x,-y,z
x,-y,-z
-x,y,-z
1/2+x,1/2+y,1/2+z
1/2-x,1/2-y,1/2+z
1/2+x,1/2-y,1/2-z
1/2-x,1/2+y,1/2-z
loop_
_atom_site_type_symbol
_atom_site_label
_atom_site_fract_x
_atom_site_fract_y
_atom_site_fract_z
Si Si1 0.013919 0.832557 0.822188
Si Si2 0.831824 0.395728 0.918760
Si Si3 0.296379 0.124597 0.254536
Si Si4 0.360323 0.133426 0.053368
O O1 0.046203 0.718741 0.904029
O O2 0.140479 0.830029 0.752540
O O3 0.875183 0.778112 0.779185
O O4 0.000000 0.000000 0.860587
O O5 0.810460 0.491515 0.826949
O O6 0.703677 0.298753 0.948867
O O7 0.875749 0.500000 0.000000
O O8 0.362421 0.075406 0.158089
O O9 0.500000 0.149077 0.000000
O O10 0.280077 0.000000 0.000000
#
# Coordination Sequence:
#
# PCOD8164258 Si02
#       4
#     8   8   8   8
#     4  11  25  48  77 109 153 211 262 325 404 471
#     4  11  27  46  73 114 159 204 260 329 402 479
#     4  11  26  50  77 116 158 208 262 337 404 471
#     4  10  25  46  78 116 150 208 269 329 383 475
#
# _framework density 24.439070000000001
#
# number of rings (size 3 to 8) (size 9 to 14) (size 15 to 20)
#    0.000    1.250    0.000    3.750   10.500    8.500 
#    4.500    6.250    0.000    0.000    0.000    0.000 
#    0.000    0.000    0.000    0.000    0.000    0.000 
#
# Total GULP energy -198226.251054 kJ/mol
# GULP energy per Si atom -12389.140691 kJ/mol
# Density = 2.438345 g / cm^3
# Si number density = 24.439070 Si / 1000 Ang^3
#
#
#
# Elastic Constant Matrix: (Units=GPa)
#
#
# Indices 1 2 3 4 5 6 
#
# 1 120.9292 59.3797 27.3994 0.0000 0.0000 0.0000
# 2 59.3797 212.2907 98.8999 0.0000 0.0000 0.0000
# 3 27.3994 98.8999 158.4346 0.0000 0.0000 0.0000
# 4 0.0000 0.0000 0.0000 40.5244 0.0000 0.0000
# 5 0.0000 0.0000 0.0000 0.0000 30.4401 0.0000
# 6 0.0000 0.0000 0.0000 0.0000 0.0000 52.3997
#
#
#
# Elastic Compliance Matrix: (Units=1/GPa)
#
#
# Indices 1 2 3 4 5 6 
#
# 1 0.009586 -0.002692 0.000023 0.000000 0.000000 0.000000
# 2 -0.002692 0.007398 -0.004153 0.000000 0.000000 0.000000
# 3 0.000023 -0.004153 0.008900 0.000000 0.000000 0.000000
# 4 0.000000 0.000000 0.000000 0.024677 0.000000 0.000000
# 5 0.000000 0.000000 0.000000 0.000000 0.032851 0.000000
# 6 0.000000 0.000000 0.000000 0.000000 0.000000 0.019084
#
#
# Mechanical properties :
#
#
# Convention : Reuss Voigt Hill
#
# Bulk Modulus (GPa) = 81.69714 95.89026 88.79370
# Shear Modulus (GPa) = 41.59057 45.07121 43.33089
#
# Velocity S-wave (km/s) = 4.12977 4.29911 4.21529
# Velocity P-wave (km/s) = 7.49943 7.99780 7.75262
#
# Compressibility (1/GPa) = 0.01224033
#
# Stress axis : x y z
#
# Youngs Moduli (GPa) = 104.31950 135.17200 112.35944
#
# Poissons Ratio (x) = 0.36385 -0.00253
# Poissons Ratio (y) = 0.28080 0.46658
# Poissons Ratio (z) = -0.00235 0.56131
#
# Static dielectric constant tensor:
#      x y z
#    x 4.437880 0.000000 0.000000 
#    y 0.000000 5.181390 0.000000 
#    z 0.000000 0.000000 4.456950 
# 
# 
# High freq. dielectric constant tensor:
#      x y z
#    x 1.971240 0.000000 0.000000 
#    y 0.000000 1.997690 0.000000 
#    z 0.000000 0.000000 1.967840 
# 
# From -- ./inp_files/20545.got.cif
#   From: 2010.03.12/outbox.cif.g09.slc.cpg/sg23_11_cif.got.tgz:20545.got - 2010.04.14 02:50:06.
