data_PCOD8164214
_publ_section_title
;
Structure prediction by ZEFSAII (Michael W. Deem and Ramdas Pophale) SiO2 
 PCOD8164214
Probable space group: I 2 2 2
;
_chemical_formula_sum "Si O2"
_cell_formula_units_Z 40
_cell_length_a 7.583501
_cell_length_b 15.168313
_cell_length_c 15.133081
_cell_angle_alpha 90.000000
_cell_angle_beta 90.000000
_cell_angle_gamma 90.000000
_cell_volume 1740.741915
_symmetry_space_group_name_H-M "I 2 2 2"
_symmetry_group_IT_number 23
_symmetry_cell_setting 'orthorhombic'
loop_
_space_group_symop_operation_xyz
x,y,z
-x,-y,z
x,-y,-z
-x,y,-z
1/2+x,1/2+y,1/2+z
1/2-x,1/2-y,1/2+z
1/2+x,1/2-y,1/2-z
1/2-x,1/2+y,1/2-z
loop_
_atom_site_type_symbol
_atom_site_label
_atom_site_fract_x
_atom_site_fract_y
_atom_site_fract_z
Si Si1 0.191583 0.275466 0.474775
Si Si2 0.828361 0.698510 0.154501
Si Si3 0.696908 0.017492 0.274884
Si Si4 0.310204 0.545189 0.583946
Si Si5 0.261945 0.172779 0.311227
O O1 0.284298 0.224867 0.554844
O O2 0.323658 0.351068 0.438936
O O3 0.150521 0.209753 0.393297
O O4 0.000000 0.314712 0.500000
O O5 0.728276 0.606072 0.178253
O O6 0.770137 0.775722 0.220280
O O7 0.034297 0.680929 0.163879
O O8 0.693215 0.032402 0.169934
O O9 0.500000 0.000000 0.307348
O O10 0.804230 0.928450 0.298224
O O11 0.500000 0.500000 0.598749
O O12 0.215269 0.500000 0.500000
#
# Coordination Sequence:
#
# PCOD8164214 Si02
#       5
#     8   8   8   8   8
#     4  12  27  44  68 104 140 189 231 289 358 424
#     4  11  24  44  69  99 145 182 237 290 351 426
#     4  10  24  44  68 100 136 184 228 291 354 414
#     4  11  26  40  66 103 136 172 231 288 353 408
#     4  11  24  43  70  99 139 188 235 290 356 418
#
# _framework density 22.978708999999998
#
# number of rings (size 3 to 8) (size 9 to 14) (size 15 to 20)
#    0.000    1.000    2.000    3.000   14.000    2.400 
#    0.000    4.000    0.000    0.000    0.000    0.000 
#    0.000    0.000    0.000    0.000    0.000    0.000 
#
# Total GULP energy -247968.441637 kJ/mol
# GULP energy per Si atom -12398.422082 kJ/mol
# Density = 2.292641 g / cm^3
# Si number density = 22.978709 Si / 1000 Ang^3
#
#
#
# Elastic Constant Matrix: (Units=GPa)
#
#
# Indices 1 2 3 4 5 6 
#
# 1 42.5581 16.2315 -7.6279 0.0000 0.0000 0.0000
# 2 16.2315 199.4683 65.9720 0.0000 0.0000 0.0000
# 3 -7.6279 65.9720 136.2107 0.0000 0.0000 0.0000
# 4 0.0000 0.0000 0.0000 49.0695 0.0000 0.0000
# 5 0.0000 0.0000 0.0000 0.0000 30.5078 0.0000
# 6 0.0000 0.0000 0.0000 0.0000 0.0000 23.1938
#
#
#
# Elastic Compliance Matrix: (Units=1/GPa)
#
#
# Indices 1 2 3 4 5 6 
#
# 1 0.025150 -0.002992 0.002857 0.000000 0.000000 0.000000
# 2 -0.002992 0.006325 -0.003231 0.000000 0.000000 0.000000
# 3 0.002857 -0.003231 0.009067 0.000000 0.000000 0.000000
# 4 0.000000 0.000000 0.000000 0.020379 0.000000 0.000000
# 5 0.000000 0.000000 0.000000 0.000000 0.032778 0.000000
# 6 0.000000 0.000000 0.000000 0.000000 0.000000 0.043115
#
#
# Mechanical properties :
#
#
# Convention : Reuss Voigt Hill
#
# Bulk Modulus (GPa) = 29.57567 58.59873 44.08720
# Shear Modulus (GPa) = 32.29629 40.79833 36.54731
#
# Velocity S-wave (km/s) = 3.75305 4.21822 3.99242
# Velocity P-wave (km/s) = 5.62844 7.02006 6.36241
#
# Compressibility (1/GPa) = 0.03381157
#
# Stress axis : x y z
#
# Youngs Moduli (GPa) = 39.76077 158.09148 110.29532
#
# Poissons Ratio (x) = 0.47295 -0.31516
# Poissons Ratio (y) = 0.11895 0.35639
# Poissons Ratio (z) = -0.11361 0.51082
#
# Static dielectric constant tensor:
#      x y z
#    x 3.826070 0.000000 0.000000 
#    y 0.000000 4.780250 0.000000 
#    z 0.000000 0.000000 4.316920 
# 
# 
# High freq. dielectric constant tensor:
#      x y z
#    x 1.893450 0.000000 0.000000 
#    y 0.000000 1.925290 0.000000 
#    z 0.000000 0.000000 1.912850 
# 
# From -- ./inp_files/9569.got.cif
#   From: 2010.03.12/outbox.cif.g09.slc.cpg/sg23_5_cif.got.tgz:9569.got - 2010.04.14 02:50:06.
