data_PCOD8164868
_publ_section_title
;
Structure prediction by ZEFSAII (Michael W. Deem and Ramdas Pophale) SiO2 
 PCOD8164868
Probable space group: I 21 21 21
;
_chemical_formula_sum "Si O2"
_cell_formula_units_Z 48
_cell_length_a 17.582107
_cell_length_b 13.218512
_cell_length_c 8.932317
_cell_angle_alpha 90.000000
_cell_angle_beta 90.000000
_cell_angle_gamma 90.000000
_cell_volume 2075.953473
_symmetry_space_group_name_H-M "I 21 21 21"
_symmetry_group_IT_number 24
_symmetry_cell_setting 'orthorhombic'
loop_
_space_group_symop_operation_xyz
x,y,z
-x,1/2-y,z
x,-y,1/2-z
1/2-x,y,-z
1/2+x,1/2+y,1/2+z
1/2-x,-y,1/2+z
1/2+x,1/2-y,-z
-x,1/2+y,1/2-z
loop_
_atom_site_type_symbol
_atom_site_label
_atom_site_fract_x
_atom_site_fract_y
_atom_site_fract_z
Si Si1 0.494654 0.631886 0.663271
Si Si2 0.915201 0.222568 0.647851
Si Si3 0.126574 0.000000 0.250000
Si Si4 0.269370 0.709857 0.332086
Si Si5 0.911677 0.046154 0.446558
Si Si6 0.724289 0.000000 0.750000
Si Si7 0.821307 0.317324 0.402215
O O1 0.500000 0.750000 0.622910
O O2 0.579097 0.585357 0.660943
O O3 0.461917 0.610367 0.828367
O O4 0.443978 0.569561 0.541212
O O5 0.851652 0.251735 0.773309
O O6 0.913193 0.102767 0.606149
O O7 0.896891 0.282689 0.491989
O O8 0.000000 0.250000 0.705627
O O9 0.177157 0.937379 0.131977
O O10 0.250000 0.742341 0.500000
O O11 0.276563 0.589194 0.313514
O O12 0.194394 0.752147 0.247062
O O13 0.825757 0.042230 0.387711
O O14 0.750000 0.289933 0.500000
#
# Coordination Sequence:
#
# PCOD8164868 Si02
#       7
#     8   8   4   8   8   4   8
#     4   9  17  29  52  96 143 167 217 279 333 397
#     4  11  21  42  72  97 140 187 234 287 357 424
#     4  10  19  32  60  91 128 172 216 276 332 391
#     4  11  26  42  67 102 142 181 234 297 355 424
#     4   9  18  31  60  97 134 180 229 282 341 417
#     4  10  21  38  64 103 138 180 232 290 352 417
#     4  10  22  40  65  99 129 183 239 288 338 415
#
# _framework density 23.121907
#
# number of rings (size 3 to 8) (size 9 to 14) (size 15 to 20)
#    0.000    2.333    1.667    3.500    4.667    0.667 
#    0.000    0.833    0.000    4.000    0.000    0.000 
#    0.000    0.000    0.000    0.000    0.000    0.000 
#
# Total GULP energy -297433.352783 kJ/mol
# GULP energy per Si atom -12393.056366 kJ/mol
# Density = 2.306928 g / cm^3
# Si number density = 23.121907 Si / 1000 Ang^3
#
#
#
# Elastic Constant Matrix: (Units=GPa)
#
#
# Indices 1 2 3 4 5 6 
#
# 1 104.3095 22.6425 42.1722 0.0000 0.0000 0.0000
# 2 22.6425 148.4625 34.8420 0.0000 0.0000 0.0000
# 3 42.1722 34.8420 96.9924 0.0000 0.0000 0.0000
# 4 0.0000 0.0000 0.0000 19.9689 0.0000 0.0000
# 5 0.0000 0.0000 0.0000 0.0000 18.8427 0.0000
# 6 0.0000 0.0000 0.0000 0.0000 0.0000 31.6436
#
#
#
# Elastic Compliance Matrix: (Units=1/GPa)
#
#
# Indices 1 2 3 4 5 6 
#
# 1 0.011688 -0.000644 -0.004850 0.000000 0.000000 0.000000
# 2 -0.000644 0.007391 -0.002375 0.000000 0.000000 0.000000
# 3 -0.004850 -0.002375 0.013272 0.000000 0.000000 0.000000
# 4 0.000000 0.000000 0.000000 0.050078 0.000000 0.000000
# 5 0.000000 0.000000 0.000000 0.000000 0.053071 0.000000
# 6 0.000000 0.000000 0.000000 0.000000 0.000000 0.031602
#
#
# Mechanical properties :
#
#
# Convention : Reuss Voigt Hill
#
# Bulk Modulus (GPa) = 60.19758 61.00863 60.60310
# Shear Modulus (GPa) = 26.54229 30.76489 28.65359
#
# Velocity S-wave (km/s) = 3.39178 3.65163 3.52410
# Velocity P-wave (km/s) = 6.43664 6.64997 6.54417
#
# Compressibility (1/GPa) = 0.01661196
#
# Stress axis : x y z
#
# Youngs Moduli (GPa) = 85.56005 135.29337 75.34544
#
# Poissons Ratio (x) = 0.08716 0.36545
# Poissons Ratio (y) = 0.05512 0.17895
# Poissons Ratio (z) = 0.41500 0.32133
#
# Static dielectric constant tensor:
#      x y z
#    x 4.181330 0.000000 0.000000 
#    y 0.000000 4.239260 0.000000 
#    z 0.000000 0.000000 3.866740 
# 
# 
# High freq. dielectric constant tensor:
#      x y z
#    x 1.916190 0.000000 0.000000 
#    y 0.000000 1.910580 0.000000 
#    z 0.000000 0.000000 1.874260 
# 
# From -- ./inp_files/14236.got.cif
#   From: 2010.03.12/outbox.cif.g09.slc.cpg/sg24_8_cif.got.tgz:14236.got - 2010.04.14 03:06:53.
