data_PCOD8164125
_publ_section_title
;
Structure prediction by ZEFSAII (Michael W. Deem and Ramdas Pophale) SiO2 
 PCOD8164125
Probable space group: I 2 2 2
;
_chemical_formula_sum "Si O2"
_cell_formula_units_Z 30
_cell_length_a 16.376780
_cell_length_b 5.403095
_cell_length_c 16.491153
_cell_angle_alpha 90.000000
_cell_angle_beta 90.000000
_cell_angle_gamma 90.000000
_cell_volume 1459.224590
_symmetry_space_group_name_H-M "I 2 2 2"
_symmetry_group_IT_number 23
_symmetry_cell_setting 'orthorhombic'
loop_
_space_group_symop_operation_xyz
x,y,z
-x,-y,z
x,-y,-z
-x,y,-z
1/2+x,1/2+y,1/2+z
1/2-x,1/2-y,1/2+z
1/2+x,1/2-y,1/2-z
1/2-x,1/2+y,1/2-z
loop_
_atom_site_type_symbol
_atom_site_label
_atom_site_fract_x
_atom_site_fract_y
_atom_site_fract_z
Si Si1 0.211965 0.500000 0.000000
Si Si2 0.052626 0.750109 0.295523
Si Si3 0.917794 0.654478 0.879830
Si Si4 0.500000 0.500000 0.500000
Si Si5 0.132021 0.247508 0.537479
O O1 0.158736 0.509040 0.082555
O O2 0.271507 0.263366 0.014296
O O3 0.102114 0.753138 0.210234
O O4 0.119814 0.752609 0.366030
O O5 0.000000 0.500000 0.304147
O O6 0.000000 0.000000 0.300205
O O7 0.000000 0.500000 0.873841
O O8 0.935215 0.864945 0.944164
O O9 0.094386 0.500000 0.500000
O O10 0.088185 0.000000 0.500000
#
# Coordination Sequence:
#
# PCOD8164125 Si02
#       5
#     4   8   8   2   8
#     4  10  23  42  61  92 136 168 214 258 327 402
#     4  11  24  43  67  98 128 163 225 275 319 384
#     4  11  22  39  63  97 125 168 211 271 318 381
#     4  12  18  36  68  90 130 152 228 240 346 364
#     4  10  24  44  63  97 127 177 214 259 337 378
#
# _framework density 20.558865999999998
#
# number of rings (size 3 to 8) (size 9 to 14) (size 15 to 20)
#    0.800    0.533    4.000    1.600    1.867    3.200 
#    4.800    0.000    0.000    0.000    0.000    0.000 
#    0.000    0.000    0.000    0.000    0.000    0.000 
#
# Total GULP energy -185830.004702 kJ/mol
# GULP energy per Si atom -12388.666980 kJ/mol
# Density = 2.051207 g / cm^3
# Si number density = 20.558866 Si / 1000 Ang^3
#
#
#
# Elastic Constant Matrix: (Units=GPa)
#
#
# Indices 1 2 3 4 5 6 
#
# 1 60.1092 14.8972 46.5218 0.0000 0.0000 0.0000
# 2 14.8972 140.3286 48.6597 0.0000 0.0000 0.0000
# 3 46.5218 48.6597 207.2575 0.0000 0.0000 0.0000
# 4 0.0000 0.0000 0.0000 34.3681 0.0000 0.0000
# 5 0.0000 0.0000 0.0000 0.0000 -317.7666 0.0000
# 6 0.0000 0.0000 0.0000 0.0000 0.0000 5.2029
#
#
#
# Elastic Compliance Matrix: (Units=1/GPa)
#
#
# Indices 1 2 3 4 5 6 
#
# 1 0.020184 -0.000622 -0.004384 0.000000 0.000000 0.000000
# 2 -0.000622 0.007777 -0.001686 0.000000 0.000000 0.000000
# 3 -0.004384 -0.001686 0.006205 0.000000 0.000000 0.000000
# 4 0.000000 0.000000 0.000000 0.029097 0.000000 0.000000
# 5 0.000000 0.000000 0.000000 0.000000 -0.003147 0.000000
# 6 0.000000 0.000000 0.000000 0.000000 0.000000 0.192201
#
#
# Mechanical properties :
#
#
# Convention : Reuss Voigt Hill
#
# Bulk Modulus (GPa) = 48.12350 69.76140 58.94245
# Shear Modulus (GPa) = 18.33995 -35.79801 -8.72903
#
# Velocity S-wave (km/s) = 2.98999 -4.17735 -2.06279
# Velocity P-wave (km/s) = 5.94799 3.27707 4.80197
#
# Compressibility (1/GPa) = 0.02077987
#
# Stress axis : x y z
#
# Youngs Moduli (GPa) = 49.54416 128.58617 161.16199
#
# Poissons Ratio (x) = 0.08003 0.70661
# Poissons Ratio (y) = 0.03084 0.27174
# Poissons Ratio (z) = 0.21722 0.21682
#
# Static dielectric constant tensor:
#      x y z
#    x 3.391280 0.000000 0.000000 
#    y 0.000000 3.908060 0.000000 
#    z 0.000000 0.000000 4.320850 
# 
# 
# High freq. dielectric constant tensor:
#      x y z
#    x 1.777240 0.000000 0.000000 
#    y 0.000000 1.810710 0.000000 
#    z 0.000000 0.000000 1.821650 
# 
# From -- ./inp_files/18981.got.cif
#   From: 2010.03.12/outbox.cif.g09.slc.cpg/sg23_10_cif.got.tgz:18981.got - 2010.04.14 02:50:06.
