data_PCOD8164046
_publ_section_title
;
Structure prediction by ZEFSAII (Michael W. Deem and Ramdas Pophale) SiO2 
 PCOD8164046
Probable space group: I 2 2 2
;
_chemical_formula_sum "Si O2"
_cell_formula_units_Z 26
_cell_length_a 7.946752
_cell_length_b 4.863278
_cell_length_c 29.416727
_cell_angle_alpha 90.000000
_cell_angle_beta 90.000000
_cell_angle_gamma 90.000000
_cell_volume 1136.876019
_symmetry_space_group_name_H-M "I 2 2 2"
_symmetry_group_IT_number 23
_symmetry_cell_setting 'orthorhombic'
loop_
_space_group_symop_operation_xyz
x,y,z
-x,-y,z
x,-y,-z
-x,y,-z
1/2+x,1/2+y,1/2+z
1/2-x,1/2-y,1/2+z
1/2+x,1/2-y,1/2-z
1/2-x,1/2+y,1/2-z
loop_
_atom_site_type_symbol
_atom_site_label
_atom_site_fract_x
_atom_site_fract_y
_atom_site_fract_z
Si Si1 0.838766 0.855427 0.587269
Si Si2 0.000000 0.000000 0.500000
Si Si3 0.806314 0.565337 0.276803
Si Si4 0.824726 0.148877 0.126447
O O1 0.682001 0.056552 0.600566
O O2 0.874829 0.825951 0.532925
O O3 0.817636 0.549710 0.605600
O O4 0.000000 0.000000 0.611644
O O5 0.707753 0.288565 0.263198
O O6 0.711375 0.690871 0.320378
O O7 0.000000 0.500000 0.287038
O O8 0.000000 0.000000 0.117011
#
# Coordination Sequence:
#
# PCOD8164046 Si02
#       4
#     8   2   8   8
#     4  10  22  42  67  91 124 170 215 263 323 388
#     4   8  24  42  74  90 132 162 230 266 332 386
#     4  12  25  43  65  94 131 173 216 266 321 380
#     4  12  24  41  64  97 131 169 215 268 323 385
#
# _framework density 22.869686000000002
#
# number of rings (size 3 to 8) (size 9 to 14) (size 15 to 20)
#    0.923    0.000    0.000    8.308    0.000    2.462 
#    0.000    4.615    0.000    0.000    0.000    0.000 
#    0.000    0.000    0.000    0.000    0.000    0.000 
#
# Total GULP energy -161169.016404 kJ/mol
# GULP energy per Si atom -12397.616646 kJ/mol
# Density = 2.281763 g / cm^3
# Si number density = 22.869686 Si / 1000 Ang^3
#
#
#
# Elastic Constant Matrix: (Units=GPa)
#
#
# Indices 1 2 3 4 5 6 
#
# 1 51.3964 -13.8463 17.7387 0.0000 0.0000 0.0000
# 2 -13.8463 94.1453 20.1012 0.0000 0.0000 0.0000
# 3 17.7387 20.1012 106.2534 0.0000 0.0000 0.0000
# 4 0.0000 0.0000 0.0000 12.0440 0.0000 0.0000
# 5 0.0000 0.0000 0.0000 0.0000 27.0088 0.0000
# 6 0.0000 0.0000 0.0000 0.0000 0.0000 33.7128
#
#
#
# Elastic Compliance Matrix: (Units=1/GPa)
#
#
# Indices 1 2 3 4 5 6 
#
# 1 0.022144 0.004216 -0.004495 0.000000 0.000000 0.000000
# 2 0.004216 0.011872 -0.002950 0.000000 0.000000 0.000000
# 3 -0.004495 -0.002950 0.010720 0.000000 0.000000 0.000000
# 4 0.000000 0.000000 0.000000 0.083029 0.000000 0.000000
# 5 0.000000 0.000000 0.000000 0.000000 0.037025 0.000000
# 6 0.000000 0.000000 0.000000 0.000000 0.000000 0.029662
#
#
# Mechanical properties :
#
#
# Convention : Reuss Voigt Hill
#
# Bulk Modulus (GPa) = 26.12362 33.30914 29.71638
# Shear Modulus (GPa) = 23.40086 29.73988 26.57037
#
# Velocity S-wave (km/s) = 3.20226 3.61003 3.41224
# Velocity P-wave (km/s) = 5.01201 5.65445 5.34289
#
# Compressibility (1/GPa) = 0.03827954
#
# Stress axis : x y z
#
# Youngs Moduli (GPa) = 45.15946 84.23295 93.28467
#
# Poissons Ratio (x) = -0.35516 0.41927
# Poissons Ratio (y) = -0.19041 0.27518
# Poissons Ratio (z) = 0.20297 0.24848
#
# Static dielectric constant tensor:
#      x y z
#    x 4.048290 0.000000 0.000000 
#    y 0.000000 4.077850 0.000000 
#    z 0.000000 0.000000 3.897520 
# 
# 
# High freq. dielectric constant tensor:
#      x y z
#    x 1.903480 0.000000 0.000000 
#    y 0.000000 1.907450 0.000000 
#    z 0.000000 0.000000 1.889420 
# 
# From -- ./inp_files/556.got.cif
#   From: 2010.03.12/outbox.cif.g09.slc.cpg/sg23_1_cif.got.tgz:556.got - 2010.04.14 02:50:06.
