data_PCOD8164779
_publ_section_title
;
Structure prediction by ZEFSAII (Michael W. Deem and Ramdas Pophale) SiO2 
 PCOD8164779
Probable space group: I 21 21 21
;
_chemical_formula_sum "Si O2"
_cell_formula_units_Z 48
_cell_length_a 14.389733
_cell_length_b 9.261983
_cell_length_c 17.516081
_cell_angle_alpha 90.000000
_cell_angle_beta 90.000000
_cell_angle_gamma 90.000000
_cell_volume 2334.498827
_symmetry_space_group_name_H-M "I 21 21 21"
_symmetry_group_IT_number 24
_symmetry_cell_setting 'orthorhombic'
loop_
_space_group_symop_operation_xyz
x,y,z
-x,1/2-y,z
x,-y,1/2-z
1/2-x,y,-z
1/2+x,1/2+y,1/2+z
1/2-x,-y,1/2+z
1/2+x,1/2-y,-z
-x,1/2+y,1/2-z
loop_
_atom_site_type_symbol
_atom_site_label
_atom_site_fract_x
_atom_site_fract_y
_atom_site_fract_z
Si Si1 0.264526 0.265737 0.239843
Si Si2 0.690382 0.989701 0.136663
Si Si3 0.750000 0.158880 0.500000
Si Si4 0.612673 0.500000 0.250000
Si Si5 0.851218 0.572291 0.023170
Si Si6 0.581865 0.367774 0.693022
Si Si7 0.007644 0.919225 0.900632
O O1 0.262889 0.362346 0.163988
O O2 0.318868 0.362906 0.301182
O O3 0.162531 0.224482 0.267359
O O4 0.321725 0.125117 0.218533
O O5 0.762593 0.939292 0.073450
O O6 0.589007 0.007005 0.098865
O O7 0.842347 0.258680 0.501165
O O8 0.551264 0.442093 0.318060
O O9 0.880014 0.562748 0.112982
O O10 0.750000 0.500146 0.000000
O O11 0.931110 0.507837 0.968510
O O12 0.500000 0.250000 0.679346
O O13 0.552136 0.500000 0.750000
O O14 0.000000 0.750000 0.915643
#
# Coordination Sequence:
#
# PCOD8164779 Si02
#       7
#     8   8   4   4   8   8   8
#     4  11  23  43  64  94 131 173 222 274 353 408
#     4  11  23  37  65  97 131 170 223 285 341 394
#     4  10  18  36  62  96 128 178 224 268 354 390
#     4  12  22  38  66  92 136 176 214 266 356 422
#     4  10  21  41  68  99 130 183 238 275 336 414
#     4  12  27  45  72 100 134 183 238 289 339 420
#     4  12  21  36  62 101 132 169 231 283 332 413
#
# _framework density 20.561159
#
# number of rings (size 3 to 8) (size 9 to 14) (size 15 to 20)
#    0.500    0.333    5.833    2.500    2.333    0.000 
#    0.000    1.667    0.000    0.000    0.000    0.000 
#    0.000    0.000    0.000    0.000    0.000    0.000 
#
# Total GULP energy -297383.207334 kJ/mol
# GULP energy per Si atom -12390.966972 kJ/mol
# Density = 2.051436 g / cm^3
# Si number density = 20.561159 Si / 1000 Ang^3
#
#
#
# Elastic Constant Matrix: (Units=GPa)
#
#
# Indices 1 2 3 4 5 6 
#
# 1 97.3374 6.9909 11.0985 0.0000 0.0000 0.0000
# 2 6.9909 60.9940 13.8673 0.0000 0.0000 0.0000
# 3 11.0985 13.8673 90.7627 0.0000 0.0000 0.0000
# 4 0.0000 0.0000 0.0000 -9.1761 0.0000 0.0000
# 5 0.0000 0.0000 0.0000 0.0000 31.6515 0.0000
# 6 0.0000 0.0000 0.0000 0.0000 0.0000 23.8341
#
#
#
# Elastic Compliance Matrix: (Units=1/GPa)
#
#
# Indices 1 2 3 4 5 6 
#
# 1 0.010471 -0.000942 -0.001136 0.000000 0.000000 0.000000
# 2 -0.000942 0.017070 -0.002493 0.000000 0.000000 0.000000
# 3 -0.001136 -0.002493 0.011538 0.000000 0.000000 0.000000
# 4 0.000000 0.000000 0.000000 -0.108979 0.000000 0.000000
# 5 0.000000 0.000000 0.000000 0.000000 0.031594 0.000000
# 6 0.000000 0.000000 0.000000 0.000000 0.000000 0.041957
#
#
# Mechanical properties :
#
#
# Convention : Reuss Voigt Hill
#
# Bulk Modulus (GPa) = 33.40470 34.77864 34.09167
# Shear Modulus (GPa) = 219.57634 23.73773 121.65704
#
# Velocity S-wave (km/s) = 10.34522 3.40147 7.70044
# Velocity P-wave (km/s) = 12.60873 5.69018 9.78157
#
# Compressibility (1/GPa) = 0.02993591
#
# Stress axis : x y z
#
# Youngs Moduli (GPa) = 95.50403 58.58315 86.67324
#
# Poissons Ratio (x) = 0.05517 0.09850
# Poissons Ratio (y) = 0.08994 0.21607
# Poissons Ratio (z) = 0.10854 0.14604
#
# Static dielectric constant tensor:
#      x y z
#    x 3.926070 0.000000 0.000000 
#    y 0.000000 3.619670 0.000000 
#    z 0.000000 0.000000 3.785270 
# 
# 
# High freq. dielectric constant tensor:
#      x y z
#    x 1.807970 0.000000 0.000000 
#    y 0.000000 1.774320 0.000000 
#    z 0.000000 0.000000 1.811410 
# 
# From -- ./inp_files/30749.got.cif
#   From: 2010.03.12/outbox.cif.g09.slc.cpg/sg24_16_cif.got.tgz:30749.got - 2010.04.14 03:06:53.
