data_PCOD8164624
_publ_section_title
;
Structure prediction by ZEFSAII (Michael W. Deem and Ramdas Pophale) SiO2 
 PCOD8164624
Probable space group: I 21 21 21
;
_chemical_formula_sum "Si O2"
_cell_formula_units_Z 48
_cell_length_a 9.171444
_cell_length_b 20.352724
_cell_length_c 14.820161
_cell_angle_alpha 90.000000
_cell_angle_beta 90.000000
_cell_angle_gamma 90.000000
_cell_volume 2766.388583
_symmetry_space_group_name_H-M "I 21 21 21"
_symmetry_group_IT_number 24
_symmetry_cell_setting 'orthorhombic'
loop_
_space_group_symop_operation_xyz
x,y,z
-x,1/2-y,z
x,-y,1/2-z
1/2-x,y,-z
1/2+x,1/2+y,1/2+z
1/2-x,-y,1/2+z
1/2+x,1/2-y,-z
-x,1/2+y,1/2-z
loop_
_atom_site_type_symbol
_atom_site_label
_atom_site_fract_x
_atom_site_fract_y
_atom_site_fract_z
Si Si1 0.914706 0.983909 0.511130
Si Si2 0.675085 0.362083 0.595696
Si Si3 0.381767 0.006672 0.847861
Si Si4 0.063424 0.182729 0.694632
Si Si5 0.586856 0.861321 0.014770
Si Si6 0.576833 0.440631 0.183938
O O1 0.750000 0.959290 0.500000
O O2 0.001733 0.967307 0.419479
O O3 0.983842 0.944112 0.593005
O O4 0.921367 0.061047 0.530632
O O5 0.750000 0.357666 0.500000
O O6 0.689839 0.436922 0.627868
O O7 0.763059 0.316517 0.667319
O O8 0.506345 0.341952 0.575970
O O9 0.248133 0.057859 0.841266
O O10 0.460014 0.000000 0.750000
O O11 0.034653 0.127458 0.768854
O O12 0.000000 0.250000 0.736789
O O13 0.971764 0.172364 0.603929
O O14 0.750000 0.835674 0.000000
O O15 0.533972 0.500000 0.250000
#
# Coordination Sequence:
#
# PCOD8164624 Si02
#       6
#     8   8   8   8   8   8
#     4  10  20  33  52  83 113 136 173 227 282 322
#     4   9  16  31  51  75 108 142 175 218 264 325
#     4  10  17  30  56  82 106 135 181 222 267 321
#     4  11  21  33  51  78 107 144 184 227 268 319
#     4   9  18  32  51  79 112 143 174 214 277 343
#     4  11  18  34  56  76 104 145 183 221 265 322
#
# _framework density 17.351141999999999
#
# number of rings (size 3 to 8) (size 9 to 14) (size 15 to 20)
#    0.000    2.000    5.000    2.500    0.000    2.667 
#    3.000    0.000    0.000    2.000    0.000    0.000 
#    0.000    0.000    0.000    0.000    0.000    0.000 
#
# Total GULP energy -297474.725150 kJ/mol
# GULP energy per Si atom -12394.780215 kJ/mol
# Density = 1.731165 g / cm^3
# Si number density = 17.351142 Si / 1000 Ang^3
#
#
#
# Elastic Constant Matrix: (Units=GPa)
#
#
# Indices 1 2 3 4 5 6 
#
# 1 127.0903 37.9205 57.3387 0.0000 0.0000 0.0000
# 2 37.9205 79.4101 36.3500 0.0000 0.0000 0.0000
# 3 57.3387 36.3500 107.4911 0.0000 0.0000 0.0000
# 4 0.0000 0.0000 0.0000 19.6000 0.0000 0.0000
# 5 0.0000 0.0000 0.0000 0.0000 20.3178 0.0000
# 6 0.0000 0.0000 0.0000 0.0000 0.0000 14.0903
#
#
#
# Elastic Compliance Matrix: (Units=1/GPa)
#
#
# Indices 1 2 3 4 5 6 
#
# 1 0.010942 -0.003021 -0.004815 0.000000 0.000000 0.000000
# 2 -0.003021 0.015733 -0.003709 0.000000 0.000000 0.000000
# 3 -0.004815 -0.003709 0.013126 0.000000 0.000000 0.000000
# 4 0.000000 0.000000 0.000000 0.051020 0.000000 0.000000
# 5 0.000000 0.000000 0.000000 0.000000 0.049218 0.000000
# 6 0.000000 0.000000 0.000000 0.000000 0.000000 0.070971
#
#
# Mechanical properties :
#
#
# Convention : Reuss Voigt Hill
#
# Bulk Modulus (GPa) = 59.84122 64.13445 61.98784
# Shear Modulus (GPa) = 20.86186 22.96044 21.91115
#
# Velocity S-wave (km/s) = 3.47123 3.64164 3.55745
# Velocity P-wave (km/s) = 7.11541 7.39763 7.25790
#
# Compressibility (1/GPa) = 0.01671089
#
# Stress axis : x y z
#
# Youngs Moduli (GPa) = 91.38822 63.55956 76.18484
#
# Poissons Ratio (x) = 0.19202 0.36685
# Poissons Ratio (y) = 0.27609 0.28257
# Poissons Ratio (z) = 0.44006 0.23574
#
# Static dielectric constant tensor:
#      x y z
#    x 3.675100 0.000000 0.000000 
#    y 0.000000 2.930920 0.000000 
#    z 0.000000 0.000000 3.303260 
# 
# 
# High freq. dielectric constant tensor:
#      x y z
#    x 1.674780 0.000000 0.000000 
#    y 0.000000 1.630620 0.000000 
#    z 0.000000 0.000000 1.663490 
# 
# From -- ./inp_files/12970.got.cif
#   From: 2010.03.12/outbox.cif.g09.slc.cpg/sg24_7_cif.got.tgz:12970.got - 2010.04.14 03:06:53.
