data_PCOD8164122
_publ_section_title
;
Structure prediction by ZEFSAII (Michael W. Deem and Ramdas Pophale) SiO2 
 PCOD8164122
Probable space group: I 2 2 2
;
_chemical_formula_sum "Si O2"
_cell_formula_units_Z 48
_cell_length_a 13.972447
_cell_length_b 7.941158
_cell_length_c 17.831914
_cell_angle_alpha 90.000000
_cell_angle_beta 90.000000
_cell_angle_gamma 90.000000
_cell_volume 1978.582980
_symmetry_space_group_name_H-M "I 2 2 2"
_symmetry_group_IT_number 23
_symmetry_cell_setting 'orthorhombic'
loop_
_space_group_symop_operation_xyz
x,y,z
-x,-y,z
x,-y,-z
-x,y,-z
1/2+x,1/2+y,1/2+z
1/2-x,1/2-y,1/2+z
1/2+x,1/2-y,1/2-z
1/2-x,1/2+y,1/2-z
loop_
_atom_site_type_symbol
_atom_site_label
_atom_site_fract_x
_atom_site_fract_y
_atom_site_fract_z
Si Si1 0.456949 0.313356 0.768225
Si Si2 0.721885 0.129674 0.936037
Si Si3 0.106103 0.304151 0.984866
Si Si4 0.271998 0.522354 0.274145
Si Si5 0.374005 0.197449 0.312388
Si Si6 0.530791 0.693429 0.077169
O O1 0.500000 0.500000 0.765794
O O2 0.344744 0.324170 0.748398
O O3 0.512771 0.195821 0.707676
O O4 0.475422 0.230270 0.850590
O O5 0.738316 0.030048 0.859577
O O6 0.645118 0.277670 0.918799
O O7 0.822218 0.210375 0.960118
O O8 0.685901 0.000000 0.000000
O O9 0.138891 0.272065 0.900040
O O10 0.108088 0.500000 0.000000
O O11 0.000000 0.230922 0.000000
O O12 0.325376 0.345684 0.262934
O O13 0.180553 0.530241 0.217539
O O14 0.500000 0.500000 0.072738
O O15 0.500000 0.785306 0.000000
#
# Coordination Sequence:
#
# PCOD8164122 Si02
#       6
#     8   8   8   8   8   8
#     4   9  20  39  66  96 138 182 233 283 350 429
#     4  12  25  46  72 108 148 192 248 307 370 443
#     4  11  27  45  71 106 147 199 248 300 366 438
#     4  11  24  42  70 105 140 190 236 295 367 429
#     4  11  23  45  68 104 141 183 240 294 363 434
#     4  10  23  41  69 103 137 192 241 296 363 435
#
# _framework density 24.259785999999998
#
# number of rings (size 3 to 8) (size 9 to 14) (size 15 to 20)
#    0.000    1.333    3.333    1.000    7.000    0.667 
#    0.000    0.000    0.000    0.000    0.000    0.000 
#    0.000    0.000    0.000    0.000    0.000    0.000 
#
# Total GULP energy -297545.202463 kJ/mol
# GULP energy per Si atom -12397.716769 kJ/mol
# Density = 2.420457 g / cm^3
# Si number density = 24.259786 Si / 1000 Ang^3
#
#
#
# Elastic Constant Matrix: (Units=GPa)
#
#
# Indices 1 2 3 4 5 6 
#
# 1 111.3747 15.8736 19.9053 0.0000 0.0000 0.0000
# 2 15.8736 42.4329 -9.8564 0.0000 0.0000 0.0000
# 3 19.9053 -9.8564 114.0690 0.0000 0.0000 0.0000
# 4 0.0000 0.0000 0.0000 15.2197 0.0000 0.0000
# 5 0.0000 0.0000 0.0000 0.0000 38.2492 0.0000
# 6 0.0000 0.0000 0.0000 0.0000 0.0000 32.1578
#
#
#
# Elastic Compliance Matrix: (Units=1/GPa)
#
#
# Indices 1 2 3 4 5 6 
#
# 1 0.009954 -0.004212 -0.002101 0.000000 0.000000 0.000000
# 2 -0.004212 0.025831 0.002967 0.000000 0.000000 0.000000
# 3 -0.002101 0.002967 0.009390 0.000000 0.000000 0.000000
# 4 0.000000 0.000000 0.000000 0.065704 0.000000 0.000000
# 5 0.000000 0.000000 0.000000 0.000000 0.026144 0.000000
# 6 0.000000 0.000000 0.000000 0.000000 0.000000 0.031097
#
#
# Mechanical properties :
#
#
# Convention : Reuss Voigt Hill
#
# Bulk Modulus (GPa) = 25.98499 35.52462 30.75480
# Shear Modulus (GPa) = 26.64666 33.25560 29.95113
#
# Velocity S-wave (km/s) = 3.31779 3.70646 3.51750
# Velocity P-wave (km/s) = 5.04097 5.74390 5.40388
#
# Compressibility (1/GPa) = 0.03848376
#
# Stress axis : x y z
#
# Youngs Moduli (GPa) = 100.45713 38.71253 106.50047
#
# Poissons Ratio (x) = 0.16305 0.22376
# Poissons Ratio (y) = 0.42311 -0.31599
# Poissons Ratio (z) = 0.21106 -0.11486
#
# Static dielectric constant tensor:
#      x y z
#    x 4.664610 0.000000 0.000000 
#    y 0.000000 4.006130 0.000000 
#    z 0.000000 0.000000 4.814180 
# 
# 
# High freq. dielectric constant tensor:
#      x y z
#    x 1.973330 0.000000 0.000000 
#    y 0.000000 1.941540 0.000000 
#    z 0.000000 0.000000 1.975930 
# 
# From -- ./inp_files/24732.got.cif
#   From: 2010.03.12/outbox.cif.g09.slc.cpg/sg23_13_cif.got.tgz:24732.got - 2010.04.14 02:50:06.
