data_PCOD8164671
_publ_section_title
;
Structure prediction by ZEFSAII (Michael W. Deem and Ramdas Pophale) SiO2 
 PCOD8164671
Probable space group: I 21 21 21
;
_chemical_formula_sum "Si O2"
_cell_formula_units_Z 48
_cell_length_a 31.343198
_cell_length_b 9.037934
_cell_length_c 8.348970
_cell_angle_alpha 90.000000
_cell_angle_beta 90.000000
_cell_angle_gamma 90.000000
_cell_volume 2365.077477
_symmetry_space_group_name_H-M "I 21 21 21"
_symmetry_group_IT_number 24
_symmetry_cell_setting 'orthorhombic'
loop_
_space_group_symop_operation_xyz
x,y,z
-x,1/2-y,z
x,-y,1/2-z
1/2-x,y,-z
1/2+x,1/2+y,1/2+z
1/2-x,-y,1/2+z
1/2+x,1/2-y,-z
-x,1/2+y,1/2-z
loop_
_atom_site_type_symbol
_atom_site_label
_atom_site_fract_x
_atom_site_fract_y
_atom_site_fract_z
Si Si1 0.578011 0.853389 0.852771
Si Si2 0.058997 0.178516 0.053338
Si Si3 0.666827 0.269634 0.650970
Si Si4 0.521417 0.028740 0.067313
Si Si5 0.846976 0.596889 0.474546
Si Si6 0.206446 0.000000 0.750000
Si Si7 0.750000 0.704300 0.000000
O O1 0.561578 0.717087 0.743262
O O2 0.626326 0.823575 0.911975
O O3 0.578059 0.000000 0.750000
O O4 0.546137 0.883037 0.001227
O O5 0.102837 0.109012 0.991999
O O6 0.050516 0.324937 0.947872
O O7 0.022112 0.056408 0.031615
O O8 0.663415 0.435383 0.589219
O O9 0.667616 0.276875 0.846022
O O10 0.710021 0.199740 0.570948
O O11 0.509591 0.000000 0.250000
O O12 0.822256 0.612128 0.642517
O O13 0.236981 0.898013 0.852835
#
# Coordination Sequence:
#
# PCOD8164671 Si02
#       7
#     8   8   8   8   8   4   4
#     4   9  19  40  58  75 106 151 185 227 277 338
#     4   9  20  40  52  79 111 143 193 228 272 342
#     4   9  18  34  53  80 104 140 180 228 274 339
#     4  10  21  38  55  80 112 146 188 240 278 326
#     4   9  18  32  52  77 110 140 177 226 279 332
#     4  10  18  28  50  78 110 144 168 224 286 330
#     4  10  18  30  50  78 110 134 180 218 276 346
#
# _framework density 20.295318999999999
#
# number of rings (size 3 to 8) (size 9 to 14) (size 15 to 20)
#    0.000    2.667    0.000    2.000    1.167    2.667 
#   36.000    0.000    0.000    7.000    0.000    0.000 
#    0.000    0.000    0.000    0.000    0.000    0.000 
#
# Total GULP energy -297479.940922 kJ/mol
# GULP energy per Si atom -12394.997538 kJ/mol
# Density = 2.024913 g / cm^3
# Si number density = 20.295319 Si / 1000 Ang^3
#
#
#
# Elastic Constant Matrix: (Units=GPa)
#
#
# Indices 1 2 3 4 5 6 
#
# 1 168.4682 23.7157 71.0997 0.0000 0.0000 0.0000
# 2 23.7157 13.5714 19.7613 0.0000 0.0000 0.0000
# 3 71.0997 19.7613 107.2913 0.0000 0.0000 0.0000
# 4 0.0000 0.0000 0.0000 13.4263 0.0000 0.0000
# 5 0.0000 0.0000 0.0000 0.0000 39.6478 0.0000
# 6 0.0000 0.0000 0.0000 0.0000 0.0000 30.1966
#
#
#
# Elastic Compliance Matrix: (Units=1/GPa)
#
#
# Indices 1 2 3 4 5 6 
#
# 1 0.009091 -0.009722 -0.004234 0.000000 0.000000 0.000000
# 2 -0.009722 0.111084 -0.014018 0.000000 0.000000 0.000000
# 3 -0.004234 -0.014018 0.014708 0.000000 0.000000 0.000000
# 4 0.000000 0.000000 0.000000 0.074480 0.000000 0.000000
# 5 0.000000 0.000000 0.000000 0.000000 0.025222 0.000000
# 6 0.000000 0.000000 0.000000 0.000000 0.000000 0.033116
#
#
# Mechanical properties :
#
#
# Convention : Reuss Voigt Hill
#
# Bulk Modulus (GPa) = 12.66836 57.60935 35.13886
# Shear Modulus (GPa) = 14.28732 28.30444 21.29588
#
# Velocity S-wave (km/s) = 2.65612 3.73852 3.24280
# Velocity P-wave (km/s) = 3.95755 6.86167 5.60111
#
# Compressibility (1/GPa) = 0.07893680
#
# Stress axis : x y z
#
# Youngs Moduli (GPa) = 109.99539 9.00221 67.99011
#
# Poissons Ratio (x) = 0.08752 0.28787
# Poissons Ratio (y) = 1.06934 0.95305
# Poissons Ratio (z) = 0.46572 0.12619
#
# Static dielectric constant tensor:
#      x y z
#    x 4.133160 0.000000 0.000000 
#    y 0.000000 3.429630 0.000000 
#    z 0.000000 0.000000 4.096550 
# 
# 
# High freq. dielectric constant tensor:
#      x y z
#    x 1.810550 0.000000 0.000000 
#    y 0.000000 1.747330 0.000000 
#    z 0.000000 0.000000 1.787280 
# 
# From -- ./inp_files/16929.got.cif
#   From: 2010.03.12/outbox.cif.g09.slc.cpg/sg24_9_cif.got.tgz:16929.got - 2010.04.14 03:06:53.
