data_PCOD8164707
_publ_section_title
;
Structure prediction by ZEFSAII (Michael W. Deem and Ramdas Pophale) SiO2 
 PCOD8164707
Probable space group: I 21 21 21
;
_chemical_formula_sum "Si O2"
_cell_formula_units_Z 64
_cell_length_a 24.282025
_cell_length_b 14.556012
_cell_length_c 9.353329
_cell_angle_alpha 90.000000
_cell_angle_beta 90.000000
_cell_angle_gamma 90.000000
_cell_volume 3305.928965
_symmetry_space_group_name_H-M "I 21 21 21"
_symmetry_group_IT_number 24
_symmetry_cell_setting 'orthorhombic'
loop_
_space_group_symop_operation_xyz
x,y,z
-x,1/2-y,z
x,-y,1/2-z
1/2-x,y,-z
1/2+x,1/2+y,1/2+z
1/2-x,-y,1/2+z
1/2+x,1/2-y,-z
-x,1/2+y,1/2-z
loop_
_atom_site_type_symbol
_atom_site_label
_atom_site_fract_x
_atom_site_fract_y
_atom_site_fract_z
Si Si1 0.621271 0.502603 0.088133
Si Si2 0.990895 0.501892 0.032915
Si Si3 0.697817 0.148641 0.584347
Si Si4 0.193234 0.139043 0.430792
Si Si5 0.389744 0.501699 0.918528
Si Si6 0.304437 0.652361 0.585428
Si Si7 0.347265 0.153664 0.868936
Si Si8 0.467076 0.844303 0.740387
O O1 0.643182 0.500000 0.250000
O O2 0.554430 0.498033 0.093006
O O3 0.641945 0.595112 0.013625
O O4 0.646468 0.420268 0.993564
O O5 0.054612 0.510799 0.986009
O O6 0.990212 0.402962 0.109399
O O7 0.971853 0.589980 0.123472
O O8 0.750000 0.108612 0.500000
O O9 0.686767 0.253041 0.542211
O O10 0.644229 0.091864 0.540811
O O11 0.710227 0.134756 0.750515
O O12 0.250000 0.101902 0.500000
O O13 0.191773 0.116330 0.260214
O O14 0.406184 0.500000 0.750000
O O15 0.355152 0.411953 0.962476
O O16 0.250000 0.625962 0.500000
O O17 0.321307 0.757295 0.556205
O O18 0.403910 0.181648 0.790500
O O19 0.500000 0.750000 0.762851
#
# Coordination Sequence:
#
# PCOD8164707 Si02
#       8
#     8   8   8   8   8   8   8   8
#     4  11  24  40  57  82 120 156 188 239 300 353
#     4  10  20  34  55  88 116 143 195 245 289 347
#     4   9  20  36  56  84 118 150 190 241 285 342
#     4  10  21  37  58  84 112 145 194 246 290 345
#     4  10  18  33  59  88 113 149 199 238 283 343
#     4  10  21  35  57  86 118 152 193 237 287 351
#     4  10  21  37  59  85 116 149 199 242 289 349
#     4  10  18  31  60  87 112 144 189 249 297 335
#
# _framework density 19.359158000000001
#
# number of rings (size 3 to 8) (size 9 to 14) (size 15 to 20)
#    0.000    2.000    2.500    1.500    3.500    4.500 
#    0.000    1.250    0.000   12.000    0.000    0.000 
#    0.000    0.000    0.000    0.000    0.000    0.000 
#
# Total GULP energy -396684.736316 kJ/mol
# GULP energy per Si atom -12396.398010 kJ/mol
# Density = 1.931510 g / cm^3
# Si number density = 19.359158 Si / 1000 Ang^3
#
#
#
# Elastic Constant Matrix: (Units=GPa)
#
#
# Indices 1 2 3 4 5 6 
#
# 1 129.0526 39.3748 39.9358 0.0000 0.0000 0.0000
# 2 39.3748 84.5642 37.4328 0.0000 0.0000 0.0000
# 3 39.9358 37.4328 77.0511 0.0000 0.0000 0.0000
# 4 0.0000 0.0000 0.0000 14.4644 0.0000 0.0000
# 5 0.0000 0.0000 0.0000 0.0000 27.1289 0.0000
# 6 0.0000 0.0000 0.0000 0.0000 0.0000 30.1923
#
#
#
# Elastic Compliance Matrix: (Units=1/GPa)
#
#
# Indices 1 2 3 4 5 6 
#
# 1 0.009771 -0.002940 -0.003636 0.000000 0.000000 0.000000
# 2 -0.002940 0.015950 -0.006225 0.000000 0.000000 0.000000
# 3 -0.003636 -0.006225 0.017887 0.000000 0.000000 0.000000
# 4 0.000000 0.000000 0.000000 0.069135 0.000000 0.000000
# 5 0.000000 0.000000 0.000000 0.000000 0.036861 0.000000
# 6 0.000000 0.000000 0.000000 0.000000 0.000000 0.033121
#
#
# Mechanical properties :
#
#
# Convention : Reuss Voigt Hill
#
# Bulk Modulus (GPa) = 55.53696 58.23943 56.88819
# Shear Modulus (GPa) = 23.32865 25.95209 24.64037
#
# Velocity S-wave (km/s) = 3.47514 3.66534 3.57151
# Velocity P-wave (km/s) = 6.69717 6.93267 6.81594
#
# Compressibility (1/GPa) = 0.01800603
#
# Stress axis : x y z
#
# Youngs Moduli (GPa) = 102.34382 62.69688 55.90626
#
# Poissons Ratio (x) = 0.18433 0.20327
# Poissons Ratio (y) = 0.30090 0.34801
# Poissons Ratio (z) = 0.37212 0.39028
#
# Static dielectric constant tensor:
#      x y z
#    x 3.770300 0.000000 0.000000 
#    y 0.000000 3.597600 0.000000 
#    z 0.000000 0.000000 3.225360 
# 
# 
# High freq. dielectric constant tensor:
#      x y z
#    x 1.766440 0.000000 0.000000 
#    y 0.000000 1.762450 0.000000 
#    z 0.000000 0.000000 1.713960 
# 
# From -- ./inp_files/16076.got.cif
#   From: 2010.03.12/outbox.cif.g09.slc.cpg/sg24_9_cif.got.tgz:16076.got - 2010.04.14 03:06:53.
