data_PCOD8164167
_publ_section_title
;
Structure prediction by ZEFSAII (Michael W. Deem and Ramdas Pophale) SiO2 
 PCOD8164167
Probable space group: I 2 2 2
;
_chemical_formula_sum "Si O2"
_cell_formula_units_Z 56
_cell_length_a 22.173417
_cell_length_b 8.913180
_cell_length_c 14.385536
_cell_angle_alpha 90.000000
_cell_angle_beta 90.000000
_cell_angle_gamma 90.000000
_cell_volume 2843.094858
_symmetry_space_group_name_H-M "I 2 2 2"
_symmetry_group_IT_number 23
_symmetry_cell_setting 'orthorhombic'
loop_
_space_group_symop_operation_xyz
x,y,z
-x,-y,z
x,-y,-z
-x,y,-z
1/2+x,1/2+y,1/2+z
1/2-x,1/2-y,1/2+z
1/2+x,1/2-y,1/2-z
1/2-x,1/2+y,1/2-z
loop_
_atom_site_type_symbol
_atom_site_label
_atom_site_fract_x
_atom_site_fract_y
_atom_site_fract_z
Si Si1 0.500000 0.000000 0.693301
Si Si2 0.416502 0.753513 0.644079
Si Si3 0.638177 0.332225 0.464694
Si Si4 0.916659 0.247755 0.770021
Si Si5 0.225089 0.670959 0.479152
Si Si6 0.000000 0.000000 0.795026
Si Si7 0.316354 0.832739 0.788769
Si Si8 0.294555 0.187139 0.815359
O O1 0.531921 0.123223 0.629935
O O2 0.448288 0.090762 0.751212
O O3 0.374641 0.770703 0.554379
O O4 0.449507 0.591368 0.645857
O O5 0.378581 0.790226 0.737737
O O6 0.626653 0.500000 0.500000
O O7 0.595441 0.281200 0.380112
O O8 0.707658 0.305635 0.438127
O O9 0.854799 0.229064 0.716083
O O10 0.962966 0.120060 0.733237
O O11 0.211967 0.500000 0.500000
O O12 0.180632 0.726106 0.396248
O O13 0.213774 0.746364 0.578720
O O14 0.263242 0.744919 0.738268
O O15 0.301600 0.010208 0.793790
#
# Coordination Sequence:
#
# PCOD8164167 Si02
#       8
#     4   8   8   8   8   4   8   8
#     4  10  24  41  52  85 122 164 198 253 292 339
#     4  11  22  39  60  85 123 158 203 246 293 353
#     4  11  20  34  58  90 121 159 199 233 289 378
#     4  11  22  39  60  85 123 158 203 246 293 353
#     4   9  20  36  59  90 120 152 188 232 301 364
#     4  10  24  37  62  83 116 174 202 233 292 363
#     4  11  22  39  64  90 120 156 194 247 301 349
#     4  11  22  39  64  90 120 156 194 247 301 349
#
# _framework density 19.696845
#
# number of rings (size 3 to 8) (size 9 to 14) (size 15 to 20)
#    0.000    1.429    5.714    0.000    2.000    4.000 
#    0.000    2.143    0.000    5.143    0.000    0.000 
#    0.000    0.000    0.000    0.000    0.000    0.000 
#
# Total GULP energy -346884.809148 kJ/mol
# GULP energy per Si atom -12388.743184 kJ/mol
# Density = 1.965201 g / cm^3
# Si number density = 19.696845 Si / 1000 Ang^3
#
#
#
# Elastic Constant Matrix: (Units=GPa)
#
#
# Indices 1 2 3 4 5 6 
#
# 1 88.2445 34.0626 52.6285 0.0000 0.0000 0.0000
# 2 34.0626 70.8834 19.6095 0.0000 0.0000 0.0000
# 3 52.6285 19.6095 113.5529 0.0000 0.0000 0.0000
# 4 0.0000 0.0000 0.0000 13.5990 0.0000 0.0000
# 5 0.0000 0.0000 0.0000 0.0000 10.2731 0.0000
# 6 0.0000 0.0000 0.0000 0.0000 0.0000 35.6002
#
#
#
# Elastic Compliance Matrix: (Units=1/GPa)
#
#
# Indices 1 2 3 4 5 6 
#
# 1 0.018311 -0.006775 -0.007317 0.000000 0.000000 0.000000
# 2 -0.006775 0.017322 0.000149 0.000000 0.000000 0.000000
# 3 -0.007317 0.000149 0.012172 0.000000 0.000000 0.000000
# 4 0.000000 0.000000 0.000000 0.073535 0.000000 0.000000
# 5 0.000000 0.000000 0.000000 0.000000 0.097341 0.000000
# 6 0.000000 0.000000 0.000000 0.000000 0.000000 0.028090
#
#
# Mechanical properties :
#
#
# Convention : Reuss Voigt Hill
#
# Bulk Modulus (GPa) = 50.20337 53.92021 52.06179
# Shear Modulus (GPa) = 17.77483 22.98648 20.38066
#
# Velocity S-wave (km/s) = 3.00729 3.41986 3.22019
# Velocity P-wave (km/s) = 6.13203 6.55961 6.34942
#
# Compressibility (1/GPa) = 0.01991898
#
# Stress axis : x y z
#
# Youngs Moduli (GPa) = 54.61215 57.72911 82.15695
#
# Poissons Ratio (x) = 0.39112 0.60111
# Poissons Ratio (y) = 0.37000 -0.01221
# Poissons Ratio (z) = 0.39957 -0.00858
#
# Static dielectric constant tensor:
#      x y z
#    x 3.733560 0.000000 0.000000 
#    y 0.000000 3.666280 0.000000 
#    z 0.000000 0.000000 3.783890 
# 
# 
# High freq. dielectric constant tensor:
#      x y z
#    x 1.779760 0.000000 0.000000 
#    y 0.000000 1.764790 0.000000 
#    z 0.000000 0.000000 1.738440 
# 
# From -- ./inp_files/20233.got.cif
#   From: 2010.03.12/outbox.cif.g09.slc.cpg/sg23_11_cif.got.tgz:20233.got - 2010.04.14 02:50:06.
