data_PCOD8164841
_publ_section_title
;
Structure prediction by ZEFSAII (Michael W. Deem and Ramdas Pophale) SiO2 
 PCOD8164841
Probable space group: I 21 21 21
;
_chemical_formula_sum "Si O2"
_cell_formula_units_Z 36
_cell_length_a 5.016999
_cell_length_b 32.216012
_cell_length_c 13.364195
_cell_angle_alpha 90.000000
_cell_angle_beta 90.000000
_cell_angle_gamma 90.000000
_cell_volume 2160.024100
_symmetry_space_group_name_H-M "I 21 21 21"
_symmetry_group_IT_number 24
_symmetry_cell_setting 'orthorhombic'
loop_
_space_group_symop_operation_xyz
x,y,z
-x,1/2-y,z
x,-y,1/2-z
1/2-x,y,-z
1/2+x,1/2+y,1/2+z
1/2-x,-y,1/2+z
1/2+x,1/2-y,-z
-x,1/2+y,1/2-z
loop_
_atom_site_type_symbol
_atom_site_label
_atom_site_fract_x
_atom_site_fract_y
_atom_site_fract_z
Si Si1 0.000000 0.250000 0.432583
Si Si2 0.750000 0.465771 0.500000
Si Si3 0.750000 0.022193 0.000000
Si Si4 0.500987 0.160186 0.571528
Si Si5 0.883027 0.953827 0.714459
Si Si6 0.864075 0.582428 0.189999
O O1 0.750000 0.259208 0.500000
O O2 0.957585 0.205944 0.375162
O O3 0.498446 0.493576 0.523442
O O4 0.711093 0.436581 0.405094
O O5 0.808256 0.049870 0.902455
O O6 0.750000 0.148330 0.500000
O O7 0.458975 0.129075 0.664592
O O8 0.250000 0.158660 0.500000
O O9 0.627195 0.942374 0.779855
O O10 0.132024 0.921753 0.726333
O O11 0.974485 0.000000 0.750000
#
# Coordination Sequence:
#
# PCOD8164841 Si02
#       6
#     4   4   4   8   8   8
#     4   8  16  30  46  70 102 134 160 186 242 298
#     4  12  20  32  52  72  93 132 167 212 244 290
#     4  12  24  36  52  64  97 132 173 214 262 286
#     4  10  19  31  50  74 103 135 163 200 241 297
#     4  12  23  37  49  71  95 132 173 217 252 292
#     4  12  22  33  51  75  99 129 176 208 242 294
#
# _framework density 16.666481999999998
#
# number of rings (size 3 to 8) (size 9 to 14) (size 15 to 20)
#    0.000    0.889    5.556    3.333    1.556    0.000 
#    0.000    0.000    0.000    0.000    0.000    0.000 
#    0.000    3.556    0.000    0.000    0.000    0.000 
#
# Total GULP energy -223039.351565 kJ/mol
# GULP energy per Si atom -12391.075087 kJ/mol
# Density = 1.662855 g / cm^3
# Si number density = 16.666482 Si / 1000 Ang^3
#
#
#
# Elastic Constant Matrix: (Units=GPa)
#
#
# Indices 1 2 3 4 5 6 
#
# 1 110.2388 34.2415 20.0654 0.0000 0.0000 0.0000
# 2 34.2415 112.8720 52.6360 0.0000 0.0000 0.0000
# 3 20.0654 52.6360 68.7832 0.0000 0.0000 0.0000
# 4 0.0000 0.0000 0.0000 16.8239 0.0000 0.0000
# 5 0.0000 0.0000 0.0000 0.0000 27.6600 0.0000
# 6 0.0000 0.0000 0.0000 0.0000 0.0000 19.9840
#
#
#
# Elastic Compliance Matrix: (Units=1/GPa)
#
#
# Indices 1 2 3 4 5 6 
#
# 1 0.010053 -0.002616 -0.000931 0.000000 0.000000 0.000000
# 2 -0.002616 0.014456 -0.010299 0.000000 0.000000 0.000000
# 3 -0.000931 -0.010299 0.022692 0.000000 0.000000 0.000000
# 4 0.000000 0.000000 0.000000 0.059439 0.000000 0.000000
# 5 0.000000 0.000000 0.000000 0.000000 0.036153 0.000000
# 6 0.000000 0.000000 0.000000 0.000000 0.000000 0.050040
#
#
# Mechanical properties :
#
#
# Convention : Reuss Voigt Hill
#
# Bulk Modulus (GPa) = 51.25949 56.19775 53.72862
# Shear Modulus (GPa) = 22.02369 25.22366 23.62367
#
# Velocity S-wave (km/s) = 3.63910 3.89451 3.76897
# Velocity P-wave (km/s) = 6.96277 7.34950 7.15875
#
# Compressibility (1/GPa) = 0.01950858
#
# Stress axis : x y z
#
# Youngs Moduli (GPa) = 99.47159 69.17550 44.06918
#
# Poissons Ratio (x) = 0.18093 0.04104
# Poissons Ratio (y) = 0.26017 0.45388
# Poissons Ratio (z) = 0.09262 0.71246
#
# Static dielectric constant tensor:
#      x y z
#    x 3.202390 0.000000 0.000000 
#    y 0.000000 3.524480 0.000000 
#    z 0.000000 0.000000 3.008580 
# 
# 
# High freq. dielectric constant tensor:
#      x y z
#    x 1.673920 0.000000 0.000000 
#    y 0.000000 1.625020 0.000000 
#    z 0.000000 0.000000 1.602500 
# 
# From -- ./inp_files/2637.got.cif
#   From: 2010.03.12/outbox.cif.g09.slc.cpg/sg24_2_cif.got.tgz:2637.got - 2010.04.14 03:06:53.
