data_PCOD8164013
_publ_section_title
;
Structure prediction by ZEFSAII (Michael W. Deem and Ramdas Pophale) SiO2 
 PCOD8164013
Probable space group: I 2 2 2
;
_chemical_formula_sum "Si O2"
_cell_formula_units_Z 56
_cell_length_a 18.443868
_cell_length_b 8.862494
_cell_length_c 14.681213
_cell_angle_alpha 90.000000
_cell_angle_beta 90.000000
_cell_angle_gamma 90.000000
_cell_volume 2399.771543
_symmetry_space_group_name_H-M "I 2 2 2"
_symmetry_group_IT_number 23
_symmetry_cell_setting 'orthorhombic'
loop_
_space_group_symop_operation_xyz
x,y,z
-x,-y,z
x,-y,-z
-x,y,-z
1/2+x,1/2+y,1/2+z
1/2-x,1/2-y,1/2+z
1/2+x,1/2-y,1/2-z
1/2-x,1/2+y,1/2-z
loop_
_atom_site_type_symbol
_atom_site_label
_atom_site_fract_x
_atom_site_fract_y
_atom_site_fract_z
Si Si1 0.320262 0.650161 0.810348
Si Si2 0.358822 0.670306 0.487471
Si Si3 0.652273 0.132942 0.316469
Si Si4 0.092461 0.098067 0.414145
Si Si5 0.525914 0.838439 0.805939
Si Si6 0.595256 0.813548 0.340244
Si Si7 0.691531 0.828968 0.011727
O O1 0.236742 0.606272 0.797432
O O2 0.368697 0.505987 0.838382
O O3 0.346726 0.713298 0.714346
O O4 0.326854 0.782805 0.884731
O O5 0.382949 0.500000 0.500000
O O6 0.366866 0.729605 0.384465
O O7 0.412662 0.753336 0.557460
O O8 0.275087 0.692145 0.514873
O O9 0.610872 0.159082 0.221126
O O10 0.622046 0.981046 0.359264
O O11 0.022162 0.193168 0.374573
O O12 0.150626 0.220880 0.443328
O O13 0.065524 0.000000 0.500000
O O14 0.480013 0.808652 0.714693
O O15 0.500000 0.000000 0.849878
O O16 0.664647 0.000000 0.000000
#
# Coordination Sequence:
#
# PCOD8164013 Si02
#       7
#     8   8   8   8   8   8   8
#     4  10  23  38  67 105 128 175 230 287 348 394
#     4  10  22  40  64 102 134 175 228 285 348 398
#     4  10  23  42  67  97 136 180 228 284 342 409
#     4  10  22  44  70  97 138 177 220 289 343 403
#     4  10  25  44  68 101 139 184 230 269 337 422
#     4  11  24  42  66  94 137 179 226 275 342 417
#     4   9  20  38  66 100 135 170 224 285 342 417
#
# _framework density 23.335553000000001
#
# number of rings (size 3 to 8) (size 9 to 14) (size 15 to 20)
#    0.000    2.000    0.000    1.286   10.000    4.571 
#    0.000    7.857    0.000    0.000    0.000    0.000 
#    0.000    0.000    0.000    0.000    0.000    0.000 
#
# Total GULP energy -347127.770879 kJ/mol
# GULP energy per Si atom -12397.420389 kJ/mol
# Density = 2.328244 g / cm^3
# Si number density = 23.335553 Si / 1000 Ang^3
#
#
#
# Elastic Constant Matrix: (Units=GPa)
#
#
# Indices 1 2 3 4 5 6 
#
# 1 81.4830 37.6629 17.0800 0.0000 0.0000 0.0000
# 2 37.6629 150.6233 31.7042 0.0000 0.0000 0.0000
# 3 17.0800 31.7042 58.8431 0.0000 0.0000 0.0000
# 4 0.0000 0.0000 0.0000 41.6575 0.0000 0.0000
# 5 0.0000 0.0000 0.0000 0.0000 21.5552 0.0000
# 6 0.0000 0.0000 0.0000 0.0000 0.0000 34.6041
#
#
#
# Elastic Compliance Matrix: (Units=1/GPa)
#
#
# Indices 1 2 3 4 5 6 
#
# 1 0.014192 -0.003025 -0.002490 0.000000 0.000000 0.000000
# 2 -0.003025 0.008133 -0.003504 0.000000 0.000000 0.000000
# 3 -0.002490 -0.003504 0.019605 0.000000 0.000000 0.000000
# 4 0.000000 0.000000 0.000000 0.024005 0.000000 0.000000
# 5 0.000000 0.000000 0.000000 0.000000 0.046393 0.000000
# 6 0.000000 0.000000 0.000000 0.000000 0.000000 0.028898
#
#
# Mechanical properties :
#
#
# Convention : Reuss Voigt Hill
#
# Bulk Modulus (GPa) = 41.85280 51.53817 46.69549
# Shear Modulus (GPa) = 29.89926 33.19683 31.54805
#
# Velocity S-wave (km/s) = 3.58337 3.77581 3.68085
# Velocity P-wave (km/s) = 5.92409 6.41425 6.17404
#
# Compressibility (1/GPa) = 0.02389326
#
# Stress axis : x y z
#
# Youngs Moduli (GPa) = 70.45983 122.95679 51.00738
#
# Poissons Ratio (x) = 0.37191 0.12700
# Poissons Ratio (y) = 0.21312 0.17873
# Poissons Ratio (z) = 0.17544 0.43084
#
# Static dielectric constant tensor:
#      x y z
#    x 4.134640 0.000000 0.000000 
#    y 0.000000 4.635150 0.000000 
#    z 0.000000 0.000000 4.037980 
# 
# 
# High freq. dielectric constant tensor:
#      x y z
#    x 1.919910 0.000000 0.000000 
#    y 0.000000 1.938980 0.000000 
#    z 0.000000 0.000000 1.914730 
# 
# From -- ./inp_files/22398.got.cif
#   From: 2010.03.12/outbox.cif.g09.slc.cpg/sg23_12_cif.got.tgz:22398.got - 2010.04.14 02:50:06.
