data_PCOD8164722
_publ_section_title
;
Structure prediction by ZEFSAII (Michael W. Deem and Ramdas Pophale) SiO2 
 PCOD8164722
Probable space group: I 21 21 21
;
_chemical_formula_sum "Si O2"
_cell_formula_units_Z 60
_cell_length_a 30.463333
_cell_length_b 8.775779
_cell_length_c 12.141233
_cell_angle_alpha 90.000000
_cell_angle_beta 90.000000
_cell_angle_gamma 90.000000
_cell_volume 3245.830893
_symmetry_space_group_name_H-M "I 21 21 21"
_symmetry_group_IT_number 24
_symmetry_cell_setting 'orthorhombic'
loop_
_space_group_symop_operation_xyz
x,y,z
-x,1/2-y,z
x,-y,1/2-z
1/2-x,y,-z
1/2+x,1/2+y,1/2+z
1/2-x,-y,1/2+z
1/2+x,1/2-y,-z
-x,1/2+y,1/2-z
loop_
_atom_site_type_symbol
_atom_site_label
_atom_site_fract_x
_atom_site_fract_y
_atom_site_fract_z
Si Si1 0.211150 0.880157 0.087508
Si Si2 0.701851 0.293934 0.826148
Si Si3 0.417733 0.417265 0.364106
Si Si4 0.882389 0.888865 0.342821
Si Si5 0.953927 0.324399 0.771384
Si Si6 0.666815 0.897432 0.010647
Si Si7 0.951041 0.190173 0.988605
Si Si8 0.750000 0.085046 0.000000
O O1 0.226186 0.818072 0.208343
O O2 0.193622 0.051106 0.105317
O O3 0.250000 0.882260 0.000000
O O4 0.173337 0.772523 0.037043
O O5 0.653683 0.229095 0.796815
O O6 0.732644 0.184867 0.898485
O O7 0.424214 0.500000 0.250000
O O8 0.435682 0.246847 0.342011
O O9 0.366390 0.394500 0.387503
O O10 0.446790 0.509101 0.454862
O O11 0.921159 0.793333 0.402248
O O12 0.902916 0.000000 0.250000
O O13 0.855580 0.996939 0.422043
O O14 0.958338 0.500000 0.750000
O O15 0.928545 0.287080 0.887163
O O16 0.000000 0.250000 0.801734
O O17 0.712490 0.973920 0.047967
O O18 0.000000 0.250000 0.018302
#
# Coordination Sequence:
#
# PCOD8164722 Si02
#       8
#     8   8   8   8   8   8   8   4
#     4  11  21  37  55  81 112 150 188 242 293 344
#     4  10  22  37  57  81 115 148 195 240 293 350
#     4   9  19  34  52  84 118 147 186 232 283 347
#     4  10  19  36  60  81 107 150 197 239 284 346
#     4  10  18  32  57  85 116 154 187 227 290 354
#     4  10  20  34  57  81 106 146 192 234 281 342
#     4   9  18  34  58  83 114 147 186 241 290 346
#     4  10  20  36  58  84 108 152 196 238 292 344
#
# _framework density 18.485253
#
# number of rings (size 3 to 8) (size 9 to 14) (size 15 to 20)
#    0.000    2.133    2.667    2.000    0.000    2.133 
#    0.000    0.000    5.867    6.400    0.000    0.000 
#    0.000    0.000    0.000    0.000    0.000    0.000 
#
# Total GULP energy -371668.268899 kJ/mol
# GULP energy per Si atom -12388.942297 kJ/mol
# Density = 1.844318 g / cm^3
# Si number density = 18.485253 Si / 1000 Ang^3
#
#
#
# Elastic Constant Matrix: (Units=GPa)
#
#
# Indices 1 2 3 4 5 6 
#
# 1 104.9991 45.5523 44.9969 0.0000 0.0000 0.0000
# 2 45.5523 118.8019 33.1204 0.0000 0.0000 0.0000
# 3 44.9969 33.1204 80.5442 0.0000 0.0000 0.0000
# 4 0.0000 0.0000 0.0000 26.3201 0.0000 0.0000
# 5 0.0000 0.0000 0.0000 0.0000 21.9049 0.0000
# 6 0.0000 0.0000 0.0000 0.0000 0.0000 25.3503
#
#
#
# Elastic Compliance Matrix: (Units=1/GPa)
#
#
# Indices 1 2 3 4 5 6 
#
# 1 0.013716 -0.003527 -0.006212 0.000000 0.000000 0.000000
# 2 -0.003527 0.010414 -0.002312 0.000000 0.000000 0.000000
# 3 -0.006212 -0.002312 0.016837 0.000000 0.000000 0.000000
# 4 0.000000 0.000000 0.000000 0.037994 0.000000 0.000000
# 5 0.000000 0.000000 0.000000 0.000000 0.045652 0.000000
# 6 0.000000 0.000000 0.000000 0.000000 0.000000 0.039447
#
#
# Mechanical properties :
#
#
# Convention : Reuss Voigt Hill
#
# Bulk Modulus (GPa) = 59.29640 61.29827 60.29734
# Shear Modulus (GPa) = 25.80173 26.76009 26.28091
#
# Velocity S-wave (km/s) = 3.74009 3.80892 3.77466
# Velocity P-wave (km/s) = 7.12730 7.25096 7.18940
#
# Compressibility (1/GPa) = 0.01686443
#
# Stress axis : x y z
#
# Youngs Moduli (GPa) = 72.90497 96.02083 59.39364
#
# Poissons Ratio (x) = 0.33870 0.36898
# Poissons Ratio (y) = 0.25716 0.13731
# Poissons Ratio (z) = 0.45291 0.22199
#
# Static dielectric constant tensor:
#      x y z
#    x 3.520200 0.000000 0.000000 
#    y 0.000000 3.707970 0.000000 
#    z 0.000000 0.000000 3.622190 
# 
# 
# High freq. dielectric constant tensor:
#      x y z
#    x 1.695470 0.000000 0.000000 
#    y 0.000000 1.723400 0.000000 
#    z 0.000000 0.000000 1.713920 
# 
# From -- ./inp_files/23157.got.cif
#   From: 2010.03.12/outbox.cif.g09.slc.cpg/sg24_12_cif.got.tgz:23157.got - 2010.04.14 03:06:53.
