data_PCOD8164530
_publ_section_title
;
Structure prediction by ZEFSAII (Michael W. Deem and Ramdas Pophale) SiO2 
 PCOD8164530
Probable space group: I 2 2 2
;
_chemical_formula_sum "Si O2"
_cell_formula_units_Z 32
_cell_length_a 11.762939
_cell_length_b 7.925614
_cell_length_c 13.630876
_cell_angle_alpha 90.000000
_cell_angle_beta 90.000000
_cell_angle_gamma 90.000000
_cell_volume 1270.786314
_symmetry_space_group_name_H-M "I 2 2 2"
_symmetry_group_IT_number 23
_symmetry_cell_setting 'orthorhombic'
loop_
_space_group_symop_operation_xyz
x,y,z
-x,-y,z
x,-y,-z
-x,y,-z
1/2+x,1/2+y,1/2+z
1/2-x,1/2-y,1/2+z
1/2+x,1/2-y,1/2-z
1/2-x,1/2+y,1/2-z
loop_
_atom_site_type_symbol
_atom_site_label
_atom_site_fract_x
_atom_site_fract_y
_atom_site_fract_z
Si Si1 0.809416 0.925752 0.700385
Si Si2 0.165733 0.231851 0.061737
Si Si3 0.500000 0.000000 0.000000
Si Si4 0.000000 0.500000 0.000000
Si Si5 0.000000 0.000000 0.822365
Si Si6 0.312724 0.805019 0.120412
O O1 0.780473 0.785289 0.618932
O O2 0.711673 0.920877 0.784452
O O3 0.823468 0.110560 0.652853
O O4 0.929853 0.873415 0.750461
O O5 0.096749 0.083033 0.111902
O O6 0.080613 0.388830 0.068008
O O7 0.203860 0.178910 0.952957
O O8 0.575831 0.123148 0.067583
#
# Coordination Sequence:
#
# PCOD8164530 Si02
#       6
#     8   8   2   2   4   8
#     4  12  27  51  80 120 163 210 276 334 396 484
#     4  12  27  51  77 120 162 213 271 333 403 486
#     4  12  32  50  86 118 166 220 258 334 420 472
#     4  12  24  44  80 106 156 216 260 318 412 476
#     4  12  28  47  85 114 164 218 265 336 407 474
#     4  12  28  54  81 118 166 211 273 333 401 488
#
# _framework density 25.181260999999999
#
# number of rings (size 3 to 8) (size 9 to 14) (size 15 to 20)
#    0.000    0.000    5.000    3.000    3.500    4.500 
#    0.000    0.000    0.000    0.000    0.000    0.000 
#    0.000    0.000    0.000    0.000    0.000    0.000 
#
# Total GULP energy -198328.840931 kJ/mol
# GULP energy per Si atom -12395.552558 kJ/mol
# Density = 2.512395 g / cm^3
# Si number density = 25.181261 Si / 1000 Ang^3
#
#
#
# Elastic Constant Matrix: (Units=GPa)
#
#
# Indices 1 2 3 4 5 6 
#
# 1 83.4607 32.4385 35.9339 0.0000 0.0000 0.0000
# 2 32.4385 110.8912 44.3871 0.0000 0.0000 0.0000
# 3 35.9339 44.3871 131.3725 0.0000 0.0000 0.0000
# 4 0.0000 0.0000 0.0000 40.3729 0.0000 0.0000
# 5 0.0000 0.0000 0.0000 0.0000 11.4855 0.0000
# 6 0.0000 0.0000 0.0000 0.0000 0.0000 1825.6908
#
#
#
# Elastic Compliance Matrix: (Units=1/GPa)
#
#
# Indices 1 2 3 4 5 6 
#
# 1 0.014423 -0.003053 -0.002914 0.000000 0.000000 0.000000
# 2 -0.003053 0.011074 -0.002907 0.000000 0.000000 0.000000
# 3 -0.002914 -0.002907 0.009391 0.000000 0.000000 0.000000
# 4 0.000000 0.000000 0.000000 0.024769 0.000000 0.000000
# 5 0.000000 0.000000 0.000000 0.000000 0.087066 0.000000
# 6 0.000000 0.000000 0.000000 0.000000 0.000000 0.000548
#
#
# Mechanical properties :
#
#
# Convention : Reuss Voigt Hill
#
# Bulk Modulus (GPa) = 58.33646 61.24926 59.79286
# Shear Modulus (GPa) = 29.28587 389.70750 209.49669
#
# Velocity S-wave (km/s) = 3.41398 12.45379 9.13105
# Velocity P-wave (km/s) = 6.22553 15.20434 11.61743
#
# Compressibility (1/GPa) = 0.01714194
#
# Stress axis : x y z
#
# Youngs Moduli (GPa) = 69.33558 90.29886 106.48538
#
# Poissons Ratio (x) = 0.27566 0.31025
# Poissons Ratio (y) = 0.21167 0.30952
# Poissons Ratio (z) = 0.20201 0.26247
#
# Static dielectric constant tensor:
#      x y z
#    x 4.814520 0.000000 0.000000 
#    y 0.000000 4.639720 0.000000 
#    z 0.000000 0.000000 -11.825530 
# 
# 
# High freq. dielectric constant tensor:
#      x y z
#    x 2.012600 0.000000 0.000000 
#    y 0.000000 2.003100 0.000000 
#    z 0.000000 0.000000 2.022930 
# 
# From -- ./inp_files/7992.got.cif
#   From: 2010.03.12/outbox.cif.g09.slc.cpg/sg23_4_cif.got.tgz:7992.got - 2010.04.14 02:50:06.
