data_PCOD8164527
_publ_section_title
;
Structure prediction by ZEFSAII (Michael W. Deem and Ramdas Pophale) SiO2 
 PCOD8164527
Probable space group: I 2 2 2
;
_chemical_formula_sum "Si O2"
_cell_formula_units_Z 32
_cell_length_a 19.239417
_cell_length_b 8.039910
_cell_length_c 9.285645
_cell_angle_alpha 90.000000
_cell_angle_beta 90.000000
_cell_angle_gamma 90.000000
_cell_volume 1436.333107
_symmetry_space_group_name_H-M "I 2 2 2"
_symmetry_group_IT_number 23
_symmetry_cell_setting 'orthorhombic'
loop_
_space_group_symop_operation_xyz
x,y,z
-x,-y,z
x,-y,-z
-x,y,-z
1/2+x,1/2+y,1/2+z
1/2-x,1/2-y,1/2+z
1/2+x,1/2-y,1/2-z
1/2-x,1/2+y,1/2-z
loop_
_atom_site_type_symbol
_atom_site_label
_atom_site_fract_x
_atom_site_fract_y
_atom_site_fract_z
Si Si1 0.293477 0.108266 0.133560
Si Si2 0.185272 0.381486 0.130334
Si Si3 0.081249 0.816380 0.344068
Si Si4 0.424908 0.690988 0.181399
O O1 0.233213 0.229996 0.076221
O O2 0.358007 0.199027 0.215868
O O3 0.265933 0.986261 0.259414
O O4 0.320696 0.000000 0.000000
O O5 0.118621 0.312493 0.216476
O O6 0.161235 0.500000 0.000000
O O7 0.096682 0.808638 0.514804
O O8 0.004785 0.748642 0.305592
O O9 0.086134 0.999104 0.272766
#
# Coordination Sequence:
#
# PCOD8164527 Si02
#       4
#     8   8   8   8
#     4  12  24  42  66  96 133 182 228 268 326 409
#     4  12  26  41  63 100 143 175 219 282 339 393
#     4   9  19  39  71  95 126 172 226 279 317 401
#     4   9  19  40  67 100 128 168 226 276 333 389
#
# _framework density 22.278955
#
# number of rings (size 3 to 8) (size 9 to 14) (size 15 to 20)
#    0.000    1.500    2.500    4.500    3.500    1.000 
#    0.000    2.500    0.000    3.000    0.000    0.000 
#    0.000    0.000    0.000    0.000    0.000    0.000 
#
# Total GULP energy -198295.618748 kJ/mol
# GULP energy per Si atom -12393.476172 kJ/mol
# Density = 2.222825 g / cm^3
# Si number density = 22.278955 Si / 1000 Ang^3
#
#
#
# Elastic Constant Matrix: (Units=GPa)
#
#
# Indices 1 2 3 4 5 6 
#
# 1 115.6867 58.6992 31.7139 0.0000 0.0000 0.0000
# 2 58.6992 113.4182 54.2887 0.0000 0.0000 0.0000
# 3 31.7139 54.2887 89.4121 0.0000 0.0000 0.0000
# 4 0.0000 0.0000 0.0000 41.2745 0.0000 0.0000
# 5 0.0000 0.0000 0.0000 0.0000 26.8470 0.0000
# 6 0.0000 0.0000 0.0000 0.0000 0.0000 27.2790
#
#
#
# Elastic Compliance Matrix: (Units=1/GPa)
#
#
# Indices 1 2 3 4 5 6 
#
# 1 0.011751 -0.005761 -0.000670 0.000000 0.000000 0.000000
# 2 -0.005761 0.015253 -0.007218 0.000000 0.000000 0.000000
# 3 -0.000670 -0.007218 0.015805 0.000000 0.000000 0.000000
# 4 0.000000 0.000000 0.000000 0.024228 0.000000 0.000000
# 5 0.000000 0.000000 0.000000 0.000000 0.037248 0.000000
# 6 0.000000 0.000000 0.000000 0.000000 0.000000 0.036658
#
#
# Mechanical properties :
#
#
# Convention : Reuss Voigt Hill
#
# Bulk Modulus (GPa) = 64.47217 67.54674 66.00945
# Shear Modulus (GPa) = 28.83312 30.66775 29.75044
#
# Velocity S-wave (km/s) = 3.60138 3.71419 3.65822
# Velocity P-wave (km/s) = 6.80402 6.98413 6.89466
#
# Compressibility (1/GPa) = 0.01551057
#
# Stress axis : x y z
#
# Youngs Moduli (GPa) = 85.10081 65.55884 63.27297
#
# Poissons Ratio (x) = 0.37767 0.04240
# Poissons Ratio (y) = 0.49025 0.45672
# Poissons Ratio (z) = 0.05703 0.47322
#
# Static dielectric constant tensor:
#      x y z
#    x 3.839960 0.000000 0.000000 
#    y 0.000000 4.418580 0.000000 
#    z 0.000000 0.000000 3.618760 
# 
# 
# High freq. dielectric constant tensor:
#      x y z
#    x 1.872120 0.000000 0.000000 
#    y 0.000000 1.896110 0.000000 
#    z 0.000000 0.000000 1.844620 
# 
# From -- ./inp_files/11606.got.cif
#   From: 2010.03.12/outbox.cif.g09.slc.cpg/sg23_6_cif.got.tgz:11606.got - 2010.04.14 02:50:06.
