data_PCOD8164230
_publ_section_title
;
Structure prediction by ZEFSAII (Michael W. Deem and Ramdas Pophale) SiO2 
 PCOD8164230
Probable space group: I 2 2 2
;
_chemical_formula_sum "Si O2"
_cell_formula_units_Z 64
_cell_length_a 12.377468
_cell_length_b 13.754908
_cell_length_c 17.691978
_cell_angle_alpha 90.000000
_cell_angle_beta 90.000000
_cell_angle_gamma 90.000000
_cell_volume 3012.075772
_symmetry_space_group_name_H-M "I 2 2 2"
_symmetry_group_IT_number 23
_symmetry_cell_setting 'orthorhombic'
loop_
_space_group_symop_operation_xyz
x,y,z
-x,-y,z
x,-y,-z
-x,y,-z
1/2+x,1/2+y,1/2+z
1/2-x,1/2-y,1/2+z
1/2+x,1/2-y,1/2-z
1/2-x,1/2+y,1/2-z
loop_
_atom_site_type_symbol
_atom_site_label
_atom_site_fract_x
_atom_site_fract_y
_atom_site_fract_z
Si Si1 0.730441 0.826373 0.170343
Si Si2 0.368909 0.770299 0.673199
Si Si3 0.887114 0.471672 0.087430
Si Si4 0.200354 0.776058 0.563798
Si Si5 0.758913 0.141230 0.416007
Si Si6 0.465132 0.605208 0.298830
Si Si7 0.377137 0.898841 0.972086
Si Si8 0.002743 0.108752 0.622878
O O1 0.653659 0.799647 0.240979
O O2 0.786518 0.732126 0.131762
O O3 0.835592 0.888765 0.193507
O O4 0.647443 0.887713 0.117506
O O5 0.259398 0.727692 0.636435
O O6 0.468658 0.695357 0.662839
O O7 0.373148 0.861869 0.615339
O O8 0.789567 0.541240 0.118540
O O9 0.000000 0.500000 0.127063
O O10 0.897780 0.500000 0.000000
O O11 0.264283 0.852902 0.507434
O O12 0.187858 0.687007 0.508618
O O13 0.090420 0.825445 0.589126
O O14 0.886585 0.154636 0.404932
O O15 0.500000 0.500000 0.333263
O O16 0.498539 0.608441 0.212331
O O17 0.500000 0.892997 0.000000
O O18 0.326848 0.000000 0.000000
O O19 0.000000 0.000000 0.589949
#
# Coordination Sequence:
#
# PCOD8164230 Si02
#       8
#     8   8   8   8   8   8   8   8
#     4  11  24  44  70  97 143 177 243 297 353 419
#     4  12  24  43  69 102 135 186 230 291 359 426
#     4  11  24  43  66  96 136 178 229 285 359 430
#     4  11  22  40  68  99 138 179 228 289 358 424
#     4  11  22  41  65  98 137 179 228 288 346 428
#     4  11  26  44  66 102 141 187 235 291 350 427
#     4  10  24  46  70  98 134 186 238 294 353 423
#     4  11  22  37  65 103 141 176 225 286 354 423
#
# _framework density 21.247805
#
# number of rings (size 3 to 8) (size 9 to 14) (size 15 to 20)
#    0.000    1.000    3.750    3.375    3.500    0.500 
#    2.250    0.000    0.000    0.000    0.000    0.000 
#    0.000    0.000    0.000    0.000    0.000    0.000 
#
# Total GULP energy -396421.892512 kJ/mol
# GULP energy per Si atom -12388.184141 kJ/mol
# Density = 2.119944 g / cm^3
# Si number density = 21.247805 Si / 1000 Ang^3
#
#
#
# Elastic Constant Matrix: (Units=GPa)
#
#
# Indices 1 2 3 4 5 6 
#
# 1 96.5235 21.8973 27.7379 0.0000 0.0000 0.0000
# 2 21.8973 110.6849 29.5084 0.0000 0.0000 0.0000
# 3 27.7379 29.5084 105.5074 0.0000 0.0000 0.0000
# 4 0.0000 0.0000 0.0000 19.6168 0.0000 0.0000
# 5 0.0000 0.0000 0.0000 0.0000 28.4791 0.0000
# 6 0.0000 0.0000 0.0000 0.0000 0.0000 26.1176
#
#
#
# Elastic Compliance Matrix: (Units=1/GPa)
#
#
# Indices 1 2 3 4 5 6 
#
# 1 0.011457 -0.001582 -0.002570 0.000000 0.000000 0.000000
# 2 -0.001582 0.009981 -0.002376 0.000000 0.000000 0.000000
# 3 -0.002570 -0.002376 0.010818 0.000000 0.000000 0.000000
# 4 0.000000 0.000000 0.000000 0.050977 0.000000 0.000000
# 5 0.000000 0.000000 0.000000 0.000000 0.035113 0.000000
# 6 0.000000 0.000000 0.000000 0.000000 0.000000 0.038288
#
#
# Mechanical properties :
#
#
# Convention : Reuss Voigt Hill
#
# Bulk Modulus (GPa) = 52.07721 52.33366 52.20543
# Shear Modulus (GPa) = 28.39462 30.41420 29.40441
#
# Velocity S-wave (km/s) = 3.65959 3.78749 3.72409
# Velocity P-wave (km/s) = 6.51302 6.61895 6.56620
#
# Compressibility (1/GPa) = 0.01920226
#
# Stress axis : x y z
#
# Youngs Moduli (GPa) = 87.27934 100.19140 92.43818
#
# Poissons Ratio (x) = 0.15846 0.23755
# Poissons Ratio (y) = 0.13804 0.21960
# Poissons Ratio (z) = 0.22429 0.23802
#
# Static dielectric constant tensor:
#      x y z
#    x 4.214410 0.000000 0.000000 
#    y 0.000000 4.217290 0.000000 
#    z 0.000000 0.000000 3.919370 
# 
# 
# High freq. dielectric constant tensor:
#      x y z
#    x 1.836200 0.000000 0.000000 
#    y 0.000000 1.840850 0.000000 
#    z 0.000000 0.000000 1.832010 
# 
# From -- ./inp_files/24446.got.cif
#   From: 2010.03.12/outbox.cif.g09.slc.cpg/sg23_13_cif.got.tgz:24446.got - 2010.04.14 02:50:06.
