data_PCOD8164996
_publ_section_title
;
Structure prediction by ZEFSAII (Michael W. Deem and Ramdas Pophale) SiO2 
 PCOD8164996
Probable space group: I 21 21 21
;
_chemical_formula_sum "Si O2"
_cell_formula_units_Z 48
_cell_length_a 14.635625
_cell_length_b 11.190251
_cell_length_c 13.592301
_cell_angle_alpha 90.000000
_cell_angle_beta 90.000000
_cell_angle_gamma 90.000000
_cell_volume 2226.097001
_symmetry_space_group_name_H-M "I 21 21 21"
_symmetry_group_IT_number 24
_symmetry_cell_setting 'orthorhombic'
loop_
_space_group_symop_operation_xyz
x,y,z
-x,1/2-y,z
x,-y,1/2-z
1/2-x,y,-z
1/2+x,1/2+y,1/2+z
1/2-x,-y,1/2+z
1/2+x,1/2-y,-z
-x,1/2+y,1/2-z
loop_
_atom_site_type_symbol
_atom_site_label
_atom_site_fract_x
_atom_site_fract_y
_atom_site_fract_z
Si Si1 0.313666 0.792816 0.591058
Si Si2 0.585183 0.487111 0.008591
Si Si3 0.101309 0.224675 0.605613
Si Si4 0.380992 0.550956 0.540983
Si Si5 0.212791 0.538355 0.862192
Si Si6 0.654822 0.378710 0.201980
O O1 0.250000 0.768274 0.500000
O O2 0.363050 0.921529 0.580730
O O3 0.384312 0.681434 0.594285
O O4 0.246780 0.799565 0.685245
O O5 0.632986 0.614175 0.035234
O O6 0.593919 0.400843 0.104355
O O7 0.481097 0.503313 0.973902
O O8 0.170789 0.335285 0.602067
O O9 0.090995 0.186733 0.719346
O O10 0.000000 0.250000 0.567328
O O11 0.321181 0.463085 0.612103
O O12 0.334797 0.560883 0.432297
O O13 0.193083 0.500000 0.750000
O O14 0.691075 0.500000 0.250000
#
# Coordination Sequence:
#
# PCOD8164996 Si02
#       6
#     8   8   8   8   8   8
#     4  10  19  37  61  87 121 163 207 259 307 380
#     4  10  22  38  61  92 121 163 214 260 316 377
#     4  11  22  37  60  91 131 158 202 269 326 383
#     4  11  22  41  61  93 126 171 220 256 317 382
#     4  11  24  39  63  92 130 171 209 262 320 381
#     4   9  21  38  59  94 122 159 208 263 331 373
#
# _framework density 21.562401000000001
#
# number of rings (size 3 to 8) (size 9 to 14) (size 15 to 20)
#    0.000    1.667    3.333    1.500    4.667    0.000 
#   15.000    0.833    0.000    0.000    0.000    0.000 
#    0.000    0.000    0.000    0.000    0.000    0.000 
#
# Total GULP energy -297339.708425 kJ/mol
# GULP energy per Si atom -12389.154518 kJ/mol
# Density = 2.151332 g / cm^3
# Si number density = 21.562401 Si / 1000 Ang^3
#
#
#
# Elastic Constant Matrix: (Units=GPa)
#
#
# Indices 1 2 3 4 5 6 
#
# 1 89.3962 60.2955 24.9897 0.0000 0.0000 0.0000
# 2 60.2955 132.4971 23.9437 0.0000 0.0000 0.0000
# 3 24.9897 23.9437 40.8834 0.0000 0.0000 0.0000
# 4 0.0000 0.0000 0.0000 20.4369 0.0000 0.0000
# 5 0.0000 0.0000 0.0000 0.0000 30.3631 0.0000
# 6 0.0000 0.0000 0.0000 0.0000 0.0000 37.8073
#
#
#
# Elastic Compliance Matrix: (Units=1/GPa)
#
#
# Indices 1 2 3 4 5 6 
#
# 1 0.017692 -0.006818 -0.006821 0.000000 0.000000 0.000000
# 2 -0.006818 0.011068 -0.002315 0.000000 0.000000 0.000000
# 3 -0.006821 -0.002315 0.029984 0.000000 0.000000 0.000000
# 4 0.000000 0.000000 0.000000 0.048931 0.000000 0.000000
# 5 0.000000 0.000000 0.000000 0.000000 0.032935 0.000000
# 6 0.000000 0.000000 0.000000 0.000000 0.000000 0.026450
#
#
# Mechanical properties :
#
#
# Convention : Reuss Voigt Hill
#
# Bulk Modulus (GPa) = 37.26172 53.47053 45.36612
# Shear Modulus (GPa) = 24.04849 27.95799 26.00324
#
# Velocity S-wave (km/s) = 3.34323 3.60475 3.47645
# Velocity P-wave (km/s) = 5.67638 6.49442 6.09913
#
# Compressibility (1/GPa) = 0.02683719
#
# Stress axis : x y z
#
# Youngs Moduli (GPa) = 56.52403 90.34690 33.35060
#
# Poissons Ratio (x) = 0.61602 0.22747
# Poissons Ratio (y) = 0.38540 0.07720
# Poissons Ratio (z) = 0.38553 0.20912
#
# Static dielectric constant tensor:
#      x y z
#    x 3.862730 0.000000 0.000000 
#    y 0.000000 4.174150 0.000000 
#    z 0.000000 0.000000 3.883880 
# 
# 
# High freq. dielectric constant tensor:
#      x y z
#    x 1.828630 0.000000 0.000000 
#    y 0.000000 1.855950 0.000000 
#    z 0.000000 0.000000 1.817600 
# 
# From -- ./inp_files/20735.got.cif
#   From: 2010.03.12/outbox.cif.g09.slc.cpg/sg24_11_cif.got.tgz:20735.got - 2010.04.14 03:06:53.
