data_PCOD8164018
_publ_section_title
;
Structure prediction by ZEFSAII (Michael W. Deem and Ramdas Pophale) SiO2 
 PCOD8164018
Probable space group: I 2 2 2
;
_chemical_formula_sum "Si O2"
_cell_formula_units_Z 58
_cell_length_a 27.483587
_cell_length_b 10.805477
_cell_length_c 8.562312
_cell_angle_alpha 90.000000
_cell_angle_beta 90.000000
_cell_angle_gamma 90.000000
_cell_volume 2542.777769
_symmetry_space_group_name_H-M "I 2 2 2"
_symmetry_group_IT_number 23
_symmetry_cell_setting 'orthorhombic'
loop_
_space_group_symop_operation_xyz
x,y,z
-x,-y,z
x,-y,-z
-x,y,-z
1/2+x,1/2+y,1/2+z
1/2-x,1/2-y,1/2+z
1/2+x,1/2-y,1/2-z
1/2-x,1/2+y,1/2-z
loop_
_atom_site_type_symbol
_atom_site_label
_atom_site_fract_x
_atom_site_fract_y
_atom_site_fract_z
Si Si1 0.901374 0.641698 0.987780
Si Si2 0.191809 0.250986 0.119521
Si Si3 0.047322 0.288534 0.678445
Si Si4 0.636006 0.682588 0.068843
Si Si5 0.370505 0.453136 0.751711
Si Si6 0.000000 0.500000 0.500000
Si Si7 0.465810 0.335686 0.644806
Si Si8 0.285191 0.853733 0.037349
O O1 0.914853 0.693982 0.819491
O O2 0.916202 0.500000 0.000000
O O3 0.844368 0.658993 0.024725
O O4 0.934823 0.712757 0.112177
O O5 0.164843 0.117258 0.132240
O O6 0.238600 0.225256 0.015028
O O7 0.205358 0.322794 0.280271
O O8 0.079735 0.221588 0.548477
O O9 0.032929 0.420866 0.614661
O O10 0.001239 0.201762 0.713869
O O11 0.642251 0.598736 0.227383
O O12 0.670974 0.802006 0.070466
O O13 0.644724 0.604792 0.915261
O O14 0.427439 0.442169 0.697346
O O15 0.500000 0.379208 0.500000
O O16 0.280099 0.000000 0.000000
#
# Coordination Sequence:
#
# PCOD8164018 Si02
#       8
#     8   8   8   8   8   2   8   8
#     4  10  22  40  65  92 137 182 232 280 348 416
#     4  10  25  44  69 102 132 183 227 292 356 420
#     4  11  23  36  62  95 134 179 233 279 344 411
#     4  10  23  40  65  94 129 181 221 279 344 405
#     4   9  20  44  65  90 136 174 225 280 338 417
#     4  12  24  36  58  98 144 180 226 296 338 416
#     4   9  19  39  62  95 131 178 230 281 341 406
#     4  11  27  45  71 102 140 176 235 294 355 437
#
# _framework density 22.809701
#
# number of rings (size 3 to 8) (size 9 to 14) (size 15 to 20)
#    0.000    1.931    0.000    1.655    6.759    3.586 
#    2.483    8.966    0.000    0.000    0.000    0.000 
#    0.000    0.000    0.000    0.000    0.000    0.000 
#
# Total GULP energy -359435.012041 kJ/mol
# GULP energy per Si atom -12394.310760 kJ/mol
# Density = 2.275779 g / cm^3
# Si number density = 22.809701 Si / 1000 Ang^3
#
#
#
# Elastic Constant Matrix: (Units=GPa)
#
#
# Indices 1 2 3 4 5 6 
#
# 1 133.1548 22.4947 40.2913 0.0000 0.0000 0.0000
# 2 22.4947 88.2223 15.8307 0.0000 0.0000 0.0000
# 3 40.2913 15.8307 58.1715 0.0000 0.0000 0.0000
# 4 0.0000 0.0000 0.0000 27.5207 0.0000 0.0000
# 5 0.0000 0.0000 0.0000 0.0000 43.6556 0.0000
# 6 0.0000 0.0000 0.0000 0.0000 0.0000 38.0933
#
#
#
# Elastic Compliance Matrix: (Units=1/GPa)
#
#
# Indices 1 2 3 4 5 6 
#
# 1 0.009647 -0.001325 -0.006321 0.000000 0.000000 0.000000
# 2 -0.001325 0.012099 -0.002375 0.000000 0.000000 0.000000
# 3 -0.006321 -0.002375 0.022215 0.000000 0.000000 0.000000
# 4 0.000000 0.000000 0.000000 0.036336 0.000000 0.000000
# 5 0.000000 0.000000 0.000000 0.000000 0.022907 0.000000
# 6 0.000000 0.000000 0.000000 0.000000 0.000000 0.026251
#
#
# Mechanical properties :
#
#
# Convention : Reuss Voigt Hill
#
# Bulk Modulus (GPa) = 41.80824 48.53133 45.16979
# Shear Modulus (GPa) = 31.75226 35.24939 33.50082
#
# Velocity S-wave (km/s) = 3.73507 3.93538 3.83653
# Velocity P-wave (km/s) = 6.08029 6.47861 6.28261
#
# Compressibility (1/GPa) = 0.02391873
#
# Stress axis : x y z
#
# Youngs Moduli (GPa) = 103.66354 82.65108 45.01518
#
# Poissons Ratio (x) = 0.10955 0.28453
# Poissons Ratio (y) = 0.13740 0.10689
# Poissons Ratio (z) = 0.65524 0.19626
#
# Static dielectric constant tensor:
#      x y z
#    x 4.236400 0.000000 0.000000 
#    y 0.000000 4.220660 0.000000 
#    z 0.000000 0.000000 4.130550 
# 
# 
# High freq. dielectric constant tensor:
#      x y z
#    x 1.909230 0.000000 0.000000 
#    y 0.000000 1.900340 0.000000 
#    z 0.000000 0.000000 1.898480 
# 
# From -- ./inp_files/13065.got.cif
#   From: 2010.03.12/outbox.cif.g09.slc.cpg/sg23_7_cif.got.tgz:13065.got - 2010.04.14 02:50:06.
