data_PCOD8164259
_publ_section_title
;
Structure prediction by ZEFSAII (Michael W. Deem and Ramdas Pophale) SiO2 
 PCOD8164259
Probable space group: I 2 2 2
;
_chemical_formula_sum "Si O2"
_cell_formula_units_Z 48
_cell_length_a 17.744147
_cell_length_b 14.406769
_cell_length_c 9.106504
_cell_angle_alpha 90.000000
_cell_angle_beta 90.000000
_cell_angle_gamma 90.000000
_cell_volume 2327.948680
_symmetry_space_group_name_H-M "I 2 2 2"
_symmetry_group_IT_number 23
_symmetry_cell_setting 'orthorhombic'
loop_
_space_group_symop_operation_xyz
x,y,z
-x,-y,z
x,-y,-z
-x,y,-z
1/2+x,1/2+y,1/2+z
1/2-x,1/2-y,1/2+z
1/2+x,1/2-y,1/2-z
1/2-x,1/2+y,1/2-z
loop_
_atom_site_type_symbol
_atom_site_label
_atom_site_fract_x
_atom_site_fract_y
_atom_site_fract_z
Si Si1 0.805627 0.679673 0.176974
Si Si2 0.543405 0.401576 0.132172
Si Si3 0.030549 0.258852 0.153726
Si Si4 0.286593 0.641860 0.121311
Si Si5 0.460902 0.910364 0.845164
Si Si6 0.202256 0.489822 0.660132
O O1 0.890782 0.691035 0.124779
O O2 0.782488 0.767036 0.277050
O O3 0.808815 0.592874 0.283669
O O4 0.752487 0.665002 0.035009
O O5 0.500000 0.500000 0.155229
O O6 0.537631 0.341710 0.276405
O O7 0.631485 0.402359 0.087529
O O8 0.500000 0.349605 0.000000
O O9 0.971436 0.322898 0.240150
O O10 0.000000 0.231105 0.000000
O O11 0.247442 0.561440 0.213352
O O12 0.373563 0.931511 0.869795
O O13 0.500000 0.000000 0.770861
O O14 0.500000 0.888200 0.000000
O O15 0.243169 0.500000 0.500000
#
# Coordination Sequence:
#
# PCOD8164259 Si02
#       6
#     8   8   8   8   8   8
#     4  11  24  43  65  94 134 171 215 272 334 391
#     4  10  25  47  68  92 123 178 232 268 328 400
#     4  11  23  40  64 100 133 165 213 273 331 385
#     4  11  26  45  66  99 130 174 228 276 336 404
#     4  11  20  39  64  95 134 172 212 253 319 407
#     4  12  23  41  66  98 132 172 214 267 333 392
#
# _framework density 20.619011
#
# number of rings (size 3 to 8) (size 9 to 14) (size 15 to 20)
#    0.000    1.000    3.333    3.000    4.667    6.000 
#    6.000    0.000    0.000    0.000    0.000    0.000 
#    0.000    0.000    0.000    0.000    0.000    0.000 
#
# Total GULP energy -297430.846856 kJ/mol
# GULP energy per Si atom -12392.951952 kJ/mol
# Density = 2.057208 g / cm^3
# Si number density = 20.619011 Si / 1000 Ang^3
#
#
#
# Elastic Constant Matrix: (Units=GPa)
#
#
# Indices 1 2 3 4 5 6 
#
# 1 92.7483 47.4215 51.9078 0.0000 0.0000 0.0000
# 2 47.4215 95.0910 41.1745 0.0000 0.0000 0.0000
# 3 51.9078 41.1745 131.0404 0.0000 0.0000 0.0000
# 4 0.0000 0.0000 0.0000 28.2457 0.0000 0.0000
# 5 0.0000 0.0000 0.0000 0.0000 33.6577 0.0000
# 6 0.0000 0.0000 0.0000 0.0000 0.0000 27.2233
#
#
#
# Elastic Compliance Matrix: (Units=1/GPa)
#
#
# Indices 1 2 3 4 5 6 
#
# 1 0.016555 -0.006269 -0.004588 0.000000 0.000000 0.000000
# 2 -0.006269 0.014547 -0.002087 0.000000 0.000000 0.000000
# 3 -0.004588 -0.002087 0.010104 0.000000 0.000000 0.000000
# 4 0.000000 0.000000 0.000000 0.035404 0.000000 0.000000
# 5 0.000000 0.000000 0.000000 0.000000 0.029711 0.000000
# 6 0.000000 0.000000 0.000000 0.000000 0.000000 0.036733
#
#
# Mechanical properties :
#
#
# Convention : Reuss Voigt Hill
#
# Bulk Modulus (GPa) = 65.28711 66.65416 65.97064
# Shear Modulus (GPa) = 28.72761 29.71704 29.22233
#
# Velocity S-wave (km/s) = 3.73669 3.80049 3.76872
# Velocity P-wave (km/s) = 7.09573 7.18714 7.14158
#
# Compressibility (1/GPa) = 0.01531696
#
# Stress axis : x y z
#
# Youngs Moduli (GPa) = 60.40464 68.74476 98.96647
#
# Poissons Ratio (x) = 0.43099 0.45405
# Poissons Ratio (y) = 0.37870 0.20657
# Poissons Ratio (z) = 0.27713 0.14349
#
# Static dielectric constant tensor:
#      x y z
#    x 3.976740 0.000000 0.000000 
#    y 0.000000 3.809320 0.000000 
#    z 0.000000 0.000000 3.872710 
# 
# 
# High freq. dielectric constant tensor:
#      x y z
#    x 1.808450 0.000000 0.000000 
#    y 0.000000 1.819130 0.000000 
#    z 0.000000 0.000000 1.818080 
# 
# From -- ./inp_files/11048.got.cif
#   From: 2010.03.12/outbox.cif.g09.slc.cpg/sg23_6_cif.got.tgz:11048.got - 2010.04.14 02:50:06.
