data_PCOD8164206
_publ_section_title
;
Structure prediction by ZEFSAII (Michael W. Deem and Ramdas Pophale) SiO2 
 PCOD8164206
Probable space group: I 2 2 2
;
_chemical_formula_sum "Si O2"
_cell_formula_units_Z 34
_cell_length_a 17.866240
_cell_length_b 9.109874
_cell_length_c 9.244383
_cell_angle_alpha 90.000000
_cell_angle_beta 90.000000
_cell_angle_gamma 90.000000
_cell_volume 1504.608338
_symmetry_space_group_name_H-M "I 2 2 2"
_symmetry_group_IT_number 23
_symmetry_cell_setting 'orthorhombic'
loop_
_space_group_symop_operation_xyz
x,y,z
-x,-y,z
x,-y,-z
-x,y,-z
1/2+x,1/2+y,1/2+z
1/2-x,1/2-y,1/2+z
1/2+x,1/2-y,1/2-z
1/2-x,1/2+y,1/2-z
loop_
_atom_site_type_symbol
_atom_site_label
_atom_site_fract_x
_atom_site_fract_y
_atom_site_fract_z
Si Si1 0.001186 0.670333 0.841706
Si Si2 0.500000 0.500000 0.000000
Si Si3 0.847450 0.703045 0.322151
Si Si4 0.886362 0.786300 0.634379
Si Si5 0.741824 0.500929 0.831923
O O1 0.072988 0.730777 0.754753
O O2 0.000000 0.500000 0.865997
O O3 0.922315 0.689151 0.759135
O O4 0.000000 0.747923 0.000000
O O5 0.448346 0.594135 0.898311
O O6 0.863238 0.691516 0.493441
O O7 0.812350 0.547806 0.267326
O O8 0.792125 0.841055 0.286952
O O9 0.816583 0.872038 0.699175
O O10 0.765906 0.500000 0.000000
#
# Coordination Sequence:
#
# PCOD8164206 Si02
#       5
#     8   2   8   8   8
#     4  11  26  43  69  99 139 174 223 293 346 402
#     4  12  16  44  72  92 132 172 236 294 332 392
#     4  11  23  44  70  99 137 183 228 276 345 413
#     4  11  21  44  74  97 132 183 234 284 343 414
#     4  10  24  43  68 101 143 181 224 290 343 404
#
# _framework density 22.597241
#
# number of rings (size 3 to 8) (size 9 to 14) (size 15 to 20)
#    0.000    1.176    5.882    0.000    6.588    3.765 
#    4.235   10.000    0.000    0.000    0.000    0.000 
#    0.000    0.000    0.000    0.000    0.000    0.000 
#
# Total GULP energy -210719.719935 kJ/mol
# GULP energy per Si atom -12395.277643 kJ/mol
# Density = 2.254581 g / cm^3
# Si number density = 22.597241 Si / 1000 Ang^3
#
#
#
# Elastic Constant Matrix: (Units=GPa)
#
#
# Indices 1 2 3 4 5 6 
#
# 1 87.9397 28.8335 56.5919 0.0000 0.0000 0.0000
# 2 28.8335 62.1135 51.4743 0.0000 0.0000 0.0000
# 3 56.5919 51.4743 124.0090 0.0000 0.0000 0.0000
# 4 0.0000 0.0000 0.0000 103.7494 0.0000 0.0000
# 5 0.0000 0.0000 0.0000 0.0000 31.2291 0.0000
# 6 0.0000 0.0000 0.0000 0.0000 0.0000 62.1801
#
#
#
# Elastic Compliance Matrix: (Units=1/GPa)
#
#
# Indices 1 2 3 4 5 6 
#
# 1 0.016283 -0.002135 -0.006545 0.000000 0.000000 0.000000
# 2 -0.002135 0.024821 -0.009329 0.000000 0.000000 0.000000
# 3 -0.006545 -0.009329 0.014923 0.000000 0.000000 0.000000
# 4 0.000000 0.000000 0.000000 0.009639 0.000000 0.000000
# 5 0.000000 0.000000 0.000000 0.000000 0.032021 0.000000
# 6 0.000000 0.000000 0.000000 0.000000 0.000000 0.016082
#
#
# Mechanical properties :
#
#
# Convention : Reuss Voigt Hill
#
# Bulk Modulus (GPa) = 49.97349 60.87350 55.42350
# Shear Modulus (GPa) = 31.95772 48.57589 40.26681
#
# Velocity S-wave (km/s) = 3.76471 4.64145 4.22588
# Velocity P-wave (km/s) = 6.40783 7.46465 6.95634
#
# Compressibility (1/GPa) = 0.02001061
#
# Stress axis : x y z
#
# Youngs Moduli (GPa) = 61.41321 40.28770 67.01176
#
# Poissons Ratio (x) = 0.08602 0.43857
# Poissons Ratio (y) = 0.13113 0.62513
# Poissons Ratio (z) = 0.40192 0.37583
#
# Static dielectric constant tensor:
#      x y z
#    x -1.078330 0.000000 0.000000 
#    y 0.000000 3.794030 0.000000 
#    z 0.000000 0.000000 4.018450 
# 
# 
# High freq. dielectric constant tensor:
#      x y z
#    x 1.908680 0.000000 0.000000 
#    y 0.000000 1.888500 0.000000 
#    z 0.000000 0.000000 1.883560 
# 
# From -- ./inp_files/6701.got.cif
#   From: 2010.03.12/outbox.cif.g09.slc.cpg/sg23_4_cif.got.tgz:6701.got - 2010.04.14 02:50:06.
