data_PCOD8164174
_publ_section_title
;
Structure prediction by ZEFSAII (Michael W. Deem and Ramdas Pophale) SiO2 
 PCOD8164174
Probable space group: I 2 2 2
;
_chemical_formula_sum "Si O2"
_cell_formula_units_Z 46
_cell_length_a 8.466157
_cell_length_b 19.335207
_cell_length_c 14.299031
_cell_angle_alpha 90.000000
_cell_angle_beta 90.000000
_cell_angle_gamma 90.000000
_cell_volume 2340.678422
_symmetry_space_group_name_H-M "I 2 2 2"
_symmetry_group_IT_number 23
_symmetry_cell_setting 'orthorhombic'
loop_
_space_group_symop_operation_xyz
x,y,z
-x,-y,z
x,-y,-z
-x,y,-z
1/2+x,1/2+y,1/2+z
1/2-x,1/2-y,1/2+z
1/2+x,1/2-y,1/2-z
1/2-x,1/2+y,1/2-z
loop_
_atom_site_type_symbol
_atom_site_label
_atom_site_fract_x
_atom_site_fract_y
_atom_site_fract_z
Si Si1 0.000000 0.000000 0.000000
Si Si2 0.486803 0.328003 0.798143
Si Si3 0.000000 0.181247 0.500000
Si Si4 0.849663 0.115256 0.123688
Si Si5 0.333547 0.743938 0.491014
Si Si6 0.302786 0.194634 0.192493
Si Si7 0.009296 0.580090 0.610207
O O1 0.110073 0.046203 0.934003
O O2 0.519478 0.360600 0.902403
O O3 0.551586 0.380180 0.719902
O O4 0.565149 0.252267 0.790978
O O5 0.298350 0.317588 0.786518
O O6 0.162396 0.224307 0.482882
O O7 0.668620 0.110141 0.153764
O O8 0.873583 0.181081 0.059295
O O9 0.500000 0.789258 0.500000
O O10 0.323777 0.718575 0.384606
O O11 0.370258 0.120866 0.161120
O O12 0.000000 0.500000 0.634596
O O13 0.000000 0.595099 0.500000
#
# Coordination Sequence:
#
# PCOD8164174 Si02
#       7
#     2   8   4   8   8   8   8
#     4  12  24  36  66  90 128 152 196 244 324 396
#     4  11  23  37  60  83 126 162 216 257 309 364
#     4  10  24  40  58  88 122 170 210 264 298 364
#     4  12  22  38  57  92 124 163 202 248 316 388
#     4  11  19  35  58  86 127 163 201 252 313 367
#     4  11  21  36  57  88 122 169 204 254 313 376
#     4  11  23  36  59  91 132 163 194 252 322 386
#
# _framework density 19.652422000000001
#
# number of rings (size 3 to 8) (size 9 to 14) (size 15 to 20)
#    0.000    0.870    4.348    5.217    3.652    0.000 
#    0.000    0.000    0.000    0.522    0.000    1.217 
#    0.000    0.000    0.000    0.000    0.000    0.000 
#
# Total GULP energy -285007.517455 kJ/mol
# GULP energy per Si atom -12391.631194 kJ/mol
# Density = 1.960769 g / cm^3
# Si number density = 19.652422 Si / 1000 Ang^3
#
#
#
# Elastic Constant Matrix: (Units=GPa)
#
#
# Indices 1 2 3 4 5 6 
#
# 1 140.3977 28.7344 29.7595 0.0000 0.0000 0.0000
# 2 28.7344 57.4328 38.2739 0.0000 0.0000 0.0000
# 3 29.7595 38.2739 127.7545 -0.0001 0.0000 -0.0001
# 4 0.0000 0.0000 -0.0001 13.8564 0.0000 0.0000
# 5 0.0000 0.0000 0.0000 0.0000 36.3638 0.0000
# 6 0.0000 0.0000 -0.0001 0.0000 0.0000 -1.9198
#
#
#
# Elastic Compliance Matrix: (Units=1/GPa)
#
#
# Indices 1 2 3 4 5 6 
#
# 1 0.008005 -0.003451 -0.000831 0.000000 0.000000 0.000000
# 2 -0.003451 0.023243 -0.006159 0.000000 0.000000 0.000000
# 3 -0.000831 -0.006159 0.009866 0.000000 0.000000 0.000000
# 4 0.000000 0.000000 0.000000 0.072169 0.000000 0.000000
# 5 0.000000 0.000000 0.000000 0.000000 0.027500 0.000000
# 6 0.000000 0.000000 0.000000 0.000000 0.000000 -0.520889
#
#
# Mechanical properties :
#
#
# Convention : Reuss Voigt Hill
#
# Bulk Modulus (GPa) = 49.42807 57.68005 53.55406
# Shear Modulus (GPa) = -14.18526 24.91456 5.36465
#
# Velocity S-wave (km/s) = -2.68956 3.56443 1.65399
# Velocity P-wave (km/s) = 3.94471 6.80838 5.56393
#
# Compressibility (1/GPa) = 0.02023142
#
# Stress axis : x y z
#
# Youngs Moduli (GPa) = 124.92042 43.02336 101.35491
#
# Poissons Ratio (x) = 0.14849 0.08420
# Poissons Ratio (y) = 0.43116 0.62429
# Poissons Ratio (z) = 0.10377 0.26500
#
# Static dielectric constant tensor:
#      x y z
#    x 4.952960 0.000000 0.000000 
#    y 0.000000 3.179080 0.000000 
#    z 0.000000 0.000000 3.865720 
# 
# 
# High freq. dielectric constant tensor:
#      x y z
#    x 1.799730 0.000000 0.000000 
#    y 0.000000 1.707570 0.000000 
#    z 0.000000 0.000000 1.765260 
# 
# From -- ./inp_files/9879.got.cif
#   From: 2010.03.12/outbox.cif.g09.slc.cpg/sg23_5_cif.got.tgz:9879.got - 2010.04.14 02:50:06.
