data_PCOD8164262
_publ_section_title
;
Structure prediction by ZEFSAII (Michael W. Deem and Ramdas Pophale) SiO2 
 PCOD8164262
Probable space group: I 2 2 2
;
_chemical_formula_sum "Si O2"
_cell_formula_units_Z 36
_cell_length_a 5.494567
_cell_length_b 15.055931
_cell_length_c 16.442500
_cell_angle_alpha 90.000000
_cell_angle_beta 90.000000
_cell_angle_gamma 90.000000
_cell_volume 1360.219322
_symmetry_space_group_name_H-M "I 2 2 2"
_symmetry_group_IT_number 23
_symmetry_cell_setting 'orthorhombic'
loop_
_space_group_symop_operation_xyz
x,y,z
-x,-y,z
x,-y,-z
-x,y,-z
1/2+x,1/2+y,1/2+z
1/2-x,1/2-y,1/2+z
1/2+x,1/2-y,1/2-z
1/2-x,1/2+y,1/2-z
loop_
_atom_site_type_symbol
_atom_site_label
_atom_site_fract_x
_atom_site_fract_y
_atom_site_fract_z
Si Si1 0.500000 0.000000 0.375289
Si Si2 0.315010 0.639200 0.791740
Si Si3 0.981785 0.204323 0.865503
Si Si4 0.749900 0.535140 0.591261
Si Si5 0.192403 0.843329 0.572563
O O1 0.300813 0.954987 0.316378
O O2 0.627155 0.927521 0.434077
O O3 0.362428 0.642062 0.695438
O O4 0.566012 0.652851 0.839874
O O5 0.130177 0.717319 0.812856
O O6 0.155214 0.250921 0.933249
O O7 0.772295 0.142970 0.906943
O O8 0.500000 0.500000 0.633220
O O9 0.756691 0.500000 0.500000
O O10 0.000000 0.500000 0.634507
O O11 0.000000 0.847617 0.500000
#
# Coordination Sequence:
#
# PCOD8164262 Si02
#       5
#     4   8   8   8   8
#     4  10  26  47  76 116 155 210 274 346 433 492
#     4  11  24  48  76 111 157 208 271 346 416 508
#     4  11  25  48  77 116 158 212 278 336 424 510
#     4  10  25  48  75 114 162 211 266 337 407 500
#     4  11  26  48  80 113 159 213 277 350 422 509
#
# _framework density 26.46632
#
# number of rings (size 3 to 8) (size 9 to 14) (size 15 to 20)
#    0.000    1.333    2.222    0.667    3.111   11.556 
#    4.000    0.000    4.889    0.000    0.000    0.000 
#    0.000    0.000    0.000    0.000    0.000    0.000 
#
# Total GULP energy -223163.897379 kJ/mol
# GULP energy per Si atom -12397.994299 kJ/mol
# Density = 2.640608 g / cm^3
# Si number density = 26.466320 Si / 1000 Ang^3
#
#
#
# Elastic Constant Matrix: (Units=GPa)
#
#
# Indices 1 2 3 4 5 6 
#
# 1 183.3049 74.5074 35.0570 0.0000 0.0000 0.0000
# 2 74.5074 165.3415 59.4441 0.0000 0.0000 0.0000
# 3 35.0570 59.4441 83.2140 0.0000 0.0000 0.0000
# 4 0.0000 0.0000 0.0000 20.0530 0.0000 0.0000
# 5 0.0000 0.0000 0.0000 0.0000 42.4321 0.0000
# 6 0.0000 0.0000 0.0000 0.0000 0.0000 64.5362
#
#
#
# Elastic Compliance Matrix: (Units=1/GPa)
#
#
# Indices 1 2 3 4 5 6 
#
# 1 0.006728 -0.002709 -0.000900 0.000000 0.000000 0.000000
# 2 -0.002709 0.009229 -0.005451 0.000000 0.000000 0.000000
# 3 -0.000900 -0.005451 0.016290 0.000000 0.000000 0.000000
# 4 0.000000 0.000000 0.000000 0.049868 0.000000 0.000000
# 5 0.000000 0.000000 0.000000 0.000000 0.023567 0.000000
# 6 0.000000 0.000000 0.000000 0.000000 0.000000 0.015495
#
#
# Mechanical properties :
#
#
# Convention : Reuss Voigt Hill
#
# Bulk Modulus (GPa) = 70.78082 85.54194 78.16138
# Shear Modulus (GPa) = 34.72077 42.92771 38.82424
#
# Velocity S-wave (km/s) = 3.62592 4.03174 3.83421
# Velocity P-wave (km/s) = 6.65820 7.35286 7.01413
#
# Compressibility (1/GPa) = 0.01412812
#
# Stress axis : x y z
#
# Youngs Moduli (GPa) = 148.62391 108.35992 61.38571
#
# Poissons Ratio (x) = 0.29349 0.05523
# Poissons Ratio (y) = 0.40255 0.33463
# Poissons Ratio (z) = 0.13372 0.59071
#
# Static dielectric constant tensor:
#      x y z
#    x 6.008050 0.000000 0.000000 
#    y 0.000000 5.082590 0.000000 
#    z 0.000000 0.000000 4.342770 
# 
# 
# High freq. dielectric constant tensor:
#      x y z
#    x 2.073790 0.000000 0.000000 
#    y 0.000000 2.077970 0.000000 
#    z 0.000000 0.000000 2.041140 
# 
# From -- ./inp_files/23025.got.cif
#   From: 2010.03.12/outbox.cif.g09.slc.cpg/sg23_12_cif.got.tgz:23025.got - 2010.04.14 02:50:06.
