data_PCOD8164029
_publ_section_title
;
Structure prediction by ZEFSAII (Michael W. Deem and Ramdas Pophale) SiO2 
 PCOD8164029
Probable space group: I 2 2 2
;
_chemical_formula_sum "Si O2"
_cell_formula_units_Z 42
_cell_length_a 19.615642
_cell_length_b 8.718815
_cell_length_c 11.821794
_cell_angle_alpha 90.000000
_cell_angle_beta 90.000000
_cell_angle_gamma 90.000000
_cell_volume 2021.824136
_symmetry_space_group_name_H-M "I 2 2 2"
_symmetry_group_IT_number 23
_symmetry_cell_setting 'orthorhombic'
loop_
_space_group_symop_operation_xyz
x,y,z
-x,-y,z
x,-y,-z
-x,y,-z
1/2+x,1/2+y,1/2+z
1/2-x,1/2-y,1/2+z
1/2+x,1/2-y,1/2-z
1/2-x,1/2+y,1/2-z
loop_
_atom_site_type_symbol
_atom_site_label
_atom_site_fract_x
_atom_site_fract_y
_atom_site_fract_z
Si Si1 0.500000 0.500000 0.000000
Si Si2 0.574221 0.995528 0.131091
Si Si3 0.165045 0.741083 0.256863
Si Si4 0.581026 0.517376 0.371723
Si Si5 0.259371 0.515125 0.123003
Si Si6 0.393195 0.671007 0.158216
O O1 0.456795 0.610118 0.083290
O O2 0.615603 0.840082 0.153397
O O3 0.500000 0.000000 0.191668
O O4 0.612773 0.147379 0.171468
O O5 0.562562 0.000000 0.000000
O O6 0.112870 0.821972 0.169825
O O7 0.206551 0.604440 0.200387
O O8 0.217926 0.855853 0.317677
O O9 0.500000 0.500000 0.367403
O O10 0.607663 0.500000 0.500000
O O11 0.608997 0.388340 0.287312
O O12 0.325658 0.616136 0.095727
O O13 0.224015 0.500000 0.000000
#
# Coordination Sequence:
#
# PCOD8164029 Si02
#       6
#     2   8   8   8   8   8
#     4  12  20  36  72 100 128 168 208 282 316 388
#     4  11  23  37  63  98 131 159 207 274 333 382
#     4  11  25  42  62  93 126 169 218 260 321 395
#     4  10  22  41  65  91 125 168 217 266 320 382
#     4  11  24  42  64  87 127 169 211 263 320 389
#     4  11  22  38  66  96 128 166 212 264 328 376
#
# _framework density 20.773319000000001
#
# number of rings (size 3 to 8) (size 9 to 14) (size 15 to 20)
#    0.000    1.143    1.905    4.571    5.333    4.571 
#    0.000    1.905    0.000    3.429    0.000    0.000 
#    0.000    0.000    0.000    0.000    0.000    0.000 
#
# Total GULP energy -260302.562267 kJ/mol
# GULP energy per Si atom -12395.360108 kJ/mol
# Density = 2.072604 g / cm^3
# Si number density = 20.773319 Si / 1000 Ang^3
#
#
#
# Elastic Constant Matrix: (Units=GPa)
#
#
# Indices 1 2 3 4 5 6 
#
# 1 84.5187 40.1375 27.4281 0.0000 0.0000 0.0000
# 2 40.1375 140.9406 46.7005 0.0000 0.0000 0.0000
# 3 27.4281 46.7005 120.7917 0.0000 0.0000 0.0000
# 4 0.0000 0.0000 0.0000 25.4780 0.0000 0.0000
# 5 0.0000 0.0000 0.0000 0.0000 31.4178 0.0000
# 6 0.0000 0.0000 0.0000 0.0000 0.0000 55.9782
#
#
#
# Elastic Compliance Matrix: (Units=1/GPa)
#
#
# Indices 1 2 3 4 5 6 
#
# 1 0.014046 -0.003376 -0.001884 0.000000 0.000000 0.000000
# 2 -0.003376 0.008949 -0.002693 0.000000 0.000000 0.000000
# 3 -0.001884 -0.002693 0.009748 0.000000 0.000000 0.000000
# 4 0.000000 0.000000 0.000000 0.039250 0.000000 0.000000
# 5 0.000000 0.000000 0.000000 0.000000 0.031829 0.000000
# 6 0.000000 0.000000 0.000000 0.000000 0.000000 0.017864
#
#
# Mechanical properties :
#
#
# Convention : Reuss Voigt Hill
#
# Bulk Modulus (GPa) = 59.39542 63.86479 61.63011
# Shear Modulus (GPa) = 34.91500 38.04047 36.47773
#
# Velocity S-wave (km/s) = 4.10416 4.28392 4.19500
# Velocity P-wave (km/s) = 7.14934 7.43503 7.29358
#
# Compressibility (1/GPa) = 0.01683631
#
# Stress axis : x y z
#
# Youngs Moduli (GPa) = 71.19282 111.74453 102.58634
#
# Poissons Ratio (x) = 0.37723 0.19331
# Poissons Ratio (y) = 0.24033 0.27630
# Poissons Ratio (z) = 0.13415 0.30096
#
# Static dielectric constant tensor:
#      x y z
#    x 3.952660 0.000000 0.000000 
#    y 0.000000 3.716660 0.000000 
#    z 0.000000 0.000000 3.787730 
# 
# 
# High freq. dielectric constant tensor:
#      x y z
#    x 1.815300 0.000000 0.000000 
#    y 0.000000 1.819930 0.000000 
#    z 0.000000 0.000000 1.812770 
# 
# From -- ./inp_files/17888.got.cif
#   From: 2010.03.12/outbox.cif.g09.slc.cpg/sg23_9_cif.got.tgz:17888.got - 2010.04.14 02:50:06.
