data_PCOD8164205
_publ_section_title
;
Structure prediction by ZEFSAII (Michael W. Deem and Ramdas Pophale) SiO2 
 PCOD8164205
Probable space group: I 2 2 2
;
_chemical_formula_sum "Si O2"
_cell_formula_units_Z 56
_cell_length_a 9.323315
_cell_length_b 13.028969
_cell_length_c 21.122471
_cell_angle_alpha 90.000000
_cell_angle_beta 90.000000
_cell_angle_gamma 90.000000
_cell_volume 2565.813766
_symmetry_space_group_name_H-M "I 2 2 2"
_symmetry_group_IT_number 23
_symmetry_cell_setting 'orthorhombic'
loop_
_space_group_symop_operation_xyz
x,y,z
-x,-y,z
x,-y,-z
-x,y,-z
1/2+x,1/2+y,1/2+z
1/2-x,1/2-y,1/2+z
1/2+x,1/2-y,1/2-z
1/2-x,1/2+y,1/2-z
loop_
_atom_site_type_symbol
_atom_site_label
_atom_site_fract_x
_atom_site_fract_y
_atom_site_fract_z
Si Si1 0.382244 0.418285 0.194405
Si Si2 0.643489 0.049611 0.756810
Si Si3 0.204763 0.433476 0.601505
Si Si4 0.095722 0.758338 0.200523
Si Si5 0.000000 0.730025 0.000000
Si Si6 0.000000 0.632638 0.500000
Si Si7 0.833067 0.711197 0.115431
Si Si8 0.732052 0.657046 0.420476
O O1 0.500000 0.500000 0.167687
O O2 0.273567 0.479838 0.237265
O O3 0.449047 0.337736 0.244129
O O4 0.302328 0.359508 0.136068
O O5 0.627419 0.055937 0.831750
O O6 0.674742 0.162625 0.731678
O O7 0.500000 0.000000 0.727735
O O8 0.084957 0.437937 0.548183
O O9 0.291496 0.327483 0.596800
O O10 0.295979 0.535071 0.586214
O O11 0.214294 0.798088 0.150432
O O12 0.946233 0.718972 0.171851
O O13 0.102498 0.803246 0.038734
O O14 0.908331 0.663150 0.051669
O O15 0.882737 0.693189 0.454874
#
# Coordination Sequence:
#
# PCOD8164205 Si02
#       8
#     8   8   8   8   4   4   8   8
#     4  12  26  44  71 109 142 179 238 295 354 419
#     4  12  24  44  69 100 145 188 228 283 361 425
#     4  12  23  39  66 101 147 180 230 285 350 429
#     4  11  25  42  70 103 141 188 233 282 361 426
#     4  10  24  43  68 101 140 194 236 283 345 424
#     4  12  25  40  58 104 145 192 225 284 360 426
#     4  11  24  44  69 101 142 186 234 292 348 427
#     4  11  23  41  65  99 144 186 236 283 352 424
#
# _framework density 21.825433
#
# number of rings (size 3 to 8) (size 9 to 14) (size 15 to 20)
#    0.000    0.571    5.714    3.000    0.000    3.429 
#    0.000    0.000    0.000    6.857    0.000    0.000 
#    0.000    0.000    0.000    0.000    0.000    0.000 
#
# Total GULP energy -346950.373380 kJ/mol
# GULP energy per Si atom -12391.084764 kJ/mol
# Density = 2.177576 g / cm^3
# Si number density = 21.825433 Si / 1000 Ang^3
#
#
#
# Elastic Constant Matrix: (Units=GPa)
#
#
# Indices 1 2 3 4 5 6 
#
# 1 85.7630 27.3539 54.0698 0.0000 0.0000 0.0000
# 2 27.3539 80.8641 50.1382 0.0000 0.0000 0.0000
# 3 54.0698 50.1382 139.1805 0.0000 0.0000 0.0000
# 4 0.0000 0.0000 0.0000 21.5018 0.0000 0.0000
# 5 0.0000 0.0000 0.0000 0.0000 3.9387 0.0000
# 6 0.0000 0.0000 0.0000 0.0000 0.0000 36.5163
#
#
#
# Elastic Compliance Matrix: (Units=1/GPa)
#
#
# Indices 1 2 3 4 5 6 
#
# 1 0.015681 -0.001967 -0.005384 0.000000 0.000000 0.000000
# 2 -0.001967 0.016170 -0.005061 0.000000 0.000000 0.000000
# 3 -0.005384 -0.005061 0.011099 0.000000 0.000000 0.000000
# 4 0.000000 0.000000 0.000000 0.046508 0.000000 0.000000
# 5 0.000000 0.000000 0.000000 0.000000 0.253893 0.000000
# 6 0.000000 0.000000 0.000000 0.000000 0.000000 0.027385
#
#
# Mechanical properties :
#
#
# Convention : Reuss Voigt Hill
#
# Bulk Modulus (GPa) = 55.16227 63.21460 59.18844
# Shear Modulus (GPa) = 12.45016 24.00773 18.22895
#
# Velocity S-wave (km/s) = 2.39099 3.32021 2.89315
# Velocity P-wave (km/s) = 5.74035 6.61249 6.19179
#
# Compressibility (1/GPa) = 0.01812833
#
# Stress axis : x y z
#
# Youngs Moduli (GPa) = 63.76994 61.84453 90.09418
#
# Poissons Ratio (x) = 0.12162 0.48503
# Poissons Ratio (y) = 0.12541 0.45596
# Poissons Ratio (z) = 0.34331 0.31299
#
# Static dielectric constant tensor:
#      x y z
#    x 4.599790 0.000000 0.000000 
#    y 0.000000 3.905100 0.000000 
#    z 0.000000 0.000000 4.442460 
# 
# 
# High freq. dielectric constant tensor:
#      x y z
#    x 1.863400 0.000000 0.000000 
#    y 0.000000 1.835460 0.000000 
#    z 0.000000 0.000000 1.872350 
# 
# From -- ./inp_files/26282.got.cif
#   From: 2010.03.12/outbox.cif.g09.slc.cpg/sg23_14_cif.got.tgz:26282.got - 2010.04.14 02:50:06.
