data_PCOD8164946
_publ_section_title
;
Structure prediction by ZEFSAII (Michael W. Deem and Ramdas Pophale) SiO2 
 PCOD8164946
Probable space group: I 21 21 21
;
_chemical_formula_sum "Si O2"
_cell_formula_units_Z 64
_cell_length_a 9.856298
_cell_length_b 20.642560
_cell_length_c 16.554386
_cell_angle_alpha 90.000000
_cell_angle_beta 90.000000
_cell_angle_gamma 90.000000
_cell_volume 3368.142510
_symmetry_space_group_name_H-M "I 21 21 21"
_symmetry_group_IT_number 24
_symmetry_cell_setting 'orthorhombic'
loop_
_space_group_symop_operation_xyz
x,y,z
-x,1/2-y,z
x,-y,1/2-z
1/2-x,y,-z
1/2+x,1/2+y,1/2+z
1/2-x,-y,1/2+z
1/2+x,1/2-y,-z
-x,1/2+y,1/2-z
loop_
_atom_site_type_symbol
_atom_site_label
_atom_site_fract_x
_atom_site_fract_y
_atom_site_fract_z
Si Si1 0.555144 0.681069 0.982163
Si Si2 0.106603 0.195096 0.049069
Si Si3 0.978262 0.560693 0.806303
Si Si4 0.598327 0.946247 0.024328
Si Si5 0.217185 0.163792 0.636942
Si Si6 0.557571 0.849113 0.327111
Si Si7 0.714725 0.275390 0.191651
Si Si8 0.089328 0.587519 0.508620
O O1 0.500000 0.750000 0.951694
O O2 0.643219 0.653097 0.908877
O O3 0.455878 0.621168 0.991789
O O4 0.621882 0.696663 0.068981
O O5 0.149319 0.204967 0.142777
O O6 0.000000 0.250000 0.018694
O O7 0.250000 0.196018 0.000000
O O8 0.017271 0.130005 0.043053
O O9 0.940643 0.500000 0.750000
O O10 0.074709 0.543061 0.880515
O O11 0.061803 0.614446 0.757747
O O12 0.837686 0.592990 0.837029
O O13 0.547200 0.013928 0.984446
O O14 0.750000 0.940867 0.000000
O O15 0.234188 0.211553 0.713074
O O16 0.684588 0.800172 0.324619
O O17 0.414123 0.814250 0.341569
O O18 0.566009 0.901557 0.396930
O O19 0.250000 0.603425 0.500000
#
# Coordination Sequence:
#
# PCOD8164946 Si02
#       8
#     8   8   8   8   8   8   8   8
#     4  10  22  40  65  90 120 156 200 255 316 366
#     4  12  23  38  59  89 125 167 207 251 308 363
#     4  10  19  37  62  87 119 160 208 249 304 366
#     4  10  23  40  62  90 120 160 205 251 311 372
#     4   9  22  39  58  94 119 151 202 256 306 370
#     4  10  19  35  58  85 115 159 207 261 289 361
#     4  10  21  35  57  87 119 157 209 248 308 354
#     4  11  22  40  59  85 125 164 207 252 303 369
#
# _framework density 19.001571999999999
#
# number of rings (size 3 to 8) (size 9 to 14) (size 15 to 20)
#    0.000    1.750    2.500    1.875    7.000    0.500 
#    9.000    1.250    0.000    0.000    0.000    0.000 
#    0.000    0.000    0.000    0.000    0.000    0.000 
#
# Total GULP energy -396433.249245 kJ/mol
# GULP energy per Si atom -12388.539039 kJ/mol
# Density = 1.895832 g / cm^3
# Si number density = 19.001572 Si / 1000 Ang^3
#
#
#
# Elastic Constant Matrix: (Units=GPa)
#
#
# Indices 1 2 3 4 5 6 
#
# 1 63.8944 75.4387 51.1185 0.0000 0.0000 0.0000
# 2 75.4387 144.4918 49.4168 0.0001 0.0000 0.0000
# 3 51.1185 49.4168 92.9419 0.0003 0.0001 0.0001
# 4 0.0000 0.0001 0.0003 28.6110 0.0001 0.0001
# 5 0.0000 0.0000 0.0001 0.0001 -5.5605 0.0000
# 6 0.0000 0.0000 0.0001 0.0001 0.0000 48.7957
#
#
#
# Elastic Compliance Matrix: (Units=1/GPa)
#
#
# Indices 1 2 3 4 5 6 
#
# 1 0.062196 -0.025390 -0.020708 0.000000 -0.000001 0.000000
# 2 -0.025390 0.018824 0.003956 0.000000 0.000000 0.000000
# 3 -0.020708 0.003956 0.020046 0.000000 0.000000 0.000000
# 4 0.000000 0.000000 0.000000 0.034952 0.000000 0.000000
# 5 -0.000001 0.000000 0.000000 0.000000 -0.179839 0.000000
# 6 0.000000 0.000000 0.000000 0.000000 0.000000 0.020494
#
#
# Mechanical properties :
#
#
# Convention : Reuss Voigt Hill
#
# Bulk Modulus (GPa) = 59.59146 72.58625 66.08886
# Shear Modulus (GPa) = 75.13264 22.72617 48.92941
#
# Velocity S-wave (km/s) = 6.29492 3.46210 5.07997
# Velocity P-wave (km/s) = 9.17955 7.36645 8.32252
#
# Compressibility (1/GPa) = 0.01678093
#
# Stress axis : x y z
#
# Youngs Moduli (GPa) = 16.07827 53.12423 49.88608
#
# Poissons Ratio (x) = 1.34882 1.03306
# Poissons Ratio (y) = 0.40823 -0.19735
# Poissons Ratio (z) = 0.33295 -0.21016
#
# Static dielectric constant tensor:
#      x y z
#    x 3.386280 0.000000 0.000000 
#    y 0.000000 5.130050 0.000000 
#    z 0.000000 0.000000 3.473770 
# 
# 
# High freq. dielectric constant tensor:
#      x y z
#    x 1.723820 0.000000 0.000000 
#    y 0.000000 1.747180 0.000000 
#    z 0.000000 0.000000 1.742100 
# 
# From -- ./inp_files/29799.got.cif
#   From: 2010.03.12/outbox.cif.g09.slc.cpg/sg24_15_cif.got.tgz:29799.got - 2010.04.14 03:06:53.
