data_PCOD8164222
_publ_section_title
;
Structure prediction by ZEFSAII (Michael W. Deem and Ramdas Pophale) SiO2 
 PCOD8164222
Probable space group: I 2 2 2
;
_chemical_formula_sum "Si O2"
_cell_formula_units_Z 32
_cell_length_a 22.307458
_cell_length_b 8.190545
_cell_length_c 7.266577
_cell_angle_alpha 90.000000
_cell_angle_beta 90.000000
_cell_angle_gamma 90.000000
_cell_volume 1327.678017
_symmetry_space_group_name_H-M "I 2 2 2"
_symmetry_group_IT_number 23
_symmetry_cell_setting 'orthorhombic'
loop_
_space_group_symop_operation_xyz
x,y,z
-x,-y,z
x,-y,-z
-x,y,-z
1/2+x,1/2+y,1/2+z
1/2-x,1/2-y,1/2+z
1/2+x,1/2-y,1/2-z
1/2-x,1/2+y,1/2-z
loop_
_atom_site_type_symbol
_atom_site_label
_atom_site_fract_x
_atom_site_fract_y
_atom_site_fract_z
Si Si1 0.268305 0.992561 0.782491
Si Si2 0.839573 0.798928 0.243817
Si Si3 0.933627 0.806908 0.540804
Si Si4 0.877417 0.667484 0.896590
O O1 0.199189 0.961830 0.714705
O O2 0.313350 0.856165 0.702194
O O3 0.288416 0.164316 0.699233
O O4 0.271897 0.000000 0.000000
O O5 0.883612 0.733710 0.403494
O O6 0.874969 0.810557 0.050783
O O7 0.922724 0.743264 0.746765
O O8 0.000000 0.741368 0.500000
O O9 0.929653 0.000000 0.500000
O O10 0.899914 0.500000 0.000000
#
# Coordination Sequence:
#
# PCOD8164222 Si02
#       4
#     8   8   8   8
#     4  11  22  41  66 107 145 187 238 311 392 457
#     4  11  25  42  71 104 146 191 247 311 390 459
#     4  11  27  49  74 106 150 204 257 316 384 463
#     4  10  24  45  71 110 144 191 249 314 380 457
#
# _framework density 24.102229000000001
#
# number of rings (size 3 to 8) (size 9 to 14) (size 15 to 20)
#    0.000    1.250    2.500    1.500    7.000    2.000 
#    0.000   16.250    0.000    0.000    0.000    0.000 
#    0.000    0.000    0.000    0.000    0.000    0.000 
#
# Total GULP energy -198252.088249 kJ/mol
# GULP energy per Si atom -12390.755516 kJ/mol
# Density = 2.404737 g / cm^3
# Si number density = 24.102229 Si / 1000 Ang^3
#
#
#
# Elastic Constant Matrix: (Units=GPa)
#
#
# Indices 1 2 3 4 5 6 
#
# 1 144.1680 44.6881 71.9984 0.0000 0.0000 0.0000
# 2 44.6881 66.3087 34.9277 0.0000 0.0000 0.0000
# 3 71.9984 34.9277 173.9365 0.0000 0.0000 0.0000
# 4 0.0000 0.0000 0.0000 31.7308 0.0000 0.0000
# 5 0.0000 0.0000 0.0000 0.0000 31.3089 0.0000
# 6 0.0000 0.0000 0.0000 0.0000 0.0000 14.9339
#
#
#
# Elastic Compliance Matrix: (Units=1/GPa)
#
#
# Indices 1 2 3 4 5 6 
#
# 1 0.010106 -0.005152 -0.003149 0.000000 0.000000 0.000000
# 2 -0.005152 0.019492 -0.001781 0.000000 0.000000 0.000000
# 3 -0.003149 -0.001781 0.007410 0.000000 0.000000 0.000000
# 4 0.000000 0.000000 0.000000 0.031515 0.000000 0.000000
# 5 0.000000 0.000000 0.000000 0.000000 0.031940 0.000000
# 6 0.000000 0.000000 0.000000 0.000000 0.000000 0.066962
#
#
# Mechanical properties :
#
#
# Convention : Reuss Voigt Hill
#
# Bulk Modulus (GPa) = 59.37062 76.40463 67.88762
# Shear Modulus (GPa) = 25.87954 31.11466 28.49710
#
# Velocity S-wave (km/s) = 3.28035 3.59687 3.44225
# Velocity P-wave (km/s) = 6.24771 7.00136 6.63525
#
# Compressibility (1/GPa) = 0.01684335
#
# Stress axis : x y z
#
# Youngs Moduli (GPa) = 98.95310 51.30421 134.94866
#
# Poissons Ratio (x) = 0.26433 0.42489
# Poissons Ratio (y) = 0.50983 0.24039
# Poissons Ratio (z) = 0.31156 0.09139
#
# Static dielectric constant tensor:
#      x y z
#    x 4.413350 0.000000 0.000000 
#    y 0.000000 4.217230 0.000000 
#    z 0.000000 0.000000 4.452200 
# 
# 
# High freq. dielectric constant tensor:
#      x y z
#    x 1.935440 0.000000 0.000000 
#    y 0.000000 1.945610 0.000000 
#    z 0.000000 0.000000 1.976750 
# 
# From -- ./inp_files/12374.got.cif
#   From: 2010.03.12/outbox.cif.g09.slc.cpg/sg23_7_cif.got.tgz:12374.got - 2010.04.14 02:50:06.
