data_PCOD8164428
_publ_section_title
;
Structure prediction by ZEFSAII (Michael W. Deem and Ramdas Pophale) SiO2 
 PCOD8164428
Probable space group: I 2 2 2
;
_chemical_formula_sum "Si O2"
_cell_formula_units_Z 44
_cell_length_a 8.704904
_cell_length_b 8.024910
_cell_length_c 29.538861
_cell_angle_alpha 90.000000
_cell_angle_beta 90.000000
_cell_angle_gamma 90.000000
_cell_volume 2063.468776
_symmetry_space_group_name_H-M "I 2 2 2"
_symmetry_group_IT_number 23
_symmetry_cell_setting 'orthorhombic'
loop_
_space_group_symop_operation_xyz
x,y,z
-x,-y,z
x,-y,-z
-x,y,-z
1/2+x,1/2+y,1/2+z
1/2-x,1/2-y,1/2+z
1/2+x,1/2-y,1/2-z
1/2-x,1/2+y,1/2-z
loop_
_atom_site_type_symbol
_atom_site_label
_atom_site_fract_x
_atom_site_fract_y
_atom_site_fract_z
Si Si1 0.177132 0.529689 0.894914
Si Si2 0.500000 0.000000 0.095814
Si Si3 0.335258 0.770121 0.153751
Si Si4 0.424071 0.657357 0.950736
Si Si5 0.323979 0.702127 0.814153
Si Si6 0.825024 0.973249 0.776304
O O1 0.252335 0.354980 0.880365
O O2 0.244767 0.609441 0.942152
O O3 0.206338 0.662585 0.854669
O O4 0.000000 0.500000 0.904062
O O5 0.355574 0.946008 0.126875
O O6 0.546557 0.841638 0.066531
O O7 0.504170 0.704292 0.166510
O O8 0.235359 0.807102 0.198295
O O9 0.500000 0.500000 0.923150
O O10 0.500000 0.651151 0.000000
O O11 0.312014 0.553232 0.777583
O O12 0.281942 0.872784 0.789403
O O13 0.000000 0.000000 0.791252
#
# Coordination Sequence:
#
# PCOD8164428 Si02
#       6
#     8   4   8   8   8   8
#     4  12  24  43  70 104 141 182 228 295 354 413
#     4  12  21  44  74 104 130 182 244 276 340 427
#     4  12  23  42  68  96 137 188 241 283 345 427
#     4  11  23  44  75 107 135 178 233 283 352 436
#     4  12  23  41  60  91 133 190 240 280 353 421
#     4  12  24  37  57  94 135 182 241 305 342 393
#
# _framework density 21.323319000000001
#
# number of rings (size 3 to 8) (size 9 to 14) (size 15 to 20)
#    0.000    0.182    5.455    5.182    0.000    1.455 
#    0.000    1.818    0.000    0.000    9.455    0.000 
#    0.000    0.000    0.000    0.000    0.000    0.000 
#
# Total GULP energy -272595.092582 kJ/mol
# GULP energy per Si atom -12390.686026 kJ/mol
# Density = 2.127479 g / cm^3
# Si number density = 21.323319 Si / 1000 Ang^3
#
#
#
# Elastic Constant Matrix: (Units=GPa)
#
#
# Indices 1 2 3 4 5 6 
#
# 1 157.0781 47.4755 66.3027 0.0000 0.0000 0.0000
# 2 47.4755 134.2549 44.2088 0.0000 0.0000 0.0000
# 3 66.3027 44.2088 119.9754 0.0000 0.0000 0.0000
# 4 0.0000 0.0000 0.0000 38.5819 0.0000 0.0000
# 5 0.0000 0.0000 0.0000 0.0000 24.2331 0.0000
# 6 0.0000 0.0000 0.0000 0.0000 0.0000 35.7771
#
#
#
# Elastic Compliance Matrix: (Units=1/GPa)
#
#
# Indices 1 2 3 4 5 6 
#
# 1 0.008626 -0.001685 -0.004146 0.000000 0.000000 0.000000
# 2 -0.001685 0.008806 -0.002314 0.000000 0.000000 0.000000
# 3 -0.004146 -0.002314 0.011479 0.000000 0.000000 0.000000
# 4 0.000000 0.000000 0.000000 0.025919 0.000000 0.000000
# 5 0.000000 0.000000 0.000000 0.000000 0.041266 0.000000
# 6 0.000000 0.000000 0.000000 0.000000 0.000000 0.027951
#
#
# Mechanical properties :
#
#
# Convention : Reuss Voigt Hill
#
# Bulk Modulus (GPa) = 79.23114 80.80916 80.02015
# Shear Modulus (GPa) = 34.59189 36.60651 35.59920
#
# Velocity S-wave (km/s) = 4.03209 4.14785 4.09038
# Velocity P-wave (km/s) = 7.67559 7.80505 7.74059
#
# Compressibility (1/GPa) = 0.01262130
#
# Stress axis : x y z
#
# Youngs Moduli (GPa) = 115.93529 113.55549 87.11725
#
# Poissons Ratio (x) = 0.19134 0.36118
# Poissons Ratio (y) = 0.19535 0.20157
# Poissons Ratio (z) = 0.48065 0.26274
#
# Static dielectric constant tensor:
#      x y z
#    x 3.869720 0.000000 0.000000 
#    y 0.000000 4.194110 0.000000 
#    z 0.000000 0.000000 4.004840 
# 
# 
# High freq. dielectric constant tensor:
#      x y z
#    x 1.821220 0.000000 0.000000 
#    y 0.000000 1.864660 0.000000 
#    z 0.000000 0.000000 1.831220 
# 
# From -- ./inp_files/13289.got.cif
#   From: 2010.03.12/outbox.cif.g09.slc.cpg/sg23_7_cif.got.tgz:13289.got - 2010.04.14 02:50:06.
