data_PCOD8164982
_publ_section_title
;
Structure prediction by ZEFSAII (Michael W. Deem and Ramdas Pophale) SiO2 
 PCOD8164982
Probable space group: I 21 21 21
;
_chemical_formula_sum "Si O2"
_cell_formula_units_Z 44
_cell_length_a 11.386149
_cell_length_b 14.836083
_cell_length_c 13.486385
_cell_angle_alpha 90.000000
_cell_angle_beta 90.000000
_cell_angle_gamma 90.000000
_cell_volume 2278.199071
_symmetry_space_group_name_H-M "I 21 21 21"
_symmetry_group_IT_number 24
_symmetry_cell_setting 'orthorhombic'
loop_
_space_group_symop_operation_xyz
x,y,z
-x,1/2-y,z
x,-y,1/2-z
1/2-x,y,-z
1/2+x,1/2+y,1/2+z
1/2-x,-y,1/2+z
1/2+x,1/2-y,-z
-x,1/2+y,1/2-z
loop_
_atom_site_type_symbol
_atom_site_label
_atom_site_fract_x
_atom_site_fract_y
_atom_site_fract_z
Si Si1 0.883963 0.202787 0.734036
Si Si2 0.013961 0.571319 0.925162
Si Si3 0.866310 0.000000 0.250000
Si Si4 0.806382 0.077280 0.898817
Si Si5 0.230276 0.146696 0.609727
Si Si6 0.488215 0.142266 0.640651
O O1 0.913541 0.127107 0.654591
O O2 0.820887 0.163481 0.829724
O O3 0.797545 0.272747 0.683344
O O4 0.000000 0.250000 0.773846
O O5 0.067553 0.470832 0.919697
O O6 0.874919 0.572246 0.895655
O O7 0.037009 0.615944 0.032094
O O8 0.785759 0.989554 0.346889
O O9 0.943645 0.910863 0.227573
O O10 0.750000 0.112381 0.000000
O O11 0.250000 0.187744 0.500000
O O12 0.353509 0.106489 0.647831
O O13 0.500000 0.250000 0.656129
#
# Coordination Sequence:
#
# PCOD8164982 Si02
#       6
#     8   8   4   8   8   8
#     4  10  20  37  60  92 115 155 208 250 302 360
#     4  10  19  36  63  91 116 154 201 260 302 350
#     4  12  24  40  60  90 128 164 204 252 310 372
#     4  12  23  38  61  86 124 160 205 252 305 367
#     4   9  19  36  61  91 122 147 197 259 308 354
#     4  11  22  38  61  93 127 160 201 254 315 368
#
# _framework density 19.313500999999999
#
# number of rings (size 3 to 8) (size 9 to 14) (size 15 to 20)
#    0.000    1.455    3.636    3.818    0.000    0.727 
#    6.545    2.727    0.000    0.000    0.000    0.000 
#    0.000    0.000    0.000    0.000    0.000    0.000 
#
# Total GULP energy -272718.972584 kJ/mol
# GULP energy per Si atom -12396.316936 kJ/mol
# Density = 1.926954 g / cm^3
# Si number density = 19.313501 Si / 1000 Ang^3
#
#
#
# Elastic Constant Matrix: (Units=GPa)
#
#
# Indices 1 2 3 4 5 6 
#
# 1 118.5734 44.2331 56.9498 0.0000 0.0000 0.0000
# 2 44.2331 80.5398 44.5041 -0.0001 0.0000 0.0000
# 3 56.9498 44.5041 111.0207 -0.0001 0.0001 0.0000
# 4 0.0000 -0.0001 -0.0001 35.9321 0.0000 0.0000
# 5 0.0000 0.0000 0.0001 0.0000 -26.0723 0.0000
# 6 0.0000 0.0000 0.0000 0.0000 0.0000 28.1650
#
#
#
# Elastic Compliance Matrix: (Units=1/GPa)
#
#
# Indices 1 2 3 4 5 6 
#
# 1 0.012187 -0.004160 -0.004584 0.000000 0.000000 0.000000
# 2 -0.004160 0.017369 -0.004829 0.000000 0.000000 0.000000
# 3 -0.004584 -0.004829 0.013294 0.000000 0.000000 0.000000
# 4 0.000000 0.000000 0.000000 0.027830 0.000000 0.000000
# 5 0.000000 0.000000 0.000000 0.000000 -0.038355 0.000000
# 6 0.000000 0.000000 0.000000 0.000000 0.000000 0.035505
#
#
# Mechanical properties :
#
#
# Convention : Reuss Voigt Hill
#
# Bulk Modulus (GPa) = 63.67347 66.83419 65.25383
# Shear Modulus (GPa) = 49.89429 18.56809 34.23119
#
# Velocity S-wave (km/s) = 5.08822 3.10402 4.21455
# Velocity P-wave (km/s) = 8.21948 6.89395 7.58573
#
# Compressibility (1/GPa) = 0.01570513
#
# Stress axis : x y z
#
# Youngs Moduli (GPa) = 82.05335 57.57293 75.22033
#
# Poissons Ratio (x) = 0.23953 0.34480
# Poissons Ratio (y) = 0.34137 0.36321
# Poissons Ratio (z) = 0.37612 0.27799
#
# Static dielectric constant tensor:
#      x y z
#    x 3.935530 0.000000 0.000000 
#    y 0.000000 3.259780 0.000000 
#    z 0.000000 0.000000 3.491010 
# 
# 
# High freq. dielectric constant tensor:
#      x y z
#    x 1.770590 0.000000 0.000000 
#    y 0.000000 1.718270 0.000000 
#    z 0.000000 0.000000 1.745810 
# 
# From -- ./inp_files/19612.got.cif
#   From: 2010.03.12/outbox.cif.g09.slc.cpg/sg24_10_cif.got.tgz:19612.got - 2010.04.14 03:06:53.
