data_PCOD8164686
_publ_section_title
;
Structure prediction by ZEFSAII (Michael W. Deem and Ramdas Pophale) SiO2 
 PCOD8164686
Probable space group: I 21 21 21
;
_chemical_formula_sum "Si O2"
_cell_formula_units_Z 48
_cell_length_a 14.947623
_cell_length_b 6.425594
_cell_length_c 25.347897
_cell_angle_alpha 90.000000
_cell_angle_beta 90.000000
_cell_angle_gamma 90.000000
_cell_volume 2434.598504
_symmetry_space_group_name_H-M "I 21 21 21"
_symmetry_group_IT_number 24
_symmetry_cell_setting 'orthorhombic'
loop_
_space_group_symop_operation_xyz
x,y,z
-x,1/2-y,z
x,-y,1/2-z
1/2-x,y,-z
1/2+x,1/2+y,1/2+z
1/2-x,-y,1/2+z
1/2+x,1/2-y,-z
-x,1/2+y,1/2-z
loop_
_atom_site_type_symbol
_atom_site_label
_atom_site_fract_x
_atom_site_fract_y
_atom_site_fract_z
Si Si1 0.125448 0.075179 0.464872
Si Si2 0.896349 0.240229 0.842985
Si Si3 0.500000 0.750000 0.582507
Si Si4 0.720965 0.830864 0.170019
Si Si5 0.685275 0.532424 0.077162
Si Si6 0.333348 0.000000 0.250000
Si Si7 0.586291 0.123565 0.625949
O O1 0.105896 0.286383 0.432770
O O2 0.126929 0.114620 0.527620
O O3 0.216626 0.977006 0.443248
O O4 0.050308 0.906133 0.455544
O O5 0.847656 0.319918 0.895857
O O6 0.894430 0.400748 0.794756
O O7 0.000000 0.250000 0.858272
O O8 0.845845 0.028719 0.824201
O O9 0.435439 0.619798 0.620906
O O10 0.682005 0.716442 0.119154
O O11 0.723129 0.685021 0.222175
O O12 0.826511 0.875644 0.162915
O O13 0.500000 0.250000 0.650067
#
# Coordination Sequence:
#
# PCOD8164686 Si02
#       7
#     8   8   4   8   8   4   8
#     4   9  18  34  54  82 122 158 193 233 282 342
#     4  11  24  38  60  87 116 154 199 247 297 355
#     4  10  18  30  54  86 116 156 192 234 284 348
#     4  10  21  41  62  84 116 156 194 246 305 356
#     4   9  20  36  54  83 118 157 197 238 283 347
#     4  10  24  40  64  84 112 150 196 248 300 366
#     4   9  19  36  60  89 117 155 195 238 291 357
#
# _framework density 19.715776000000002
#
# number of rings (size 3 to 8) (size 9 to 14) (size 15 to 20)
#    0.000    2.333    0.000    1.500    3.500    4.667 
#    6.000    3.333    3.667    0.000    0.000    0.000 
#    0.000    0.000    0.000    0.000    0.000    0.000 
#
# Total GULP energy -297367.937738 kJ/mol
# GULP energy per Si atom -12390.330739 kJ/mol
# Density = 1.967090 g / cm^3
# Si number density = 19.715776 Si / 1000 Ang^3
#
#
#
# Elastic Constant Matrix: (Units=GPa)
#
#
# Indices 1 2 3 4 5 6 
#
# 1 116.9414 49.0304 32.9045 0.0000 0.0000 0.0000
# 2 49.0304 100.4570 36.5652 0.0000 0.0000 0.0000
# 3 32.9045 36.5652 88.9813 0.0000 0.0000 0.0000
# 4 0.0000 0.0000 0.0000 23.5037 0.0000 0.0000
# 5 0.0000 0.0000 0.0000 0.0000 17.9332 0.0000
# 6 0.0000 0.0000 0.0000 0.0000 0.0000 27.8919
#
#
#
# Elastic Compliance Matrix: (Units=1/GPa)
#
#
# Indices 1 2 3 4 5 6 
#
# 1 0.011109 -0.004618 -0.002211 0.000000 0.000000 0.000000
# 2 -0.004618 0.013625 -0.003891 0.000000 0.000000 0.000000
# 3 -0.002211 -0.003891 0.013655 0.000000 0.000000 0.000000
# 4 0.000000 0.000000 0.000000 0.042546 0.000000 0.000000
# 5 0.000000 0.000000 0.000000 0.000000 0.055763 0.000000
# 6 0.000000 0.000000 0.000000 0.000000 0.000000 0.035853
#
#
# Mechanical properties :
#
#
# Convention : Reuss Voigt Hill
#
# Bulk Modulus (GPa) = 58.99741 60.37555 59.68648
# Shear Modulus (GPa) = 25.04517 26.39106 25.71812
#
# Velocity S-wave (km/s) = 3.56801 3.66262 3.61563
# Velocity P-wave (km/s) = 6.85297 6.96964 6.91155
#
# Compressibility (1/GPa) = 0.01694990
#
# Stress axis : x y z
#
# Youngs Moduli (GPa) = 90.01455 73.39683 73.23420
#
# Poissons Ratio (x) = 0.33891 0.16189
# Poissons Ratio (y) = 0.41564 0.28497
# Poissons Ratio (z) = 0.19899 0.28561
#
# Static dielectric constant tensor:
#      x y z
#    x 3.711490 0.000000 0.000000 
#    y 0.000000 3.669910 0.000000 
#    z 0.000000 0.000000 3.620790 
# 
# 
# High freq. dielectric constant tensor:
#      x y z
#    x 1.774500 0.000000 0.000000 
#    y 0.000000 1.768070 0.000000 
#    z 0.000000 0.000000 1.759100 
# 
# From -- ./inp_files/7136.got.cif
#   From: 2010.03.12/outbox.cif.g09.slc.cpg/sg24_4_cif.got.tgz:7136.got - 2010.04.14 03:06:53.
