data_PCOD8164877
_publ_section_title
;
Structure prediction by ZEFSAII (Michael W. Deem and Ramdas Pophale) SiO2 
 PCOD8164877
Probable space group: I 21 21 21
;
_chemical_formula_sum "Si O2"
_cell_formula_units_Z 32
_cell_length_a 8.124856
_cell_length_b 5.144253
_cell_length_c 35.832870
_cell_angle_alpha 90.000000
_cell_angle_beta 90.000000
_cell_angle_gamma 90.000000
_cell_volume 1497.681917
_symmetry_space_group_name_H-M "I 21 21 21"
_symmetry_group_IT_number 24
_symmetry_cell_setting 'orthorhombic'
loop_
_space_group_symop_operation_xyz
x,y,z
-x,1/2-y,z
x,-y,1/2-z
1/2-x,y,-z
1/2+x,1/2+y,1/2+z
1/2-x,-y,1/2+z
1/2+x,1/2-y,-z
-x,1/2+y,1/2-z
loop_
_atom_site_type_symbol
_atom_site_label
_atom_site_fract_x
_atom_site_fract_y
_atom_site_fract_z
Si Si1 0.690605 0.722436 0.855753
Si Si2 0.814348 0.214939 0.107700
Si Si3 0.105222 0.487028 0.027538
Si Si4 0.307482 0.752888 0.226568
O O1 0.500000 0.750000 0.866675
O O2 0.772507 0.484472 0.879433
O O3 0.710340 0.710567 0.811636
O O4 0.778896 0.984533 0.870374
O O5 0.813450 0.145021 0.064019
O O6 0.000000 0.250000 0.122521
O O7 0.000000 0.250000 0.009195
O O8 0.250000 0.573976 0.000000
O O9 0.000000 0.750000 0.036707
O O10 0.500000 0.750000 0.217493
O O11 0.253051 0.500000 0.250000
O O12 0.254577 0.000000 0.250000
#
# Coordination Sequence:
#
# PCOD8164877 Si02
#       4
#     8   8   8   8
#     4  10  19  33  55  79 101 135 183 227 270 328
#     4   9  18  34  55  78 108 144 179 225 286 339
#     4  11  22  39  62  88 121 160 201 247 303 362
#     4  10  21  36  52  73 106 143 175 217 281 343
#
# _framework density 21.366353
#
# number of rings (size 3 to 8) (size 9 to 14) (size 15 to 20)
#    0.000    2.000    0.000    6.000    0.000    1.000 
#    0.000    3.750    0.000    0.000    0.000    0.000 
#    0.000    0.000    0.000    0.000    0.000    0.000 
#
# Total GULP energy -198246.015449 kJ/mol
# GULP energy per Si atom -12390.375966 kJ/mol
# Density = 2.131772 g / cm^3
# Si number density = 21.366353 Si / 1000 Ang^3
#
#
#
# Elastic Constant Matrix: (Units=GPa)
#
#
# Indices 1 2 3 4 5 6 
#
# 1 21.7619 25.1114 26.5122 0.0000 0.0000 0.0000
# 2 25.1114 215.5902 85.3443 -0.0002 0.0000 0.0000
# 3 26.5122 85.3443 136.1160 -0.0002 0.0000 0.0000
# 4 0.0000 -0.0002 -0.0002 40.6700 0.0000 -0.0001
# 5 0.0000 0.0000 0.0000 0.0000 16.3527 0.0000
# 6 0.0000 0.0000 0.0000 -0.0001 0.0000 99.8503
#
#
#
# Elastic Compliance Matrix: (Units=1/GPa)
#
#
# Indices 1 2 3 4 5 6 
#
# 1 0.061907 -0.003242 -0.010025 0.000000 0.000000 0.000000
# 2 -0.003242 0.006340 -0.003343 0.000000 0.000000 0.000000
# 3 -0.010025 -0.003343 0.011396 0.000000 0.000000 0.000000
# 4 0.000000 0.000000 0.000000 0.024588 0.000000 0.000000
# 5 0.000000 0.000000 0.000000 0.000000 0.061152 0.000000
# 6 0.000000 0.000000 0.000000 0.000000 0.000000 0.010015
#
#
# Mechanical properties :
#
#
# Convention : Reuss Voigt Hill
#
# Bulk Modulus (GPa) = 21.54223 71.93377 46.73800
# Shear Modulus (GPa) = 22.31226 47.14127 34.72676
#
# Velocity S-wave (km/s) = 3.23502 4.70226 4.03588
# Velocity P-wave (km/s) = 4.90490 7.95120 6.60604
#
# Compressibility (1/GPa) = 0.04642045
#
# Stress axis : x y z
#
# Youngs Moduli (GPa) = 16.15336 157.73857 87.75274
#
# Poissons Ratio (x) = 0.51141 0.87974
# Poissons Ratio (y) = 0.05237 0.29339
# Poissons Ratio (z) = 0.16194 0.52739
#
# Static dielectric constant tensor:
#      x y z
#    x 3.341390 0.000000 0.000000 
#    y 0.000000 4.670050 0.000000 
#    z 0.000000 0.000000 3.273740 
# 
# 
# High freq. dielectric constant tensor:
#      x y z
#    x 1.783150 0.000000 0.000000 
#    y 0.000000 1.874470 0.000000 
#    z 0.000000 0.000000 1.838280 
# 
# From -- ./inp_files/1153.got.cif
#   From: 2010.03.12/outbox.cif.g09.slc.cpg/sg24_1_cif.got.tgz:1153.got - 2010.04.14 03:06:53.
