data_PCOD8164603
_publ_section_title
;
Structure prediction by ZEFSAII (Michael W. Deem and Ramdas Pophale) SiO2 
 PCOD8164603
Probable space group: I 21 21 21
;
_chemical_formula_sum "Si O2"
_cell_formula_units_Z 64
_cell_length_a 8.607692
_cell_length_b 20.916617
_cell_length_c 17.957321
_cell_angle_alpha 90.000000
_cell_angle_beta 90.000000
_cell_angle_gamma 90.000000
_cell_volume 3233.104254
_symmetry_space_group_name_H-M "I 21 21 21"
_symmetry_group_IT_number 24
_symmetry_cell_setting 'orthorhombic'
loop_
_space_group_symop_operation_xyz
x,y,z
-x,1/2-y,z
x,-y,1/2-z
1/2-x,y,-z
1/2+x,1/2+y,1/2+z
1/2-x,-y,1/2+z
1/2+x,1/2-y,-z
-x,1/2+y,1/2-z
loop_
_atom_site_type_symbol
_atom_site_label
_atom_site_fract_x
_atom_site_fract_y
_atom_site_fract_z
Si Si1 0.667079 0.861391 0.337932
Si Si2 0.301020 0.001207 0.085718
Si Si3 0.299256 0.129440 0.164245
Si Si4 0.806028 0.623925 0.833394
Si Si5 0.680844 0.252813 0.921453
Si Si6 0.324815 0.633809 0.172041
Si Si7 0.314925 0.751984 0.081252
Si Si8 0.122781 0.499670 0.836451
O O1 0.481929 0.859066 0.347293
O O2 0.749707 0.815418 0.396503
O O3 0.715153 0.840610 0.254480
O O4 0.721681 0.935035 0.350472
O O5 0.232074 0.937138 0.124050
O O6 0.485838 0.999667 0.102034
O O7 0.236164 0.067185 0.120525
O O8 0.250000 0.999626 0.000000
O O9 0.248579 0.120504 0.249177
O O10 0.215180 0.193105 0.138205
O O11 0.746740 0.689366 0.871152
O O12 0.991414 0.623758 0.836478
O O13 0.500000 0.250000 0.932257
O O14 0.750000 0.273429 0.000000
O O15 0.253302 0.685063 0.115291
O O16 0.262971 0.561554 0.154811
O O17 0.500000 0.750000 0.081818
O O18 0.250000 0.759810 0.000000
O O19 0.055335 0.500000 0.750000
#
# Coordination Sequence:
#
# PCOD8164603 Si02
#       8
#     8   8   8   8   8   8   8   8
#     4   9  17  34  60  82 101 134 178 221 264 315
#     4  10  17  26  48  82 114 138 170 219 267 310
#     4  10  19  35  58  80 103 138 183 225 264 312
#     4   9  17  31  52  77 106 142 182 216 257 319
#     4  12  25  39  55  78 109 140 174 221 275 328
#     4   8  15  30  54  80 104 136 178 218 257 312
#     4  10  19  31  48  72 104 139 175 216 261 312
#     4   8  15  30  54  81 105 135 179 222 259 314
#
# _framework density 19.795216
#
# number of rings (size 3 to 8) (size 9 to 14) (size 15 to 20)
#    0.000    2.500    0.000    5.250    0.000    3.000 
#    0.000    3.125    0.000    9.000    0.000    0.000 
#    0.000    0.000    0.000    0.000    0.000    0.000 
#
# Total GULP energy -396572.776528 kJ/mol
# GULP energy per Si atom -12392.899267 kJ/mol
# Density = 1.975016 g / cm^3
# Si number density = 19.795216 Si / 1000 Ang^3
#
#
#
# Elastic Constant Matrix: (Units=GPa)
#
#
# Indices 1 2 3 4 5 6 
#
# 1 37.0875 28.1347 28.3403 0.0000 0.0000 0.0000
# 2 28.1347 174.2868 74.0391 0.0000 0.0000 0.0000
# 3 28.3403 74.0391 149.8213 0.0000 0.0000 0.0000
# 4 0.0000 0.0000 0.0000 35.3230 0.0000 0.0000
# 5 0.0000 0.0000 0.0000 0.0000 15.9180 0.0000
# 6 0.0000 0.0000 0.0000 0.0000 0.0000 6.1042
#
#
#
# Elastic Compliance Matrix: (Units=1/GPa)
#
#
# Indices 1 2 3 4 5 6 
#
# 1 0.033029 -0.003389 -0.004573 0.000000 0.000000 0.000000
# 2 -0.003389 0.007610 -0.003120 0.000000 0.000000 0.000000
# 3 -0.004573 -0.003120 0.009081 0.000000 0.000000 0.000000
# 4 0.000000 0.000000 0.000000 0.028310 0.000000 0.000000
# 5 0.000000 0.000000 0.000000 0.000000 0.062822 0.000000
# 6 0.000000 0.000000 0.000000 0.000000 0.000000 0.163822
#
#
# Mechanical properties :
#
#
# Convention : Reuss Voigt Hill
#
# Bulk Modulus (GPa) = 36.28886 69.13599 52.71243
# Shear Modulus (GPa) = 14.87992 26.84781 20.86386
#
# Velocity S-wave (km/s) = 2.74468 3.68676 3.25004
# Velocity P-wave (km/s) = 5.33069 7.28865 6.38516
#
# Compressibility (1/GPa) = 0.02755666
#
# Stress axis : x y z
#
# Youngs Moduli (GPa) = 30.27677 131.40541 110.11630
#
# Poissons Ratio (x) = 0.44535 0.50355
# Poissons Ratio (y) = 0.10261 0.34353
# Poissons Ratio (z) = 0.13845 0.40994
#
# Static dielectric constant tensor:
#      x y z
#    x 2.971910 0.000000 0.000000 
#    y 0.000000 4.312530 0.000000 
#    z 0.000000 0.000000 3.519320 
# 
# 
# High freq. dielectric constant tensor:
#      x y z
#    x 1.704100 0.000000 0.000000 
#    y 0.000000 1.805190 0.000000 
#    z 0.000000 0.000000 1.772740 
# 
# From -- ./inp_files/29820.got.cif
#   From: 2010.03.12/outbox.cif.g09.slc.cpg/sg24_15_cif.got.tgz:29820.got - 2010.04.14 03:06:53.
