data_PCOD8164609
_publ_section_title
;
Structure prediction by ZEFSAII (Michael W. Deem and Ramdas Pophale) SiO2 
 PCOD8164609
Probable space group: I 21 21 21
;
_chemical_formula_sum "Si O2"
_cell_formula_units_Z 40
_cell_length_a 22.577400
_cell_length_b 10.654648
_cell_length_c 10.654645
_cell_angle_alpha 90.000000
_cell_angle_beta 90.000000
_cell_angle_gamma 90.000000
_cell_volume 2563.020134
_symmetry_space_group_name_H-M "I 21 21 21"
_symmetry_group_IT_number 24
_symmetry_cell_setting 'orthorhombic'
loop_
_space_group_symop_operation_xyz
x,y,z
-x,1/2-y,z
x,-y,1/2-z
1/2-x,y,-z
1/2+x,1/2+y,1/2+z
1/2-x,-y,1/2+z
1/2+x,1/2-y,-z
-x,1/2+y,1/2-z
loop_
_atom_site_type_symbol
_atom_site_label
_atom_site_fract_x
_atom_site_fract_y
_atom_site_fract_z
Si Si1 0.868090 0.462812 0.508654
Si Si2 0.184454 0.000000 0.250000
Si Si3 0.971203 0.627772 0.594408
Si Si4 0.618089 0.258654 0.287189
Si Si5 0.278797 0.155592 0.122228
Si Si6 0.565546 0.000000 0.250000
O O1 0.855148 0.443429 0.362199
O O2 0.927083 0.548696 0.507992
O O3 0.875000 0.329487 0.579487
O O4 0.813725 0.531181 0.577675
O O5 0.224207 0.116900 0.208714
O O6 0.936275 0.672324 0.718819
O O7 0.000000 0.750000 0.524937
O O8 0.025793 0.541286 0.633100
O O9 0.677083 0.257992 0.201304
O O10 0.605148 0.112199 0.306571
O O11 0.250000 0.225063 0.000000
#
# Coordination Sequence:
#
# PCOD8164609 Si02
#       6
#     8   4   8   8   8   4
#     4  10  17  28  47  72  95 120 159 194 239 291
#     4  10  18  27  48  74  92 123 158 198 244 272
#     4   9  16  28  47  70  93 116 152 202 240 279
#     4  10  17  28  47  72  95 120 159 194 239 291
#     4   9  16  28  47  70  93 116 152 202 240 279
#     4  10  18  27  48  74  92 123 158 198 244 272
#
# _framework density 15.606588
#
# number of rings (size 3 to 8) (size 9 to 14) (size 15 to 20)
#    0.000    2.400    4.000    1.200    0.000    0.000 
#    0.000    0.000    8.800    0.000    0.000    0.000 
#    0.000    0.000    0.000    0.000    0.000    0.000 
#
# Total GULP energy -247876.106370 kJ/mol
# GULP energy per Si atom -12393.805319 kJ/mol
# Density = 1.557107 g / cm^3
# Si number density = 15.606588 Si / 1000 Ang^3
#
#
#
# Elastic Constant Matrix: (Units=GPa)
#
#
# Indices 1 2 3 4 5 6 
#
# 1 90.2847 54.0627 54.0627 0.0000 0.0000 0.0000
# 2 54.0627 94.4897 46.3474 0.0000 0.0000 0.0000
# 3 54.0627 46.3474 94.4896 0.0000 0.0000 0.0000
# 4 0.0000 0.0000 0.0000 13.4413 0.0000 0.0000
# 5 0.0000 0.0000 0.0000 0.0000 20.7238 0.0000
# 6 0.0000 0.0000 0.0000 0.0000 0.0000 20.7239
#
#
#
# Elastic Compliance Matrix: (Units=1/GPa)
#
#
# Indices 1 2 3 4 5 6 
#
# 1 0.020501 -0.007870 -0.007870 0.000000 0.000000 0.000000
# 2 -0.007870 0.016957 -0.003815 0.000000 0.000000 0.000000
# 3 -0.007870 -0.003815 0.016957 0.000000 0.000000 0.000000
# 4 0.000000 0.000000 0.000000 0.074398 0.000000 0.000000
# 5 0.000000 0.000000 0.000000 0.000000 0.048254 0.000000
# 6 0.000000 0.000000 0.000000 0.000000 0.000000 0.048253
#
#
# Mechanical properties :
#
#
# Convention : Reuss Voigt Hill
#
# Bulk Modulus (GPa) = 65.33057 65.35662 65.34359
# Shear Modulus (GPa) = 18.55086 19.29721 18.92403
#
# Velocity S-wave (km/s) = 3.45143 3.52017 3.48597
# Velocity P-wave (km/s) = 7.60493 7.64792 7.62645
#
# Compressibility (1/GPa) = 0.01530677
#
# Stress axis : x y z
#
# Youngs Moduli (GPa) = 48.77886 58.97288 58.97283
#
# Poissons Ratio (x) = 0.46409 0.46409
# Poissons Ratio (y) = 0.38387 0.22497
# Poissons Ratio (z) = 0.38387 0.22497
#
# Static dielectric constant tensor:
#      x y z
#    x 3.183670 0.000000 0.000000 
#    y 0.000000 2.852810 0.000000 
#    z 0.000000 0.000000 2.852800 
# 
# 
# High freq. dielectric constant tensor:
#      x y z
#    x 1.610360 0.000000 0.000000 
#    y 0.000000 1.571070 0.000000 
#    z 0.000000 0.000000 1.571070 
# 
# From -- ./inp_files/22113.got.cif
#   From: 2010.03.12/outbox.cif.g09.slc.cpg/sg24_12_cif.got.tgz:22113.got - 2010.04.14 03:06:53.
