data_PCOD8164745
_publ_section_title
;
Structure prediction by ZEFSAII (Michael W. Deem and Ramdas Pophale) SiO2 
 PCOD8164745
Probable space group: I 21 21 21
;
_chemical_formula_sum "Si O2"
_cell_formula_units_Z 48
_cell_length_a 8.348637
_cell_length_b 18.512748
_cell_length_c 16.711079
_cell_angle_alpha 90.000000
_cell_angle_beta 90.000000
_cell_angle_gamma 90.000000
_cell_volume 2582.801084
_symmetry_space_group_name_H-M "I 21 21 21"
_symmetry_group_IT_number 24
_symmetry_cell_setting 'orthorhombic'
loop_
_space_group_symop_operation_xyz
x,y,z
-x,1/2-y,z
x,-y,1/2-z
1/2-x,y,-z
1/2+x,1/2+y,1/2+z
1/2-x,-y,1/2+z
1/2+x,1/2-y,-z
-x,1/2+y,1/2-z
loop_
_atom_site_type_symbol
_atom_site_label
_atom_site_fract_x
_atom_site_fract_y
_atom_site_fract_z
Si Si1 0.500000 0.250000 0.251622
Si Si2 0.467298 0.919387 0.724257
Si Si3 0.250000 0.087921 0.500000
Si Si4 0.250000 0.598491 0.500000
Si Si5 0.181232 0.122530 0.669236
Si Si6 0.094670 0.951807 0.454108
Si Si7 0.207062 0.368689 0.824765
Si Si8 0.982134 0.000000 0.750000
O O1 0.405885 0.194685 0.305945
O O2 0.382349 0.295926 0.196954
O O3 0.351375 0.880334 0.786666
O O4 0.391424 0.921533 0.635624
O O5 0.627028 0.871281 0.723477
O O6 0.512856 0.000000 0.750000
O O7 0.185546 0.134913 0.573602
O O8 0.114695 0.038340 0.457182
O O9 0.419174 0.556326 0.506388
O O10 0.236695 0.643682 0.581150
O O11 0.090004 0.047659 0.689949
O O12 0.250000 0.915986 0.500000
O O13 0.117265 0.444506 0.805470
#
# Coordination Sequence:
#
# PCOD8164745 Si02
#       8
#     4   8   4   4   8   8   8   4
#     4  10  26  42  54  80 118 170 198 226 298 366
#     4  11  18  35  61  92 114 147 194 249 297 345
#     4  10  18  34  58  84 120 154 192 248 306 342
#     4  10  20  34  58  90 124 148 200 248 294 356
#     4  11  21  37  61  84 118 158 197 240 298 356
#     4   9  19  31  56  97 121 146 185 250 311 347
#     4  10  22  38  59  87 121 151 200 241 293 357
#     4  10  18  34  62  88 118 154 186 244 298 358
#
# _framework density 18.584474
#
# number of rings (size 3 to 8) (size 9 to 14) (size 15 to 20)
#    0.500    1.333    3.333    1.000    4.667    0.667 
#    0.000    5.000    0.000    2.000    0.000    0.000 
#    0.000    0.000    0.000    0.000    0.000    0.000 
#
# Total GULP energy -297323.167060 kJ/mol
# GULP energy per Si atom -12388.465294 kJ/mol
# Density = 1.854218 g / cm^3
# Si number density = 18.584474 Si / 1000 Ang^3
#
#
#
# Elastic Constant Matrix: (Units=GPa)
#
#
# Indices 1 2 3 4 5 6 
#
# 1 129.3635 47.4095 51.8594 0.0000 0.0000 0.0000
# 2 47.4095 100.9305 42.0415 0.0000 0.0000 0.0000
# 3 51.8594 42.0415 126.2875 0.0000 0.0000 0.0000
# 4 0.0000 0.0000 0.0000 7.5059 0.0000 0.0000
# 5 0.0000 0.0000 0.0000 0.0000 26.5303 0.0000
# 6 0.0000 0.0000 0.0000 0.0000 0.0000 2.8057
#
#
#
# Elastic Compliance Matrix: (Units=1/GPa)
#
#
# Indices 1 2 3 4 5 6 
#
# 1 0.010244 -0.003552 -0.003024 0.000000 0.000000 0.000000
# 2 -0.003552 0.012735 -0.002781 0.000000 0.000000 0.000000
# 3 -0.003024 -0.002781 0.010086 0.000000 0.000000 0.000000
# 4 0.000000 0.000000 0.000000 0.133229 0.000000 0.000000
# 5 0.000000 0.000000 0.000000 0.000000 0.037693 0.000000
# 6 0.000000 0.000000 0.000000 0.000000 0.000000 0.356423
#
#
# Mechanical properties :
#
#
# Convention : Reuss Voigt Hill
#
# Bulk Modulus (GPa) = 69.68333 71.02248 70.35291
# Shear Modulus (GPa) = 8.56299 21.71977 15.14138
#
# Velocity S-wave (km/s) = 2.14886 3.42234 2.85745
# Velocity P-wave (km/s) = 6.61314 7.34272 6.98746
#
# Compressibility (1/GPa) = 0.01435063
#
# Stress axis : x y z
#
# Youngs Moduli (GPa) = 97.61455 78.52574 99.14717
#
# Poissons Ratio (x) = 0.27895 0.29984
# Poissons Ratio (y) = 0.34676 0.27570
# Poissons Ratio (z) = 0.29521 0.21835
#
# Static dielectric constant tensor:
#      x y z
#    x 3.630590 0.000000 0.000000 
#    y 0.000000 3.140550 0.000000 
#    z 0.000000 0.000000 3.520320 
# 
# 
# High freq. dielectric constant tensor:
#      x y z
#    x 1.734540 0.000000 0.000000 
#    y 0.000000 1.685240 0.000000 
#    z 0.000000 0.000000 1.731740 
# 
# From -- ./inp_files/29615.got.cif
#   From: 2010.03.12/outbox.cif.g09.slc.cpg/sg24_15_cif.got.tgz:29615.got - 2010.04.14 03:06:53.
