data_PCOD8164171
_publ_section_title
;
Structure prediction by ZEFSAII (Michael W. Deem and Ramdas Pophale) SiO2 
 PCOD8164171
Probable space group: I 2 2 2
;
_chemical_formula_sum "Si O2"
_cell_formula_units_Z 48
_cell_length_a 5.185902
_cell_length_b 14.464835
_cell_length_c 31.525523
_cell_angle_alpha 90.000000
_cell_angle_beta 90.000000
_cell_angle_gamma 90.000000
_cell_volume 2364.830890
_symmetry_space_group_name_H-M "I 2 2 2"
_symmetry_group_IT_number 23
_symmetry_cell_setting 'orthorhombic'
loop_
_space_group_symop_operation_xyz
x,y,z
-x,-y,z
x,-y,-z
-x,y,-z
1/2+x,1/2+y,1/2+z
1/2-x,1/2-y,1/2+z
1/2+x,1/2-y,1/2-z
1/2-x,1/2+y,1/2-z
loop_
_atom_site_type_symbol
_atom_site_label
_atom_site_fract_x
_atom_site_fract_y
_atom_site_fract_z
Si Si1 0.000000 0.500000 0.663344
Si Si2 0.738637 0.403405 0.262454
Si Si3 0.051569 0.341298 0.403548
Si Si4 0.959439 0.107039 0.950995
Si Si5 0.000000 0.000000 0.689439
Si Si6 0.577124 0.697199 0.160549
Si Si7 0.924561 0.251796 0.210504
O O1 0.781862 0.539300 0.694718
O O2 0.908085 0.415362 0.634250
O O3 0.729265 0.470927 0.221645
O O4 0.463943 0.350782 0.269959
O O5 0.949202 0.324158 0.250181
O O6 0.327617 0.332884 0.426242
O O7 0.830863 0.370384 0.436743
O O8 0.973938 0.240375 0.385803
O O9 0.000000 0.000000 0.940841
O O10 0.000000 0.129799 0.000000
O O11 0.077228 0.085385 0.659045
O O12 0.854080 0.732114 0.175826
O O13 0.354284 0.736669 0.190459
#
# Coordination Sequence:
#
# PCOD8164171 Si02
#       7
#     4   8   8   8   4   8   8
#     4  12  24  34  57  88 122 160 208 250 297 346
#     4  11  23  37  58  81 120 169 222 258 302 347
#     4  12  24  40  62  93 123 155 191 245 303 355
#     4  11  23  43  66  93 125 156 185 225 296 392
#     4  10  24  38  60  82 117 170 221 256 306 338
#     4  11  24  42  60  85 120 156 211 261 302 348
#     4  11  23  40  56  80 114 166 215 261 302 342
#
# _framework density 20.297433999999999
#
# number of rings (size 3 to 8) (size 9 to 14) (size 15 to 20)
#    0.000    0.833    3.333    4.500    2.333    3.333 
#    0.000    0.000    0.000    0.000    0.000    3.500 
#    0.000    0.000    0.000    0.000    0.000    0.000 
#
# Total GULP energy -297440.618809 kJ/mol
# GULP energy per Si atom -12393.359117 kJ/mol
# Density = 2.025124 g / cm^3
# Si number density = 20.297434 Si / 1000 Ang^3
#
#
#
# Elastic Constant Matrix: (Units=GPa)
#
#
# Indices 1 2 3 4 5 6 
#
# 1 62.6954 7.8053 17.5209 0.0000 0.0000 0.0000
# 2 7.8053 110.7431 41.8623 0.0000 0.0000 0.0000
# 3 17.5209 41.8623 91.6252 0.0000 0.0000 0.0000
# 4 0.0000 0.0000 0.0000 22.5481 0.0000 0.0000
# 5 0.0000 0.0000 0.0000 0.0000 19.9383 0.0000
# 6 0.0000 0.0000 0.0000 0.0000 0.0000 31.0331
#
#
#
# Elastic Compliance Matrix: (Units=1/GPa)
#
#
# Indices 1 2 3 4 5 6 
#
# 1 0.016851 0.000037 -0.003239 0.000000 0.000000 0.000000
# 2 0.000037 0.010915 -0.004994 0.000000 0.000000 0.000000
# 3 -0.003239 -0.004994 0.013815 0.000000 0.000000 0.000000
# 4 0.000000 0.000000 0.000000 0.044350 0.000000 0.000000
# 5 0.000000 0.000000 0.000000 0.000000 0.050155 0.000000
# 6 0.000000 0.000000 0.000000 0.000000 0.000000 0.032224
#
#
# Mechanical properties :
#
#
# Convention : Reuss Voigt Hill
#
# Bulk Modulus (GPa) = 39.70086 44.38229 42.04157
# Shear Modulus (GPa) = 25.89364 27.89558 26.89461
#
# Velocity S-wave (km/s) = 3.57558 3.71123 3.64404
# Velocity P-wave (km/s) = 6.05379 6.34648 6.20186
#
# Compressibility (1/GPa) = 0.02518837
#
# Stress axis : x y z
#
# Youngs Moduli (GPa) = 59.34453 91.61619 72.38461
#
# Poissons Ratio (x) = -0.00336 0.23446
# Poissons Ratio (y) = -0.00218 0.36149
# Poissons Ratio (z) = 0.19222 0.45753
#
# Static dielectric constant tensor:
#      x y z
#    x 3.672410 0.000000 0.000000 
#    y 0.000000 4.199740 0.000000 
#    z 0.000000 0.000000 3.632960 
# 
# 
# High freq. dielectric constant tensor:
#      x y z
#    x 1.805270 0.000000 0.000000 
#    y 0.000000 1.788810 0.000000 
#    z 0.000000 0.000000 1.762880 
# 
# From -- ./inp_files/28962.got.cif
#   From: 2010.03.12/outbox.cif.g09.slc.cpg/sg23_15_cif.got.tgz:28962.got - 2010.04.14 02:50:06.
