data_PCOD8164857
_publ_section_title
;
Structure prediction by ZEFSAII (Michael W. Deem and Ramdas Pophale) SiO2 
 PCOD8164857
Probable space group: I 21 21 21
;
_chemical_formula_sum "Si O2"
_cell_formula_units_Z 48
_cell_length_a 27.027351
_cell_length_b 18.153198
_cell_length_c 5.147173
_cell_angle_alpha 90.000000
_cell_angle_beta 90.000000
_cell_angle_gamma 90.000000
_cell_volume 2525.372180
_symmetry_space_group_name_H-M "I 21 21 21"
_symmetry_group_IT_number 24
_symmetry_cell_setting 'orthorhombic'
loop_
_space_group_symop_operation_xyz
x,y,z
-x,1/2-y,z
x,-y,1/2-z
1/2-x,y,-z
1/2+x,1/2+y,1/2+z
1/2-x,-y,1/2+z
1/2+x,1/2-y,-z
-x,1/2+y,1/2-z
loop_
_atom_site_type_symbol
_atom_site_label
_atom_site_fract_x
_atom_site_fract_y
_atom_site_fract_z
Si Si1 0.807241 0.952604 0.996555
Si Si2 0.217861 0.085269 0.746707
Si Si3 0.446951 0.661080 0.638062
Si Si4 0.442463 0.835856 0.630608
Si Si5 0.611788 0.159382 0.368426
Si Si6 0.883281 0.666393 0.861450
O O1 0.822036 0.000000 0.250000
O O2 0.750000 0.929985 0.000000
O O3 0.836825 0.877263 0.954987
O O4 0.821159 0.000000 0.750000
O O5 0.250000 0.104424 0.500000
O O6 0.169552 0.133958 0.711340
O O7 0.202108 0.000000 0.750000
O O8 0.250000 0.106933 0.000000
O O9 0.447674 0.748651 0.631311
O O10 0.502670 0.629079 0.631603
O O11 0.411933 0.631808 0.403853
O O12 0.426755 0.634483 0.913026
O O13 0.419178 0.862656 0.362731
O O14 0.407209 0.862130 0.868304
O O15 0.622083 0.245927 0.363177
#
# Coordination Sequence:
#
# PCOD8164857 Si02
#       6
#     8   8   8   8   8   8
#     4  10  21  37  54  72  99 138 176 210 259 318
#     4  10  21  37  55  75 103 141 176 208 258 319
#     4   9  17  30  50  77 107 135 167 207 256 310
#     4   9  17  30  50  77 107 136 166 206 257 310
#     4  10  19  32  53  79 102 132 173 217 257 297
#     4  10  19  32  53  80 105 132 171 216 256 296
#
# _framework density 19.007100000000001
#
# number of rings (size 3 to 8) (size 9 to 14) (size 15 to 20)
#    0.000    2.333    0.000    3.000    0.000    4.667 
#    0.000    2.500    0.000   10.000    0.000    0.000 
#    0.000    0.000    0.000    0.000    0.000    0.000 
#
# Total GULP energy -297478.554126 kJ/mol
# GULP energy per Si atom -12394.939755 kJ/mol
# Density = 1.896384 g / cm^3
# Si number density = 19.007100 Si / 1000 Ang^3
#
#
#
# Elastic Constant Matrix: (Units=GPa)
#
#
# Indices 1 2 3 4 5 6 
#
# 1 141.9787 50.6480 61.3208 0.0000 0.0000 0.0000
# 2 50.6480 38.8048 33.1399 0.0000 0.0000 0.0000
# 3 61.3208 33.1399 158.6862 0.0000 0.0000 0.0000
# 4 0.0000 0.0000 0.0000 15.2548 0.0000 0.0000
# 5 0.0000 0.0000 0.0000 0.0000 33.8963 0.0000
# 6 0.0000 0.0000 0.0000 0.0000 0.0000 8.5175
#
#
#
# Elastic Compliance Matrix: (Units=1/GPa)
#
#
# Indices 1 2 3 4 5 6 
#
# 1 0.013630 -0.016177 -0.001889 0.000000 0.000000 0.000000
# 2 -0.016177 0.050563 -0.004309 0.000000 0.000000 0.000000
# 3 -0.001889 -0.004309 0.007931 0.000000 0.000000 0.000000
# 4 0.000000 0.000000 0.000000 0.065553 0.000000 0.000000
# 5 0.000000 0.000000 0.000000 0.000000 0.029502 0.000000
# 6 0.000000 0.000000 0.000000 0.000000 0.000000 0.117406
#
#
# Mechanical properties :
#
#
# Convention : Reuss Voigt Hill
#
# Bulk Modulus (GPa) = 36.52720 69.96522 53.24621
# Shear Modulus (GPa) = 14.77291 24.49112 19.63202
#
# Velocity S-wave (km/s) = 2.79091 3.59350 3.21733
# Velocity P-wave (km/s) = 5.44472 7.35579 6.47119
#
# Compressibility (1/GPa) = 0.02737686
#
# Stress axis : x y z
#
# Youngs Moduli (GPa) = 73.36955 19.77728 126.08222
#
# Poissons Ratio (x) = 0.31993 0.23812
# Poissons Ratio (y) = 1.18686 0.54323
# Poissons Ratio (z) = 0.13856 0.08521
#
# Static dielectric constant tensor:
#      x y z
#    x 3.570400 0.000000 0.000000 
#    y 0.000000 3.088000 0.000000 
#    z 0.000000 0.000000 3.885950 
# 
# 
# High freq. dielectric constant tensor:
#      x y z
#    x 1.750710 0.000000 0.000000 
#    y 0.000000 1.693180 0.000000 
#    z 0.000000 0.000000 1.763410 
# 
# From -- ./inp_files/5620.got.cif
#   From: 2010.03.12/outbox.cif.g09.slc.cpg/sg24_3_cif.got.tgz:5620.got - 2010.04.14 03:06:53.
