data_PCOD8164829
_publ_section_title
;
Structure prediction by ZEFSAII (Michael W. Deem and Ramdas Pophale) SiO2 
 PCOD8164829
Probable space group: I 21 21 21
;
_chemical_formula_sum "Si O2"
_cell_formula_units_Z 48
_cell_length_a 24.651206
_cell_length_b 5.034972
_cell_length_c 20.749360
_cell_angle_alpha 90.000000
_cell_angle_beta 90.000000
_cell_angle_gamma 90.000000
_cell_volume 2575.371803
_symmetry_space_group_name_H-M "I 21 21 21"
_symmetry_group_IT_number 24
_symmetry_cell_setting 'orthorhombic'
loop_
_space_group_symop_operation_xyz
x,y,z
-x,1/2-y,z
x,-y,1/2-z
1/2-x,y,-z
1/2+x,1/2+y,1/2+z
1/2-x,-y,1/2+z
1/2+x,1/2-y,-z
-x,1/2+y,1/2-z
loop_
_atom_site_type_symbol
_atom_site_label
_atom_site_fract_x
_atom_site_fract_y
_atom_site_fract_z
Si Si1 0.714007 0.498162 0.326392
Si Si2 0.500000 0.250000 0.983265
Si Si3 0.852618 0.003292 0.826337
Si Si4 0.099551 0.487273 0.326086
Si Si5 0.665543 0.492733 0.826460
Si Si6 0.000000 0.250000 0.402454
Si Si7 0.465327 0.483674 0.104870
O O1 0.718596 0.500000 0.250000
O O2 0.672957 0.722714 0.350678
O O3 0.774145 0.548474 0.355518
O O4 0.689611 0.219855 0.349513
O O5 0.524417 0.501016 0.943229
O O6 0.454132 0.378270 0.031158
O O7 0.861887 0.000000 0.750000
O O8 0.909785 0.956355 0.859673
O O9 0.088832 0.500000 0.250000
O O10 0.122837 0.769578 0.350445
O O11 0.043882 0.401479 0.359031
O O12 0.144780 0.278601 0.348469
O O13 0.668629 0.500000 0.750000
O O14 0.500000 0.750000 0.103733
O O15 0.500000 0.250000 0.141125
#
# Coordination Sequence:
#
# PCOD8164829 Si02
#       7
#     8   4   8   8   8   4   8
#     4   9  17  29  48  75 110 143 176 206 246 321
#     4  10  22  39  54  73 100 142 194 216 254 312
#     4  10  19  30  50  82 110 140 175 217 271 314
#     4  10  21  33  52  81 111 138 163 204 271 318
#     4   9  17  32  49  73 112 147 167 198 251 321
#     4  12  22  37  58  79 106 138 178 224 252 318
#     4  10  20  36  53  73 108 135 186 222 266 318
#
# _framework density 18.638088
#
# number of rings (size 3 to 8) (size 9 to 14) (size 15 to 20)
#    0.500    1.667    0.833    3.000    0.000    7.333 
#    0.000    0.000    0.000    0.000    0.000   17.500 
#    0.000    0.000    0.000    0.000    0.000    0.000 
#
# Total GULP energy -297338.529230 kJ/mol
# GULP energy per Si atom -12389.105385 kJ/mol
# Density = 1.859567 g / cm^3
# Si number density = 18.638088 Si / 1000 Ang^3
#
#
#
# Elastic Constant Matrix: (Units=GPa)
#
#
# Indices 1 2 3 4 5 6 
#
# 1 131.1935 51.3971 40.9583 0.0000 0.0000 0.0000
# 2 51.3971 142.9237 34.3863 0.0000 0.0000 0.0000
# 3 40.9583 34.3863 44.3675 0.0000 0.0000 0.0000
# 4 0.0000 0.0000 0.0000 16.4590 0.0000 0.0000
# 5 0.0000 0.0000 0.0000 0.0000 -4.0470 0.0000
# 6 0.0000 0.0000 0.0000 0.0000 0.0000 34.2924
#
#
#
# Elastic Compliance Matrix: (Units=1/GPa)
#
#
# Indices 1 2 3 4 5 6 
#
# 1 0.011104 -0.001877 -0.008796 0.000000 0.000000 0.000000
# 2 -0.001877 0.008918 -0.005179 0.000000 0.000000 0.000000
# 3 -0.008796 -0.005179 0.034673 0.000000 0.000000 0.000000
# 4 0.000000 0.000000 0.000000 0.060757 0.000000 0.000000
# 5 0.000000 0.000000 0.000000 0.000000 -0.247096 0.000000
# 6 0.000000 0.000000 0.000000 0.000000 0.000000 0.029161
#
#
# Mechanical properties :
#
#
# Convention : Reuss Voigt Hill
#
# Bulk Modulus (GPa) = 43.49526 63.55201 53.52364
# Shear Modulus (GPa) = -79.21791 22.12375 -28.54708
#
# Velocity S-wave (km/s) = -6.52652 3.44905 -3.91788
# Velocity P-wave (km/s) = 5.77984 7.07342 2.88328
#
# Compressibility (1/GPa) = 0.02299101
#
# Stress axis : x y z
#
# Youngs Moduli (GPa) = 90.06065 112.13704 28.84103
#
# Poissons Ratio (x) = 0.21046 0.25368
# Poissons Ratio (y) = 0.16902 0.14937
# Poissons Ratio (z) = 0.79216 0.58075
#
# Static dielectric constant tensor:
#      x y z
#    x 3.397150 0.000000 0.000000 
#    y 0.000000 3.912820 0.000000 
#    z 0.000000 0.000000 3.105740 
# 
# 
# High freq. dielectric constant tensor:
#      x y z
#    x 1.716360 0.000000 0.000000 
#    y 0.000000 1.753320 0.000000 
#    z 0.000000 0.000000 1.668140 
# 
# From -- ./inp_files/34089.got.cif
#   From: 2010.03.12/outbox.cif.g09.slc.cpg/sg24_18_cif.got.tgz:34089.got - 2010.04.14 03:06:53.
