data_PCOD8164702
_publ_section_title
;
Structure prediction by ZEFSAII (Michael W. Deem and Ramdas Pophale) SiO2 
 PCOD8164702
Probable space group: I 21 21 21
;
_chemical_formula_sum "Si O2"
_cell_formula_units_Z 44
_cell_length_a 11.659187
_cell_length_b 17.300402
_cell_length_c 10.771508
_cell_angle_alpha 90.000000
_cell_angle_beta 90.000000
_cell_angle_gamma 90.000000
_cell_volume 2172.706037
_symmetry_space_group_name_H-M "I 21 21 21"
_symmetry_group_IT_number 24
_symmetry_cell_setting 'orthorhombic'
loop_
_space_group_symop_operation_xyz
x,y,z
-x,1/2-y,z
x,-y,1/2-z
1/2-x,y,-z
1/2+x,1/2+y,1/2+z
1/2-x,-y,1/2+z
1/2+x,1/2-y,-z
-x,1/2+y,1/2-z
loop_
_atom_site_type_symbol
_atom_site_label
_atom_site_fract_x
_atom_site_fract_y
_atom_site_fract_z
Si Si1 0.303620 0.901047 0.819075
Si Si2 0.820526 0.777028 0.169579
Si Si3 0.083896 0.682159 0.902079
Si Si4 0.875697 0.394555 0.049142
Si Si5 0.000000 0.250000 0.131048
Si Si6 0.079548 0.951251 0.939315
O O1 0.278095 0.810640 0.820690
O O2 0.360411 0.927968 0.689172
O O3 0.185064 0.945853 0.843492
O O4 0.392786 0.914287 0.928449
O O5 0.701123 0.824363 0.178020
O O6 0.905912 0.793970 0.283646
O O7 0.886607 0.796369 0.043570
O O8 0.000000 0.750000 0.851120
O O9 0.028611 0.596594 0.887915
O O10 0.946224 0.315205 0.043426
O O11 0.750000 0.376025 0.000000
O O12 0.942402 0.457332 0.963571
#
# Coordination Sequence:
#
# PCOD8164702 Si02
#       6
#     8   8   8   8   4   8
#     4  10  18  32  55  89 124 144 195 242 302 348
#     4  10  18  31  55  86 124 160 187 238 300 365
#     4  11  16  28  53  93 126 149 182 239 319 359
#     4  11  23  38  61  86 114 161 202 252 289 345
#     4  10  22  42  58  84 114 162 214 240 288 354
#     4  11  19  31  56  94 119 148 184 257 307 346
#
# _framework density 20.251244
#
# number of rings (size 3 to 8) (size 9 to 14) (size 15 to 20)
#    0.000    1.455    6.364    2.727    0.000    0.000 
#    0.000    3.636    4.000    0.000    0.000    0.000 
#    0.000    0.000    0.000    0.000    0.000    0.000 
#
# Total GULP energy -272709.318117 kJ/mol
# GULP energy per Si atom -12395.878096 kJ/mol
# Density = 2.020515 g / cm^3
# Si number density = 20.251244 Si / 1000 Ang^3
#
#
#
# Elastic Constant Matrix: (Units=GPa)
#
#
# Indices 1 2 3 4 5 6 
#
# 1 116.9227 59.5475 11.5288 0.0000 0.0000 0.0000
# 2 59.5475 120.7653 29.6823 0.0001 0.0000 0.0000
# 3 11.5288 29.6823 25.1632 0.0003 0.0000 0.0000
# 4 0.0000 0.0001 0.0003 25.7179 0.0000 0.0000
# 5 0.0000 0.0000 0.0000 0.0000 17.8025 0.0000
# 6 0.0000 0.0000 0.0000 0.0000 0.0000 25.3459
#
#
#
# Elastic Compliance Matrix: (Units=1/GPa)
#
#
# Indices 1 2 3 4 5 6 
#
# 1 0.011492 -0.006157 0.001998 0.000000 0.000000 0.000000
# 2 -0.006157 0.014961 -0.014827 0.000000 0.000000 0.000000
# 3 0.001998 -0.014827 0.056314 -0.000001 0.000000 0.000000
# 4 0.000000 0.000000 -0.000001 0.038883 0.000000 0.000000
# 5 0.000000 0.000000 0.000000 0.000000 0.056172 0.000000
# 6 0.000000 0.000000 0.000000 0.000000 0.000000 0.039454
#
#
# Mechanical properties :
#
#
# Convention : Reuss Voigt Hill
#
# Bulk Modulus (GPa) = 22.32378 51.59650 36.96014
# Shear Modulus (GPa) = 18.50624 24.57945 21.54284
#
# Velocity S-wave (km/s) = 3.02625 3.48764 3.26510
# Velocity P-wave (km/s) = 4.82268 6.46155 5.70131
#
# Compressibility (1/GPa) = 0.04479527
#
# Stress axis : x y z
#
# Youngs Moduli (GPa) = 87.02049 66.84134 17.75747
#
# Poissons Ratio (x) = 0.41157 -0.03548
# Poissons Ratio (y) = 0.53582 0.26328
# Poissons Ratio (z) = -0.17389 0.99103
#
# Static dielectric constant tensor:
#      x y z
#    x 3.740810 0.000000 0.000000 
#    y 0.000000 3.680430 0.000000 
#    z 0.000000 0.000000 3.642020 
# 
# 
# High freq. dielectric constant tensor:
#      x y z
#    x 1.777030 0.000000 0.000000 
#    y 0.000000 1.784610 0.000000 
#    z 0.000000 0.000000 1.769770 
# 
# From -- ./inp_files/19606.got.cif
#   From: 2010.03.12/outbox.cif.g09.slc.cpg/sg24_10_cif.got.tgz:19606.got - 2010.04.14 03:06:53.
