data_PCOD8164386
_publ_section_title
;
Structure prediction by ZEFSAII (Michael W. Deem and Ramdas Pophale) SiO2 
 PCOD8164386
Probable space group: I 2 2 2
;
_chemical_formula_sum "Si O2"
_cell_formula_units_Z 40
_cell_length_a 8.311484
_cell_length_b 12.335462
_cell_length_c 17.042118
_cell_angle_alpha 90.000000
_cell_angle_beta 90.000000
_cell_angle_gamma 90.000000
_cell_volume 1747.260106
_symmetry_space_group_name_H-M "I 2 2 2"
_symmetry_group_IT_number 23
_symmetry_cell_setting 'orthorhombic'
loop_
_space_group_symop_operation_xyz
x,y,z
-x,-y,z
x,-y,-z
-x,y,-z
1/2+x,1/2+y,1/2+z
1/2-x,1/2-y,1/2+z
1/2+x,1/2-y,1/2-z
1/2-x,1/2+y,1/2-z
loop_
_atom_site_type_symbol
_atom_site_label
_atom_site_fract_x
_atom_site_fract_y
_atom_site_fract_z
Si Si1 0.767411 0.201960 0.660212
Si Si2 0.143361 0.230697 0.678929
Si Si3 0.810542 0.983307 0.589777
Si Si4 0.170664 0.446364 0.599251
Si Si5 0.166955 0.133443 0.955304
O O1 0.679051 0.269018 0.728655
O O2 0.692169 0.248842 0.580207
O O3 0.955038 0.226761 0.664047
O O4 0.735485 0.073010 0.649895
O O5 0.230193 0.134304 0.628711
O O6 0.214107 0.347723 0.656446
O O7 0.744270 0.000000 0.500000
O O8 0.000000 0.000000 0.587423
O O9 0.181426 0.392638 0.512483
O O10 0.311926 0.537438 0.609815
O O11 0.000000 0.500000 0.618554
O O12 0.000000 0.124755 0.000000
#
# Coordination Sequence:
#
# PCOD8164386 Si02
#       5
#     8   8   8   8   8
#     4  11  25  43  69  99 139 184 234 284 354 416
#     4  11  25  42  69 100 140 183 232 291 344 423
#     4   9  20  43  69  95 131 185 235 280 341 419
#     4  11  22  41  69 100 133 176 227 291 352 414
#     4  11  24  42  68 104 135 178 229 294 349 418
#
# _framework density 22.892984999999999
#
# number of rings (size 3 to 8) (size 9 to 14) (size 15 to 20)
#    0.000    1.400    2.000    3.600    5.600    1.600 
#    0.000    0.000    0.000    0.000    0.000    0.000 
#    0.000    0.000    0.000    0.000    0.000    0.000 
#
# Total GULP energy -247766.480904 kJ/mol
# GULP energy per Si atom -12388.324045 kJ/mol
# Density = 2.284088 g / cm^3
# Si number density = 22.892985 Si / 1000 Ang^3
#
#
#
# Elastic Constant Matrix: (Units=GPa)
#
#
# Indices 1 2 3 4 5 6 
#
# 1 78.5939 42.9320 23.5590 0.0000 0.0000 0.0000
# 2 42.9320 153.1228 48.9440 0.0000 0.0000 0.0000
# 3 23.5590 48.9440 91.5984 0.0000 0.0000 0.0000
# 4 0.0000 0.0000 0.0000 47.1864 0.0000 0.0000
# 5 0.0000 0.0000 0.0000 0.0000 13.8882 0.0000
# 6 0.0000 0.0000 0.0000 0.0000 0.0000 14.6671
#
#
#
# Elastic Compliance Matrix: (Units=1/GPa)
#
#
# Indices 1 2 3 4 5 6 
#
# 1 0.015318 -0.003661 -0.001984 0.000000 0.000000 0.000000
# 2 -0.003661 0.008751 -0.003734 0.000000 0.000000 0.000000
# 3 -0.001984 -0.003734 0.013423 0.000000 0.000000 0.000000
# 4 0.000000 0.000000 0.000000 0.021193 0.000000 0.000000
# 5 0.000000 0.000000 0.000000 0.000000 0.072004 0.000000
# 6 0.000000 0.000000 0.000000 0.000000 0.000000 0.068180
#
#
# Mechanical properties :
#
#
# Convention : Reuss Voigt Hill
#
# Bulk Modulus (GPa) = 53.37879 61.57611 57.47745
# Shear Modulus (GPa) = 22.33445 29.00702 25.67073
#
# Velocity S-wave (km/s) = 3.12685 3.56345 3.35227
# Velocity P-wave (km/s) = 6.03354 6.62470 6.33602
#
# Compressibility (1/GPa) = 0.01873403
#
# Stress axis : x y z
#
# Youngs Moduli (GPa) = 65.28302 114.27665 74.50035
#
# Poissons Ratio (x) = 0.41833 0.14779
# Poissons Ratio (y) = 0.23898 0.27820
# Poissons Ratio (z) = 0.12950 0.42674
#
# Static dielectric constant tensor:
#      x y z
#    x 3.707760 0.000000 0.000000 
#    y 0.000000 4.785110 0.000000 
#    z 0.000000 0.000000 4.331870 
# 
# 
# High freq. dielectric constant tensor:
#      x y z
#    x 1.872790 0.000000 0.000000 
#    y 0.000000 1.926370 0.000000 
#    z 0.000000 0.000000 1.892420 
# 
# From -- ./inp_files/17251.got.cif
#   From: 2010.03.12/outbox.cif.g09.slc.cpg/sg23_9_cif.got.tgz:17251.got - 2010.04.14 02:50:06.
