data_PCOD8164642
_publ_section_title
;
Structure prediction by ZEFSAII (Michael W. Deem and Ramdas Pophale) SiO2 
 PCOD8164642
Probable space group: I 21 21 21
;
_chemical_formula_sum "Si O2"
_cell_formula_units_Z 44
_cell_length_a 17.386355
_cell_length_b 9.438103
_cell_length_c 12.607825
_cell_angle_alpha 90.000000
_cell_angle_beta 90.000000
_cell_angle_gamma 90.000000
_cell_volume 2068.871074
_symmetry_space_group_name_H-M "I 21 21 21"
_symmetry_group_IT_number 24
_symmetry_cell_setting 'orthorhombic'
loop_
_space_group_symop_operation_xyz
x,y,z
-x,1/2-y,z
x,-y,1/2-z
1/2-x,y,-z
1/2+x,1/2+y,1/2+z
1/2-x,-y,1/2+z
1/2+x,1/2-y,-z
-x,1/2+y,1/2-z
loop_
_atom_site_type_symbol
_atom_site_label
_atom_site_fract_x
_atom_site_fract_y
_atom_site_fract_z
Si Si1 0.259034 0.794834 0.723412
Si Si2 0.322028 0.189755 0.433191
Si Si3 0.250000 0.728987 0.500000
Si Si4 0.970373 0.594559 0.045000
Si Si5 0.821222 0.000000 0.250000
Si Si6 0.130876 0.515357 0.020873
Si Si7 0.393383 0.000000 0.750000
O O1 0.193922 0.839822 0.808078
O O2 0.240782 0.835100 0.600975
O O3 0.264458 0.626120 0.719066
O O4 0.340625 0.860560 0.755751
O O5 0.250000 0.129981 0.500000
O O6 0.399622 0.107167 0.463109
O O7 0.327635 0.358196 0.456890
O O8 0.173086 0.632555 0.500589
O O9 0.946261 0.502358 0.146496
O O10 0.000000 0.750000 0.079755
O O11 0.040640 0.510555 0.987785
O O12 0.870904 0.046802 0.352067
#
# Coordination Sequence:
#
# PCOD8164642 Si02
#       7
#     8   8   4   8   4   8   4
#     4  11  22  36  63  89 122 165 203 253 299 370
#     4  11  17  36  59  87 122 162 209 241 298 371
#     4  10  22  38  60  92 122 158 206 254 314 362
#     4  10  22  35  59  92 126 161 205 256 306 365
#     4  10  17  34  58  88 123 156 202 249 306 360
#     4  10  18  34  60  91 120 157 205 258 301 361
#     4  12  23  38  62  94 127 158 196 265 316 358
#
# _framework density 21.267637000000001
#
# number of rings (size 3 to 8) (size 9 to 14) (size 15 to 20)
#    0.000    1.455    4.545    2.727    0.000    2.909 
#    0.000    0.000    0.000   17.455    0.000    0.000 
#    0.000    0.000    0.000    0.000    0.000    0.000 
#
# Total GULP energy -272725.058768 kJ/mol
# GULP energy per Si atom -12396.593580 kJ/mol
# Density = 2.121923 g / cm^3
# Si number density = 21.267637 Si / 1000 Ang^3
#
#
#
# Elastic Constant Matrix: (Units=GPa)
#
#
# Indices 1 2 3 4 5 6 
#
# 1 147.2274 18.4996 55.7588 0.0000 0.0000 0.0000
# 2 18.4996 34.6140 14.1552 0.0000 0.0000 0.0000
# 3 55.7588 14.1552 141.6786 0.0000 0.0000 0.0000
# 4 0.0000 0.0000 0.0000 27.5678 0.0000 0.0000
# 5 0.0000 0.0000 0.0000 0.0000 31.9458 0.0000
# 6 0.0000 0.0000 0.0000 0.0000 0.0000 14.4111
#
#
#
# Elastic Compliance Matrix: (Units=1/GPa)
#
#
# Indices 1 2 3 4 5 6 
#
# 1 0.008316 -0.003238 -0.002949 0.000000 0.000000 0.000000
# 2 -0.003238 0.031382 -0.001861 0.000000 0.000000 0.000000
# 3 -0.002949 -0.001861 0.008405 0.000000 0.000000 0.000000
# 4 0.000000 0.000000 0.000000 0.036274 0.000000 0.000000
# 5 0.000000 0.000000 0.000000 0.000000 0.031303 0.000000
# 6 0.000000 0.000000 0.000000 0.000000 0.000000 0.069391
#
#
# Mechanical properties :
#
#
# Convention : Reuss Voigt Hill
#
# Bulk Modulus (GPa) = 31.24458 55.59415 43.41936
# Shear Modulus (GPa) = 23.60306 30.45869 27.03088
#
# Velocity S-wave (km/s) = 3.33500 3.78850 3.56896
# Velocity P-wave (km/s) = 5.43623 6.73305 6.11909
#
# Compressibility (1/GPa) = 0.03200555
#
# Stress axis : x y z
#
# Youngs Moduli (GPa) = 120.24838 31.86553 118.97855
#
# Poissons Ratio (x) = 0.10320 0.35091
# Poissons Ratio (y) = 0.38942 0.22140
# Poissons Ratio (z) = 0.35465 0.05930
#
# Static dielectric constant tensor:
#      x y z
#    x 3.832630 0.000000 0.000000 
#    y 0.000000 3.603450 0.000000 
#    z 0.000000 0.000000 4.096080 
# 
# 
# High freq. dielectric constant tensor:
#      x y z
#    x 1.825330 0.000000 0.000000 
#    y 0.000000 1.819270 0.000000 
#    z 0.000000 0.000000 1.827930 
# 
# From -- ./inp_files/21499.got.cif
#   From: 2010.03.12/outbox.cif.g09.slc.cpg/sg24_11_cif.got.tgz:21499.got - 2010.04.14 03:06:53.
