data_PCOD8164771
_publ_section_title
;
Structure prediction by ZEFSAII (Michael W. Deem and Ramdas Pophale) SiO2 
 PCOD8164771
Probable space group: I 21 21 21
;
_chemical_formula_sum "Si O2"
_cell_formula_units_Z 56
_cell_length_a 8.591779
_cell_length_b 17.269824
_cell_length_c 19.804389
_cell_angle_alpha 90.000000
_cell_angle_beta 90.000000
_cell_angle_gamma 90.000000
_cell_volume 2938.545755
_symmetry_space_group_name_H-M "I 21 21 21"
_symmetry_group_IT_number 24
_symmetry_cell_setting 'orthorhombic'
loop_
_space_group_symop_operation_xyz
x,y,z
-x,1/2-y,z
x,-y,1/2-z
1/2-x,y,-z
1/2+x,1/2+y,1/2+z
1/2-x,-y,1/2+z
1/2+x,1/2-y,-z
-x,1/2+y,1/2-z
loop_
_atom_site_type_symbol
_atom_site_label
_atom_site_fract_x
_atom_site_fract_y
_atom_site_fract_z
Si Si1 0.478207 0.840018 0.312113
Si Si2 0.599985 0.014689 0.967698
Si Si3 0.178840 0.390971 0.156817
Si Si4 0.002049 0.000000 0.250000
Si Si5 0.146957 0.914364 0.560144
Si Si6 0.280564 0.137021 0.708387
Si Si7 0.000000 0.750000 0.281565
Si Si8 0.811396 0.429123 0.427780
O O1 0.500000 0.750000 0.301104
O O2 0.642995 0.882164 0.319442
O O3 0.376705 0.852842 0.379992
O O4 0.384008 0.872811 0.247159
O O5 0.658964 0.085728 0.920867
O O6 0.496704 0.947608 0.932188
O O7 0.750000 0.972379 0.000000
O O8 0.513563 0.056125 0.029682
O O9 0.079427 0.313659 0.170796
O O10 0.110455 0.464215 0.195011
O O11 0.110731 0.063521 0.282803
O O12 0.250000 0.875955 0.500000
O O13 0.236207 0.988072 0.591620
O O14 0.366183 0.214383 0.733819
O O15 0.261600 0.136636 0.626736
O O16 0.750000 0.399002 0.500000
#
# Coordination Sequence:
#
# PCOD8164771 Si02
#       8
#     8   8   8   4   8   8   4   8
#     4  12  24  39  56  88 128 163 203 249 299 357
#     4  10  18  36  58  84 122 153 197 254 297 348
#     4  11  22  39  57  91 121 162 203 251 299 361
#     4  10  22  36  64  90 110 162 206 242 300 362
#     4   9  21  36  55  86 121 157 204 242 291 357
#     4  11  21  40  63  85 121 162 200 252 305 360
#     4  10  24  38  60  80 128 162 202 240 298 378
#     4   9  20  38  65  90 110 154 199 250 315 359
#
# _framework density 19.057044999999999
#
# number of rings (size 3 to 8) (size 9 to 14) (size 15 to 20)
#    0.000    2.000    4.286    0.857    6.000    1.714 
#    3.857    0.000    1.571    0.000    0.000    0.000 
#    0.000    0.000    0.000    0.000    0.000    0.000 
#
# Total GULP energy -347066.892473 kJ/mol
# GULP energy per Si atom -12395.246160 kJ/mol
# Density = 1.901367 g / cm^3
# Si number density = 19.057045 Si / 1000 Ang^3
#
#
#
# Elastic Constant Matrix: (Units=GPa)
#
#
# Indices 1 2 3 4 5 6 
#
# 1 134.7150 22.3606 46.3389 0.0000 0.0000 0.0000
# 2 22.3606 49.2621 22.4704 0.0000 0.0000 0.0000
# 3 46.3389 22.4704 104.2578 0.0000 0.0000 0.0000
# 4 0.0000 0.0000 0.0000 21.0103 0.0000 0.0000
# 5 0.0000 0.0000 0.0000 0.0000 28.0459 0.0000
# 6 0.0000 0.0000 0.0000 0.0000 0.0000 16.2791
#
#
#
# Elastic Compliance Matrix: (Units=1/GPa)
#
#
# Indices 1 2 3 4 5 6 
#
# 1 0.009036 -0.002517 -0.003474 0.000000 0.000000 0.000000
# 2 -0.002517 0.023214 -0.003885 0.000000 0.000000 0.000000
# 3 -0.003474 -0.003885 0.011973 0.000000 0.000000 0.000000
# 4 0.000000 0.000000 0.000000 0.047596 0.000000 0.000000
# 5 0.000000 0.000000 0.000000 0.000000 0.035656 0.000000
# 6 0.000000 0.000000 0.000000 0.000000 0.000000 0.061428
#
#
# Mechanical properties :
#
#
# Convention : Reuss Voigt Hill
#
# Bulk Modulus (GPa) = 40.86266 52.28608 46.57437
# Shear Modulus (GPa) = 23.06170 26.20474 24.63322
#
# Velocity S-wave (km/s) = 3.48248 3.71221 3.59918
# Velocity P-wave (km/s) = 6.13670 6.77276 6.46256
#
# Compressibility (1/GPa) = 0.02447222
#
# Stress axis : x y z
#
# Youngs Moduli (GPa) = 110.67225 43.07751 83.52330
#
# Poissons Ratio (x) = 0.10842 0.29012
# Poissons Ratio (y) = 0.27856 0.32445
# Poissons Ratio (z) = 0.38443 0.16734
#
# Static dielectric constant tensor:
#      x y z
#    x 3.759420 0.000000 0.000000 
#    y 0.000000 3.204140 0.000000 
#    z 0.000000 0.000000 3.617490 
# 
# 
# High freq. dielectric constant tensor:
#      x y z
#    x 1.757570 0.000000 0.000000 
#    y 0.000000 1.702320 0.000000 
#    z 0.000000 0.000000 1.745730 
# 
# From -- ./inp_files/32930.got.cif
#   From: 2010.03.12/outbox.cif.g09.slc.cpg/sg24_17_cif.got.tgz:32930.got - 2010.04.14 03:06:53.
