data_PCOD8164500
_publ_section_title
;
Structure prediction by ZEFSAII (Michael W. Deem and Ramdas Pophale) SiO2 
 PCOD8164500
Probable space group: I 2 2 2
;
_chemical_formula_sum "Si O2"
_cell_formula_units_Z 36
_cell_length_a 14.558745
_cell_length_b 14.558457
_cell_length_c 8.727219
_cell_angle_alpha 90.000000
_cell_angle_beta 90.000000
_cell_angle_gamma 90.000000
_cell_volume 1849.759054
_symmetry_space_group_name_H-M "I 2 2 2"
_symmetry_group_IT_number 23
_symmetry_cell_setting 'orthorhombic'
loop_
_space_group_symop_operation_xyz
x,y,z
-x,-y,z
x,-y,-z
-x,y,-z
1/2+x,1/2+y,1/2+z
1/2-x,1/2-y,1/2+z
1/2+x,1/2-y,1/2-z
1/2-x,1/2+y,1/2-z
loop_
_atom_site_type_symbol
_atom_site_label
_atom_site_fract_x
_atom_site_fract_y
_atom_site_fract_z
Si Si1 0.753623 0.900073 0.426265
Si Si2 0.331375 0.916008 0.898868
Si Si3 0.400075 0.746370 0.073733
Si Si4 0.083991 0.331367 0.101126
Si Si5 0.000000 0.500000 0.750011
O O1 0.734714 0.905638 0.245502
O O2 0.851398 0.851402 0.451794
O O3 0.676073 0.835186 0.501426
O O4 0.758655 0.000000 0.500000
O O5 0.436976 0.934791 0.852747
O O6 0.335195 0.823923 0.998566
O O7 0.292407 0.000000 0.000000
O O8 0.405635 0.765283 0.254496
O O9 0.500000 0.741331 0.000000
O O10 0.065206 0.436972 0.147232
O O11 0.000000 0.292390 0.000000
#
# Coordination Sequence:
#
# PCOD8164500 Si02
#       5
#     8   8   8   8   4
#     4  12  24  40  60  88 124 165 205 246 296 359
#     4  12  21  37  64  95 123 150 195 253 318 368
#     4  12  24  40  60  88 124 165 205 246 296 359
#     4  12  21  37  64  95 123 150 195 253 318 368
#     4  12  18  32  66  88 122 144 178 252 322 356
#
# _framework density 19.461993
#
# number of rings (size 3 to 8) (size 9 to 14) (size 15 to 20)
#    0.000    0.000    8.889    2.000    0.000    0.444 
#    0.000    2.222    0.000    0.000    0.000    0.000 
#    0.000    0.000    0.000    0.000    0.000    0.000 
#
# Total GULP energy -223283.751998 kJ/mol
# GULP energy per Si atom -12404.652889 kJ/mol
# Density = 1.941770 g / cm^3
# Si number density = 19.461993 Si / 1000 Ang^3
#
#
#
# Elastic Constant Matrix: (Units=GPa)
#
#
# Indices 1 2 3 4 5 6 
#
# 1 85.1127 57.1520 45.6980 0.0000 0.0000 0.0000
# 2 57.1520 85.0965 45.6900 0.0000 0.0000 0.0000
# 3 45.6980 45.6900 135.8022 0.0000 0.0000 0.0000
# 4 0.0000 0.0000 0.0000 17.6276 0.0000 0.0000
# 5 0.0000 0.0000 0.0000 0.0000 17.6234 0.0000
# 6 0.0000 0.0000 0.0000 0.0000 0.0000 29.9325
#
#
#
# Elastic Compliance Matrix: (Units=1/GPa)
#
#
# Indices 1 2 3 4 5 6 
#
# 1 0.022370 -0.013403 -0.003018 0.000000 0.000000 0.000000
# 2 -0.013403 0.022373 -0.003017 0.000000 0.000000 0.000000
# 3 -0.003018 -0.003017 0.009394 0.000000 0.000000 0.000000
# 4 0.000000 0.000000 0.000000 0.056729 0.000000 0.000000
# 5 0.000000 0.000000 0.000000 0.000000 0.056743 0.000000
# 6 0.000000 0.000000 0.000000 0.000000 0.000000 0.033409
#
#
# Mechanical properties :
#
#
# Convention : Reuss Voigt Hill
#
# Bulk Modulus (GPa) = 65.52947 67.01016 66.26981
# Shear Modulus (GPa) = 20.40969 23.53477 21.97223
#
# Velocity S-wave (km/s) = 3.24187 3.48123 3.36368
# Velocity P-wave (km/s) = 6.91061 7.11791 7.01502
#
# Compressibility (1/GPa) = 0.01526031
#
# Stress axis : x y z
#
# Youngs Moduli (GPa) = 44.70323 44.69629 106.44765
#
# Poissons Ratio (x) = 0.59908 0.32126
# Poissons Ratio (y) = 0.59918 0.32116
# Poissons Ratio (z) = 0.13491 0.13485
#
# Static dielectric constant tensor:
#      x y z
#    x 3.415510 0.000000 0.000000 
#    y 0.000000 3.415410 0.000000 
#    z 0.000000 0.000000 3.826630 
# 
# 
# High freq. dielectric constant tensor:
#      x y z
#    x 1.740220 0.000000 0.000000 
#    y 0.000000 1.740210 0.000000 
#    z 0.000000 0.000000 1.780350 
# 
# From -- ./inp_files/9485.got.cif
#   From: 2010.03.12/outbox.cif.g09.slc.cpg/sg23_5_cif.got.tgz:9485.got - 2010.04.14 02:50:06.
