data_PCOD8164284
_publ_section_title
;
Structure prediction by ZEFSAII (Michael W. Deem and Ramdas Pophale) SiO2 
 PCOD8164284
Probable space group: I 2 2 2
;
_chemical_formula_sum "Si O2"
_cell_formula_units_Z 48
_cell_length_a 13.912290
_cell_length_b 17.420553
_cell_length_c 9.482057
_cell_angle_alpha 90.000000
_cell_angle_beta 90.000000
_cell_angle_gamma 90.000000
_cell_volume 2298.069299
_symmetry_space_group_name_H-M "I 2 2 2"
_symmetry_group_IT_number 23
_symmetry_cell_setting 'orthorhombic'
loop_
_space_group_symop_operation_xyz
x,y,z
-x,-y,z
x,-y,-z
-x,y,-z
1/2+x,1/2+y,1/2+z
1/2-x,1/2-y,1/2+z
1/2+x,1/2-y,1/2-z
1/2-x,1/2+y,1/2-z
loop_
_atom_site_type_symbol
_atom_site_label
_atom_site_fract_x
_atom_site_fract_y
_atom_site_fract_z
Si Si1 0.999849 0.588804 0.334909
Si Si2 0.000000 0.000000 0.226130
Si Si3 0.809227 0.799994 0.022258
Si Si4 0.000000 0.122001 0.000000
Si Si5 0.198252 0.564148 0.616041
Si Si6 0.803341 0.969641 0.348018
Si Si7 0.813062 0.677532 0.778515
O O1 0.082406 0.640170 0.260841
O O2 0.000000 0.500000 0.286333
O O3 0.000000 0.603078 0.500000
O O4 0.888201 0.609847 0.302150
O O5 0.917630 0.967784 0.328344
O O6 0.039501 0.931035 0.127314
O O7 0.916418 0.824915 0.066773
O O8 0.762193 0.876870 0.966135
O O9 0.824679 0.734144 0.908337
O O10 0.738814 0.775204 0.151206
O O11 0.159224 0.500000 0.500000
O O12 0.262397 0.524856 0.731015
O O13 0.761307 0.885806 0.328328
O O14 0.773745 0.000000 0.500000
#
# Coordination Sequence:
#
# PCOD8164284 Si02
#       7
#     8   4   8   4   8   8   8
#     4  11  18  39  74 104 125 172 245 292 330 404
#     4  11  21  42  76 100 128 172 242 296 332 400
#     4  12  26  44  67 100 144 187 226 280 358 417
#     4  11  22  42  72 100 125 180 240 282 333 416
#     4  12  20  43  77  98 130 184 242 288 340 413
#     4  12  25  43  69 106 137 174 232 297 350 400
#     4  12  27  45  66 104 144 186 227 284 356 419
#
# _framework density 20.8871
#
# number of rings (size 3 to 8) (size 9 to 14) (size 15 to 20)
#    0.000    0.333   10.000    0.250    2.333    1.333 
#    0.000    0.833    0.000    0.000    0.000    0.000 
#    0.000    0.000    0.000    0.000    0.000    0.000 
#
# Total GULP energy -297341.614502 kJ/mol
# GULP energy per Si atom -12389.233938 kJ/mol
# Density = 2.083956 g / cm^3
# Si number density = 20.887100 Si / 1000 Ang^3
#
#
#
# Elastic Constant Matrix: (Units=GPa)
#
#
# Indices 1 2 3 4 5 6 
#
# 1 138.6008 40.2236 24.2176 0.0000 0.0000 0.0000
# 2 40.2236 53.5783 20.6410 0.0000 0.0000 0.0000
# 3 24.2176 20.6410 80.5846 0.0000 0.0000 0.0000
# 4 0.0000 0.0000 0.0000 30.1274 0.0000 0.0000
# 5 0.0000 0.0000 0.0000 0.0000 92.3253 0.0000
# 6 0.0000 0.0000 0.0000 0.0000 0.0000 34.2118
#
#
#
# Elastic Compliance Matrix: (Units=1/GPa)
#
#
# Indices 1 2 3 4 5 6 
#
# 1 0.009315 -0.006562 -0.001118 0.000000 0.000000 0.000000
# 2 -0.006562 0.025331 -0.004516 0.000000 0.000000 0.000000
# 3 -0.001118 -0.004516 0.013902 0.000000 0.000000 0.000000
# 4 0.000000 0.000000 0.000000 0.033192 0.000000 0.000000
# 5 0.000000 0.000000 0.000000 0.000000 0.010831 0.000000
# 6 0.000000 0.000000 0.000000 0.000000 0.000000 0.029230
#
#
# Mechanical properties :
#
#
# Convention : Reuss Voigt Hill
#
# Bulk Modulus (GPa) = 41.40083 49.21425 45.30754
# Shear Modulus (GPa) = 32.41579 43.84499 38.13039
#
# Velocity S-wave (km/s) = 3.94376 4.58661 4.27728
# Velocity P-wave (km/s) = 6.37196 7.18766 6.79207
#
# Compressibility (1/GPa) = 0.02415410
#
# Stress axis : x y z
#
# Youngs Moduli (GPa) = 107.35593 39.47795 71.93096
#
# Poissons Ratio (x) = 0.25906 0.08045
# Poissons Ratio (y) = 0.70449 0.32485
# Poissons Ratio (z) = 0.12008 0.17829
#
# Static dielectric constant tensor:
#      x y z
#    x 4.305950 0.000000 0.000000 
#    y 0.000000 3.008170 0.000000 
#    z 0.000000 0.000000 0.839370 
# 
# 
# High freq. dielectric constant tensor:
#      x y z
#    x 1.846340 0.000000 0.000000 
#    y 0.000000 1.799530 0.000000 
#    z 0.000000 0.000000 1.803070 
# 
# From -- ./inp_files/9978.got.cif
#   From: 2010.03.12/outbox.cif.g09.slc.cpg/sg23_5_cif.got.tgz:9978.got - 2010.04.14 02:50:06.
