data_PCOD8164255
_publ_section_title
;
Structure prediction by ZEFSAII (Michael W. Deem and Ramdas Pophale) SiO2 
 PCOD8164255
Probable space group: I 2 2 2
;
_chemical_formula_sum "Si O2"
_cell_formula_units_Z 58
_cell_length_a 18.353698
_cell_length_b 8.760135
_cell_length_c 16.477192
_cell_angle_alpha 90.000000
_cell_angle_beta 90.000000
_cell_angle_gamma 90.000000
_cell_volume 2649.217302
_symmetry_space_group_name_H-M "I 2 2 2"
_symmetry_group_IT_number 23
_symmetry_cell_setting 'orthorhombic'
loop_
_space_group_symop_operation_xyz
x,y,z
-x,-y,z
x,-y,-z
-x,y,-z
1/2+x,1/2+y,1/2+z
1/2-x,1/2-y,1/2+z
1/2+x,1/2-y,1/2-z
1/2-x,1/2+y,1/2-z
loop_
_atom_site_type_symbol
_atom_site_label
_atom_site_fract_x
_atom_site_fract_y
_atom_site_fract_z
Si Si1 0.788868 0.470631 0.235678
Si Si2 0.281610 0.870367 0.561234
Si Si3 0.135211 0.707659 0.551763
Si Si4 0.137046 0.851861 0.958368
Si Si5 0.000000 0.000000 0.000000
Si Si6 0.611217 0.876834 0.124805
Si Si7 0.474079 0.328580 0.835086
Si Si8 0.342780 0.702621 0.275978
O O1 0.815317 0.435377 0.144351
O O2 0.831116 0.365082 0.301566
O O3 0.702082 0.439994 0.239287
O O4 0.803706 0.645460 0.256307
O O5 0.216264 0.751691 0.580700
O O6 0.350010 0.788223 0.518721
O O7 0.251836 0.000000 0.500000
O O8 0.105631 0.550669 0.592497
O O9 0.137208 0.716250 0.454215
O O10 0.077006 0.829722 0.584991
O O11 0.168224 0.810127 0.871746
O O12 0.176488 0.000000 0.000000
O O13 0.051195 0.889577 0.946050
O O14 0.536453 0.801339 0.157678
O O15 0.500000 0.500000 0.824287
O O16 0.425778 0.293096 0.754712
#
# Coordination Sequence:
#
# PCOD8164255 Si02
#       8
#     8   8   8   8   2   8   8   8
#     4  12  26  46  72 106 147 188 245 302 363 435
#     4  12  25  44  73 108 144 186 245 316 362 429
#     4  11  25  47  71 103 145 193 245 286 363 446
#     4  10  25  46  74 103 138 193 245 295 368 440
#     4   8  24  44  74  96 136 184 246 292 352 452
#     4  11  26  45  75 101 143 200 237 294 358 449
#     4  12  28  45  71 110 149 188 238 308 369 437
#     4  12  27  46  72 108 146 187 243 301 366 436
#
# _framework density 21.893256999999998
#
# number of rings (size 3 to 8) (size 9 to 14) (size 15 to 20)
#    0.414    0.276    4.138    1.655   10.621    2.759 
#    0.000    0.345    0.000    0.000    0.000    0.000 
#    0.000    0.000    0.000    0.000    0.000    0.000 
#
# Total GULP energy -359435.949738 kJ/mol
# GULP energy per Si atom -12394.343094 kJ/mol
# Density = 2.184343 g / cm^3
# Si number density = 21.893257 Si / 1000 Ang^3
#
#
#
# Elastic Constant Matrix: (Units=GPa)
#
#
# Indices 1 2 3 4 5 6 
#
# 1 109.2018 51.1448 26.7091 0.0000 0.0000 0.0000
# 2 51.1448 105.7519 29.2831 0.0000 0.0000 0.0000
# 3 26.7091 29.2831 139.9335 0.0000 0.0000 0.0000
# 4 0.0000 0.0000 0.0000 34.2744 0.0000 0.0000
# 5 0.0000 0.0000 0.0000 0.0000 30.0129 0.0000
# 6 0.0000 0.0000 0.0000 0.0000 0.0000 38.8763
#
#
#
# Elastic Compliance Matrix: (Units=1/GPa)
#
#
# Indices 1 2 3 4 5 6 
#
# 1 0.012009 -0.005491 -0.001143 0.000000 0.000000 0.000000
# 2 -0.005491 0.012549 -0.001578 0.000000 0.000000 0.000000
# 3 -0.001143 -0.001578 0.007695 0.000000 0.000000 0.000000
# 4 0.000000 0.000000 0.000000 0.029176 0.000000 0.000000
# 5 0.000000 0.000000 0.000000 0.000000 0.033319 0.000000
# 6 0.000000 0.000000 0.000000 0.000000 0.000000 0.025723
#
#
# Mechanical properties :
#
#
# Convention : Reuss Voigt Hill
#
# Bulk Modulus (GPa) = 63.17996 63.24016 63.21006
# Shear Modulus (GPa) = 35.16908 37.14941 36.15924
#
# Velocity S-wave (km/s) = 4.01233 4.12374 4.06842
# Velocity P-wave (km/s) = 7.09830 7.18485 7.14171
#
# Compressibility (1/GPa) = 0.01582780
#
# Stress axis : x y z
#
# Youngs Moduli (GPa) = 83.27241 79.68903 129.96116
#
# Poissons Ratio (x) = 0.43760 0.14854
# Poissons Ratio (y) = 0.45727 0.20506
# Poissons Ratio (z) = 0.09518 0.12574
#
# Static dielectric constant tensor:
#      x y z
#    x 3.780410 0.000000 0.000000 
#    y 0.000000 3.955410 0.000000 
#    z 0.000000 0.000000 4.163440 
# 
# 
# High freq. dielectric constant tensor:
#      x y z
#    x 1.848040 0.000000 0.000000 
#    y 0.000000 1.860890 0.000000 
#    z 0.000000 0.000000 1.874920 
# 
# From -- ./inp_files/25076.got.cif
#   From: 2010.03.12/outbox.cif.g09.slc.cpg/sg23_13_cif.got.tgz:25076.got - 2010.04.14 02:50:06.
