data_PCOD8164574
_publ_section_title
;
Structure prediction by ZEFSAII (Michael W. Deem and Ramdas Pophale) SiO2 
 PCOD8164574
Probable space group: I 21 21 21
;
_chemical_formula_sum "Si O2"
_cell_formula_units_Z 56
_cell_length_a 26.650974
_cell_length_b 5.207217
_cell_length_c 30.034681
_cell_angle_alpha 90.000000
_cell_angle_beta 90.000000
_cell_angle_gamma 90.000000
_cell_volume 4168.135086
_symmetry_space_group_name_H-M "I 21 21 21"
_symmetry_group_IT_number 24
_symmetry_cell_setting 'orthorhombic'
loop_
_space_group_symop_operation_xyz
x,y,z
-x,1/2-y,z
x,-y,1/2-z
1/2-x,y,-z
1/2+x,1/2+y,1/2+z
1/2-x,-y,1/2+z
1/2+x,1/2-y,-z
-x,1/2+y,1/2-z
loop_
_atom_site_type_symbol
_atom_site_label
_atom_site_fract_x
_atom_site_fract_y
_atom_site_fract_z
Si Si1 0.414599 0.030791 0.700618
Si Si2 0.719907 0.951927 0.046363
Si Si3 0.468780 0.000719 0.888743
Si Si4 0.860282 0.550362 0.425228
Si Si5 0.309810 0.550728 0.889644
Si Si6 0.692589 0.451583 0.016387
Si Si7 0.650534 0.969443 0.700805
O O1 0.392452 0.316076 0.694237
O O2 0.438300 0.000000 0.750000
O O3 0.457584 0.994188 0.664092
O O4 0.372000 0.814531 0.693937
O O5 0.755473 0.985616 0.088877
O O6 0.687270 0.691797 0.050076
O O7 0.681723 0.191861 0.044153
O O8 0.750000 0.920168 0.000000
O O9 0.500000 0.250000 0.901969
O O10 0.418678 0.999478 0.918147
O O11 0.500000 0.750000 0.901654
O O12 0.829333 0.337854 0.398024
O O13 0.846983 0.518228 0.476888
O O14 0.847430 0.838345 0.409676
O O15 0.306454 0.510304 0.836316
O O16 0.750000 0.419790 0.000000
O O17 0.674583 0.000000 0.750000
#
# Coordination Sequence:
#
# PCOD8164574 Si02
#       7
#     8   8   8   8   8   8   8
#     4  10  20  34  48  57  68  91 126 177 222 244
#     4  10  16  24  40  65  86  94 113 145 180 256
#     4  12  24  35  44  58  75  99 136 167 199 249
#     4  12  20  30  47  59  79 103 120 154 205 242
#     4  12  17  28  46  62  78 103 122 148 206 240
#     4  10  16  28  40  66  85  94 113 143 188 251
#     4  10  19  31  45  61  77  98 132 162 199 252
#
# _framework density 13.435264999999999
#
# number of rings (size 3 to 8) (size 9 to 14) (size 15 to 20)
#    0.000    1.143    8.571    1.714    0.000    0.571 
#    0.000    0.000    0.000    0.000    0.000    0.000 
#    0.000    0.000    0.000    0.000    0.000    0.000 
#
# Total GULP energy -347076.390766 kJ/mol
# GULP energy per Si atom -12395.585384 kJ/mol
# Density = 1.340469 g / cm^3
# Si number density = 13.435265 Si / 1000 Ang^3
#
#
#
# Elastic Constant Matrix: (Units=GPa)
#
#
# Indices 1 2 3 4 5 6 
#
# 1 43.3547 12.3321 38.3124 0.0000 0.0000 0.0000
# 2 12.3321 92.4889 15.3214 0.0000 0.0000 0.0000
# 3 38.3124 15.3214 56.8951 0.0000 0.0000 0.0000
# 4 0.0000 0.0000 0.0000 62.7776 0.0000 0.0000
# 5 0.0000 0.0000 0.0000 0.0000 25.5241 0.0000
# 6 0.0000 0.0000 0.0000 0.0000 0.0000 15.8894
#
#
#
# Elastic Compliance Matrix: (Units=1/GPa)
#
#
# Indices 1 2 3 4 5 6 
#
# 1 0.057111 -0.001302 -0.038107 0.000000 0.000000 0.000000
# 2 -0.001302 0.011347 -0.002179 0.000000 0.000000 0.000000
# 3 -0.038107 -0.002179 0.043824 0.000000 0.000000 0.000000
# 4 0.000000 0.000000 0.000000 0.015929 0.000000 0.000000
# 5 0.000000 0.000000 0.000000 0.000000 0.039179 0.000000
# 6 0.000000 0.000000 0.000000 0.000000 0.000000 0.062935
#
#
# Mechanical properties :
#
#
# Convention : Reuss Voigt Hill
#
# Bulk Modulus (GPa) = 34.35789 36.07449 35.21619
# Shear Modulus (GPa) = 15.47017 29.28973 22.37995
#
# Velocity S-wave (km/s) = 3.39700 4.67418 4.08580
# Velocity P-wave (km/s) = 6.40426 7.48595 6.96613
#
# Compressibility (1/GPa) = 0.02910540
#
# Stress axis : x y z
#
# Youngs Moduli (GPa) = 17.50971 88.13169 22.81868
#
# Poissons Ratio (x) = 0.11477 0.86956
# Poissons Ratio (y) = 0.02280 0.04971
# Poissons Ratio (z) = 0.66725 0.19201
#
# Static dielectric constant tensor:
#      x y z
#    x 2.253290 0.000000 0.000000 
#    y 0.000000 3.285850 0.000000 
#    z 0.000000 0.000000 2.751600 
# 
# 
# High freq. dielectric constant tensor:
#      x y z
#    x 1.451270 0.000000 0.000000 
#    y 0.000000 1.551260 0.000000 
#    z 0.000000 0.000000 1.490450 
# 
# From -- ./inp_files/6641.got.cif
#   From: 2010.03.12/outbox.cif.g09.slc.cpg/sg24_4_cif.got.tgz:6641.got - 2010.04.14 03:06:53.
