data_PCOD8164663
_publ_section_title
;
Structure prediction by ZEFSAII (Michael W. Deem and Ramdas Pophale) SiO2 
 PCOD8164663
Probable space group: I 21 21 21
;
_chemical_formula_sum "Si O2"
_cell_formula_units_Z 56
_cell_length_a 8.438577
_cell_length_b 14.818278
_cell_length_c 22.925215
_cell_angle_alpha 90.000000
_cell_angle_beta 90.000000
_cell_angle_gamma 90.000000
_cell_volume 2866.687634
_symmetry_space_group_name_H-M "I 21 21 21"
_symmetry_group_IT_number 24
_symmetry_cell_setting 'orthorhombic'
loop_
_space_group_symop_operation_xyz
x,y,z
-x,1/2-y,z
x,-y,1/2-z
1/2-x,y,-z
1/2+x,1/2+y,1/2+z
1/2-x,-y,1/2+z
1/2+x,1/2-y,-z
-x,1/2+y,1/2-z
loop_
_atom_site_type_symbol
_atom_site_label
_atom_site_fract_x
_atom_site_fract_y
_atom_site_fract_z
Si Si1 0.208285 0.094788 0.663056
Si Si2 0.978024 0.000000 0.750000
Si Si3 0.040778 0.895899 0.258712
Si Si4 0.295180 0.325899 0.240843
Si Si5 0.171310 0.230972 0.875059
Si Si6 0.138221 0.930635 0.387043
Si Si7 0.500000 0.250000 0.339076
Si Si8 0.890203 0.832089 0.455773
O O1 0.322861 0.136581 0.713259
O O2 0.087805 0.029041 0.696108
O O3 0.109705 0.174160 0.628150
O O4 0.311557 0.035986 0.616884
O O5 0.869347 0.078056 0.778706
O O6 0.089621 0.885873 0.325618
O O7 0.891185 0.832457 0.247517
O O8 0.995975 0.000000 0.250000
O O9 0.332534 0.245810 0.194979
O O10 0.375552 0.305393 0.301789
O O11 0.208909 0.131207 0.900498
O O12 0.304039 0.300303 0.897082
O O13 0.000000 0.250000 0.902294
O O14 0.001179 0.917153 0.436248
O O15 0.750000 0.861583 0.500000
O O16 0.000000 0.750000 0.480552
#
# Coordination Sequence:
#
# PCOD8164663 Si02
#       8
#     8   4   8   8   8   8   4   8
#     4  10  19  33  46  66 101 137 187 239 275 317
#     4  10  18  28  44  66 102 132 180 236 262 308
#     4  10  18  30  46  67  96 136 184 232 267 317
#     4  11  19  28  43  68  95 135 186 228 270 316
#     4  11  20  29  48  70  95 131 185 230 269 322
#     4  10  19  33  49  68  95 140 182 236 275 324
#     4  10  22  30  44  68 100 138 182 246 268 320
#     4  10  21  35  51  71  99 134 187 241 282 329
#
# _framework density 19.534742000000001
#
# number of rings (size 3 to 8) (size 9 to 14) (size 15 to 20)
#    0.000    1.714    5.000    2.143    0.000    1.714 
#    0.000    0.000    0.000    0.000    0.000    0.000 
#    0.000    0.000    0.000    0.000    0.000 1640.000 
#
# Total GULP energy -346889.185799 kJ/mol
# GULP energy per Si atom -12388.899493 kJ/mol
# Density = 1.949028 g / cm^3
# Si number density = 19.534742 Si / 1000 Ang^3
#
#
#
# Elastic Constant Matrix: (Units=GPa)
#
#
# Indices 1 2 3 4 5 6 
#
# 1 130.0550 47.2905 23.6627 0.0000 0.0000 0.0000
# 2 47.2905 78.1884 20.0840 0.0000 0.0000 0.0000
# 3 23.6627 20.0840 41.9103 0.0000 0.0000 0.0000
# 4 0.0000 0.0000 0.0000 11.3606 0.0000 0.0000
# 5 0.0000 0.0000 0.0000 0.0000 24.5265 0.0000
# 6 0.0000 0.0000 0.0000 0.0000 0.0000 40.4496
#
#
#
# Elastic Compliance Matrix: (Units=1/GPa)
#
#
# Indices 1 2 3 4 5 6 
#
# 1 0.010220 -0.005359 -0.003202 0.000000 0.000000 0.000000
# 2 -0.005359 0.017395 -0.005310 0.000000 0.000000 0.000000
# 3 -0.003202 -0.005310 0.028213 0.000000 0.000000 0.000000
# 4 0.000000 0.000000 0.000000 0.088023 0.000000 0.000000
# 5 0.000000 0.000000 0.000000 0.000000 0.040772 0.000000
# 6 0.000000 0.000000 0.000000 0.000000 0.000000 0.024722
#
#
# Mechanical properties :
#
#
# Convention : Reuss Voigt Hill
#
# Bulk Modulus (GPa) = 35.60559 48.02536 41.81548
# Shear Modulus (GPa) = 20.28801 25.87511 23.08156
#
# Velocity S-wave (km/s) = 3.22617 3.64341 3.44112
# Velocity P-wave (km/s) = 5.66956 6.50671 6.10250
#
# Compressibility (1/GPa) = 0.02808548
#
# Stress axis : x y z
#
# Youngs Moduli (GPa) = 97.84427 57.48820 35.44435
#
# Poissons Ratio (x) = 0.30808 0.11350
# Poissons Ratio (y) = 0.52434 0.18822
# Poissons Ratio (z) = 0.31333 0.30527
#
# Static dielectric constant tensor:
#      x y z
#    x 3.980670 0.000000 0.000000 
#    y 0.000000 3.723930 0.000000 
#    z 0.000000 0.000000 2.992560 
# 
# 
# High freq. dielectric constant tensor:
#      x y z
#    x 1.789410 0.000000 0.000000 
#    y 0.000000 1.748910 0.000000 
#    z 0.000000 0.000000 1.686220 
# 
# From -- ./inp_files/32869.got.cif
#   From: 2010.03.12/outbox.cif.g09.slc.cpg/sg24_17_cif.got.tgz:32869.got - 2010.04.14 03:06:53.
