data_PCOD8164565
_publ_section_title
;
Structure prediction by ZEFSAII (Michael W. Deem and Ramdas Pophale) SiO2 
 PCOD8164565
Probable space group: I 2 2 2
;
_chemical_formula_sum "Si O2"
_cell_formula_units_Z 48
_cell_length_a 7.851906
_cell_length_b 8.804834
_cell_length_c 29.146223
_cell_angle_alpha 90.000000
_cell_angle_beta 90.000000
_cell_angle_gamma 90.000000
_cell_volume 2015.016226
_symmetry_space_group_name_H-M "I 2 2 2"
_symmetry_group_IT_number 23
_symmetry_cell_setting 'orthorhombic'
loop_
_space_group_symop_operation_xyz
x,y,z
-x,-y,z
x,-y,-z
-x,y,-z
1/2+x,1/2+y,1/2+z
1/2-x,1/2-y,1/2+z
1/2+x,1/2-y,1/2-z
1/2-x,1/2+y,1/2-z
loop_
_atom_site_type_symbol
_atom_site_label
_atom_site_fract_x
_atom_site_fract_y
_atom_site_fract_z
Si Si1 0.767023 0.552719 0.783450
Si Si2 0.430160 0.740347 0.888788
Si Si3 0.570703 0.741186 0.215944
Si Si4 0.723428 0.978293 0.052628
Si Si5 0.227789 0.448984 0.887746
Si Si6 0.968412 0.760130 0.947000
O O1 0.713544 0.382800 0.770140
O O2 0.610581 0.666217 0.777642
O O3 0.914008 0.613288 0.749381
O O4 0.834519 0.556863 0.835361
O O5 0.402007 0.793873 0.836495
O O6 0.433563 0.894335 0.920444
O O7 0.280429 0.620201 0.902758
O O8 0.608500 0.657048 0.894707
O O9 0.869829 0.858631 0.066379
O O10 0.797654 0.142216 0.065817
O O11 0.672378 0.000000 0.000000
O O12 0.065476 0.392495 0.917820
O O13 0.000000 0.717231 0.000000
#
# Coordination Sequence:
#
# PCOD8164565 Si02
#       6
#     8   8   8   8   8   8
#     4   9  19  35  54  81 118 154 189 232 280 332
#     4   9  19  37  59  83 113 149 190 236 283 334
#     4   9  19  35  54  81 118 154 189 232 280 332
#     4   9  19  37  55  77 109 142 181 231 284 338
#     4   9  19  37  59  83 113 149 190 236 283 334
#     4   9  19  37  55  77 109 142 181 231 284 338
#
# _framework density 23.821147
#
# number of rings (size 3 to 8) (size 9 to 14) (size 15 to 20)
#    0.000    3.000    0.000    3.000    0.000    4.667 
#    0.000   26.667    0.000    8.000    0.000    0.000 
#    0.000    0.000    0.000    0.000    0.000    0.000 
#
# Total GULP energy -297317.956755 kJ/mol
# GULP energy per Si atom -12388.248198 kJ/mol
# Density = 2.376693 g / cm^3
# Si number density = 23.821147 Si / 1000 Ang^3
#
#
#
# Elastic Constant Matrix: (Units=GPa)
#
#
# Indices 1 2 3 4 5 6 
#
# 1 43.2619 23.5454 -3.1392 0.0000 0.0000 0.0000
# 2 23.5454 115.8707 82.6613 -0.0001 0.0000 0.0000
# 3 -3.1392 82.6613 102.5789 -0.0001 0.0000 0.0000
# 4 0.0000 -0.0001 -0.0001 -165.2119 0.0000 0.0000
# 5 0.0000 0.0000 0.0000 0.0000 12.1253 0.0000
# 6 0.0000 0.0000 0.0000 0.0000 0.0000 52.4011
#
#
#
# Elastic Compliance Matrix: (Units=1/GPa)
#
#
# Indices 1 2 3 4 5 6 
#
# 1 0.034056 -0.018027 0.015569 0.000000 0.000000 0.000000
# 2 -0.018027 0.029843 -0.024600 0.000000 0.000000 0.000000
# 3 0.015569 -0.024600 0.030049 0.000000 0.000000 0.000000
# 4 0.000000 0.000000 0.000000 -0.006053 0.000000 0.000000
# 5 0.000000 0.000000 0.000000 0.000000 0.082472 0.000000
# 6 0.000000 0.000000 0.000000 0.000000 0.000000 0.019084
#
#
# Mechanical properties :
#
#
# Convention : Reuss Voigt Hill
#
# Bulk Modulus (GPa) = 25.10592 51.98295 38.54443
# Shear Modulus (GPa) = 19.46705 -9.56084 4.95311
#
# Velocity S-wave (km/s) = 2.86180 -2.00557 1.44354
# Velocity P-wave (km/s) = 4.63488 4.06282 4.35824
#
# Compressibility (1/GPa) = 0.03983124
#
# Stress axis : x y z
#
# Youngs Moduli (GPa) = 29.36335 33.50856 33.27931
#
# Poissons Ratio (x) = 0.60407 -0.51813
# Poissons Ratio (y) = 0.52934 0.81868
# Poissons Ratio (z) = -0.45716 0.82432
#
# Static dielectric constant tensor:
#      x y z
#    x 4.345370 0.000000 0.000000 
#    y 0.000000 4.480850 0.000000 
#    z 0.000000 0.000000 4.011970 
# 
# 
# High freq. dielectric constant tensor:
#      x y z
#    x 1.964380 0.000000 0.000000 
#    y 0.000000 1.964660 0.000000 
#    z 0.000000 0.000000 1.917940 
# 
# From -- ./inp_files/30237.got.cif
#   From: 2010.03.12/outbox.cif.g09.slc.cpg/sg23_16_cif.got.tgz:30237.got - 2010.04.14 02:50:06.
