data_PCOD8164079
_publ_section_title
;
Structure prediction by ZEFSAII (Michael W. Deem and Ramdas Pophale) SiO2 
 PCOD8164079
Probable space group: I 2 2 2
;
_chemical_formula_sum "Si O2"
_cell_formula_units_Z 38
_cell_length_a 11.192631
_cell_length_b 26.924375
_cell_length_c 5.267427
_cell_angle_alpha 90.000000
_cell_angle_beta 90.000000
_cell_angle_gamma 90.000000
_cell_volume 1587.363326
_symmetry_space_group_name_H-M "I 2 2 2"
_symmetry_group_IT_number 23
_symmetry_cell_setting 'orthorhombic'
loop_
_space_group_symop_operation_xyz
x,y,z
-x,-y,z
x,-y,-z
-x,y,-z
1/2+x,1/2+y,1/2+z
1/2-x,1/2-y,1/2+z
1/2+x,1/2-y,1/2-z
1/2-x,1/2+y,1/2-z
loop_
_atom_site_type_symbol
_atom_site_label
_atom_site_fract_x
_atom_site_fract_y
_atom_site_fract_z
Si Si1 0.000000 0.000000 0.500000
Si Si2 0.178778 0.949760 0.152731
Si Si3 0.000000 0.869947 0.000000
Si Si4 0.655788 0.696315 0.788071
Si Si5 0.307807 0.191265 0.787204
Si Si6 0.430279 0.092510 0.750691
O O1 0.080819 0.039186 0.640279
O O2 0.303113 0.934066 0.272824
O O3 0.120307 0.903370 0.006371
O O4 0.198950 0.000000 0.000000
O O5 0.030548 0.833378 0.759326
O O6 0.629635 0.755118 0.775840
O O7 0.743081 0.682452 0.554794
O O8 0.714716 0.682057 0.056515
O O9 0.414637 0.151820 0.762206
O O10 0.500000 0.076210 0.500000
O O11 0.500000 0.073548 0.000000
#
# Coordination Sequence:
#
# PCOD8164079 Si02
#       6
#     2   8   4   8   8   8
#     4  12  26  48  86 106 144 188 234 342 382 448
#     4  12  28  50  76 111 148 190 256 315 389 439
#     4  12  23  46  72 114 144 194 240 325 374 456
#     4  10  23  40  72 107 150 194 246 301 372 442
#     4  10  22  46  67 104 152 199 246 299 359 450
#     4  12  29  50  78 106 152 203 252 304 366 453
#
# _framework density 23.939070999999998
#
# number of rings (size 3 to 8) (size 9 to 14) (size 15 to 20)
#    0.000    0.842    4.211    1.263    7.368    1.263 
#    0.000    0.000    0.000    0.000    0.000    0.000 
#    0.000    0.000    0.000    0.000    0.000    0.000 
#
# Total GULP energy -235545.517470 kJ/mol
# GULP energy per Si atom -12397.132498 kJ/mol
# Density = 2.388458 g / cm^3
# Si number density = 23.939071 Si / 1000 Ang^3
#
#
#
# Elastic Constant Matrix: (Units=GPa)
#
#
# Indices 1 2 3 4 5 6 
#
# 1 144.9781 53.0012 48.0216 0.0420 -0.0364 -0.0611
# 2 53.0012 119.6417 11.6935 0.0001 -0.0863 -0.0619
# 3 48.0216 11.6935 121.5805 0.1768 -0.0412 -0.2793
# 4 0.0420 0.0001 0.1768 30.9522 -0.0650 -0.0930
# 5 -0.0364 -0.0863 -0.0412 -0.0650 40.2866 0.0692
# 6 -0.0611 -0.0619 -0.2793 -0.0930 0.0692 37.5747
#
#
#
# Elastic Compliance Matrix: (Units=1/GPa)
#
#
# Indices 1 2 3 4 5 6 
#
# 1 0.009411 -0.003842 -0.003348 0.000006 -0.000003 -0.000016
# 2 -0.003842 0.010006 0.000555 0.000002 0.000019 0.000014
# 3 -0.003348 0.000555 0.009494 -0.000049 0.000008 0.000066
# 4 0.000006 0.000002 -0.000049 0.032309 0.000052 0.000080
# 5 -0.000003 0.000019 0.000008 0.000052 0.024822 -0.000046
# 6 -0.000016 0.000014 0.000066 0.000080 -0.000046 0.026614
#
#
# Mechanical properties :
#
#
# Convention : Reuss Voigt Hill
#
# Bulk Modulus (GPa) = 63.92947 67.95921 65.94434
# Shear Modulus (GPa) = 38.12741 39.99495 39.06118
#
# Velocity S-wave (km/s) = 3.99518 4.09185 4.04380
# Velocity P-wave (km/s) = 6.93145 7.12561 7.02920
#
# Compressibility (1/GPa) = 0.01564224
#
# Stress axis : x y z
#
# Youngs Moduli (GPa) = 106.25914 99.94003 105.32867
#
# Poissons Ratio (x) = 0.38396 0.35260
# Poissons Ratio (y) = 0.40823 -0.05847
# Poissons Ratio (z) = 0.35572 -0.05548
#
# Static dielectric constant tensor:
#      x y z
#    x 4.165270 0.000160 0.000480 
#    y 0.000160 4.315950 -0.000420 
#    z 0.000480 -0.000420 4.371650 
# 
# 
# High freq. dielectric constant tensor:
#      x y z
#    x 1.945340 0.000000 0.000020 
#    y 0.000000 1.968910 -0.000010 
#    z 0.000020 -0.000010 1.949940 
# 
# From -- ./inp_files/1761.got.cif
#   From: 2010.03.12/outbox.cif.g09.slc.cpg/sg23_1_cif.got.tgz:1761.got - 2010.04.14 02:50:06.
