data_PCOD8164847
_publ_section_title
;
Structure prediction by ZEFSAII (Michael W. Deem and Ramdas Pophale) SiO2 
 PCOD8164847
Probable space group: I 21 21 21
;
_chemical_formula_sum "Si O2"
_cell_formula_units_Z 64
_cell_length_a 29.964341
_cell_length_b 9.150890
_cell_length_c 13.324101
_cell_angle_alpha 90.000000
_cell_angle_beta 90.000000
_cell_angle_gamma 90.000000
_cell_volume 3653.473669
_symmetry_space_group_name_H-M "I 21 21 21"
_symmetry_group_IT_number 24
_symmetry_cell_setting 'orthorhombic'
loop_
_space_group_symop_operation_xyz
x,y,z
-x,1/2-y,z
x,-y,1/2-z
1/2-x,y,-z
1/2+x,1/2+y,1/2+z
1/2-x,-y,1/2+z
1/2+x,1/2-y,-z
-x,1/2+y,1/2-z
loop_
_atom_site_type_symbol
_atom_site_label
_atom_site_fract_x
_atom_site_fract_y
_atom_site_fract_z
Si Si1 0.690987 0.336550 0.717439
Si Si2 0.628984 0.674717 0.600054
Si Si3 0.377395 0.857906 0.947517
Si Si4 0.280186 0.672449 0.257783
Si Si5 0.341567 0.904005 0.161693
Si Si6 0.706216 0.348783 0.058227
Si Si7 0.544113 0.827399 0.866733
Si Si8 0.456637 0.334265 0.867426
O O1 0.706276 0.500000 0.750000
O O2 0.652557 0.284745 0.794897
O O3 0.670638 0.325987 0.604927
O O4 0.732465 0.226844 0.717304
O O5 0.607455 0.512278 0.600882
O O6 0.664609 0.688183 0.511606
O O7 0.588359 0.783500 0.577055
O O8 0.412919 0.732870 0.924427
O O9 0.373771 0.868373 0.068247
O O10 0.284750 0.500000 0.250000
O O11 0.320821 0.751449 0.199611
O O12 0.283957 0.706626 0.375561
O O13 0.366481 0.000000 0.250000
O O14 0.301676 0.010162 0.127219
O O15 0.750000 0.393348 0.000000
O O16 0.500000 0.750000 0.909110
O O17 0.549725 0.796487 0.749288
O O18 0.537732 0.996583 0.890067
O O19 0.500000 0.250000 0.909846
#
# Coordination Sequence:
#
# PCOD8164847 Si02
#       8
#     8   8   8   8   8   8   8   8
#     4  10  19  32  51  75 106 141 184 220 262 327
#     4  10  19  32  54  77 104 142 184 223 266 321
#     4  10  20  33  55  81 101 139 183 227 269 322
#     4  11  23  36  49  74 108 143 179 235 279 317
#     4   9  21  37  57  75 101 140 189 224 269 325
#     4  10  19  36  56  74 101 144 189 222 267 324
#     4  10  20  33  51  77 112 146 180 216 267 331
#     4  10  20  33  50  76 115 151 177 215 268 328
#
# _framework density 17.517575000000001
#
# number of rings (size 3 to 8) (size 9 to 14) (size 15 to 20)
#    0.000    2.000    2.500    1.875    3.500    3.000 
#    2.250    0.000    0.000    0.000    0.000   14.000 
#    0.000    0.000    0.000    0.000    0.000    0.000 
#
# Total GULP energy -396750.087980 kJ/mol
# GULP energy per Si atom -12398.440249 kJ/mol
# Density = 1.747770 g / cm^3
# Si number density = 17.517575 Si / 1000 Ang^3
#
#
#
# Elastic Constant Matrix: (Units=GPa)
#
#
# Indices 1 2 3 4 5 6 
#
# 1 81.4158 43.4601 20.3110 0.0000 0.0000 0.0000
# 2 43.4601 107.6604 26.0237 0.0000 0.0000 0.0000
# 3 20.3110 26.0237 78.3578 0.0000 0.0000 0.0000
# 4 0.0000 0.0000 0.0000 6.7954 0.0000 0.0000
# 5 0.0000 0.0000 0.0000 0.0000 18.1471 0.0000
# 6 0.0000 0.0000 0.0000 0.0000 0.0000 20.1823
#
#
#
# Elastic Compliance Matrix: (Units=1/GPa)
#
#
# Indices 1 2 3 4 5 6 
#
# 1 0.015990 -0.005929 -0.002176 0.000000 0.000000 0.000000
# 2 -0.005929 0.012298 -0.002547 0.000000 0.000000 0.000000
# 3 -0.002176 -0.002547 0.014172 0.000000 0.000000 0.000000
# 4 0.000000 0.000000 0.000000 0.147158 0.000000 0.000000
# 5 0.000000 0.000000 0.000000 0.000000 0.055105 0.000000
# 6 0.000000 0.000000 0.000000 0.000000 0.000000 0.049548
#
#
# Mechanical properties :
#
#
# Convention : Reuss Voigt Hill
#
# Bulk Modulus (GPa) = 47.26856 49.66930 48.46893
# Shear Modulus (GPa) = 15.49772 20.86756 18.18264
#
# Velocity S-wave (km/s) = 2.97761 3.45517 3.22524
# Velocity P-wave (km/s) = 6.23407 6.65832 6.44968
#
# Compressibility (1/GPa) = 0.02115571
#
# Stress axis : x y z
#
# Youngs Moduli (GPa) = 62.53770 81.31646 70.56189
#
# Poissons Ratio (x) = 0.48213 0.15352
# Poissons Ratio (y) = 0.37079 0.17975
# Poissons Ratio (z) = 0.13606 0.20714
#
# Static dielectric constant tensor:
#      x y z
#    x 3.102020 0.000000 0.000000 
#    y 0.000000 3.176970 0.000000 
#    z 0.000000 0.000000 3.386200 
# 
# 
# High freq. dielectric constant tensor:
#      x y z
#    x 1.664730 0.000000 0.000000 
#    y 0.000000 1.672490 0.000000 
#    z 0.000000 0.000000 1.662490 
# 
# From -- ./inp_files/28289.got.cif
#   From: 2010.03.12/outbox.cif.g09.slc.cpg/sg24_15_cif.got.tgz:28289.got - 2010.04.14 03:06:53.
