data_PCOD8164599
_publ_section_title
;
Structure prediction by ZEFSAII (Michael W. Deem and Ramdas Pophale) SiO2 
 PCOD8164599
Probable space group: I 21 21 21
;
_chemical_formula_sum "Si O2"
_cell_formula_units_Z 36
_cell_length_a 8.457758
_cell_length_b 15.729582
_cell_length_c 13.948826
_cell_angle_alpha 90.000000
_cell_angle_beta 90.000000
_cell_angle_gamma 90.000000
_cell_volume 1855.709937
_symmetry_space_group_name_H-M "I 21 21 21"
_symmetry_group_IT_number 24
_symmetry_cell_setting 'orthorhombic'
loop_
_space_group_symop_operation_xyz
x,y,z
-x,1/2-y,z
x,-y,1/2-z
1/2-x,y,-z
1/2+x,1/2+y,1/2+z
1/2-x,-y,1/2+z
1/2+x,1/2-y,-z
-x,1/2+y,1/2-z
loop_
_atom_site_type_symbol
_atom_site_label
_atom_site_fract_x
_atom_site_fract_y
_atom_site_fract_z
Si Si1 0.250000 0.367966 0.500000
Si Si2 0.500000 0.750000 0.100063
Si Si3 0.168803 0.466651 0.092406
Si Si4 0.837470 0.392439 0.702923
Si Si5 0.383049 0.500000 0.250000
Si Si6 0.691406 0.544495 0.607125
O O1 0.398635 0.312537 0.465874
O O2 0.178044 0.429967 0.417387
O O3 0.367316 0.797364 0.165809
O O4 0.273956 0.440793 0.183311
O O5 0.992994 0.433453 0.109453
O O6 0.250000 0.422066 0.000000
O O7 0.715896 0.445266 0.635745
O O8 0.780664 0.395808 0.814302
O O9 0.006778 0.438087 0.687689
O O10 0.750000 0.563785 0.500000
#
# Coordination Sequence:
#
# PCOD8164599 Si02
#       6
#     4   4   8   8   4   8
#     4  10  24  34  58  84 122 156 184 242 298 360
#     4  12  22  40  52  90 126 158 186 232 306 364
#     4  10  19  34  55  87 107 146 196 242 283 336
#     4  10  22  34  57  86 118 158 189 247 287 355
#     4  10  16  36  52  78 112 142 204 236 282 318
#     4  10  19  36  59  85 113 154 203 242 292 335
#
# _framework density 19.399584000000001
#
# number of rings (size 3 to 8) (size 9 to 14) (size 15 to 20)
#    0.667    1.333    2.222    5.333    4.667    0.000 
#    0.000    0.000    0.000    4.000    0.000    0.000 
#    0.000    0.000    0.000    0.000    0.000    0.000 
#
# Total GULP energy -223033.448967 kJ/mol
# GULP energy per Si atom -12390.747165 kJ/mol
# Density = 1.935543 g / cm^3
# Si number density = 19.399584 Si / 1000 Ang^3
#
#
#
# Elastic Constant Matrix: (Units=GPa)
#
#
# Indices 1 2 3 4 5 6 
#
# 1 117.2984 -6.7577 28.9808 0.0000 0.0000 0.0000
# 2 -6.7577 37.8227 -10.8183 0.0000 0.0000 0.0000
# 3 28.9808 -10.8183 86.8762 -0.0001 0.0000 0.0000
# 4 0.0000 0.0000 -0.0001 12.5796 0.0000 0.0000
# 5 0.0000 0.0000 0.0000 0.0000 38.3833 0.0000
# 6 0.0000 0.0000 0.0000 0.0000 0.0000 20.4281
#
#
#
# Elastic Compliance Matrix: (Units=1/GPa)
#
#
# Indices 1 2 3 4 5 6 
#
# 1 0.009315 0.000804 -0.003007 0.000000 0.000000 0.000000
# 2 0.000804 0.027485 0.003154 0.000000 0.000000 0.000000
# 3 -0.003007 0.003154 0.012907 0.000000 0.000000 0.000000
# 4 0.000000 0.000000 0.000000 0.079494 0.000000 0.000000
# 5 0.000000 0.000000 0.000000 0.000000 0.026053 0.000000
# 6 0.000000 0.000000 0.000000 0.000000 0.000000 0.048952
#
#
# Mechanical properties :
#
#
# Convention : Reuss Voigt Hill
#
# Bulk Modulus (GPa) = 19.37649 29.42297 24.39973
# Shear Modulus (GPa) = 22.77846 29.65102 26.21474
#
# Velocity S-wave (km/s) = 3.43034 3.91376 3.68000
# Velocity P-wave (km/s) = 5.06946 5.96851 5.53726
#
# Compressibility (1/GPa) = 0.05160893
#
# Stress axis : x y z
#
# Youngs Moduli (GPa) = 107.35892 36.38341 77.47995
#
# Poissons Ratio (x) = -0.02926 0.23299
# Poissons Ratio (y) = -0.08633 -0.24440
# Poissons Ratio (z) = 0.32284 -0.11477
#
# Static dielectric constant tensor:
#      x y z
#    x 3.543830 0.000000 0.000000 
#    y 0.000000 3.165890 0.000000 
#    z 0.000000 0.000000 3.523200 
# 
# 
# High freq. dielectric constant tensor:
#      x y z
#    x 1.770750 0.000000 0.000000 
#    y 0.000000 1.693930 0.000000 
#    z 0.000000 0.000000 1.763640 
# 
# From -- ./inp_files/12515.got.cif
#   From: 2010.03.12/outbox.cif.g09.slc.cpg/sg24_7_cif.got.tgz:12515.got - 2010.04.14 03:06:53.
