data_PCOD8164162
_publ_section_title
;
Structure prediction by ZEFSAII (Michael W. Deem and Ramdas Pophale) SiO2 
 PCOD8164162
Probable space group: I 2 2 2
;
_chemical_formula_sum "Si O2"
_cell_formula_units_Z 44
_cell_length_a 5.123065
_cell_length_b 21.333090
_cell_length_c 18.337492
_cell_angle_alpha 90.000000
_cell_angle_beta 90.000000
_cell_angle_gamma 90.000000
_cell_volume 2004.119294
_symmetry_space_group_name_H-M "I 2 2 2"
_symmetry_group_IT_number 23
_symmetry_cell_setting 'orthorhombic'
loop_
_space_group_symop_operation_xyz
x,y,z
-x,-y,z
x,-y,-z
-x,y,-z
1/2+x,1/2+y,1/2+z
1/2-x,1/2-y,1/2+z
1/2+x,1/2-y,1/2-z
1/2-x,1/2+y,1/2-z
loop_
_atom_site_type_symbol
_atom_site_label
_atom_site_fract_x
_atom_site_fract_y
_atom_site_fract_z
Si Si1 0.000000 0.000000 0.661936
Si Si2 0.146194 0.898005 0.429682
Si Si3 0.500000 0.000000 0.000000
Si Si4 0.620926 0.673225 0.712357
Si Si5 0.373224 0.183308 0.692540
Si Si6 0.797982 0.943533 0.128346
Si Si7 0.000000 0.500000 0.000000
Si Si8 0.500000 0.000000 0.754322
O O1 0.928504 0.064487 0.618334
O O2 0.748279 0.979056 0.707961
O O3 0.318865 0.846634 0.387241
O O4 0.329084 0.956298 0.448740
O O5 0.000000 0.867402 0.500000
O O6 0.321966 0.046556 0.048044
O O7 0.637641 0.742370 0.679000
O O8 0.354480 0.661481 0.754396
O O9 0.597894 0.626784 0.641690
O O10 0.853501 0.662164 0.771391
O O11 0.575910 0.943815 0.190891
O O12 0.000000 0.000000 0.143758
#
# Coordination Sequence:
#
# PCOD8164162 Si02
#       8
#     4   8   2   8   8   8   2   4
#     4  12  21  38  58  93 132 172 218 272 322 375
#     4  12  25  40  60  94 137 188 218 271 327 397
#     4  10  26  40  66  94 146 174 210 284 334 414
#     4  10  23  46  72 100 130 170 223 287 332 391
#     4  10  24  45  71  97 134 174 225 277 330 395
#     4  11  23  43  66 104 134 171 219 280 345 403
#     4  12  24  44  58  90 150 182 222 276 320 392
#     4  11  23  35  63  98 126 162 216 272 327 395
#
# _framework density 21.954778999999998
#
# number of rings (size 3 to 8) (size 9 to 14) (size 15 to 20)
#    0.000    1.091    2.727    3.000    7.636    0.000 
#    1.636    0.000    4.000    0.000    0.000    0.000 
#    0.000    0.000    0.000    0.000    0.000    0.000 
#
# Total GULP energy -272589.418362 kJ/mol
# GULP energy per Si atom -12390.428107 kJ/mol
# Density = 2.190481 g / cm^3
# Si number density = 21.954779 Si / 1000 Ang^3
#
#
#
# Elastic Constant Matrix: (Units=GPa)
#
#
# Indices 1 2 3 4 5 6 
#
# 1 90.6299 22.2703 20.7088 0.0000 0.0000 0.0000
# 2 22.2703 125.8665 55.3813 0.0000 0.0000 0.0000
# 3 20.7088 55.3813 108.5413 -0.0001 0.0000 0.0000
# 4 0.0000 0.0000 -0.0001 142.7500 0.0000 0.0000
# 5 0.0000 0.0000 0.0000 0.0000 14.8789 0.0000
# 6 0.0000 0.0000 0.0000 0.0000 0.0000 20.0762
#
#
#
# Elastic Compliance Matrix: (Units=1/GPa)
#
#
# Indices 1 2 3 4 5 6 
#
# 1 0.011727 -0.001406 -0.001520 0.000000 0.000000 0.000000
# 2 -0.001406 0.010414 -0.005045 0.000000 0.000000 0.000000
# 3 -0.001520 -0.005045 0.012077 0.000000 0.000000 0.000000
# 4 0.000000 0.000000 0.000000 0.007005 0.000000 0.000000
# 5 0.000000 0.000000 0.000000 0.000000 0.067209 0.000000
# 6 0.000000 0.000000 0.000000 0.000000 0.000000 0.049810
#
#
# Mechanical properties :
#
#
# Convention : Reuss Voigt Hill
#
# Bulk Modulus (GPa) = 54.71865 57.97316 56.34590
# Shear Modulus (GPa) = 27.73525 50.65285 39.19405
#
# Velocity S-wave (km/s) = 3.55814 4.80849 4.22977
# Velocity P-wave (km/s) = 6.46977 7.56913 7.04094
#
# Compressibility (1/GPa) = 0.01827531
#
# Stress axis : x y z
#
# Youngs Moduli (GPa) = 85.27549 96.02881 82.80052
#
# Poissons Ratio (x) = 0.13503 0.12585
# Poissons Ratio (y) = 0.11991 0.41773
# Poissons Ratio (z) = 0.12961 0.48447
#
# Static dielectric constant tensor:
#      x y z
#    x 3.973600 0.000000 0.000000 
#    y 0.000000 7.321900 0.000000 
#    z 0.000000 0.000000 4.261950 
# 
# 
# High freq. dielectric constant tensor:
#      x y z
#    x 1.875500 0.000000 0.000000 
#    y 0.000000 1.854260 0.000000 
#    z 0.000000 0.000000 1.858420 
# 
# From -- ./inp_files/25697.got.cif
#   From: 2010.03.12/outbox.cif.g09.slc.cpg/sg23_13_cif.got.tgz:25697.got - 2010.04.14 02:50:06.
