data_PCOD8164364
_publ_section_title
;
Structure prediction by ZEFSAII (Michael W. Deem and Ramdas Pophale) SiO2 
 PCOD8164364
Probable space group: I 2 2 2
;
_chemical_formula_sum "Si O2"
_cell_formula_units_Z 56
_cell_length_a 14.182733
_cell_length_b 20.360886
_cell_length_c 8.768155
_cell_angle_alpha 90.000000
_cell_angle_beta 90.000000
_cell_angle_gamma 90.000000
_cell_volume 2532.006510
_symmetry_space_group_name_H-M "I 2 2 2"
_symmetry_group_IT_number 23
_symmetry_cell_setting 'orthorhombic'
loop_
_space_group_symop_operation_xyz
x,y,z
-x,-y,z
x,-y,-z
-x,y,-z
1/2+x,1/2+y,1/2+z
1/2-x,1/2-y,1/2+z
1/2+x,1/2-y,1/2-z
1/2-x,1/2+y,1/2-z
loop_
_atom_site_type_symbol
_atom_site_label
_atom_site_fract_x
_atom_site_fract_y
_atom_site_fract_z
Si Si1 0.437260 0.386692 0.866641
Si Si2 0.111592 0.423774 0.505768
Si Si3 0.156404 0.691027 0.299055
Si Si4 0.612634 0.500523 0.678628
Si Si5 0.944814 0.798683 0.847953
Si Si6 0.216880 0.799956 0.505266
Si Si7 0.769158 0.876375 0.787565
O O1 0.362214 0.434599 0.778766
O O2 0.502520 0.357811 0.734169
O O3 0.385313 0.327286 0.950926
O O4 0.500000 0.421899 0.000000
O O5 0.140828 0.500000 0.500000
O O6 0.138755 0.385542 0.661890
O O7 0.170132 0.390018 0.370563
O O8 0.000000 0.414958 0.500000
O O9 0.061957 0.732916 0.256595
O O10 0.205339 0.725370 0.445460
O O11 0.218909 0.696220 0.150666
O O12 0.500000 0.500000 0.699751
O O13 0.641154 0.500000 0.500000
O O14 0.671080 0.441726 0.752641
O O15 0.838706 0.826683 0.880916
O O16 0.000000 0.779494 0.000000
O O17 0.261736 0.843911 0.371292
#
# Coordination Sequence:
#
# PCOD8164364 Si02
#       7
#     8   8   8   8   8   8   8
#     4  12  23  42  65 104 151 187 229 276 344 437
#     4  11  28  51  74  96 129 184 247 300 348 407
#     4  11  25  46  69  99 136 183 235 292 350 398
#     4  11  22  37  65 103 152 192 217 263 343 434
#     4  11  24  41  68 108 148 182 226 283 355 431
#     4  11  26  42  69 107 139 185 231 287 348 430
#     4  11  23  45  69 103 146 187 225 285 349 418
#
# _framework density 22.116845000000001
#
# number of rings (size 3 to 8) (size 9 to 14) (size 15 to 20)
#    0.000    0.857    4.286    3.000   10.000    3.143 
#    0.000    0.000    0.000    1.714    0.000    0.000 
#    0.000    0.000    0.000    0.000    0.000    0.000 
#
# Total GULP energy -346949.180296 kJ/mol
# GULP energy per Si atom -12391.042153 kJ/mol
# Density = 2.206651 g / cm^3
# Si number density = 22.116845 Si / 1000 Ang^3
#
#
#
# Elastic Constant Matrix: (Units=GPa)
#
#
# Indices 1 2 3 4 5 6 
#
# 1 84.1911 38.6301 38.4265 0.0000 0.0000 0.0000
# 2 38.6301 147.9180 62.3906 0.0000 0.0000 0.0000
# 3 38.4265 62.3906 121.7864 0.0000 0.0000 0.0001
# 4 0.0000 0.0000 0.0000 30.5501 0.0000 0.0000
# 5 0.0000 0.0000 0.0000 0.0000 44.3000 0.0000
# 6 0.0000 0.0000 0.0001 0.0000 0.0000 5.1171
#
#
#
# Elastic Compliance Matrix: (Units=1/GPa)
#
#
# Indices 1 2 3 4 5 6 
#
# 1 0.014499 -0.002369 -0.003361 0.000000 0.000000 0.000000
# 2 -0.002369 0.009011 -0.003869 0.000000 0.000000 0.000000
# 3 -0.003361 -0.003869 0.011254 0.000000 0.000000 0.000000
# 4 0.000000 0.000000 0.000000 0.032733 0.000000 0.000000
# 5 0.000000 0.000000 0.000000 0.000000 0.022573 0.000000
# 6 0.000000 0.000000 0.000000 0.000000 0.000000 0.195424
#
#
# Mechanical properties :
#
#
# Convention : Reuss Voigt Hill
#
# Bulk Modulus (GPa) = 64.24382 70.30999 67.27690
# Shear Modulus (GPa) = 16.13525 30.29000 23.21263
#
# Velocity S-wave (km/s) = 2.70394 3.70475 3.24318
# Velocity P-wave (km/s) = 6.23369 7.08234 6.67152
#
# Compressibility (1/GPa) = 0.01556570
#
# Stress axis : x y z
#
# Youngs Moduli (GPa) = 68.97156 110.97564 88.86009
#
# Poissons Ratio (x) = 0.26287 0.29868
# Poissons Ratio (y) = 0.16338 0.34379
# Poissons Ratio (z) = 0.23183 0.42935
#
# Static dielectric constant tensor:
#      x y z
#    x 4.054230 0.000000 0.000000 
#    y 0.000000 4.501620 0.000000 
#    z 0.000000 0.000000 4.054680 
# 
# 
# High freq. dielectric constant tensor:
#      x y z
#    x 1.854460 0.000000 0.000000 
#    y 0.000000 1.879370 0.000000 
#    z 0.000000 0.000000 1.872950 
# 
# From -- ./inp_files/10219.got.cif
#   From: 2010.03.12/outbox.cif.g09.slc.cpg/sg23_6_cif.got.tgz:10219.got - 2010.04.14 02:50:06.
