data_PCOD8164072
_publ_section_title
;
Structure prediction by ZEFSAII (Michael W. Deem and Ramdas Pophale) SiO2 
 PCOD8164072
Probable space group: I 2 2 2
;
_chemical_formula_sum "Si O2"
_cell_formula_units_Z 48
_cell_length_a 8.093255
_cell_length_b 9.561308
_cell_length_c 28.712048
_cell_angle_alpha 90.000000
_cell_angle_beta 90.000000
_cell_angle_gamma 90.000000
_cell_volume 2221.798678
_symmetry_space_group_name_H-M "I 2 2 2"
_symmetry_group_IT_number 23
_symmetry_cell_setting 'orthorhombic'
loop_
_space_group_symop_operation_xyz
x,y,z
-x,-y,z
x,-y,-z
-x,y,-z
1/2+x,1/2+y,1/2+z
1/2-x,1/2-y,1/2+z
1/2+x,1/2-y,1/2-z
1/2-x,1/2+y,1/2-z
loop_
_atom_site_type_symbol
_atom_site_label
_atom_site_fract_x
_atom_site_fract_y
_atom_site_fract_z
Si Si1 0.189358 0.158654 0.987481
Si Si2 0.169070 0.281225 0.393414
Si Si3 0.102003 0.370200 0.297892
Si Si4 0.390282 0.638411 0.946108
Si Si5 0.806699 0.508162 0.133892
Si Si6 0.627776 0.382376 0.777033
O O1 0.198640 0.168755 0.931572
O O2 0.309523 0.279756 0.009494
O O3 0.000000 0.189292 0.000000
O O4 0.243586 0.000000 0.000000
O O5 0.151565 0.395402 0.352229
O O6 0.996449 0.254228 0.419297
O O7 0.226469 0.143253 0.366721
O O8 0.264833 0.341592 0.267740
O O9 0.000000 0.500000 0.277881
O O10 0.976858 0.244197 0.295733
O O11 0.500000 0.500000 0.960278
O O12 0.243266 0.592963 0.912240
O O13 0.747910 0.578886 0.181030
O O14 0.000000 0.500000 0.134569
O O15 0.500000 0.500000 0.761201
#
# Coordination Sequence:
#
# PCOD8164072 Si02
#       6
#     8   8   8   8   8   8
#     4  11  26  46  69 103 147 186 232 293 367 431
#     4  11  24  44  68 101 136 184 238 285 350 422
#     4  12  27  44  71 105 139 184 237 291 360 427
#     4  10  22  44  69 101 136 179 237 287 345 424
#     4  11  22  41  74 102 139 183 232 294 348 412
#     4  12  24  49  68 101 142 180 235 292 351 427
#
# _framework density 21.604118
#
# number of rings (size 3 to 8) (size 9 to 14) (size 15 to 20)
#    0.000    0.833    3.333    3.500    4.667    5.333 
#    3.000    4.167    0.000    0.000    0.000    0.000 
#    0.000    0.000    0.000    0.000    0.000    0.000 
#
# Total GULP energy -297600.829336 kJ/mol
# GULP energy per Si atom -12400.034556 kJ/mol
# Density = 2.155495 g / cm^3
# Si number density = 21.604118 Si / 1000 Ang^3
#
#
#
# Elastic Constant Matrix: (Units=GPa)
#
#
# Indices 1 2 3 4 5 6 
#
# 1 138.5310 26.3480 70.0740 0.0000 0.0000 0.0000
# 2 26.3480 70.4135 38.8883 0.0000 0.0000 0.0000
# 3 70.0740 38.8883 166.4427 0.0000 0.0000 0.0000
# 4 0.0000 0.0000 0.0000 37.2162 0.0000 0.0000
# 5 0.0000 0.0000 0.0000 0.0000 60.5145 0.0000
# 6 0.0000 0.0000 0.0000 0.0000 0.0000 27.1144
#
#
#
# Elastic Compliance Matrix: (Units=1/GPa)
#
#
# Indices 1 2 3 4 5 6 
#
# 1 0.009310 -0.001514 -0.003566 0.000000 0.000000 0.000000
# 2 -0.001514 0.016552 -0.003230 0.000000 0.000000 0.000000
# 3 -0.003566 -0.003230 0.008264 0.000000 0.000000 0.000000
# 4 0.000000 0.000000 0.000000 0.026870 0.000000 0.000000
# 5 0.000000 0.000000 0.000000 0.000000 0.016525 0.000000
# 6 0.000000 0.000000 0.000000 0.000000 0.000000 0.036881
#
#
# Mechanical properties :
#
#
# Convention : Reuss Voigt Hill
#
# Bulk Modulus (GPa) = 57.12198 71.77865 64.45032
# Shear Modulus (GPa) = 36.53421 40.97415 38.75418
#
# Velocity S-wave (km/s) = 4.11673 4.35971 4.23996
# Velocity P-wave (km/s) = 7.00674 7.65764 7.33941
#
# Compressibility (1/GPa) = 0.01750640
#
# Stress axis : x y z
#
# Youngs Moduli (GPa) = 107.40651 60.41481 121.00726
#
# Poissons Ratio (x) = 0.09150 0.43150
# Poissons Ratio (y) = 0.16266 0.39082
# Poissons Ratio (z) = 0.38300 0.19512
#
# Static dielectric constant tensor:
#      x y z
#    x 3.821370 0.000000 0.000000 
#    y 0.000000 3.979970 0.000000 
#    z 0.000000 0.000000 4.163020 
# 
# 
# High freq. dielectric constant tensor:
#      x y z
#    x 1.855100 0.000000 0.000000 
#    y 0.000000 1.844980 0.000000 
#    z 0.000000 0.000000 1.867160 
# 
# From -- ./inp_files/7376.got.cif
#   From: 2010.03.12/outbox.cif.g09.slc.cpg/sg23_4_cif.got.tgz:7376.got - 2010.04.14 02:50:06.
