data_PCOD8164368
_publ_section_title
;
Structure prediction by ZEFSAII (Michael W. Deem and Ramdas Pophale) SiO2 
 PCOD8164368
Probable space group: I 2 2 2
;
_chemical_formula_sum "Si O2"
_cell_formula_units_Z 36
_cell_length_a 15.110126
_cell_length_b 7.620871
_cell_length_c 13.548860
_cell_angle_alpha 90.000000
_cell_angle_beta 90.000000
_cell_angle_gamma 90.000000
_cell_volume 1560.182676
_symmetry_space_group_name_H-M "I 2 2 2"
_symmetry_group_IT_number 23
_symmetry_cell_setting 'orthorhombic'
loop_
_space_group_symop_operation_xyz
x,y,z
-x,-y,z
x,-y,-z
-x,y,-z
1/2+x,1/2+y,1/2+z
1/2-x,1/2-y,1/2+z
1/2+x,1/2-y,1/2-z
1/2-x,1/2+y,1/2-z
loop_
_atom_site_type_symbol
_atom_site_label
_atom_site_fract_x
_atom_site_fract_y
_atom_site_fract_z
Si Si1 0.167051 0.135301 0.336015
Si Si2 0.330377 0.913784 0.318808
Si Si3 0.056294 0.707579 0.098593
Si Si4 0.233373 0.802601 0.003231
Si Si5 0.500000 0.500000 0.746619
O O1 0.143415 0.314939 0.280142
O O2 0.188480 0.181152 0.450327
O O3 0.084060 0.006146 0.320068
O O4 0.254572 0.050427 0.288403
O O5 0.291995 0.777236 0.398436
O O6 0.418330 0.011498 0.361202
O O7 0.148305 0.805381 0.075101
O O8 0.003885 0.825874 0.178135
O O9 0.000000 0.689585 0.000000
O O10 0.269293 0.000000 0.000000
#
# Coordination Sequence:
#
# PCOD8164368 Si02
#       5
#     8   8   8   8   4
#     4  11  23  40  63  91 127 169 211 263 324 394
#     4  11  23  42  66  93 128 170 213 266 333 396
#     4  11  22  38  63  97 131 161 206 273 335 384
#     4  11  23  41  65  92 124 166 216 267 329 393
#     4  12  25  38  61  94 130 168 214 264 318 392
#
# _framework density 23.074221000000001
#
# number of rings (size 3 to 8) (size 9 to 14) (size 15 to 20)
#    0.000    0.889    0.000   11.000    0.000    6.222 
#    0.000    2.222    0.000    1.333    0.000    0.000 
#    0.000    0.000    0.000    0.000    0.000    0.000 
#
# Total GULP energy -223234.662221 kJ/mol
# GULP energy per Si atom -12401.925679 kJ/mol
# Density = 2.302170 g / cm^3
# Si number density = 23.074221 Si / 1000 Ang^3
#
#
#
# Elastic Constant Matrix: (Units=GPa)
#
#
# Indices 1 2 3 4 5 6 
#
# 1 111.0255 13.5567 25.5400 0.0000 0.0000 0.0000
# 2 13.5567 111.6395 17.0426 0.0000 0.0000 0.0000
# 3 25.5400 17.0426 47.5286 0.0000 0.0000 0.0000
# 4 0.0000 0.0000 0.0000 34.4317 0.0000 0.0000
# 5 0.0000 0.0000 0.0000 0.0000 38.1719 0.0000
# 6 0.0000 0.0000 0.0000 0.0000 0.0000 30.6858
#
#
#
# Elastic Compliance Matrix: (Units=1/GPa)
#
#
# Indices 1 2 3 4 5 6 
#
# 1 0.010297 -0.000429 -0.005379 0.000000 0.000000 0.000000
# 2 -0.000429 0.009494 -0.003174 0.000000 0.000000 0.000000
# 3 -0.005379 -0.003174 0.025068 0.000000 0.000000 0.000000
# 4 0.000000 0.000000 0.000000 0.029043 0.000000 0.000000
# 5 0.000000 0.000000 0.000000 0.000000 0.026197 0.000000
# 6 0.000000 0.000000 0.000000 0.000000 0.000000 0.032588
#
#
# Mechanical properties :
#
#
# Convention : Reuss Voigt Hill
#
# Bulk Modulus (GPa) = 37.18140 42.49691 39.83915
# Shear Modulus (GPa) = 31.32497 34.92817 33.12657
#
# Velocity S-wave (km/s) = 3.68853 3.89489 3.79311
# Velocity P-wave (km/s) = 5.85569 6.21968 6.04042
#
# Compressibility (1/GPa) = 0.02689517
#
# Stress axis : x y z
#
# Youngs Moduli (GPa) = 97.11796 105.32955 39.89071
#
# Poissons Ratio (x) = 0.04521 0.21458
# Poissons Ratio (y) = 0.04168 0.12660
# Poissons Ratio (z) = 0.52241 0.33428
#
# Static dielectric constant tensor:
#      x y z
#    x 4.369780 0.000000 0.000000 
#    y 0.000000 4.262330 0.000000 
#    z 0.000000 0.000000 3.939020 
# 
# 
# High freq. dielectric constant tensor:
#      x y z
#    x 1.910490 0.000000 0.000000 
#    y 0.000000 1.927100 0.000000 
#    z 0.000000 0.000000 1.891140 
# 
# From -- ./inp_files/21306.got.cif
#   From: 2010.03.12/outbox.cif.g09.slc.cpg/sg23_11_cif.got.tgz:21306.got - 2010.04.14 02:50:06.
