data_PCOD8164935
_publ_section_title
;
Structure prediction by ZEFSAII (Michael W. Deem and Ramdas Pophale) SiO2 
 PCOD8164935
Probable space group: I 21 21 21
;
_chemical_formula_sum "Si O2"
_cell_formula_units_Z 48
_cell_length_a 4.964528
_cell_length_b 32.121824
_cell_length_c 15.030568
_cell_angle_alpha 90.000000
_cell_angle_beta 90.000000
_cell_angle_gamma 90.000000
_cell_volume 2396.920090
_symmetry_space_group_name_H-M "I 21 21 21"
_symmetry_group_IT_number 24
_symmetry_cell_setting 'orthorhombic'
loop_
_space_group_symop_operation_xyz
x,y,z
-x,1/2-y,z
x,-y,1/2-z
1/2-x,y,-z
1/2+x,1/2+y,1/2+z
1/2-x,-y,1/2+z
1/2+x,1/2-y,-z
-x,1/2+y,1/2-z
loop_
_atom_site_type_symbol
_atom_site_label
_atom_site_fract_x
_atom_site_fract_y
_atom_site_fract_z
Si Si1 0.118375 0.061233 0.909412
Si Si2 0.002793 0.160694 0.437042
Si Si3 0.133038 0.459472 0.191635
Si Si4 0.152546 0.152026 0.854130
Si Si5 0.250000 0.220901 0.000000
Si Si6 0.667369 0.129584 0.746868
Si Si7 0.000000 0.250000 0.441330
O O1 0.321305 0.046868 0.831786
O O2 0.073107 0.111223 0.911817
O O3 0.831145 0.038360 0.894509
O O4 0.250000 0.045393 0.000000
O O5 0.250000 0.146219 0.500000
O O6 0.750000 0.159451 0.500000
O O7 0.943372 0.132020 0.353241
O O8 0.062343 0.206594 0.391029
O O9 0.171478 0.500000 0.250000
O O10 0.236522 0.419112 0.245167
O O11 0.152190 0.192548 0.917025
O O12 0.449268 0.145945 0.816411
O O13 0.937543 0.156001 0.771982
O O14 0.500000 0.250000 0.970992
O O15 0.750000 0.236980 0.500000
#
# Coordination Sequence:
#
# PCOD8164935 Si02
#       7
#     8   8   8   8   4   8   4
#     4  10  19  36  62  82 105 153 202 235 273 349
#     4  10  19  35  56  79 108 145 189 231 283 338
#     4  10  21  36  56  84 119 145 182 244 299 340
#     4  10  21  39  58  83 115 153 201 237 284 361
#     4  12  24  40  60  86 128 158 190 250 312 350
#     4  10  21  37  60  83 112 156 196 237 291 356
#     4   8  16  30  50  72  96 130 174 228 266 306
#
# _framework density 20.025700000000001
#
# number of rings (size 3 to 8) (size 9 to 14) (size 15 to 20)
#    0.000    2.000    0.833    3.000    0.000    0.000 
#    4.500    2.500    0.000    0.000    0.000    0.000 
#    0.000    0.000    0.000    0.000    0.000    0.000 
#
# Total GULP energy -297379.385057 kJ/mol
# GULP energy per Si atom -12390.807711 kJ/mol
# Density = 1.998012 g / cm^3
# Si number density = 20.025700 Si / 1000 Ang^3
#
#
#
# Elastic Constant Matrix: (Units=GPa)
#
#
# Indices 1 2 3 4 5 6 
#
# 1 111.8911 31.3533 17.7305 0.0000 0.0000 0.0000
# 2 31.3533 98.4420 45.0218 0.0000 0.0000 0.0000
# 3 17.7305 45.0218 85.8260 0.0001 0.0000 0.0000
# 4 0.0000 0.0000 0.0001 25.8575 0.0000 0.0000
# 5 0.0000 0.0000 0.0000 0.0000 36.1314 0.0000
# 6 0.0000 0.0000 0.0000 0.0000 0.0000 24.7024
#
#
#
# Elastic Compliance Matrix: (Units=1/GPa)
#
#
# Indices 1 2 3 4 5 6 
#
# 1 0.009830 -0.002897 -0.000511 0.000000 0.000000 0.000000
# 2 -0.002897 0.014218 -0.006860 0.000000 0.000000 0.000000
# 3 -0.000511 -0.006860 0.015356 0.000000 0.000000 0.000000
# 4 0.000000 0.000000 0.000000 0.038674 0.000000 0.000000
# 5 0.000000 0.000000 0.000000 0.000000 0.027677 0.000000
# 6 0.000000 0.000000 0.000000 0.000000 0.000000 0.040482
#
#
# Mechanical properties :
#
#
# Convention : Reuss Voigt Hill
#
# Bulk Modulus (GPa) = 53.00062 53.81895 53.40978
# Shear Modulus (GPa) = 28.89141 30.80848 29.84995
#
# Velocity S-wave (km/s) = 3.80243 3.92656 3.86499
# Velocity P-wave (km/s) = 6.76770 6.89133 6.82979
#
# Compressibility (1/GPa) = 0.01886770
#
# Stress axis : x y z
#
# Youngs Moduli (GPa) = 101.72889 70.33151 65.12273
#
# Poissons Ratio (x) = 0.20376 0.03328
# Poissons Ratio (y) = 0.29472 0.44674
# Poissons Ratio (z) = 0.05198 0.48248
#
# Static dielectric constant tensor:
#      x y z
#    x 3.899220 0.000000 0.000000 
#    y 0.000000 3.643010 0.000000 
#    z 0.000000 0.000000 3.280830 
# 
# 
# High freq. dielectric constant tensor:
#      x y z
#    x 1.806640 0.000000 0.000000 
#    y 0.000000 1.764800 0.000000 
#    z 0.000000 0.000000 1.756190 
# 
# From -- ./inp_files/23947.got.cif
#   From: 2010.03.12/outbox.cif.g09.slc.cpg/sg24_12_cif.got.tgz:23947.got - 2010.04.14 03:06:53.
