data_PCOD8164968
_publ_section_title
;
Structure prediction by ZEFSAII (Michael W. Deem and Ramdas Pophale) SiO2 
 PCOD8164968
Probable space group: I 21 21 21
;
_chemical_formula_sum "Si O2"
_cell_formula_units_Z 64
_cell_length_a 24.022961
_cell_length_b 15.523018
_cell_length_c 8.701602
_cell_angle_alpha 90.000000
_cell_angle_beta 90.000000
_cell_angle_gamma 90.000000
_cell_volume 3244.904447
_symmetry_space_group_name_H-M "I 21 21 21"
_symmetry_group_IT_number 24
_symmetry_cell_setting 'orthorhombic'
loop_
_space_group_symop_operation_xyz
x,y,z
-x,1/2-y,z
x,-y,1/2-z
1/2-x,y,-z
1/2+x,1/2+y,1/2+z
1/2-x,-y,1/2+z
1/2+x,1/2-y,-z
-x,1/2+y,1/2-z
loop_
_atom_site_type_symbol
_atom_site_label
_atom_site_fract_x
_atom_site_fract_y
_atom_site_fract_z
Si Si1 0.937337 0.250474 0.182980
Si Si2 0.750000 0.650579 0.818810
Si Si3 0.062663 0.750474 0.682980
Si Si4 0.135563 0.910710 0.682678
Si Si5 0.364437 0.910710 0.682678
Si Si6 0.250000 0.336077 0.179417
Si Si7 0.632383 0.910141 0.320032
Si Si8 0.132383 0.410141 0.179967
O O1 0.905588 0.335555 0.241175
O O2 0.905520 0.166560 0.248152
O O3 0.000000 0.250000 0.248282
O O4 0.937186 0.248559 1.000000
O O5 0.803230 0.604937 0.746920
O O6 0.696770 0.604937 0.746920
O O7 0.750000 0.751112 0.780926
O O8 0.750000 0.636442 0.000000
O O9 0.094412 0.835555 0.741175
O O10 0.094480 0.666560 0.748152
O O11 0.000000 0.750000 0.748282
O O12 0.137932 0.914327 0.500000
O O13 0.111967 0.000000 0.750000
O O14 0.388033 0.000000 0.750000
O O15 0.303516 0.392527 0.222736
O O16 0.196484 0.392527 0.222736
O O17 0.250000 0.308800 0.000000
O O18 0.623868 0.915958 0.500000
O O19 0.612481 0.000000 0.250000
O O20 0.112481 0.500000 0.250000
#
# Coordination Sequence:
#
# PCOD8164968 Si02
#       8
#     8   8   8   8   8   8   8   8
#     4   9  19  37  60  83 112 154 196 234 282 339
#     4  12  23  36  59  89 118 149 191 239 292 347
#     4   9  19  37  60  83 112 154 196 234 282 339
#     4  11  22  39  61  86 119 154 193 237 287 346
#     4  11  22  39  61  86 119 154 193 237 287 346
#     4  10  19  36  58  83 114 153 188 227 288 347
#     4  10  20  35  57  84 115 149 187 229 281 338
#     4  10  20  35  57  84 115 149 187 229 281 338
#
# _framework density 19.723231999999999
#
# number of rings (size 3 to 8) (size 9 to 14) (size 15 to 20)
#    0.000    1.750    2.500    2.625    0.000    2.000 
#    0.000    0.000    0.000    5.250    0.000    0.000 
#    0.000    0.000    0.000    0.000    0.000    0.000 
#
# Total GULP energy -396895.417365 kJ/mol
# GULP energy per Si atom -12402.981793 kJ/mol
# Density = 1.967834 g / cm^3
# Si number density = 19.723232 Si / 1000 Ang^3
#
#
#
# Elastic Constant Matrix: (Units=GPa)
#
#
# Indices 1 2 3 4 5 6 
#
# 1 163.1019 86.3582 27.7164 0.0000 0.0000 0.0000
# 2 86.3582 199.7690 38.3651 0.0000 0.0000 0.0000
# 3 27.7164 38.3651 53.2877 0.0000 0.0000 0.0000
# 4 0.0000 0.0000 0.0000 36.9144 0.0000 0.0000
# 5 0.0000 0.0000 0.0000 0.0000 -6.6869 0.0000
# 6 0.0000 0.0000 0.0000 0.0000 0.0000 15.7759
#
#
#
# Elastic Compliance Matrix: (Units=1/GPa)
#
#
# Indices 1 2 3 4 5 6 
#
# 1 0.008125 -0.003134 -0.001970 0.000000 0.000000 0.000000
# 2 -0.003134 0.007018 -0.003422 0.000000 0.000000 0.000000
# 3 -0.001970 -0.003422 0.022255 0.000000 0.000000 0.000000
# 4 0.000000 0.000000 0.000000 0.027090 0.000000 0.000000
# 5 0.000000 0.000000 0.000000 0.000000 -0.149547 0.000000
# 6 0.000000 0.000000 0.000000 0.000000 0.000000 0.063388
#
#
# Mechanical properties :
#
#
# Convention : Reuss Voigt Hill
#
# Bulk Modulus (GPa) = 49.15182 80.11535 64.63359
# Shear Modulus (GPa) = 2311.80086 26.78194 1169.29140
#
# Velocity S-wave (km/s) = 34.27339 3.68895 24.37492
# Velocity P-wave (km/s) = 39.88979 7.67153 28.72323
#
# Compressibility (1/GPa) = 0.02034512
#
# Stress axis : x y z
#
# Youngs Moduli (GPa) = 123.07169 142.49157 44.93455
#
# Poissons Ratio (x) = 0.44660 0.08851
# Poissons Ratio (y) = 0.38574 0.15379
# Poissons Ratio (z) = 0.24241 0.48767
#
# Static dielectric constant tensor:
#      x y z
#    x 3.780260 0.000000 0.000000 
#    y 0.000000 3.909340 0.000000 
#    z 0.000000 0.000000 3.279120 
# 
# 
# High freq. dielectric constant tensor:
#      x y z
#    x 1.769680 0.000000 0.000000 
#    y 0.000000 1.786070 0.000000 
#    z 0.000000 0.000000 1.739640 
# 
# From -- ./inp_files/16032.got.cif
#   From: 2010.03.12/outbox.cif.g09.slc.cpg/sg24_9_cif.got.tgz:16032.got - 2010.04.14 03:06:53.
