data_PCOD8164096
_publ_section_title
;
Structure prediction by ZEFSAII (Michael W. Deem and Ramdas Pophale) SiO2 
 PCOD8164096
Probable space group: I 2 2 2
;
_chemical_formula_sum "Si O2"
_cell_formula_units_Z 64
_cell_length_a 12.667385
_cell_length_b 16.872140
_cell_length_c 15.424695
_cell_angle_alpha 90.000000
_cell_angle_beta 90.000000
_cell_angle_gamma 90.000000
_cell_volume 3296.656716
_symmetry_space_group_name_H-M "I 2 2 2"
_symmetry_group_IT_number 23
_symmetry_cell_setting 'orthorhombic'
loop_
_space_group_symop_operation_xyz
x,y,z
-x,-y,z
x,-y,-z
-x,y,-z
1/2+x,1/2+y,1/2+z
1/2-x,1/2-y,1/2+z
1/2+x,1/2-y,1/2-z
1/2-x,1/2+y,1/2-z
loop_
_atom_site_type_symbol
_atom_site_label
_atom_site_fract_x
_atom_site_fract_y
_atom_site_fract_z
Si Si1 0.298341 0.433842 0.107293
Si Si2 0.204598 0.402545 0.933907
Si Si3 0.187462 0.385366 0.266235
Si Si4 0.665160 0.172050 0.821812
Si Si5 0.963524 0.810691 0.594846
Si Si6 0.875062 0.513131 0.595529
Si Si7 0.519075 0.088655 0.685577
Si Si8 0.819884 0.787269 0.318453
O O1 0.284370 0.529003 0.103483
O O2 0.287349 0.403812 0.206102
O O3 0.413666 0.399044 0.081996
O O4 0.211507 0.400316 0.037965
O O5 0.081559 0.416667 0.906281
O O6 0.246200 0.320589 0.894964
O O7 0.176462 0.456549 0.333399
O O8 0.195796 0.307003 0.323679
O O9 0.097223 0.374408 0.191087
O O10 0.626523 0.252180 0.868279
O O11 0.586403 0.143796 0.747553
O O12 0.780108 0.184311 0.776876
O O13 0.665351 0.102344 0.891007
O O14 0.000000 0.780165 0.500000
O O15 0.059552 0.812410 0.663470
O O16 0.830327 0.500000 0.500000
O O17 0.000000 0.500000 0.598778
O O18 0.500000 0.000000 0.722736
#
# Coordination Sequence:
#
# PCOD8164096 Si02
#       8
#     8   8   8   8   8   8   8   8
#     4  11  23  40  60  86 120 160 209 247 306 367
#     4  10  23  39  57  87 123 160 205 257 300 369
#     4  12  20  38  59  89 123 156 200 251 308 379
#     4  11  21  37  59  89 122 159 195 248 310 371
#     4  12  24  39  61  90 123 163 206 256 307 366
#     4  11  22  35  60  95 120 151 194 250 314 364
#     4  11  18  35  60  84 121 155 199 249 311 365
#     4  11  23  38  60  85 124 158 198 250 307 367
#
# _framework density 19.413606000000001
#
# number of rings (size 3 to 8) (size 9 to 14) (size 15 to 20)
#    0.000    0.875    7.500    0.750    3.500    1.000 
#    0.000    0.000    0.000    0.000    0.000    0.875 
#    0.000    0.000    0.000    0.000    0.000    0.000 
#
# Total GULP energy -396445.303852 kJ/mol
# GULP energy per Si atom -12388.915745 kJ/mol
# Density = 1.936942 g / cm^3
# Si number density = 19.413606 Si / 1000 Ang^3
#
#
#
# Elastic Constant Matrix: (Units=GPa)
#
#
# Indices 1 2 3 4 5 6 
#
# 1 61.3793 28.7414 38.8634 0.0001 0.0000 0.0000
# 2 28.7414 88.2930 21.9433 0.0002 0.0000 0.0000
# 3 38.8634 21.9433 106.3512 0.0006 0.0000 0.0000
# 4 0.0001 0.0002 0.0006 -370.8019 0.0001 0.0001
# 5 0.0000 0.0000 0.0000 0.0001 28.3916 0.0000
# 6 0.0000 0.0000 0.0000 0.0001 0.0000 23.3832
#
#
#
# Elastic Compliance Matrix: (Units=1/GPa)
#
#
# Indices 1 2 3 4 5 6 
#
# 1 0.023781 -0.005883 -0.007476 0.000000 0.000000 0.000000
# 2 -0.005883 0.013394 -0.000614 0.000000 0.000000 0.000000
# 3 -0.007476 -0.000614 0.012261 0.000000 0.000000 0.000000
# 4 0.000000 0.000000 0.000000 -0.002697 0.000000 0.000000
# 5 0.000000 0.000000 0.000000 0.000000 0.035222 0.000000
# 6 0.000000 0.000000 0.000000 0.000000 0.000000 0.042766
#
#
# Mechanical properties :
#
#
# Convention : Reuss Voigt Hill
#
# Bulk Modulus (GPa) = 46.53391 48.34664 47.44028
# Shear Modulus (GPa) = 31.28219 -52.70706 -10.71243
#
# Velocity S-wave (km/s) = 4.01852 -5.21618 -2.35159
# Velocity P-wave (km/s) = 6.74931 3.36458 4.13719
#
# Compressibility (1/GPa) = 0.02148971
#
# Stress axis : x y z
#
# Youngs Moduli (GPa) = 42.05093 74.66299 81.55664
#
# Poissons Ratio (x) = 0.43925 0.60974
# Poissons Ratio (y) = 0.24739 0.05004
# Poissons Ratio (z) = 0.31438 0.04581
#
# Static dielectric constant tensor:
#      x y z
#    x 3.650830 0.000000 0.000000 
#    y 0.000000 3.624290 0.000000 
#    z 0.000000 0.000000 3.650500 
# 
# 
# High freq. dielectric constant tensor:
#      x y z
#    x 1.730850 0.000000 0.000000 
#    y 0.000000 1.758860 0.000000 
#    z 0.000000 0.000000 1.757600 
# 
# From -- ./inp_files/21042.got.cif
#   From: 2010.03.12/outbox.cif.g09.slc.cpg/sg23_11_cif.got.tgz:21042.got - 2010.04.14 02:50:06.
