data_PCOD8164133
_publ_section_title
;
Structure prediction by ZEFSAII (Michael W. Deem and Ramdas Pophale) SiO2 
 PCOD8164133
Probable space group: I 2 2 2
;
_chemical_formula_sum "Si O2"
_cell_formula_units_Z 26
_cell_length_a 5.094073
_cell_length_b 26.198055
_cell_length_c 8.882553
_cell_angle_alpha 90.000000
_cell_angle_beta 90.000000
_cell_angle_gamma 90.000000
_cell_volume 1185.419375
_symmetry_space_group_name_H-M "I 2 2 2"
_symmetry_group_IT_number 23
_symmetry_cell_setting 'orthorhombic'
loop_
_space_group_symop_operation_xyz
x,y,z
-x,-y,z
x,-y,-z
-x,y,-z
1/2+x,1/2+y,1/2+z
1/2-x,1/2-y,1/2+z
1/2+x,1/2-y,1/2-z
1/2-x,1/2+y,1/2-z
loop_
_atom_site_type_symbol
_atom_site_label
_atom_site_fract_x
_atom_site_fract_y
_atom_site_fract_z
Si Si1 0.562863 0.169558 0.331966
Si Si2 0.500000 0.000000 0.000000
Si Si3 0.747378 0.279298 0.397444
Si Si4 0.739072 0.097382 0.093528
O O1 0.500000 0.150904 0.500000
O O2 0.721514 0.222617 0.329150
O O3 0.291000 0.181000 0.241099
O O4 0.739176 0.124855 0.255781
O O5 0.680943 0.036258 0.106813
O O6 0.500000 0.296323 0.500000
O O7 0.000000 0.279009 0.500000
O O8 0.500000 0.123507 0.000000
O O9 0.000000 0.107269 0.000000
#
# Coordination Sequence:
#
# PCOD8164133 Si02
#       4
#     8   2   8   8
#     4  11  24  41  65 104 140 181 228 284 334 386
#     4   8  22  48  72  96 126 172 248 268 350 414
#     4  11  25  43  62  91 145 196 232 260 321 412
#     4  10  23  42  71  98 128 173 230 278 340 412
#
# _framework density 21.933167000000001
#
# number of rings (size 3 to 8) (size 9 to 14) (size 15 to 20)
#    0.923    0.615    0.000    5.077    0.000   16.000 
#    0.000    0.769    0.000    0.000    8.000    0.000 
#    0.000    0.000    0.000    0.000    0.000    0.000 
#
# Total GULP energy -161083.879918 kJ/mol
# GULP energy per Si atom -12391.067686 kJ/mol
# Density = 2.188325 g / cm^3
# Si number density = 21.933167 Si / 1000 Ang^3
#
#
#
# Elastic Constant Matrix: (Units=GPa)
#
#
# Indices 1 2 3 4 5 6 
#
# 1 160.6966 30.4394 77.9525 0.0000 0.0000 0.0000
# 2 30.4394 149.9777 82.3300 0.0001 0.0000 0.0000
# 3 77.9525 82.3300 181.1347 0.0002 0.0000 -0.0001
# 4 0.0000 0.0001 0.0002 28.7783 0.0000 0.0000
# 5 0.0000 0.0000 0.0000 0.0000 24.4454 0.0000
# 6 0.0000 0.0000 -0.0001 0.0000 0.0000 30.6738
#
#
#
# Elastic Compliance Matrix: (Units=1/GPa)
#
#
# Indices 1 2 3 4 5 6 
#
# 1 0.007878 0.000349 -0.003549 0.000000 0.000000 0.000000
# 2 0.000349 0.008900 -0.004196 0.000000 0.000000 0.000000
# 3 -0.003549 -0.004196 0.008955 0.000000 0.000000 0.000000
# 4 0.000000 0.000000 0.000000 0.034748 0.000000 0.000000
# 5 0.000000 0.000000 0.000000 0.000000 0.040908 0.000000
# 6 0.000000 0.000000 0.000000 0.000000 0.000000 0.032601
#
#
# Mechanical properties :
#
#
# Convention : Reuss Voigt Hill
#
# Bulk Modulus (GPa) = 91.38653 97.02810 94.20731
# Shear Modulus (GPa) = 32.80210 36.85197 34.82703
#
# Velocity S-wave (km/s) = 3.87143 4.10346 3.98913
# Velocity P-wave (km/s) = 7.85750 8.17223 8.01641
#
# Compressibility (1/GPa) = 0.01094253
#
# Stress axis : x y z
#
# Youngs Moduli (GPa) = 126.92784 112.36077 111.66637
#
# Poissons Ratio (x) = -0.03926 0.39635
# Poissons Ratio (y) = -0.04435 0.46851
# Poissons Ratio (z) = 0.45051 0.47142
#
# Static dielectric constant tensor:
#      x y z
#    x 4.234060 0.000000 0.000000 
#    y 0.000000 4.028200 0.000000 
#    z 0.000000 0.000000 3.896130 
# 
# 
# High freq. dielectric constant tensor:
#      x y z
#    x 1.869650 0.000000 0.000000 
#    y 0.000000 1.852390 0.000000 
#    z 0.000000 0.000000 1.850920 
# 
# From -- ./inp_files/589.got.cif
#   From: 2010.03.12/outbox.cif.g09.slc.cpg/sg23_1_cif.got.tgz:589.got - 2010.04.14 02:50:06.
