data_PCOD8164407
_publ_section_title
;
Structure prediction by ZEFSAII (Michael W. Deem and Ramdas Pophale) SiO2 
 PCOD8164407
Probable space group: I 2 2 2
;
_chemical_formula_sum "Si O2"
_cell_formula_units_Z 40
_cell_length_a 7.656944
_cell_length_b 24.653131
_cell_length_c 9.470518
_cell_angle_alpha 90.000000
_cell_angle_beta 90.000000
_cell_angle_gamma 90.000000
_cell_volume 1787.727366
_symmetry_space_group_name_H-M "I 2 2 2"
_symmetry_group_IT_number 23
_symmetry_cell_setting 'orthorhombic'
loop_
_space_group_symop_operation_xyz
x,y,z
-x,-y,z
x,-y,-z
-x,y,-z
1/2+x,1/2+y,1/2+z
1/2-x,1/2-y,1/2+z
1/2+x,1/2-y,1/2-z
1/2-x,1/2+y,1/2-z
loop_
_atom_site_type_symbol
_atom_site_label
_atom_site_fract_x
_atom_site_fract_y
_atom_site_fract_z
Si Si1 0.500000 0.383816 0.500000
Si Si2 0.832170 0.557093 0.077393
Si Si3 0.849472 0.585520 0.387652
Si Si4 0.357623 0.311910 0.743346
Si Si5 0.524586 0.201287 0.157361
Si Si6 0.000000 0.874956 0.500000
O O1 0.337648 0.423579 0.463553
O O2 0.466839 0.343512 0.628236
O O3 0.871243 0.549946 0.245216
O O4 0.651490 0.589110 0.068901
O O5 0.805028 0.500000 0.000000
O O6 0.000000 0.585634 0.000000
O O7 0.849222 0.649355 0.346505
O O8 0.000000 0.569862 0.500000
O O9 0.397361 0.247412 0.740692
O O10 0.154781 0.321280 0.718702
O O11 0.404836 0.336237 0.892235
O O12 0.500000 0.225148 0.000000
#
# Coordination Sequence:
#
# PCOD8164407 Si02
#       6
#     4   8   8   8   8   4
#     4  12  22  42  68  99 140 194 233 290 360 422
#     4  11  26  48  76 105 138 185 242 309 373 424
#     4  11  23  45  71 101 145 184 239 299 363 432
#     4  12  24  39  67  99 147 194 245 286 358 425
#     4  11  23  40  61 104 146 193 240 292 345 436
#     4  12  25  46  72 106 144 190 242 305 356 432
#
# _framework density 22.374775
#
# number of rings (size 3 to 8) (size 9 to 14) (size 15 to 20)
#    0.000    0.600    7.000    2.700    0.000    0.000 
#    1.800    2.000    0.000    1.200    0.000    0.000 
#    0.000    0.000    0.000    0.000    0.000    0.000 
#
# Total GULP energy -248006.210758 kJ/mol
# GULP energy per Si atom -12400.310538 kJ/mol
# Density = 2.232385 g / cm^3
# Si number density = 22.374775 Si / 1000 Ang^3
#
#
#
# Elastic Constant Matrix: (Units=GPa)
#
#
# Indices 1 2 3 4 5 6 
#
# 1 162.1673 16.5348 49.1740 0.0001 0.0000 0.0038
# 2 16.5348 55.2850 34.7307 -0.0011 0.0003 0.0074
# 3 49.1740 34.7307 161.5229 -0.0011 0.0007 0.0364
# 4 0.0001 -0.0011 -0.0011 2.6737 -0.0019 0.0490
# 5 0.0000 0.0003 0.0007 -0.0019 40.1219 0.0069
# 6 0.0038 0.0074 0.0364 0.0490 0.0069 313.6694
#
#
#
# Elastic Compliance Matrix: (Units=1/GPa)
#
#
# Indices 1 2 3 4 5 6 
#
# 1 0.006828 -0.000851 -0.001896 -0.000001 0.000000 0.000000
# 2 -0.000851 0.021019 -0.004260 0.000007 0.000000 0.000000
# 3 -0.001896 -0.004260 0.007684 0.000001 0.000000 -0.000001
# 4 -0.000001 0.000007 0.000001 0.374016 0.000018 -0.000058
# 5 0.000000 0.000000 0.000000 0.000018 0.024924 -0.000001
# 6 0.000000 0.000000 -0.000001 -0.000058 -0.000001 0.003188
#
#
# Mechanical properties :
#
#
# Convention : Reuss Voigt Hill
#
# Bulk Modulus (GPa) = 46.47534 64.42825 55.45179
# Shear Modulus (GPa) = 10.89689 89.86204 50.37947
#
# Velocity S-wave (km/s) = 2.20924 6.34424 4.75027
# Velocity P-wave (km/s) = 5.22724 9.08424 7.41105
#
# Compressibility (1/GPa) = 0.02151679
#
# Stress axis : x y z
#
# Youngs Moduli (GPa) = 146.45352 47.57575 130.13596
#
# Poissons Ratio (x) = 0.04050 0.24670
# Poissons Ratio (y) = 0.12467 0.55443
# Poissons Ratio (z) = 0.27763 0.20269
#
# Static dielectric constant tensor:
#      x y z
#    x 4.328560 0.000000 -0.000010 
#    y 0.000000 3.728380 0.000000 
#    z -0.000010 0.000000 4.040470 
# 
# 
# High freq. dielectric constant tensor:
#      x y z
#    x 1.901140 0.000000 0.000000 
#    y 0.000000 1.857170 0.000000 
#    z 0.000000 0.000000 1.892750 
# 
# From -- ./inp_files/7130.got.cif
#   From: 2010.03.12/outbox.cif.g09.slc.cpg/sg23_4_cif.got.tgz:7130.got - 2010.04.14 02:50:06.
