data_PCOD8164286
_publ_section_title
;
Structure prediction by ZEFSAII (Michael W. Deem and Ramdas Pophale) SiO2 
 PCOD8164286
Probable space group: I 2 2 2
;
_chemical_formula_sum "Si O2"
_cell_formula_units_Z 64
_cell_length_a 12.644770
_cell_length_b 31.399119
_cell_length_c 9.810916
_cell_angle_alpha 90.000000
_cell_angle_beta 90.000000
_cell_angle_gamma 90.000000
_cell_volume 3895.273482
_symmetry_space_group_name_H-M "I 2 2 2"
_symmetry_group_IT_number 23
_symmetry_cell_setting 'orthorhombic'
loop_
_space_group_symop_operation_xyz
x,y,z
-x,-y,z
x,-y,-z
-x,y,-z
1/2+x,1/2+y,1/2+z
1/2-x,1/2-y,1/2+z
1/2+x,1/2-y,1/2-z
1/2-x,1/2+y,1/2-z
loop_
_atom_site_type_symbol
_atom_site_label
_atom_site_fract_x
_atom_site_fract_y
_atom_site_fract_z
Si Si1 0.199587 0.182739 0.497301
Si Si2 0.408501 0.638361 0.755607
Si Si3 0.158722 0.130106 0.246731
Si Si4 0.900785 0.271010 0.591287
Si Si5 0.693341 0.315665 0.508338
Si Si6 0.118914 0.950567 0.150234
Si Si7 0.868452 0.042744 0.844503
Si Si8 0.401654 0.771548 0.406319
O O1 0.127947 0.157138 0.602040
O O2 0.222068 0.152491 0.368310
O O3 0.137690 0.224119 0.447063
O O4 0.310285 0.194093 0.566819
O O5 0.534099 0.637213 0.760547
O O6 0.378945 0.669750 0.633222
O O7 0.351983 0.592022 0.734873
O O8 0.182178 0.079237 0.251123
O O9 0.201714 0.147599 0.103622
O O10 0.809407 0.305220 0.564150
O O11 0.935731 0.272683 0.748730
O O12 0.000000 0.284208 0.500000
O O13 0.639158 0.275134 0.440502
O O14 0.993525 0.952331 0.147730
O O15 0.161806 0.995596 0.213440
O O16 0.169541 0.948949 0.999502
O O17 0.500000 0.784305 0.500000
#
# Coordination Sequence:
#
# PCOD8164286 Si02
#       8
#     8   8   8   8   8   8   8   8
#     4  11  24  36  49  74 104 131 172 211 246 299
#     4  11  19  33  49  73 104 138 169 203 247 293
#     4  11  19  31  51  75 101 139 168 206 241 297
#     4  11  24  38  53  72 100 132 167 216 258 292
#     4  11  22  34  51  74  99 131 174 205 243 301
#     4   8  14  25  44  68 100 133 163 205 241 291
#     4   8  14  25  43  71  98 130 170 199 243 290
#     4  11  24  38  54  71  98 134 168 214 259 295
#
# _framework density 16.430168999999999
#
# number of rings (size 3 to 8) (size 9 to 14) (size 15 to 20)
#    0.000    1.750    3.750    3.000    3.500    0.000 
#    0.000    0.625    0.000    3.000    0.000    0.000 
#    0.000    6.000    0.000    0.000    0.000    0.000 
#
# Total GULP energy -396687.345216 kJ/mol
# GULP energy per Si atom -12396.479538 kJ/mol
# Density = 1.639277 g / cm^3
# Si number density = 16.430169 Si / 1000 Ang^3
#
#
#
# Elastic Constant Matrix: (Units=GPa)
#
#
# Indices 1 2 3 4 5 6 
#
# 1 47.4335 26.1029 31.5035 -0.0023 -0.0038 -0.0044
# 2 26.1029 97.9560 21.3834 -0.0006 0.0046 0.0030
# 3 31.5035 21.3834 78.2567 -0.0092 0.0098 -0.0045
# 4 -0.0023 -0.0006 -0.0092 11.5009 0.0010 -0.0059
# 5 -0.0038 0.0046 0.0098 0.0010 24.4818 0.0078
# 6 -0.0044 0.0030 -0.0045 -0.0059 0.0078 1.7416
#
#
#
# Elastic Compliance Matrix: (Units=1/GPa)
#
#
# Indices 1 2 3 4 5 6 
#
# 1 0.031818 -0.006043 -0.011158 -0.000003 0.000010 0.000062
# 2 -0.006043 0.012004 -0.000847 -0.000001 -0.000003 -0.000038
# 3 -0.011158 -0.000847 0.017502 0.000012 -0.000009 0.000018
# 4 -0.000003 -0.000001 0.000012 0.086950 -0.000004 0.000297
# 5 0.000010 -0.000003 -0.000009 -0.000004 0.040847 -0.000182
# 6 0.000062 -0.000038 0.000018 0.000297 -0.000182 0.574183
#
#
# Mechanical properties :
#
#
# Convention : Reuss Voigt Hill
#
# Bulk Modulus (GPa) = 39.63897 42.40285 41.02091
# Shear Modulus (GPa) = 6.18958 17.18863 11.68911
#
# Velocity S-wave (km/s) = 1.94303 3.23795 2.67018
# Velocity P-wave (km/s) = 5.40481 6.31214 5.87601
#
# Compressibility (1/GPa) = 0.02522770
#
# Stress axis : x y z
#
# Youngs Moduli (GPa) = 31.42859 83.30570 57.13740
#
# Poissons Ratio (x) = 0.50343 0.63752
# Poissons Ratio (y) = 0.18993 0.04841
# Poissons Ratio (z) = 0.35067 0.07058
#
# Static dielectric constant tensor:
#      x y z
#    x 2.818460 -0.000030 0.000000 
#    y -0.000030 3.712380 0.000100 
#    z 0.000000 0.000100 3.188000 
# 
# 
# High freq. dielectric constant tensor:
#      x y z
#    x 1.586290 0.000000 0.000000 
#    y 0.000000 1.637650 0.000000 
#    z 0.000000 0.000000 1.635300 
# 
# From -- ./inp_files/8960.got.cif
#   From: 2010.03.12/outbox.cif.g09.slc.cpg/sg23_5_cif.got.tgz:8960.got - 2010.04.14 02:50:06.
