data_PCOD8164514
_publ_section_title
;
Structure prediction by ZEFSAII (Michael W. Deem and Ramdas Pophale) SiO2 
 PCOD8164514
Probable space group: I 2 2 2
;
_chemical_formula_sum "Si O2"
_cell_formula_units_Z 30
_cell_length_a 8.483586
_cell_length_b 21.766098
_cell_length_c 7.121406
_cell_angle_alpha 90.000000
_cell_angle_beta 90.000000
_cell_angle_gamma 90.000000
_cell_volume 1315.000122
_symmetry_space_group_name_H-M "I 2 2 2"
_symmetry_group_IT_number 23
_symmetry_cell_setting 'orthorhombic'
loop_
_space_group_symop_operation_xyz
x,y,z
-x,-y,z
x,-y,-z
-x,y,-z
1/2+x,1/2+y,1/2+z
1/2-x,1/2-y,1/2+z
1/2+x,1/2-y,1/2-z
1/2-x,1/2+y,1/2-z
loop_
_atom_site_type_symbol
_atom_site_label
_atom_site_fract_x
_atom_site_fract_y
_atom_site_fract_z
Si Si1 0.706763 0.204750 0.182756
Si Si2 0.000000 0.500000 0.500000
Si Si3 0.454390 0.671232 0.194663
Si Si4 0.500000 0.164505 0.500000
Si Si5 0.172168 0.612506 0.353203
O O1 0.662453 0.273929 0.125380
O O2 0.635283 0.202104 0.392712
O O3 0.895669 0.196816 0.189644
O O4 0.631027 0.155814 0.035143
O O5 0.123245 0.542469 0.388349
O O6 0.359528 0.621788 0.320087
O O7 0.500000 0.637453 0.000000
O O8 0.582433 0.125609 0.661381
#
# Coordination Sequence:
#
# PCOD8164514 Si02
#       5
#     8   2   8   4   8
#     4  12  25  44  71 117 156 193 246 317 390 455
#     4  12  28  54  78 100 158 208 270 308 368 462
#     4  12  25  43  75 113 159 195 249 316 391 458
#     4  12  22  45  74 106 146 195 248 294 386 446
#     4  12  27  48  74 108 146 208 255 313 373 446
#
# _framework density 22.813687000000002
#
# number of rings (size 3 to 8) (size 9 to 14) (size 15 to 20)
#    0.000    0.000    5.333    5.600    3.733    0.533 
#    0.000    2.667    0.000    1.600    0.000    0.000 
#    0.000    0.000    0.000    0.000    0.000    0.000 
#
# Total GULP energy -185830.907644 kJ/mol
# GULP energy per Si atom -12388.727176 kJ/mol
# Density = 2.276176 g / cm^3
# Si number density = 22.813687 Si / 1000 Ang^3
#
#
#
# Elastic Constant Matrix: (Units=GPa)
#
#
# Indices 1 2 3 4 5 6 
#
# 1 177.9586 52.3265 52.9410 -0.0055 0.0024 0.0005
# 2 52.3265 116.2999 38.2380 -0.0023 -0.0007 -0.0001
# 3 52.9410 38.2380 149.3493 -0.0087 0.0075 0.0034
# 4 -0.0055 -0.0023 -0.0087 22.5099 0.0014 0.0003
# 5 0.0024 -0.0007 0.0075 0.0014 52.8852 0.0008
# 6 0.0005 -0.0001 0.0034 0.0003 0.0008 43.2692
#
#
#
# Elastic Compliance Matrix: (Units=1/GPa)
#
#
# Indices 1 2 3 4 5 6 
#
# 1 0.006893 -0.002509 -0.001801 0.000001 0.000000 0.000000
# 2 -0.002509 0.010302 -0.001748 0.000000 0.000000 0.000000
# 3 -0.001801 -0.001748 0.007782 0.000002 -0.000001 -0.000001
# 4 0.000001 0.000000 0.000002 0.044425 -0.000001 0.000000
# 5 0.000000 0.000000 -0.000001 -0.000001 0.018909 0.000000
# 6 0.000000 0.000000 -0.000001 0.000000 0.000000 0.023111
#
#
# Mechanical properties :
#
#
# Convention : Reuss Voigt Hill
#
# Bulk Modulus (GPa) = 77.76000 81.17988 79.46994
# Shear Modulus (GPa) = 39.11601 43.73969 41.42785
#
# Velocity S-wave (km/s) = 4.14525 4.38340 4.26599
# Velocity P-wave (km/s) = 7.55444 7.82816 7.69251
#
# Compressibility (1/GPa) = 0.01286008
#
# Stress axis : x y z
#
# Youngs Moduli (GPa) = 145.07832 97.06672 128.50655
#
# Poissons Ratio (x) = 0.24355 0.23143
# Poissons Ratio (y) = 0.36402 0.22466
# Poissons Ratio (z) = 0.26128 0.16970
#
# Static dielectric constant tensor:
#      x y z
#    x 5.001840 0.000020 -0.000050 
#    y 0.000020 3.520650 0.000010 
#    z -0.000050 0.000010 4.526390 
# 
# 
# High freq. dielectric constant tensor:
#      x y z
#    x 1.936640 0.000000 0.000000 
#    y 0.000000 1.826780 0.000000 
#    z 0.000000 0.000000 1.933970 
# 
# From -- ./inp_files/6626.got.cif
#   From: 2010.03.12/outbox.cif.g09.slc.cpg/sg23_4_cif.got.tgz:6626.got - 2010.04.14 02:50:06.
