data_PCOD8164236
_publ_section_title
;
Structure prediction by ZEFSAII (Michael W. Deem and Ramdas Pophale) SiO2 
 PCOD8164236
Probable space group: I 2 2 2
;
_chemical_formula_sum "Si O2"
_cell_formula_units_Z 64
_cell_length_a 13.698363
_cell_length_b 22.987829
_cell_length_c 9.337145
_cell_angle_alpha 90.000000
_cell_angle_beta 90.000000
_cell_angle_gamma 90.000000
_cell_volume 2940.226122
_symmetry_space_group_name_H-M "I 2 2 2"
_symmetry_group_IT_number 23
_symmetry_cell_setting 'orthorhombic'
loop_
_space_group_symop_operation_xyz
x,y,z
-x,-y,z
x,-y,-z
-x,y,-z
1/2+x,1/2+y,1/2+z
1/2-x,1/2-y,1/2+z
1/2+x,1/2-y,1/2-z
1/2-x,1/2+y,1/2-z
loop_
_atom_site_type_symbol
_atom_site_label
_atom_site_fract_x
_atom_site_fract_y
_atom_site_fract_z
Si Si1 0.607216 0.129688 0.034650
Si Si2 0.766672 0.954158 0.885693
Si Si3 0.538542 0.356130 0.157884
Si Si4 0.560890 0.767790 0.757269
Si Si5 0.838283 0.293194 0.292795
Si Si6 0.308823 0.759657 0.496531
Si Si7 0.606343 0.518803 0.836975
Si Si8 0.095315 0.144561 0.908877
O O1 0.670091 0.085993 0.134128
O O2 0.600145 0.190115 0.120127
O O3 0.500000 0.103342 0.000000
O O4 0.656017 0.145777 0.880078
O O5 0.852658 0.915319 0.954242
O O6 0.804031 0.987367 0.744280
O O7 0.731601 0.000000 0.000000
O O8 0.596757 0.298102 0.207039
O O9 0.611404 0.411036 0.178486
O O10 0.437680 0.363098 0.245617
O O11 0.500000 0.350298 0.000000
O O12 0.444417 0.767477 0.755315
O O13 0.601490 0.784012 0.599870
O O14 0.782914 0.244955 0.389097
O O15 0.788956 0.301703 0.134345
O O16 0.328822 0.696437 0.566467
O O17 0.500000 0.500000 0.776156
O O18 0.616387 0.500000 0.000000
O O19 0.000000 0.156807 0.000000
#
# Coordination Sequence:
#
# PCOD8164236 Si02
#       8
#     8   8   8   8   8   8   8   8
#     4  10  24  48  70  98 133 177 246 299 352 409
#     4  12  26  42  69  97 133 183 234 288 347 399
#     4  12  21  36  66  99 139 192 224 270 348 421
#     4  11  24  42  66  96 135 182 224 282 352 409
#     4  11  22  40  62  94 135 177 223 275 337 425
#     4  12  23  39  63  96 141 178 224 273 342 422
#     4  11  22  42  63  98 143 186 231 275 339 433
#     4  12  22  38  61  95 142 174 220 270 339 418
#
# _framework density 21.767033999999999
#
# number of rings (size 3 to 8) (size 9 to 14) (size 15 to 20)
#    0.000    0.625    6.250    3.000    0.000    0.250 
#    0.000    2.500    0.000    0.000    0.000    0.875 
#    0.000    0.000    0.000    0.000    0.000    0.000 
#
# Total GULP energy -396653.536405 kJ/mol
# GULP energy per Si atom -12395.423013 kJ/mol
# Density = 2.171749 g / cm^3
# Si number density = 21.767034 Si / 1000 Ang^3
#
#
#
# Elastic Constant Matrix: (Units=GPa)
#
#
# Indices 1 2 3 4 5 6 
#
# 1 100.6737 24.0864 50.1517 -0.0002 0.0000 0.0003
# 2 24.0864 86.0473 15.3178 -0.0004 0.0000 0.0000
# 3 50.1517 15.3178 137.2506 0.0018 0.0007 -0.0040
# 4 -0.0002 -0.0004 0.0018 24.4389 0.0007 -0.0017
# 5 0.0000 0.0000 0.0007 0.0007 37.0038 -0.0005
# 6 0.0003 0.0000 -0.0040 -0.0017 -0.0005 30.4600
#
#
#
# Elastic Compliance Matrix: (Units=1/GPa)
#
#
# Indices 1 2 3 4 5 6 
#
# 1 0.012772 -0.002800 -0.004355 0.000000 0.000000 -0.000001
# 2 -0.002800 0.012471 -0.000369 0.000000 0.000000 0.000000
# 3 -0.004355 -0.000369 0.008918 -0.000001 0.000000 0.000001
# 4 0.000000 0.000000 -0.000001 0.040918 -0.000001 0.000002
# 5 0.000000 0.000000 0.000000 -0.000001 0.027024 0.000000
# 6 -0.000001 0.000000 0.000001 0.000002 0.000000 0.032830
#
#
# Mechanical properties :
#
#
# Convention : Reuss Voigt Hill
#
# Bulk Modulus (GPa) = 52.31502 55.89815 54.10658
# Shear Modulus (GPa) = 31.97909 34.00825 32.99367
#
# Velocity S-wave (km/s) = 3.83711 3.95698 3.89750
# Velocity P-wave (km/s) = 6.61192 6.82736 6.72050
#
# Compressibility (1/GPa) = 0.01911497
#
# Stress axis : x y z
#
# Youngs Moduli (GPa) = 78.29475 80.18653 112.12976
#
# Poissons Ratio (x) = 0.22452 0.48827
# Poissons Ratio (y) = 0.21923 0.04134
# Poissons Ratio (z) = 0.34094 0.02956
#
# Static dielectric constant tensor:
#      x y z
#    x 4.293440 0.000000 0.000370 
#    y 0.000000 3.897360 -0.000040 
#    z 0.000370 -0.000040 3.990540 
# 
# 
# High freq. dielectric constant tensor:
#      x y z
#    x 1.850600 0.000000 0.000000 
#    y 0.000000 1.831230 0.000000 
#    z 0.000000 0.000000 1.865030 
# 
# From -- ./inp_files/10352.got.cif
#   From: 2010.03.12/outbox.cif.g09.slc.cpg/sg23_6_cif.got.tgz:10352.got - 2010.04.14 02:50:06.
