data_PCOD8164540
_publ_section_title
;
Structure prediction by ZEFSAII (Michael W. Deem and Ramdas Pophale) SiO2 
 PCOD8164540
Probable space group: I 2 2 2
;
_chemical_formula_sum "Si O2"
_cell_formula_units_Z 22
_cell_length_a 29.549863
_cell_length_b 4.877467
_cell_length_c 5.913365
_cell_angle_alpha 90.000000
_cell_angle_beta 90.000000
_cell_angle_gamma 90.000000
_cell_volume 852.284319
_symmetry_space_group_name_H-M "I 2 2 2"
_symmetry_group_IT_number 23
_symmetry_cell_setting 'orthorhombic'
loop_
_space_group_symop_operation_xyz
x,y,z
-x,-y,z
x,-y,-z
-x,y,-z
1/2+x,1/2+y,1/2+z
1/2-x,1/2-y,1/2+z
1/2+x,1/2-y,1/2-z
1/2-x,1/2+y,1/2-z
loop_
_atom_site_type_symbol
_atom_site_label
_atom_site_fract_x
_atom_site_fract_y
_atom_site_fract_z
Si Si1 0.358951 0.000000 0.500000
Si Si2 0.219549 0.368117 0.725664
Si Si3 0.069996 0.253191 0.337069
Si Si4 0.500000 0.500000 0.500000
O O1 0.324645 0.210608 0.373898
O O2 0.387688 0.170618 0.680383
O O3 0.199508 0.500000 0.500000
O O4 0.250915 0.605353 0.839631
O O5 0.054868 0.500000 0.500000
O O6 0.082583 0.000000 0.500000
O O7 0.029525 0.190129 0.164321
#
# Coordination Sequence:
#
# PCOD8164540 Si02
#       4
#     4   8   8   2
#     4  12  28  51  80 116 164 212 268 333 408 462
#     4  12  25  46  73 106 148 203 263 325 387 457
#     4  12  30  53  82 123 163 212 268 331 403 493
#     4  12  30  54  88 120 164 210 266 330 412 476
#
# _framework density 25.812982999999999
#
# number of rings (size 3 to 8) (size 9 to 14) (size 15 to 20)
#    0.000    0.000    3.636    3.818    0.000   22.545 
#    0.000    0.000    0.000    0.000    0.000    0.000 
#    0.000    0.000    0.000    0.000    0.000    0.000 
#
# Total GULP energy -136342.274113 kJ/mol
# GULP energy per Si atom -12394.752192 kJ/mol
# Density = 2.575423 g / cm^3
# Si number density = 25.812983 Si / 1000 Ang^3
#
#
#
# Elastic Constant Matrix: (Units=GPa)
#
#
# Indices 1 2 3 4 5 6 
#
# 1 200.9606 70.7874 111.3060 0.0000 0.0000 0.0000
# 2 70.7874 155.2005 84.9092 0.0000 0.0000 0.0000
# 3 111.3060 84.9092 210.1328 0.0000 0.0000 0.0000
# 4 0.0000 0.0000 0.0000 51.5642 0.0000 0.0000
# 5 0.0000 0.0000 0.0000 0.0000 57.7506 0.0000
# 6 0.0000 0.0000 0.0000 0.0000 0.0000 33.0377
#
#
#
# Elastic Compliance Matrix: (Units=1/GPa)
#
#
# Indices 1 2 3 4 5 6 
#
# 1 0.007326 -0.001564 -0.003249 0.000000 0.000000 0.000000
# 2 -0.001564 0.008606 -0.002649 0.000000 0.000000 0.000000
# 3 -0.003249 -0.002649 0.007550 0.000000 0.000000 0.000000
# 4 0.000000 0.000000 0.000000 0.019393 0.000000 0.000000
# 5 0.000000 0.000000 0.000000 0.000000 0.017316 0.000000
# 6 0.000000 0.000000 0.000000 0.000000 0.000000 0.030268
#
#
# Mechanical properties :
#
#
# Convention : Reuss Voigt Hill
#
# Bulk Modulus (GPa) = 116.83899 122.25545 119.54722
# Shear Modulus (GPa) = 46.19512 48.42326 47.30919
#
# Velocity S-wave (km/s) = 4.23497 4.33590 4.28573
# Velocity P-wave (km/s) = 8.32317 8.51654 8.42041
#
# Compressibility (1/GPa) = 0.00855879
#
# Stress axis : x y z
#
# Youngs Moduli (GPa) = 136.49155 116.19923 132.44979
#
# Poissons Ratio (x) = 0.18177 0.43029
# Poissons Ratio (y) = 0.21351 0.35084
# Poissons Ratio (z) = 0.44342 0.30779
#
# Static dielectric constant tensor:
#      x y z
#    x 4.718730 0.000000 0.000000 
#    y 0.000000 4.583660 0.000000 
#    z 0.000000 0.000000 5.407090 
# 
# 
# High freq. dielectric constant tensor:
#      x y z
#    x 2.034220 0.000000 0.000000 
#    y 0.000000 2.020890 0.000000 
#    z 0.000000 0.000000 2.086090 
# 
# From -- ./inp_files/144.got.cif
#   From: 2010.03.12/outbox.cif.g09.slc.cpg/sg23_1_cif.got.tgz:144.got - 2010.04.14 02:50:06.
