data_PCOD8164899
_publ_section_title
;
Structure prediction by ZEFSAII (Michael W. Deem and Ramdas Pophale) SiO2 
 PCOD8164899
Probable space group: I 21 21 21
;
_chemical_formula_sum "Si O2"
_cell_formula_units_Z 56
_cell_length_a 14.265506
_cell_length_b 22.595950
_cell_length_c 8.900982
_cell_angle_alpha 90.000000
_cell_angle_beta 90.000000
_cell_angle_gamma 90.000000
_cell_volume 2869.166217
_symmetry_space_group_name_H-M "I 21 21 21"
_symmetry_group_IT_number 24
_symmetry_cell_setting 'orthorhombic'
loop_
_space_group_symop_operation_xyz
x,y,z
-x,1/2-y,z
x,-y,1/2-z
1/2-x,y,-z
1/2+x,1/2+y,1/2+z
1/2-x,-y,1/2+z
1/2+x,1/2-y,-z
-x,1/2+y,1/2-z
loop_
_atom_site_type_symbol
_atom_site_label
_atom_site_fract_x
_atom_site_fract_y
_atom_site_fract_z
Si Si1 0.542586 0.382612 0.076397
Si Si2 0.346716 0.781116 0.566368
Si Si3 0.841071 0.841479 0.924138
Si Si4 0.954836 0.617792 0.925128
Si Si5 0.351367 0.999784 0.427088
Si Si6 0.897295 0.729130 0.103724
Si Si7 0.343117 0.654540 0.424758
O O1 0.565294 0.370074 0.250213
O O2 0.594740 0.441102 0.017767
O O3 0.430347 0.390172 0.053876
O O4 0.572202 0.326545 0.977955
O O5 0.250000 0.806386 0.500000
O O6 0.336433 0.777594 0.745998
O O7 0.369042 0.716789 0.500539
O O8 0.821983 0.834089 0.748825
O O9 0.933535 0.880489 0.957384
O O10 0.750000 0.872496 0.000000
O O11 0.851117 0.776120 0.992436
O O12 0.915461 0.554700 0.978123
O O13 0.899471 0.666959 0.018014
O O14 0.250000 0.003569 0.500000
O O15 0.338033 0.000000 0.250000
O O16 0.000000 0.750000 0.153154
O O17 0.250000 0.626557 0.500000
#
# Coordination Sequence:
#
# PCOD8164899 Si02
#       7
#     8   8   8   8   8   8   8
#     4  10  20  37  56  76 108 142 177 220 265 314
#     4  11  21  32  51  81 112 142 177 217 266 317
#     4  10  19  34  55  79 109 140 175 218 265 317
#     4   9  21  37  55  78 105 142 180 219 266 314
#     4  10  22  40  59  79 104 138 178 218 261 310
#     4  10  20  34  53  79 110 143 179 220 266 316
#     4  10  20  34  54  80 108 141 176 214 265 320
#
# _framework density 19.517865
#
# number of rings (size 3 to 8) (size 9 to 14) (size 15 to 20)
#    0.000    2.000    0.000    4.286    0.000    7.429 
#    0.000    0.714    0.000    0.000    0.000    0.000 
#    0.000    0.000    0.000    0.000    0.000    0.000 
#
# Total GULP energy -347246.158120 kJ/mol
# GULP energy per Si atom -12401.648504 kJ/mol
# Density = 1.947344 g / cm^3
# Si number density = 19.517865 Si / 1000 Ang^3
#
#
#
# Elastic Constant Matrix: (Units=GPa)
#
#
# Indices 1 2 3 4 5 6 
#
# 1 139.8364 54.8148 56.6151 0.0000 -0.0001 0.0000
# 2 54.8148 88.5756 35.1054 0.0001 0.0000 0.0000
# 3 56.6151 35.1054 103.2296 0.0011 0.0003 0.0001
# 4 0.0000 0.0001 0.0011 17.9378 0.0000 0.0001
# 5 -0.0001 0.0000 0.0003 0.0000 38.5476 0.0000
# 6 0.0000 0.0000 0.0001 0.0001 0.0000 30.8608
#
#
#
# Elastic Compliance Matrix: (Units=1/GPa)
#
#
# Indices 1 2 3 4 5 6 
#
# 1 0.010836 -0.005028 -0.004233 0.000000 0.000000 0.000000
# 2 -0.005028 0.015382 -0.002473 0.000000 0.000000 0.000000
# 3 -0.004233 -0.002473 0.012850 -0.000001 0.000000 0.000000
# 4 0.000000 0.000000 -0.000001 0.055748 0.000000 0.000000
# 5 0.000000 0.000000 0.000000 0.000000 0.025942 0.000000
# 6 0.000000 0.000000 0.000000 0.000000 0.000000 0.032404
#
#
# Mechanical properties :
#
#
# Convention : Reuss Voigt Hill
#
# Bulk Modulus (GPa) = 64.10780 69.41247 66.76013
# Shear Modulus (GPa) = 27.49830 29.80966 28.65398
#
# Velocity S-wave (km/s) = 3.75757 3.91231 3.83572
# Velocity P-wave (km/s) = 7.19325 7.48659 7.34138
#
# Compressibility (1/GPa) = 0.01559873
#
# Stress axis : x y z
#
# Youngs Moduli (GPa) = 92.28495 65.01236 77.82271
#
# Poissons Ratio (x) = 0.32689 0.32942
# Poissons Ratio (y) = 0.46403 0.19247
# Poissons Ratio (z) = 0.39064 0.16079
#
# Static dielectric constant tensor:
#      x y z
#    x 3.814050 0.000000 0.000000 
#    y 0.000000 3.371780 0.000000 
#    z 0.000000 0.000000 3.553810 
# 
# 
# High freq. dielectric constant tensor:
#      x y z
#    x 1.776010 0.000000 0.000000 
#    y 0.000000 1.732330 0.000000 
#    z 0.000000 0.000000 1.764280 
# 
# From -- ./inp_files/13116.got.cif
#   From: 2010.03.12/outbox.cif.g09.slc.cpg/sg24_7_cif.got.tgz:13116.got - 2010.04.14 03:06:53.
