data_PCOD8164860
_publ_section_title
;
Structure prediction by ZEFSAII (Michael W. Deem and Ramdas Pophale) SiO2 
 PCOD8164860
Probable space group: I 21 21 21
;
_chemical_formula_sum "Si O2"
_cell_formula_units_Z 56
_cell_length_a 14.342174
_cell_length_b 22.573014
_cell_length_c 8.735878
_cell_angle_alpha 90.000000
_cell_angle_beta 90.000000
_cell_angle_gamma 90.000000
_cell_volume 2828.206384
_symmetry_space_group_name_H-M "I 21 21 21"
_symmetry_group_IT_number 24
_symmetry_cell_setting 'orthorhombic'
loop_
_space_group_symop_operation_xyz
x,y,z
-x,1/2-y,z
x,-y,1/2-z
1/2-x,y,-z
1/2+x,1/2+y,1/2+z
1/2-x,-y,1/2+z
1/2+x,1/2-y,-z
-x,1/2+y,1/2-z
loop_
_atom_site_type_symbol
_atom_site_label
_atom_site_fract_x
_atom_site_fract_y
_atom_site_fract_z
Si Si1 0.652027 0.846465 0.430607
Si Si2 0.973964 0.389696 0.071488
Si Si3 0.526032 0.610301 0.928503
Si Si4 0.147874 0.000000 0.069069
Si Si5 0.652025 0.846462 0.069393
Si Si6 0.653906 0.279702 0.929452
Si Si7 0.346096 0.220296 0.570546
O O1 0.750000 0.868255 0.500000
O O2 0.571454 0.892119 0.480775
O O3 0.661127 0.844355 0.250000
O O4 0.624806 0.781752 0.493185
O O5 0.995397 0.397523 0.249994
O O6 0.908030 0.442328 0.011681
O O7 0.925233 0.327338 0.036162
O O8 0.591955 0.557665 0.988310
O O9 0.574768 0.672658 0.963835
O O10 0.428541 0.607882 0.019214
O O11 0.158745 0.000000 0.250000
O O12 0.250000 0.999994 0.000000
O O13 0.750000 0.868248 0.000000
O O14 0.624799 0.781748 0.006825
O O15 0.667498 0.268699 0.749998
O O16 0.750000 0.303968 0.000000
O O17 0.250000 0.196030 0.500000
#
# Coordination Sequence:
#
# PCOD8164860 Si02
#       7
#     8   8   8   8   8   8   8
#     4  11  22  36  56  81 110 143 181 226 274 327
#     4  10  21  37  56  80 111 147 184 224 271 319
#     4  10  21  37  56  80 111 147 184 224 271 319
#     4  10  22  40  61  84 113 146 181 224 268 316
#     4  11  22  36  56  81 110 143 181 226 274 327
#     4  10  19  32  53  81 114 147 180 222 271 324
#     4  10  19  32  53  81 114 147 180 222 271 324
#
# _framework density 19.800533999999999
#
# number of rings (size 3 to 8) (size 9 to 14) (size 15 to 20)
#    0.000    1.714    0.000    6.857    0.000    6.857 
#    0.000    0.714    0.000    0.000    0.000    0.000 
#    0.000    0.000    0.000    0.000    0.000    0.000 
#
# Total GULP energy -347298.219586 kJ/mol
# GULP energy per Si atom -12403.507842 kJ/mol
# Density = 1.975547 g / cm^3
# Si number density = 19.800534 Si / 1000 Ang^3
#
#
#
# Elastic Constant Matrix: (Units=GPa)
#
#
# Indices 1 2 3 4 5 6 
#
# 1 175.5096 74.6507 71.3825 0.0002 0.0001 0.0000
# 2 74.6507 74.5160 44.1116 0.0002 0.0002 0.0000
# 3 71.3825 44.1116 112.0740 0.0003 0.0007 0.0000
# 4 0.0002 0.0002 0.0003 20.6514 0.0003 -0.0001
# 5 0.0001 0.0002 0.0007 0.0003 39.8266 -0.0001
# 6 0.0000 0.0000 0.0000 -0.0001 -0.0001 30.9361
#
#
#
# Elastic Compliance Matrix: (Units=1/GPa)
#
#
# Indices 1 2 3 4 5 6 
#
# 1 0.010855 -0.008842 -0.003434 0.000000 0.000000 0.000000
# 2 -0.008842 0.024699 -0.004090 0.000000 0.000000 0.000000
# 3 -0.003434 -0.004090 0.012719 0.000000 0.000000 0.000000
# 4 0.000000 0.000000 0.000000 0.048423 0.000000 0.000000
# 5 0.000000 0.000000 0.000000 0.000000 0.025109 0.000000
# 6 0.000000 0.000000 0.000000 0.000000 0.000000 0.032325
#
#
# Mechanical properties :
#
#
# Convention : Reuss Voigt Hill
#
# Bulk Modulus (GPa) = 64.33925 82.48767 73.41346
# Shear Modulus (GPa) = 26.03606 29.74648 27.89127
#
# Velocity S-wave (km/s) = 3.63011 3.88017 3.75722
# Velocity P-wave (km/s) = 7.08057 7.86282 7.48193
#
# Compressibility (1/GPa) = 0.01554261
#
# Stress axis : x y z
#
# Youngs Moduli (GPa) = 92.12285 40.48760 78.62060
#
# Poissons Ratio (x) = 0.35799 0.26996
# Poissons Ratio (y) = 0.81455 0.32153
# Poissons Ratio (z) = 0.31632 0.16558
#
# Static dielectric constant tensor:
#      x y z
#    x 3.711630 0.000000 0.000000 
#    y 0.000000 3.538700 0.000000 
#    z 0.000000 0.000000 3.578800 
# 
# 
# High freq. dielectric constant tensor:
#      x y z
#    x 1.789000 0.000000 0.000000 
#    y 0.000000 1.751840 0.000000 
#    z 0.000000 0.000000 1.772700 
# 
# From -- ./inp_files/13150.got.cif
#   From: 2010.03.12/outbox.cif.g09.slc.cpg/sg24_7_cif.got.tgz:13150.got - 2010.04.14 03:06:53.
