data_PCOD8164501
_publ_section_title
;
Structure prediction by ZEFSAII (Michael W. Deem and Ramdas Pophale) SiO2 
 PCOD8164501
Probable space group: I 2 2 2
;
_chemical_formula_sum "Si O2"
_cell_formula_units_Z 60
_cell_length_a 9.444333
_cell_length_b 11.814370
_cell_length_c 32.504412
_cell_angle_alpha 90.000000
_cell_angle_beta 90.000000
_cell_angle_gamma 90.000000
_cell_volume 3626.804731
_symmetry_space_group_name_H-M "I 2 2 2"
_symmetry_group_IT_number 23
_symmetry_cell_setting 'orthorhombic'
loop_
_space_group_symop_operation_xyz
x,y,z
-x,-y,z
x,-y,-z
-x,y,-z
1/2+x,1/2+y,1/2+z
1/2-x,1/2-y,1/2+z
1/2+x,1/2-y,1/2-z
1/2-x,1/2+y,1/2-z
loop_
_atom_site_type_symbol
_atom_site_label
_atom_site_fract_x
_atom_site_fract_y
_atom_site_fract_z
Si Si1 0.499995 0.130853 0.263960
Si Si2 0.734463 0.130121 0.676019
Si Si3 0.999977 0.291150 0.328173
Si Si4 0.265556 0.130112 0.676028
Si Si5 0.500004 0.678148 0.453111
Si Si6 0.500000 0.000000 0.109016
Si Si7 0.237287 0.999987 0.047700
Si Si8 0.499977 0.876142 0.608988
O O1 0.356351 0.178616 0.285071
O O2 0.499938 0.148697 0.215777
O O3 0.643693 0.178600 0.285047
O O4 0.500000 0.000000 0.276265
O O5 0.639600 0.139933 0.635804
O O6 0.865205 0.211486 0.668074
O O7 0.785037 0.000004 0.683367
O O8 0.865162 0.211484 0.331945
O O9 0.000000 0.387620 0.362964
O O10 0.360527 0.139914 0.635837
O O11 0.500000 0.714672 0.500000
O O12 0.641629 0.608896 0.443003
O O13 0.358434 0.608831 0.443003
O O14 0.499947 0.791287 0.428018
O O15 0.365314 0.000006 0.079421
O O16 0.289420 0.000000 0.000000
O O17 0.500000 0.000000 0.588956
#
# Coordination Sequence:
#
# PCOD8164501 Si02
#       8
#     8   8   8   8   8   4   8   8
#     4   9  18  35  49  68  93 123 157 198 246 283
#     4   9  19  33  52  66  91 130 161 191 233 290
#     4  12  20  31  47  74  97 117 160 205 238 275
#     4   9  19  33  52  66  91 130 161 191 233 290
#     4   9  17  32  54  74  95 125 162 199 231 280
#     4  12  23  30  48  76 104 126 150 206 247 274
#     4   9  19  35  51  69  97 133 163 187 233 294
#     4   9  17  32  49  72  97 124 156 192 240 284
#
# _framework density 16.543488
#
# number of rings (size 3 to 8) (size 9 to 14) (size 15 to 20)
#    0.000    2.400    0.667    5.400    0.000    0.267 
#    0.000    0.000    0.000    0.000    0.000    0.000 
#    0.000   19.200    0.000    0.000    0.000    0.000 
#
# Total GULP energy -371856.011343 kJ/mol
# GULP energy per Si atom -12395.200378 kJ/mol
# Density = 1.650583 g / cm^3
# Si number density = 16.543488 Si / 1000 Ang^3
#
#
#
# Elastic Constant Matrix: (Units=GPa)
#
#
# Indices 1 2 3 4 5 6 
#
# 1 130.1140 65.7581 68.5723 0.0000 0.0000 0.0000
# 2 65.7581 95.3947 70.0690 0.0000 0.0000 0.0000
# 3 68.5723 70.0690 118.7292 0.0000 0.0000 0.0000
# 4 0.0000 0.0000 0.0000 31.7494 0.0000 0.0000
# 5 0.0000 0.0000 0.0000 0.0000 11.5458 0.0000
# 6 0.0000 0.0000 0.0000 0.0000 0.0000 16.3728
#
#
#
# Elastic Compliance Matrix: (Units=1/GPa)
#
#
# Indices 1 2 3 4 5 6 
#
# 1 0.012710 -0.005948 -0.003831 0.000000 0.000000 0.000000
# 2 -0.005948 0.021287 -0.009128 0.000000 0.000000 0.000000
# 3 -0.003831 -0.009128 0.016022 0.000000 0.000000 0.000000
# 4 0.000000 0.000000 0.000000 0.031497 0.000000 0.000000
# 5 0.000000 0.000000 0.000000 0.000000 0.086611 0.000000
# 6 0.000000 0.000000 0.000000 0.000000 0.000000 0.061077
#
#
# Mechanical properties :
#
#
# Convention : Reuss Voigt Hill
#
# Bulk Modulus (GPa) = 81.92106 83.67073 82.79590
# Shear Modulus (GPa) = 18.44435 21.25617 19.85026
#
# Velocity S-wave (km/s) = 3.34264 3.58839 3.46769
# Velocity P-wave (km/s) = 8.03267 8.23740 8.13568
#
# Compressibility (1/GPa) = 0.01220687
#
# Stress axis : x y z
#
# Youngs Moduli (GPa) = 78.67549 46.97668 62.41548
#
# Poissons Ratio (x) = 0.27941 0.23910
# Poissons Ratio (y) = 0.46795 0.56970
# Poissons Ratio (z) = 0.30138 0.42878
#
# Static dielectric constant tensor:
#      x y z
#    x 3.155880 0.000000 0.000000 
#    y 0.000000 3.072130 0.000000 
#    z 0.000000 0.000000 3.028230 
# 
# 
# High freq. dielectric constant tensor:
#      x y z
#    x 1.643110 0.000000 0.000000 
#    y 0.000000 1.635000 0.000000 
#    z 0.000000 0.000000 1.636970 
# 
# From -- ./inp_files/30328.got.cif
#   From: 2010.03.12/outbox.cif.g09.slc.cpg/sg23_16_cif.got.tgz:30328.got - 2010.04.14 02:50:06.
