data_PCOD8164542
_publ_section_title
;
Structure prediction by ZEFSAII (Michael W. Deem and Ramdas Pophale) SiO2 
 PCOD8164542
Probable space group: I 2 2 2
;
_chemical_formula_sum "Si O2"
_cell_formula_units_Z 30
_cell_length_a 10.923189
_cell_length_b 22.059471
_cell_length_c 5.362609
_cell_angle_alpha 90.000000
_cell_angle_beta 90.000000
_cell_angle_gamma 90.000000
_cell_volume 1292.173036
_symmetry_space_group_name_H-M "I 2 2 2"
_symmetry_group_IT_number 23
_symmetry_cell_setting 'orthorhombic'
loop_
_space_group_symop_operation_xyz
x,y,z
-x,-y,z
x,-y,-z
-x,y,-z
1/2+x,1/2+y,1/2+z
1/2-x,1/2-y,1/2+z
1/2+x,1/2-y,1/2-z
1/2-x,1/2+y,1/2-z
loop_
_atom_site_type_symbol
_atom_site_label
_atom_site_fract_x
_atom_site_fract_y
_atom_site_fract_z
Si Si1 0.500000 0.163480 0.000000
Si Si2 0.174531 0.561010 0.341338
Si Si3 0.000000 0.500000 0.000000
Si Si4 0.428384 0.612204 0.253169
Si Si5 0.331399 0.745378 0.240927
O O1 0.378864 0.122618 0.040852
O O2 0.555393 0.206841 0.218120
O O3 0.167589 0.500000 0.500000
O O4 0.309057 0.570756 0.238724
O O5 0.083105 0.550009 0.121725
O O6 0.500000 0.591213 0.500000
O O7 0.396686 0.681932 0.280542
O O8 0.500000 0.598131 0.000000
O O9 0.248009 0.758579 0.484001
#
# Coordination Sequence:
#
# PCOD8164542 Si02
#       5
#     4   8   2   8   8
#     4  12  25  46  78 112 156 197 260 326 388 464
#     4  12  28  50  76 113 151 207 265 323 390 457
#     4  12  26  48  82 106 148 196 274 326 388 448
#     4  12  29  52  77 113 158 206 259 314 389 476
#     4  12  27  45  76 115 158 201 250 316 395 464
#
# _framework density 23.216702999999999
#
# number of rings (size 3 to 8) (size 9 to 14) (size 15 to 20)
#    0.000    0.000    6.667    1.600    7.467    0.533 
#    0.000    0.000    0.000    0.000    0.000    0.000 
#    0.000    0.000    0.000    0.000    0.000    0.000 
#
# Total GULP energy -185831.103483 kJ/mol
# GULP energy per Si atom -12388.740232 kJ/mol
# Density = 2.316386 g / cm^3
# Si number density = 23.216703 Si / 1000 Ang^3
#
#
#
# Elastic Constant Matrix: (Units=GPa)
#
#
# Indices 1 2 3 4 5 6 
#
# 1 172.1443 51.1584 63.5125 0.0506 -0.0090 0.3358
# 2 51.1584 100.9848 18.9260 0.5210 -0.0335 1.2925
# 3 63.5125 18.9260 133.7403 0.5861 -0.0621 1.3471
# 4 0.0506 0.5210 0.5861 21.2901 0.0382 2.3423
# 5 -0.0090 -0.0335 -0.0621 0.0382 50.0727 0.1486
# 6 0.3358 1.2925 1.3471 2.3423 0.1486 77.8663
#
#
#
# Elastic Compliance Matrix: (Units=1/GPa)
#
#
# Indices 1 2 3 4 5 6 
#
# 1 0.008072 -0.003464 -0.003345 0.000149 -0.000005 0.000076
# 2 -0.003464 0.011661 -0.000002 -0.000258 0.000008 -0.000171
# 3 -0.003345 -0.000002 0.009068 -0.000227 0.000011 -0.000136
# 4 0.000149 -0.000258 -0.000227 0.047138 -0.000032 -0.001410
# 5 -0.000005 0.000008 0.000011 -0.000032 0.019971 -0.000037
# 6 0.000076 -0.000171 -0.000136 -0.001410 -0.000037 0.012890
#
#
# Mechanical properties :
#
#
# Convention : Reuss Voigt Hill
#
# Bulk Modulus (GPa) = 65.87794 74.89590 70.38692
# Shear Modulus (GPa) = 39.22086 48.06398 43.64242
#
# Velocity S-wave (km/s) = 4.11461 4.55492 4.34035
# Velocity P-wave (km/s) = 7.14215 7.74549 7.44993
#
# Compressibility (1/GPa) = 0.01517959
#
# Stress axis : x y z
#
# Youngs Moduli (GPa) = 123.87760 85.75267 110.27481
#
# Poissons Ratio (x) = 0.29708 0.36884
# Poissons Ratio (y) = 0.42916 0.00024
# Poissons Ratio (z) = 0.41434 0.00019
#
# Static dielectric constant tensor:
#      x y z
#    x 4.502600 0.000000 0.003070 
#    y 0.000000 4.061360 0.001570 
#    z 0.003070 0.001570 2.710010 
# 
# 
# High freq. dielectric constant tensor:
#      x y z
#    x 1.942410 0.000000 0.000000 
#    y 0.000000 1.937880 -0.000010 
#    z 0.000000 -0.000010 1.912070 
# 
# From -- ./inp_files/1270.got.cif
#   From: 2010.03.12/outbox.cif.g09.slc.cpg/sg23_1_cif.got.tgz:1270.got - 2010.04.14 02:50:06.
