data_PCOD8164469
_publ_section_title
;
Structure prediction by ZEFSAII (Michael W. Deem and Ramdas Pophale) SiO2 
 PCOD8164469
Probable space group: I 2 2 2
;
_chemical_formula_sum "Si O2"
_cell_formula_units_Z 34
_cell_length_a 8.851705
_cell_length_b 20.436325
_cell_length_c 8.813905
_cell_angle_alpha 90.000000
_cell_angle_beta 90.000000
_cell_angle_gamma 90.000000
_cell_volume 1594.402981
_symmetry_space_group_name_H-M "I 2 2 2"
_symmetry_group_IT_number 23
_symmetry_cell_setting 'orthorhombic'
loop_
_space_group_symop_operation_xyz
x,y,z
-x,-y,z
x,-y,-z
-x,y,-z
1/2+x,1/2+y,1/2+z
1/2-x,1/2-y,1/2+z
1/2+x,1/2-y,1/2-z
1/2-x,1/2+y,1/2-z
loop_
_atom_site_type_symbol
_atom_site_label
_atom_site_fract_x
_atom_site_fract_y
_atom_site_fract_z
Si Si1 0.668910 0.327089 0.191527
Si Si2 0.666985 0.796349 0.011813
Si Si3 0.639366 0.612505 0.305363
Si Si4 0.500000 0.500000 0.500000
Si Si5 0.172565 0.576770 0.987496
O O1 0.658831 0.276869 0.052704
O O2 0.774854 0.292395 0.315957
O O3 0.505575 0.346774 0.252225
O O4 0.742278 0.393786 0.131967
O O5 0.781885 0.842596 0.927470
O O6 0.500000 0.827625 0.000000
O O7 0.601181 0.544568 0.389105
O O8 0.753562 0.600084 0.168469
O O9 0.188105 0.500000 0.000000
O O10 0.000000 0.600414 0.000000
#
# Coordination Sequence:
#
# PCOD8164469 Si02
#       5
#     8   8   8   2   8
#     4  12  24  45  69 105 138 193 237 299 369 439
#     4  12  25  42  69 102 141 180 237 301 369 429
#     4  12  25  46  72 103 143 194 247 297 361 445
#     4  12  24  48  76 108 148 200 258 296 360 448
#     4  11  25  44  69 101 140 186 241 301 364 427
#
# _framework density 21.324596
#
# number of rings (size 3 to 8) (size 9 to 14) (size 15 to 20)
#    0.000    0.235    2.353    7.765    0.000    2.824 
#    0.000    0.000    0.000    0.000    0.000    0.000 
#    0.000    0.000    0.000    0.000    0.000    0.000 
#
# Total GULP energy -210889.630398 kJ/mol
# GULP energy per Si atom -12405.272376 kJ/mol
# Density = 2.127606 g / cm^3
# Si number density = 21.324596 Si / 1000 Ang^3
#
#
#
# Elastic Constant Matrix: (Units=GPa)
#
#
# Indices 1 2 3 4 5 6 
#
# 1 146.7118 52.7189 57.5339 -0.0025 -0.0003 0.0090
# 2 52.7189 102.1353 41.2918 -0.0007 -0.0004 0.0020
# 3 57.5339 41.2918 127.8040 -0.0010 0.0010 0.0163
# 4 -0.0025 -0.0007 -0.0010 60.0553 0.0001 0.0010
# 5 -0.0003 -0.0004 0.0010 0.0001 54.5804 -0.0018
# 6 0.0090 0.0020 0.0163 0.0010 -0.0018 11.9488
#
#
#
# Elastic Compliance Matrix: (Units=1/GPa)
#
#
# Indices 1 2 3 4 5 6 
#
# 1 0.009286 -0.003569 -0.003027 0.000000 0.000000 -0.000002
# 2 -0.003569 0.012634 -0.002475 0.000000 0.000000 0.000004
# 3 -0.003027 -0.002475 0.009987 0.000000 0.000000 -0.000011
# 4 0.000000 0.000000 0.000000 0.016651 0.000000 -0.000001
# 5 0.000000 0.000000 0.000000 0.000000 0.018322 0.000003
# 6 -0.000002 0.000004 -0.000011 -0.000001 0.000003 0.083690
#
#
# Mechanical properties :
#
#
# Convention : Reuss Voigt Hill
#
# Bulk Modulus (GPa) = 72.65424 75.52670 74.09047
# Shear Modulus (GPa) = 28.85170 40.32401 34.58786
#
# Velocity S-wave (km/s) = 3.68227 4.35324 4.03174
# Velocity P-wave (km/s) = 7.22658 7.79501 7.51617
#
# Compressibility (1/GPa) = 0.01376382
#
# Stress axis : x y z
#
# Youngs Moduli (GPa) = 107.69261 79.15224 100.13199
#
# Poissons Ratio (x) = 0.28251 0.30310
# Poissons Ratio (y) = 0.38438 0.24783
# Poissons Ratio (z) = 0.32599 0.19591
#
# Static dielectric constant tensor:
#      x y z
#    x 3.939050 0.000000 -0.000080 
#    y 0.000000 3.915570 0.000010 
#    z -0.000080 0.000010 4.354110 
# 
# 
# High freq. dielectric constant tensor:
#      x y z
#    x 1.853790 0.000000 0.000000 
#    y 0.000000 1.846340 0.000000 
#    z 0.000000 0.000000 1.855540 
# 
# From -- ./inp_files/6699.got.cif
#   From: 2010.03.12/outbox.cif.g09.slc.cpg/sg23_4_cif.got.tgz:6699.got - 2010.04.14 02:50:06.
