data_PCOD8164922
_publ_section_title
;
Structure prediction by ZEFSAII (Michael W. Deem and Ramdas Pophale) SiO2 
 PCOD8164922
Probable space group: I 21 21 21
;
_chemical_formula_sum "Si O2"
_cell_formula_units_Z 48
_cell_length_a 13.701841
_cell_length_b 16.404414
_cell_length_c 9.878725
_cell_angle_alpha 90.000000
_cell_angle_beta 90.000000
_cell_angle_gamma 90.000000
_cell_volume 2220.447660
_symmetry_space_group_name_H-M "I 21 21 21"
_symmetry_group_IT_number 24
_symmetry_cell_setting 'orthorhombic'
loop_
_space_group_symop_operation_xyz
x,y,z
-x,1/2-y,z
x,-y,1/2-z
1/2-x,y,-z
1/2+x,1/2+y,1/2+z
1/2-x,-y,1/2+z
1/2+x,1/2-y,-z
-x,1/2+y,1/2-z
loop_
_atom_site_type_symbol
_atom_site_label
_atom_site_fract_x
_atom_site_fract_y
_atom_site_fract_z
Si Si1 0.492563 0.598224 0.032521
Si Si2 0.819258 0.311088 0.616058
Si Si3 0.299927 0.379012 0.370035
Si Si4 0.555952 0.550445 0.619557
Si Si5 0.108450 0.354062 0.249708
Si Si6 0.304886 0.803729 0.631280
O O1 0.543601 0.511888 0.003763
O O2 0.444735 0.639506 0.896558
O O3 0.571300 0.657023 0.099617
O O4 0.407411 0.581439 0.145460
O O5 0.750000 0.349700 0.500000
O O6 0.822751 0.214959 0.599775
O O7 0.775667 0.334402 0.761987
O O8 0.250000 0.420090 0.500000
O O9 0.220955 0.388697 0.249447
O O10 0.591133 0.500000 0.750000
O O11 0.450859 0.592777 0.643054
O O12 0.634902 0.618024 0.581221
O O13 0.118940 0.259926 0.200790
O O14 0.250000 0.766130 0.500000
#
# Coordination Sequence:
#
# PCOD8164922 Si02
#       6
#     8   8   8   8   8   8
#     4  10  19  34  60  93 118 147 200 260 307 348
#     4  10  19  34  62  91 116 155 206 255 293 346
#     4   8  16  30  55  85 111 142 192 255 297 335
#     4  10  21  36  60  87 118 162 199 241 303 369
#     4   9  19  39  61  83 115 160 207 246 297 363
#     4  11  24  41  61  89 126 164 201 245 303 371
#
# _framework density 21.617262
#
# number of rings (size 3 to 8) (size 9 to 14) (size 15 to 20)
#    0.000    2.333    0.000    4.000    0.000    7.333 
#    0.000   12.500    0.000    4.000    0.000    0.000 
#    0.000    0.000    0.000    0.000    0.000    0.000 
#
# Total GULP energy -297379.700054 kJ/mol
# GULP energy per Si atom -12390.820836 kJ/mol
# Density = 2.156806 g / cm^3
# Si number density = 21.617262 Si / 1000 Ang^3
#
#
#
# Elastic Constant Matrix: (Units=GPa)
#
#
# Indices 1 2 3 4 5 6 
#
# 1 90.9121 6.5540 35.5258 0.0000 0.0000 0.0000
# 2 6.5540 60.8637 16.9248 0.0000 0.0000 0.0000
# 3 35.5258 16.9248 73.4250 0.0000 0.0000 0.0000
# 4 0.0000 0.0000 0.0000 19.4070 0.0000 0.0000
# 5 0.0000 0.0000 0.0000 0.0000 25.8992 0.0000
# 6 0.0000 0.0000 0.0000 0.0000 0.0000 22.1761
#
#
#
# Elastic Compliance Matrix: (Units=1/GPa)
#
#
# Indices 1 2 3 4 5 6 
#
# 1 0.013573 0.000390 -0.006657 0.000000 0.000000 0.000000
# 2 0.000390 0.017567 -0.004238 0.000000 0.000000 0.000000
# 3 -0.006657 -0.004238 0.017817 0.000000 0.000000 0.000000
# 4 0.000000 0.000000 0.000000 0.051528 0.000000 0.000000
# 5 0.000000 0.000000 0.000000 0.000000 0.038611 0.000000
# 6 0.000000 0.000000 0.000000 0.000000 0.000000 0.045094
#
#
# Mechanical properties :
#
#
# Convention : Reuss Voigt Hill
#
# Bulk Modulus (GPa) = 35.78265 38.13444 36.95854
# Shear Modulus (GPa) = 23.30845 24.57621 23.94233
#
# Velocity S-wave (km/s) = 3.28721 3.37542 3.33161
# Velocity P-wave (km/s) = 5.56744 5.73326 5.65096
#
# Compressibility (1/GPa) = 0.02794651
#
# Stress axis : x y z
#
# Youngs Moduli (GPa) = 73.67650 56.92623 56.12623
#
# Poissons Ratio (x) = -0.02217 0.37362
# Poissons Ratio (y) = -0.02870 0.23784
# Poissons Ratio (z) = 0.49045 0.24123
#
# Static dielectric constant tensor:
#      x y z
#    x 4.175620 0.000000 0.000000 
#    y 0.000000 3.725450 0.000000 
#    z 0.000000 0.000000 3.536810 
# 
# 
# High freq. dielectric constant tensor:
#      x y z
#    x 1.865260 0.000000 0.000000 
#    y 0.000000 1.832240 0.000000 
#    z 0.000000 0.000000 1.807520 
# 
# From -- ./inp_files/19690.got.cif
#   From: 2010.03.12/outbox.cif.g09.slc.cpg/sg24_10_cif.got.tgz:19690.got - 2010.04.14 03:06:53.
