data_PCOD8164312
_publ_section_title
;
Structure prediction by ZEFSAII (Michael W. Deem and Ramdas Pophale) SiO2 
 PCOD8164312
Probable space group: I 2 2 2
;
_chemical_formula_sum "Si O2"
_cell_formula_units_Z 56
_cell_length_a 20.573844
_cell_length_b 8.758515
_cell_length_c 15.318478
_cell_angle_alpha 90.000000
_cell_angle_beta 90.000000
_cell_angle_gamma 90.000000
_cell_volume 2760.333383
_symmetry_space_group_name_H-M "I 2 2 2"
_symmetry_group_IT_number 23
_symmetry_cell_setting 'orthorhombic'
loop_
_space_group_symop_operation_xyz
x,y,z
-x,-y,z
x,-y,-z
-x,y,-z
1/2+x,1/2+y,1/2+z
1/2-x,1/2-y,1/2+z
1/2+x,1/2-y,1/2-z
1/2-x,1/2+y,1/2-z
loop_
_atom_site_type_symbol
_atom_site_label
_atom_site_fract_x
_atom_site_fract_y
_atom_site_fract_z
Si Si1 0.926788 0.180899 0.823132
Si Si2 0.864597 0.817955 1.000000
Si Si3 0.500001 0.834625 0.097646
Si Si4 0.129896 0.178556 0.354289
Si Si5 0.129898 0.821442 0.354288
Si Si6 0.782887 0.319712 0.500000
Si Si7 0.426788 0.680898 0.676867
O O1 0.873433 0.224862 0.748740
O O2 1.000000 0.245241 0.802431
O O3 0.931695 0.000000 0.828920
O O4 0.901389 0.247813 0.914897
O O5 0.790700 0.759446 0.999998
O O6 0.901391 0.752188 0.914898
O O7 0.865974 0.000000 0.000000
O O8 0.439638 0.725571 0.111633
O O9 0.560366 0.725579 0.111628
O O10 0.500000 0.000000 0.149788
O O11 0.500000 0.888810 0.000000
O O12 0.184963 0.263653 0.409682
O O13 0.141382 1.000000 0.367559
O O14 0.184968 0.736348 0.409678
O O15 0.126566 0.775138 0.251260
O O16 0.787580 0.500000 0.500000
#
# Coordination Sequence:
#
# PCOD8164312 Si02
#       7
#     8   8   8   8   8   8   8
#     4   9  17  32  56  86 110 137 184 236 282 324
#     4   9  19  35  55  78 113 150 185 231 276 325
#     4  11  21  33  53  82 114 147 181 224 280 334
#     4  11  21  34  56  85 113 144 183 229 276 327
#     4  11  21  34  56  85 113 144 183 229 276 327
#     4  11  23  37  52  80 116 155 189 218 271 337
#     4   9  17  32  56  86 110 137 184 236 282 324
#
# _framework density 20.287403999999999
#
# number of rings (size 3 to 8) (size 9 to 14) (size 15 to 20)
#    0.000    1.857    2.857    2.143    0.000    3.429 
#    0.000    0.000    0.000    5.143    0.000    1.000 
#    0.000    0.000    0.000    0.000    0.000    0.000 
#
# Total GULP energy -346894.245134 kJ/mol
# GULP energy per Si atom -12389.080183 kJ/mol
# Density = 2.024123 g / cm^3
# Si number density = 20.287404 Si / 1000 Ang^3
#
#
#
# Elastic Constant Matrix: (Units=GPa)
#
#
# Indices 1 2 3 4 5 6 
#
# 1 110.0157 15.5564 54.3417 0.0000 0.0000 0.0000
# 2 15.5564 46.7521 26.1852 0.0000 0.0000 0.0000
# 3 54.3417 26.1852 159.5500 0.0000 0.0000 0.0000
# 4 0.0000 0.0000 0.0000 13.7349 0.0000 0.0000
# 5 0.0000 0.0000 0.0000 0.0000 932.9302 0.0000
# 6 0.0000 0.0000 0.0000 0.0000 0.0000 25.2285
#
#
#
# Elastic Compliance Matrix: (Units=1/GPa)
#
#
# Indices 1 2 3 4 5 6 
#
# 1 0.011053 -0.001728 -0.003481 0.000000 0.000000 0.000000
# 2 -0.001728 0.023825 -0.003321 0.000000 0.000000 0.000000
# 3 -0.003481 -0.003321 0.007998 0.000000 0.000000 0.000000
# 4 0.000000 0.000000 0.000000 0.072807 0.000000 0.000000
# 5 0.000000 0.000000 0.000000 0.000000 0.001072 0.000000
# 6 0.000000 0.000000 0.000000 0.000000 0.000000 0.039638
#
#
# Mechanical properties :
#
#
# Convention : Reuss Voigt Hill
#
# Bulk Modulus (GPa) = 38.73717 56.49825 47.61771
# Shear Modulus (GPa) = 27.46348 209.06103 118.26226
#
# Velocity S-wave (km/s) = 3.68329 10.16235 7.64330
# Velocity P-wave (km/s) = 6.10118 12.86885 10.07054
#
# Compressibility (1/GPa) = 0.02581500
#
# Stress axis : x y z
#
# Youngs Moduli (GPa) = 90.46944 41.97313 125.02530
#
# Poissons Ratio (x) = 0.07254 0.43523
# Poissons Ratio (y) = 0.15635 0.41527
# Poissons Ratio (z) = 0.31493 0.13941
#
# Static dielectric constant tensor:
#      x y z
#    x 3.659400 0.000000 0.000000 
#    y 0.000000 3.334420 0.000000 
#    z 0.000000 0.000000 4.240630 
# 
# 
# High freq. dielectric constant tensor:
#      x y z
#    x 1.782510 0.000000 0.000000 
#    y 0.000000 1.760310 0.000000 
#    z 0.000000 0.000000 1.808690 
# 
# From -- ./inp_files/22388.got.cif
#   From: 2010.03.12/outbox.cif.g09.slc.cpg/sg23_12_cif.got.tgz:22388.got - 2010.04.14 02:50:06.
