data_PCOD8164138
_publ_section_title
;
Structure prediction by ZEFSAII (Michael W. Deem and Ramdas Pophale) SiO2 
 PCOD8164138
Probable space group: I 2 2 2
;
_chemical_formula_sum "Si O2"
_cell_formula_units_Z 58
_cell_length_a 9.176845
_cell_length_b 26.589647
_cell_length_c 11.090852
_cell_angle_alpha 90.000000
_cell_angle_beta 90.000000
_cell_angle_gamma 90.000000
_cell_volume 2706.268472
_symmetry_space_group_name_H-M "I 2 2 2"
_symmetry_group_IT_number 23
_symmetry_cell_setting 'orthorhombic'
loop_
_space_group_symop_operation_xyz
x,y,z
-x,-y,z
x,-y,-z
-x,y,-z
1/2+x,1/2+y,1/2+z
1/2-x,1/2-y,1/2+z
1/2+x,1/2-y,1/2-z
1/2-x,1/2+y,1/2-z
loop_
_atom_site_type_symbol
_atom_site_label
_atom_site_fract_x
_atom_site_fract_y
_atom_site_fract_z
Si Si1 0.705703 0.537975 0.801319
Si Si2 0.081541 0.340028 0.318895
Si Si3 0.724181 0.182240 0.932543
Si Si4 0.643180 0.213379 0.431894
Si Si5 0.039677 0.897702 0.869474
Si Si6 0.500000 0.500000 0.000000
Si Si7 0.669576 0.109092 0.520780
Si Si8 0.244423 0.075379 0.726222
O O1 0.642865 0.558983 0.678637
O O2 0.766772 0.484272 0.757853
O O3 0.590642 0.534849 0.909711
O O4 0.815331 0.580605 0.851543
O O5 0.194073 0.327142 0.426273
O O6 0.109363 0.305418 0.202981
O O7 0.113393 0.397796 0.281705
O O8 0.913900 0.335988 0.356058
O O9 0.741480 0.241956 0.918090
O O10 0.871238 0.154961 0.883222
O O11 0.500000 0.234267 0.500000
O O12 0.712052 0.168523 0.515216
O O13 0.897481 0.896914 0.783403
O O14 0.000000 0.917612 0.000000
O O15 0.500000 0.106359 0.500000
O O16 0.763723 0.081583 0.417884
#
# Coordination Sequence:
#
# PCOD8164138 Si02
#       8
#     8   8   8   8   8   2   8   8
#     4  12  23  40  71  97 144 183 236 296 355 419
#     4  10  25  46  67  99 144 178 239 295 348 438
#     4  11  25  46  71  97 140 193 228 293 358 421
#     4  10  24  41  73 103 137 173 236 292 371 420
#     4  12  25  42  67 100 135 190 243 280 346 418
#     4  12  20  44  56 104 136 184 232 300 352 412
#     4  10  23  43  68 106 139 177 228 297 367 432
#     4  11  22  43  65  98 140 183 226 293 342 424
#
# _framework density 21.431725
#
# number of rings (size 3 to 8) (size 9 to 14) (size 15 to 20)
#    0.000    1.103    4.138    0.414    7.724    3.310 
#    0.000    4.138    0.000    1.655    0.000    0.000 
#    0.000    0.000    0.000    0.000    0.000    0.000 
#
# Total GULP energy -359322.789074 kJ/mol
# GULP energy per Si atom -12390.441003 kJ/mol
# Density = 2.138295 g / cm^3
# Si number density = 21.431725 Si / 1000 Ang^3
#
#
#
# Elastic Constant Matrix: (Units=GPa)
#
#
# Indices 1 2 3 4 5 6 
#
# 1 74.9754 77.8885 42.1391 0.0004 0.0001 -0.0001
# 2 77.8885 164.9073 69.1128 -0.0004 -0.0006 -0.0002
# 3 42.1391 69.1128 117.2254 0.0014 0.0038 -0.0002
# 4 0.0004 -0.0004 0.0014 36.2721 0.0006 0.0004
# 5 0.0001 -0.0006 0.0038 0.0006 39.7216 0.0009
# 6 -0.0001 -0.0002 -0.0002 0.0004 0.0009 12.3237
#
#
#
# Elastic Compliance Matrix: (Units=1/GPa)
#
#
# Indices 1 2 3 4 5 6 
#
# 1 0.026907 -0.011495 -0.002895 0.000000 0.000000 0.000000
# 2 -0.011495 0.012965 -0.003512 0.000000 0.000001 0.000000
# 3 -0.002895 -0.003512 0.011642 0.000000 -0.000001 0.000000
# 4 0.000000 0.000000 0.000000 0.027569 0.000000 -0.000001
# 5 0.000000 0.000001 -0.000001 0.000000 0.025175 -0.000002
# 6 0.000000 0.000000 0.000000 -0.000001 -0.000002 0.081145
#
#
# Mechanical properties :
#
#
# Convention : Reuss Voigt Hill
#
# Bulk Modulus (GPa) = 63.65463 81.70986 72.68224
# Shear Modulus (GPa) = 22.08063 28.86131 25.47097
#
# Velocity S-wave (km/s) = 3.21328 3.67367 3.45116
# Velocity P-wave (km/s) = 6.59791 7.49686 7.06171
#
# Compressibility (1/GPa) = 0.01570978
#
# Stress axis : x y z
#
# Youngs Moduli (GPa) = 37.16564 77.12990 85.89890
#
# Poissons Ratio (x) = 0.88662 0.24867
# Poissons Ratio (y) = 0.42723 0.30165
# Poissons Ratio (z) = 0.10759 0.27086
#
# Static dielectric constant tensor:
#      x y z
#    x 3.896710 0.000000 0.000000 
#    y 0.000000 4.123760 0.000000 
#    z 0.000000 0.000000 4.257620 
# 
# 
# High freq. dielectric constant tensor:
#      x y z
#    x 1.834240 0.000000 0.000000 
#    y 0.000000 1.843310 0.000000 
#    z 0.000000 0.000000 1.854000 
# 
# From -- ./inp_files/14919.got.cif
#   From: 2010.03.12/outbox.cif.g09.slc.cpg/sg23_8_cif.got.tgz:14919.got - 2010.04.14 02:50:06.
