data_PCOD8164700
_publ_section_title
;
Structure prediction by ZEFSAII (Michael W. Deem and Ramdas Pophale) SiO2 
 PCOD8164700
Probable space group: I 21 21 21
;
_chemical_formula_sum "Si O2"
_cell_formula_units_Z 48
_cell_length_a 28.433935
_cell_length_b 10.794394
_cell_length_c 8.269172
_cell_angle_alpha 90.000000
_cell_angle_beta 90.000000
_cell_angle_gamma 90.000000
_cell_volume 2538.032960
_symmetry_space_group_name_H-M "I 21 21 21"
_symmetry_group_IT_number 24
_symmetry_cell_setting 'orthorhombic'
loop_
_space_group_symop_operation_xyz
x,y,z
-x,1/2-y,z
x,-y,1/2-z
1/2-x,y,-z
1/2+x,1/2+y,1/2+z
1/2-x,-y,1/2+z
1/2+x,1/2-y,-z
-x,1/2+y,1/2-z
loop_
_atom_site_type_symbol
_atom_site_label
_atom_site_fract_x
_atom_site_fract_y
_atom_site_fract_z
Si Si1 0.846389 0.615335 0.018842
Si Si2 0.402247 0.750890 0.256663
Si Si3 0.415403 0.000000 0.750000
Si Si4 0.453698 0.500000 0.250000
Si Si5 0.180624 0.841274 0.574428
Si Si6 0.975908 0.374906 0.970765
Si Si7 0.271319 0.854512 0.749505
O O1 0.881194 0.601639 0.171754
O O2 0.798497 0.685974 0.085066
O O3 0.875333 0.698508 0.897425
O O4 0.834904 0.484564 0.934144
O O5 0.420420 0.615722 0.211553
O O6 0.363821 0.751001 0.401364
O O7 0.444622 0.839876 0.313432
O O8 0.447145 0.936001 0.614574
O O9 0.485074 0.471931 0.091646
O O10 0.215521 0.826652 0.732938
O O11 0.205225 0.796250 0.410669
O O12 0.000000 0.250000 0.038998
O O13 0.280766 0.000000 0.750000
#
# Coordination Sequence:
#
# PCOD8164700 Si02
#       7
#     8   8   4   4   8   8   8
#     4  11  19  31  54  87 112 147 176 222 273 335
#     4  11  21  36  59  76 109 145 186 224 272 329
#     4  12  20  34  56  83 114 133 178 220 286 338
#     4  10  24  42  54  77 102 147 194 230 274 328
#     4  10  18  31  53  81 115 146 170 224 275 327
#     4  10  22  38  56  78 106 141 185 234 280 328
#     4   9  17  30  48  83 120 142 176 214 274 328
#
# _framework density 18.912284
#
# number of rings (size 3 to 8) (size 9 to 14) (size 15 to 20)
#    0.000    1.667    4.167    2.500    0.000    3.333 
#    0.000    0.000    0.000    4.000    0.000    0.000 
#    0.000    0.000    0.000    0.000    0.000    0.000 
#
# Total GULP energy -297410.556454 kJ/mol
# GULP energy per Si atom -12392.106519 kJ/mol
# Density = 1.886924 g / cm^3
# Si number density = 18.912284 Si / 1000 Ang^3
#
#
#
# Elastic Constant Matrix: (Units=GPa)
#
#
# Indices 1 2 3 4 5 6 
#
# 1 126.6548 52.9970 36.2524 0.0000 0.0000 0.0000
# 2 52.9970 73.8439 31.1106 0.0000 0.0000 0.0000
# 3 36.2524 31.1106 65.2474 0.0000 0.0000 0.0000
# 4 0.0000 0.0000 0.0000 12.2927 0.0000 0.0000
# 5 0.0000 0.0000 0.0000 0.0000 48.4053 0.0000
# 6 0.0000 0.0000 0.0000 0.0000 0.0000 23.4125
#
#
#
# Elastic Compliance Matrix: (Units=1/GPa)
#
#
# Indices 1 2 3 4 5 6 
#
# 1 0.011778 -0.007128 -0.003146 0.000000 0.000000 0.000000
# 2 -0.007128 0.021260 -0.006177 0.000000 0.000000 0.000000
# 3 -0.003146 -0.006177 0.020019 0.000000 0.000000 0.000000
# 4 0.000000 0.000000 0.000000 0.081349 0.000000 0.000000
# 5 0.000000 0.000000 0.000000 0.000000 0.020659 0.000000
# 6 0.000000 0.000000 0.000000 0.000000 0.000000 0.042712
#
#
# Mechanical properties :
#
#
# Convention : Reuss Voigt Hill
#
# Bulk Modulus (GPa) = 49.61005 56.27404 52.94204
# Shear Modulus (GPa) = 21.06180 26.51452 23.78816
#
# Velocity S-wave (km/s) = 3.34077 3.74836 3.55042
# Velocity P-wave (km/s) = 6.41635 6.96803 6.69787
#
# Compressibility (1/GPa) = 0.02015721
#
# Stress axis : x y z
#
# Youngs Moduli (GPa) = 84.90068 47.03673 49.95252
#
# Poissons Ratio (x) = 0.33528 0.15713
# Poissons Ratio (y) = 0.60518 0.30853
# Poissons Ratio (z) = 0.26706 0.29052
#
# Static dielectric constant tensor:
#      x y z
#    x 4.006670 0.000000 0.000000 
#    y 0.000000 2.961100 0.000000 
#    z 0.000000 0.000000 3.734080 
# 
# 
# High freq. dielectric constant tensor:
#      x y z
#    x 1.767550 0.000000 0.000000 
#    y 0.000000 1.660340 0.000000 
#    z 0.000000 0.000000 1.743890 
# 
# From -- ./inp_files/16375.got.cif
#   From: 2010.03.12/outbox.cif.g09.slc.cpg/sg24_9_cif.got.tgz:16375.got - 2010.04.14 03:06:53.
