data_PCOD8164128
_publ_section_title
;
Structure prediction by ZEFSAII (Michael W. Deem and Ramdas Pophale) SiO2 
 PCOD8164128
Probable space group: I 2 2 2
;
_chemical_formula_sum "Si O2"
_cell_formula_units_Z 64
_cell_length_a 10.342706
_cell_length_b 9.410616
_cell_length_c 30.104960
_cell_angle_alpha 90.000000
_cell_angle_beta 90.000000
_cell_angle_gamma 90.000000
_cell_volume 2930.152923
_symmetry_space_group_name_H-M "I 2 2 2"
_symmetry_group_IT_number 23
_symmetry_cell_setting 'orthorhombic'
loop_
_space_group_symop_operation_xyz
x,y,z
-x,-y,z
x,-y,-z
-x,y,-z
1/2+x,1/2+y,1/2+z
1/2-x,1/2-y,1/2+z
1/2+x,1/2-y,1/2-z
1/2-x,1/2+y,1/2-z
loop_
_atom_site_type_symbol
_atom_site_label
_atom_site_fract_x
_atom_site_fract_y
_atom_site_fract_z
Si Si1 0.218939 0.752306 0.144679
Si Si2 0.233900 0.770899 0.352120
Si Si3 0.819960 0.138210 0.559236
Si Si4 0.151628 0.512851 0.205206
Si Si5 0.686982 0.667385 0.510093
Si Si6 0.471788 0.335535 0.592218
Si Si7 0.889381 0.177207 0.438054
Si Si8 0.848003 0.495333 0.305561
O O1 0.315994 0.669710 0.111912
O O2 0.194590 0.671070 0.191063
O O3 0.275976 0.904059 0.159064
O O4 0.089845 0.754658 0.114829
O O5 0.278094 0.914199 0.329634
O O6 0.346208 0.700293 0.380283
O O7 0.113593 0.804465 0.384681
O O8 0.192410 0.665836 0.313386
O O9 0.709160 0.231676 0.533412
O O10 0.964577 0.180589 0.543908
O O11 0.810369 0.968946 0.549731
O O12 0.193969 0.472060 0.255039
O O13 0.000000 0.500000 0.199976
O O14 0.682183 0.500000 0.500000
O O15 0.557087 0.704488 0.539801
O O16 0.814203 0.692241 0.539816
O O17 0.500000 0.500000 0.595399
O O18 0.000000 0.500000 0.312621
#
# Coordination Sequence:
#
# PCOD8164128 Si02
#       8
#     8   8   8   8   8   8   8   8
#     4  12  23  42  70  98 132 183 223 275 349 408
#     4  11  21  43  67  93 136 174 227 279 336 411
#     4  11  23  41  66  94 134 173 223 276 331 408
#     4  11  23  42  67 100 137 174 230 288 344 407
#     4  11  25  42  65  99 129 170 220 283 331 399
#     4  11  23  42  69  94 132 178 220 273 350 410
#     4  10  23  42  65  92 132 179 218 271 337 400
#     4  11  25  42  66 100 137 178 229 286 339 412
#
# _framework density 21.841863
#
# number of rings (size 3 to 8) (size 9 to 14) (size 15 to 20)
#    0.000    1.000    3.750    3.000    1.750    3.750 
#    0.000    0.000    2.750    3.000    0.000    0.000 
#    0.000    0.000    0.000    0.000    0.000    0.000 
#
# Total GULP energy -396605.177238 kJ/mol
# GULP energy per Si atom -12393.911789 kJ/mol
# Density = 2.179215 g / cm^3
# Si number density = 21.841863 Si / 1000 Ang^3
#
#
#
# Elastic Constant Matrix: (Units=GPa)
#
#
# Indices 1 2 3 4 5 6 
#
# 1 61.4779 28.3754 39.6863 0.0000 0.0000 0.0000
# 2 28.3754 89.4451 30.7300 0.0000 0.0000 0.0000
# 3 39.6863 30.7300 119.4056 0.0000 0.0000 0.0000
# 4 0.0000 0.0000 0.0000 42.4892 0.0000 0.0000
# 5 0.0000 0.0000 0.0000 0.0000 -1.6313 0.0000
# 6 0.0000 0.0000 0.0000 0.0000 0.0000 22.5708
#
#
#
# Elastic Compliance Matrix: (Units=1/GPa)
#
#
# Indices 1 2 3 4 5 6 
#
# 1 0.022603 -0.005035 -0.006217 0.000000 0.000000 0.000000
# 2 -0.005035 0.013386 -0.001772 0.000000 0.000000 0.000000
# 3 -0.006217 -0.001772 0.010897 0.000000 0.000000 0.000000
# 4 0.000000 0.000000 0.000000 0.023535 0.000000 0.000000
# 5 0.000000 0.000000 0.000000 0.000000 -0.613004 0.000000
# 6 0.000000 0.000000 0.000000 0.000000 0.000000 0.044305
#
#
# Mechanical properties :
#
#
# Convention : Reuss Voigt Hill
#
# Bulk Modulus (GPa) = 47.98514 51.99022 49.98768
# Shear Modulus (GPa) = -10.74610 24.12153 6.68771
#
# Velocity S-wave (km/s) = -2.22050 3.32681 1.75172
# Velocity P-wave (km/s) = 3.92974 6.21382 5.19877
#
# Compressibility (1/GPa) = 0.02083978
#
# Stress axis : x y z
#
# Youngs Moduli (GPa) = 44.24207 74.70552 91.76850
#
# Poissons Ratio (x) = 0.37612 0.57050
# Poissons Ratio (y) = 0.22274 0.16258
# Poissons Ratio (z) = 0.27504 0.13235
#
# Static dielectric constant tensor:
#      x y z
#    x 4.103130 0.000000 0.000000 
#    y 0.000000 3.866280 0.000000 
#    z 0.000000 0.000000 4.168620 
# 
# 
# High freq. dielectric constant tensor:
#      x y z
#    x 1.857980 0.000000 0.000000 
#    y 0.000000 1.855570 0.000000 
#    z 0.000000 0.000000 1.877790 
# 
# From -- ./inp_files/30490.got.cif
#   From: 2010.03.12/outbox.cif.g09.slc.cpg/sg23_16_cif.got.tgz:30490.got - 2010.04.14 02:50:06.
