data_PCOD8164111
_publ_section_title
;
Structure prediction by ZEFSAII (Michael W. Deem and Ramdas Pophale) SiO2 
 PCOD8164111
Probable space group: I 2 2 2
;
_chemical_formula_sum "Si O2"
_cell_formula_units_Z 64
_cell_length_a 8.914923
_cell_length_b 28.377376
_cell_length_c 11.942338
_cell_angle_alpha 90.000000
_cell_angle_beta 90.000000
_cell_angle_gamma 90.000000
_cell_volume 3021.198009
_symmetry_space_group_name_H-M "I 2 2 2"
_symmetry_group_IT_number 23
_symmetry_cell_setting 'orthorhombic'
loop_
_space_group_symop_operation_xyz
x,y,z
-x,-y,z
x,-y,-z
-x,y,-z
1/2+x,1/2+y,1/2+z
1/2-x,1/2-y,1/2+z
1/2+x,1/2-y,1/2-z
1/2-x,1/2+y,1/2-z
loop_
_atom_site_type_symbol
_atom_site_label
_atom_site_fract_x
_atom_site_fract_y
_atom_site_fract_z
Si Si1 0.894201 0.260666 0.097865
Si Si2 0.175825 0.490437 0.129274
Si Si3 0.669432 0.055528 0.009933
Si Si4 0.755319 0.667442 0.754340
Si Si5 0.929842 0.810433 0.720134
Si Si6 0.823516 0.067713 0.781428
Si Si7 0.825142 0.912462 0.761598
Si Si8 0.849439 0.272167 0.443351
O O1 0.883892 0.306294 0.176848
O O2 0.959840 0.216148 0.163132
O O3 0.736963 0.243001 0.053443
O O4 0.000000 0.277375 0.000000
O O5 0.269564 0.522537 0.214090
O O6 0.231319 0.437727 0.161100
O O7 0.000000 0.500000 0.150897
O O8 0.217379 0.500000 0.000000
O O9 0.784387 0.068799 0.912059
O O10 0.500000 0.076780 0.000000
O O11 0.741106 0.075002 0.123762
O O12 0.655524 0.000000 0.000000
O O13 0.596791 0.676264 0.815889
O O14 0.773129 0.611618 0.765118
O O15 0.769084 0.685883 0.625776
O O16 0.823646 0.856291 0.736588
O O17 0.857174 0.774957 0.631844
O O18 0.002320 0.070939 0.767562
O O19 0.000000 0.291458 0.500000
#
# Coordination Sequence:
#
# PCOD8164111 Si02
#       8
#     8   8   8   8   8   8   8   8
#     4  11  22  41  65  90 131 175 213 263 328 383
#     4  11  25  48  67  93 134 175 216 277 336 399
#     4  11  23  41  66  94 133 167 206 270 336 392
#     4  10  23  41  61  99 127 167 220 269 319 392
#     4  10  23  41  63  95 131 165 220 269 320 393
#     4  11  24  42  68  99 130 167 228 270 328 401
#     4  11  24  42  70  99 126 174 221 273 334 391
#     4  11  22  41  66  90 131 175 213 262 327 385
#
# _framework density 21.18365
#
# number of rings (size 3 to 8) (size 9 to 14) (size 15 to 20)
#    0.000    1.250    3.750    1.500    1.750    3.000 
#    9.000    0.000    0.000    0.000    0.000    0.000 
#    0.000    0.000    0.000    0.000    0.000    0.000 
#
# Total GULP energy -396602.688620 kJ/mol
# GULP energy per Si atom -12393.834019 kJ/mol
# Density = 2.113543 g / cm^3
# Si number density = 21.183650 Si / 1000 Ang^3
#
#
#
# Elastic Constant Matrix: (Units=GPa)
#
#
# Indices 1 2 3 4 5 6 
#
# 1 91.3030 18.9732 17.6933 -0.0032 -0.0006 0.0002
# 2 18.9732 103.6429 19.3439 -0.0021 -0.0009 0.0004
# 3 17.6933 19.3439 91.9404 -0.0065 -0.0012 0.0013
# 4 -0.0032 -0.0021 -0.0065 -40.4217 -0.0105 0.0049
# 5 -0.0006 -0.0009 -0.0012 -0.0105 52.7085 0.0006
# 6 0.0002 0.0004 0.0013 0.0049 0.0006 25.9887
#
#
#
# Elastic Compliance Matrix: (Units=1/GPa)
#
#
# Indices 1 2 3 4 5 6 
#
# 1 0.011687 -0.001790 -0.001873 -0.000001 0.000000 0.000000
# 2 -0.001790 0.010317 -0.001826 0.000000 0.000000 0.000000
# 3 -0.001873 -0.001826 0.011621 -0.000002 0.000000 -0.000001
# 4 -0.000001 0.000000 -0.000002 -0.024739 -0.000005 0.000005
# 5 0.000000 0.000000 0.000000 -0.000005 0.018972 0.000000
# 6 0.000000 0.000000 -0.000001 0.000005 0.000000 0.038478
#
#
# Mechanical properties :
#
#
# Convention : Reuss Voigt Hill
#
# Bulk Modulus (GPa) = 44.15383 44.32302 44.23843
# Shear Modulus (GPa) = 58.91788 23.04682 40.98235
#
# Velocity S-wave (km/s) = 5.27952 3.30199 4.40321
# Velocity P-wave (km/s) = 7.61925 5.95871 6.83956
#
# Compressibility (1/GPa) = 0.02264809
#
# Stress axis : x y z
#
# Youngs Moduli (GPa) = 85.56225 96.92694 86.04967
#
# Poissons Ratio (x) = 0.17350 0.16113
# Poissons Ratio (y) = 0.15316 0.15714
# Poissons Ratio (z) = 0.16022 0.17701
#
# Static dielectric constant tensor:
#      x y z
#    x 7.402320 -0.000060 0.000120 
#    y -0.000060 4.023520 0.000000 
#    z 0.000120 0.000000 3.866400 
# 
# 
# High freq. dielectric constant tensor:
#      x y z
#    x 1.837740 0.000000 0.000000 
#    y 0.000000 1.832100 0.000000 
#    z 0.000000 0.000000 1.832720 
# 
# From -- ./inp_files/15008.got.cif
#   From: 2010.03.12/outbox.cif.g09.slc.cpg/sg23_8_cif.got.tgz:15008.got - 2010.04.14 02:50:06.
