data_PCOD8164863
_publ_section_title
;
Structure prediction by ZEFSAII (Michael W. Deem and Ramdas Pophale) SiO2 
 PCOD8164863
Probable space group: I 21 21 21
;
_chemical_formula_sum "Si O2"
_cell_formula_units_Z 56
_cell_length_a 13.026921
_cell_length_b 21.418769
_cell_length_c 10.723291
_cell_angle_alpha 90.000000
_cell_angle_beta 90.000000
_cell_angle_gamma 90.000000
_cell_volume 2992.019214
_symmetry_space_group_name_H-M "I 21 21 21"
_symmetry_group_IT_number 24
_symmetry_cell_setting 'orthorhombic'
loop_
_space_group_symop_operation_xyz
x,y,z
-x,1/2-y,z
x,-y,1/2-z
1/2-x,y,-z
1/2+x,1/2+y,1/2+z
1/2-x,-y,1/2+z
1/2+x,1/2-y,-z
-x,1/2+y,1/2-z
loop_
_atom_site_type_symbol
_atom_site_label
_atom_site_fract_x
_atom_site_fract_y
_atom_site_fract_z
Si Si1 0.988681 0.909534 0.924032
Si Si2 0.104153 0.357397 0.327889
Si Si3 0.595738 0.601170 0.719181
Si Si4 0.320299 0.778628 0.824529
Si Si5 0.860275 0.508785 0.059094
Si Si6 0.402163 0.206329 0.402525
Si Si7 0.276220 0.452154 0.358308
O O1 0.895215 0.934599 0.841427
O O2 0.065462 0.862536 0.851238
O O3 0.944966 0.865548 0.035391
O O4 0.050059 0.971045 0.964727
O O5 0.123079 0.285728 0.290899
O O6 0.213578 0.390173 0.328067
O O7 0.026898 0.388256 0.228453
O O8 0.652844 0.668176 0.722710
O O9 0.637945 0.556312 0.826572
O O10 0.617895 0.563761 0.592056
O O11 0.197087 0.768733 0.827273
O O12 0.367607 0.801882 0.954453
O O13 0.750000 0.514994 0.000000
O O14 0.500000 0.250000 0.381975
O O15 0.244796 0.500000 0.250000
O O16 0.250000 0.476509 0.500000
#
# Coordination Sequence:
#
# PCOD8164863 Si02
#       7
#     8   8   8   8   8   8   8
#     4  10  19  33  51  80 112 148 178 228 286 343
#     4  10  19  32  55  80 112 138 191 229 283 342
#     4  10  20  32  55  79 104 148 185 227 285 340
#     4  11  19  30  51  80 110 143 179 231 286 345
#     4  10  20  35  52  76 109 145 187 234 276 336
#     4  11  18  28  49  76 116 143 166 219 299 353
#     4  10  23  38  59  85 120 155 193 237 287 343
#
# _framework density 18.716456000000001
#
# number of rings (size 3 to 8) (size 9 to 14) (size 15 to 20)
#    0.000    1.714    4.286    2.143   10.000    0.000 
#    5.143    0.000    0.000    0.857    0.000    0.000 
#    0.000    0.000    0.000    0.000    0.000    0.000 
#
# Total GULP energy -347050.531124 kJ/mol
# GULP energy per Si atom -12394.661826 kJ/mol
# Density = 1.867386 g / cm^3
# Si number density = 18.716456 Si / 1000 Ang^3
#
#
#
# Elastic Constant Matrix: (Units=GPa)
#
#
# Indices 1 2 3 4 5 6 
#
# 1 147.7343 54.2513 27.7412 -0.0002 0.0000 0.0000
# 2 54.2513 133.3662 36.9766 -0.0003 -0.0001 -0.0001
# 3 27.7412 36.9766 30.1757 -0.0002 -0.0004 -0.0003
# 4 -0.0002 -0.0003 -0.0002 13.8992 -0.0002 -0.0002
# 5 0.0000 -0.0001 -0.0004 -0.0002 9.2915 0.0000
# 6 0.0000 -0.0001 -0.0003 -0.0002 0.0000 34.2715
#
#
#
# Elastic Compliance Matrix: (Units=1/GPa)
#
#
# Indices 1 2 3 4 5 6 
#
# 1 0.008506 -0.001957 -0.005422 0.000000 0.000000 0.000000
# 2 -0.001957 0.011807 -0.012669 0.000000 0.000000 0.000000
# 3 -0.005422 -0.012669 0.053647 0.000000 0.000002 0.000000
# 4 0.000000 0.000000 0.000000 0.071947 0.000001 0.000000
# 5 0.000000 0.000000 0.000002 0.000001 0.107626 0.000000
# 6 0.000000 0.000000 0.000000 0.000000 0.000000 0.029179
#
#
# Mechanical properties :
#
#
# Convention : Reuss Voigt Hill
#
# Bulk Modulus (GPa) = 29.52860 61.02384 45.27622
# Shear Modulus (GPa) = 14.96590 24.31290 19.63940
#
# Velocity S-wave (km/s) = 2.83081 3.60809 3.24282
# Velocity P-wave (km/s) = 5.14740 7.07339 6.18581
#
# Compressibility (1/GPa) = 0.03386548
#
# Stress axis : x y z
#
# Youngs Moduli (GPa) = 117.57062 84.69855 18.64028
#
# Poissons Ratio (x) = 0.16573 0.10106
# Poissons Ratio (y) = 0.23006 0.23615
# Poissons Ratio (z) = 0.63742 1.07301
#
# Static dielectric constant tensor:
#      x y z
#    x 3.774130 0.000000 0.000000 
#    y 0.000000 3.570710 0.000000 
#    z 0.000000 0.000000 2.929990 
# 
# 
# High freq. dielectric constant tensor:
#      x y z
#    x 1.753850 0.000000 0.000000 
#    y 0.000000 1.735120 0.000000 
#    z 0.000000 0.000000 1.645080 
# 
# From -- ./inp_files/19933.got.cif
#   From: 2010.03.12/outbox.cif.g09.slc.cpg/sg24_10_cif.got.tgz:19933.got - 2010.04.14 03:06:53.
