data_PCOD8164085
_publ_section_title
;
Structure prediction by ZEFSAII (Michael W. Deem and Ramdas Pophale) SiO2 
 PCOD8164085
Probable space group: I 2 2 2
;
_chemical_formula_sum "Si O2"
_cell_formula_units_Z 40
_cell_length_a 11.688521
_cell_length_b 8.904014
_cell_length_c 17.136338
_cell_angle_alpha 90.000000
_cell_angle_beta 90.000000
_cell_angle_gamma 90.000000
_cell_volume 1783.460172
_symmetry_space_group_name_H-M "I 2 2 2"
_symmetry_group_IT_number 23
_symmetry_cell_setting 'orthorhombic'
loop_
_space_group_symop_operation_xyz
x,y,z
-x,-y,z
x,-y,-z
-x,y,-z
1/2+x,1/2+y,1/2+z
1/2-x,1/2-y,1/2+z
1/2+x,1/2-y,1/2-z
1/2-x,1/2+y,1/2-z
loop_
_atom_site_type_symbol
_atom_site_label
_atom_site_fract_x
_atom_site_fract_y
_atom_site_fract_z
Si Si1 0.820042 0.292379 0.255594
Si Si2 0.500000 0.000000 0.162496
Si Si3 0.000000 0.500000 0.000000
Si Si4 0.878445 0.022674 0.707777
Si Si5 0.500000 0.500000 0.500000
Si Si6 0.850410 0.750088 0.925710
Si Si7 0.402968 0.735953 0.064981
O O1 0.698034 0.374635 0.264801
O O2 0.832833 0.246834 0.166258
O O3 0.920115 0.401964 0.282016
O O4 0.819278 0.139951 0.306761
O O5 0.425014 0.892763 0.108360
O O6 0.919939 0.600940 0.945900
O O7 0.904133 0.096421 0.624211
O O8 0.000000 0.000000 0.751337
O O9 0.419057 0.398794 0.446745
O O10 0.726199 0.747846 0.969537
O O11 0.500000 0.707536 0.000000
#
# Coordination Sequence:
#
# PCOD8164085 Si02
#       7
#     8   4   2   8   2   8   8
#     4  11  24  45  72 101 144 183 247 292 367 431
#     4  12  24  46  70 108 144 190 236 304 364 446
#     4  10  22  50  62 100 132 186 242 276 364 424
#     4  11  24  46  68 105 139 187 242 298 368 438
#     4  10  24  42  70 102 136 182 250 284 368 430
#     4  10  24  45  70 101 139 188 234 300 354 438
#     4  11  26  46  70 107 147 189 241 304 381 440
#
# _framework density 22.428311999999998
#
# number of rings (size 3 to 8) (size 9 to 14) (size 15 to 20)
#    0.000    1.200    2.000    3.300    4.200    3.600 
#    0.000    0.000    0.000    0.000    0.000    0.000 
#    0.000    0.000    0.000    0.000    0.000    0.000 
#
# Total GULP energy -248006.438324 kJ/mol
# GULP energy per Si atom -12400.321916 kJ/mol
# Density = 2.237726 g / cm^3
# Si number density = 22.428312 Si / 1000 Ang^3
#
#
#
# Elastic Constant Matrix: (Units=GPa)
#
#
# Indices 1 2 3 4 5 6 
#
# 1 197.9818 87.8680 36.2507 0.0000 0.0000 0.0000
# 2 87.8680 187.5544 43.2603 0.0000 0.0000 0.0000
# 3 36.2507 43.2603 59.2481 0.0000 0.0000 0.0000
# 4 0.0000 0.0000 0.0000 14.4313 0.0000 0.0000
# 5 0.0000 0.0000 0.0000 0.0000 14.3574 0.0000
# 6 0.0000 0.0000 0.0000 0.0000 0.0000 33.1296
#
#
#
# Elastic Compliance Matrix: (Units=1/GPa)
#
#
# Indices 1 2 3 4 5 6 
#
# 1 0.006595 -0.002596 -0.002139 0.000000 0.000000 0.000000
# 2 -0.002596 0.007434 -0.003839 0.000000 0.000000 0.000000
# 3 -0.002139 -0.003839 0.020990 0.000000 0.000000 0.000000
# 4 0.000000 0.000000 0.000000 0.069294 0.000000 0.000000
# 5 0.000000 0.000000 0.000000 0.000000 0.069650 0.000000
# 6 0.000000 0.000000 0.000000 0.000000 0.000000 0.030184
#
#
# Mechanical properties :
#
#
# Convention : Reuss Voigt Hill
#
# Bulk Modulus (GPa) = 55.96212 86.61582 71.28897
# Shear Modulus (GPa) = 22.00183 30.87736 26.43959
#
# Velocity S-wave (km/s) = 3.13547 3.71443 3.43716
# Velocity P-wave (km/s) = 6.17365 7.55638 6.89974
#
# Compressibility (1/GPa) = 0.01786923
#
# Stress axis : x y z
#
# Youngs Moduli (GPa) = 151.63103 134.52374 47.64073
#
# Poissons Ratio (x) = 0.34925 0.10193
# Poissons Ratio (y) = 0.39367 0.18290
# Poissons Ratio (z) = 0.32441 0.51647
#
# Static dielectric constant tensor:
#      x y z
#    x 4.709320 0.000000 0.000000 
#    y 0.000000 4.427520 0.000000 
#    z 0.000000 0.000000 3.694410 
# 
# 
# High freq. dielectric constant tensor:
#      x y z
#    x 1.908240 0.000000 0.000000 
#    y 0.000000 1.909080 0.000000 
#    z 0.000000 0.000000 1.855400 
# 
# From -- ./inp_files/24209.got.cif
#   From: 2010.03.12/outbox.cif.g09.slc.cpg/sg23_13_cif.got.tgz:24209.got - 2010.04.14 02:50:06.
