data_PCOD8164399
_publ_section_title
;
Structure prediction by ZEFSAII (Michael W. Deem and Ramdas Pophale) SiO2 
 PCOD8164399
Probable space group: I 2 2 2
;
_chemical_formula_sum "Si O2"
_cell_formula_units_Z 48
_cell_length_a 23.693388
_cell_length_b 6.395998
_cell_length_c 13.845850
_cell_angle_alpha 90.000000
_cell_angle_beta 90.000000
_cell_angle_gamma 90.000000
_cell_volume 2098.239739
_symmetry_space_group_name_H-M "I 2 2 2"
_symmetry_group_IT_number 23
_symmetry_cell_setting 'orthorhombic'
loop_
_space_group_symop_operation_xyz
x,y,z
-x,-y,z
x,-y,-z
-x,y,-z
1/2+x,1/2+y,1/2+z
1/2-x,1/2-y,1/2+z
1/2+x,1/2-y,1/2-z
1/2-x,1/2+y,1/2-z
loop_
_atom_site_type_symbol
_atom_site_label
_atom_site_fract_x
_atom_site_fract_y
_atom_site_fract_z
Si Si1 0.539018 0.670451 0.625735
Si Si2 0.095646 0.582892 0.397634
Si Si3 0.500000 0.000000 0.758452
Si Si4 0.193808 0.658407 0.673430
Si Si5 0.309664 0.150033 0.336639
Si Si6 0.391410 0.000000 0.500000
Si Si7 0.881914 0.038654 0.283729
O O1 0.500000 0.500000 0.570564
O O2 0.494053 0.800331 0.689385
O O3 0.580369 0.552537 0.698477
O O4 0.570571 0.820531 0.549524
O O5 0.072235 0.500000 0.500000
O O6 0.161655 0.516328 0.390089
O O7 0.087562 0.831733 0.372420
O O8 0.056952 0.463726 0.319088
O O9 0.253070 0.731742 0.627136
O O10 0.204437 0.569863 0.782346
O O11 0.152616 0.854264 0.668666
O O12 0.339620 0.294395 0.259913
O O13 0.351023 0.115047 0.425321
#
# Coordination Sequence:
#
# PCOD8164399 Si02
#       7
#     8   8   4   8   8   4   8
#     4  12  26  50  74 104 150 207 247 313 397 454
#     4  11  25  42  70 112 142 179 257 314 362 462
#     4  12  23  49  74  98 148 202 238 309 393 454
#     4  11  22  45  73  99 144 197 241 302 392 450
#     4  11  24  45  72 103 145 195 249 310 377 456
#     4  12  28  49  72 122 146 186 281 322 356 490
#     4  11  22  46  72  95 143 200 234 296 391 450
#
# _framework density 22.876317
#
# number of rings (size 3 to 8) (size 9 to 14) (size 15 to 20)
#    0.000    0.667    6.667    1.250    0.000    3.000 
#    6.000    0.000    0.000    0.000    0.000    0.000 
#    0.000    0.000    0.000    0.000    0.000    0.000 
#
# Total GULP energy -297393.763514 kJ/mol
# GULP energy per Si atom -12391.406813 kJ/mol
# Density = 2.282425 g / cm^3
# Si number density = 22.876317 Si / 1000 Ang^3
#
#
#
# Elastic Constant Matrix: (Units=GPa)
#
#
# Indices 1 2 3 4 5 6 
#
# 1 118.1670 51.1091 47.6102 0.0000 0.0000 0.0000
# 2 51.1091 126.9821 51.9704 0.0000 0.0000 0.0000
# 3 47.6102 51.9704 106.3137 0.0000 0.0000 0.0000
# 4 0.0000 0.0000 0.0000 38.5834 0.0000 0.0000
# 5 0.0000 0.0000 0.0000 0.0000 24.8142 0.0000
# 6 0.0000 0.0000 0.0000 0.0000 0.0000 64.9736
#
#
#
# Elastic Compliance Matrix: (Units=1/GPa)
#
#
# Indices 1 2 3 4 5 6 
#
# 1 0.011208 -0.003071 -0.003518 0.000000 0.000000 0.000000
# 2 -0.003071 0.010686 -0.003848 0.000000 0.000000 0.000000
# 3 -0.003518 -0.003848 0.012863 0.000000 0.000000 0.000000
# 4 0.000000 0.000000 0.000000 0.025918 0.000000 0.000000
# 5 0.000000 0.000000 0.000000 0.000000 0.040300 0.000000
# 6 0.000000 0.000000 0.000000 0.000000 0.000000 0.015391
#
#
# Mechanical properties :
#
#
# Convention : Reuss Voigt Hill
#
# Bulk Modulus (GPa) = 72.03630 72.53802 72.28716
# Shear Modulus (GPa) = 35.24371 39.05911 37.15141
#
# Velocity S-wave (km/s) = 3.92933 4.13656 4.03427
# Velocity P-wave (km/s) = 7.22108 7.38867 7.30536
#
# Compressibility (1/GPa) = 0.01388189
#
# Stress axis : x y z
#
# Youngs Moduli (GPa) = 89.21805 93.57652 77.74317
#
# Poissons Ratio (x) = 0.28742 0.27350
# Poissons Ratio (y) = 0.27403 0.29919
# Poissons Ratio (z) = 0.31387 0.36013
#
# Static dielectric constant tensor:
#      x y z
#    x 4.268390 0.000000 0.000000 
#    y 0.000000 4.614360 0.000000 
#    z 0.000000 0.000000 3.785000 
# 
# 
# High freq. dielectric constant tensor:
#      x y z
#    x 1.908040 0.000000 0.000000 
#    y 0.000000 1.920770 0.000000 
#    z 0.000000 0.000000 1.886130 
# 
# From -- ./inp_files/22716.got.cif
#   From: 2010.03.12/outbox.cif.g09.slc.cpg/sg23_12_cif.got.tgz:22716.got - 2010.04.14 02:50:06.
