data_PCOD8164699
_publ_section_title
;
Structure prediction by ZEFSAII (Michael W. Deem and Ramdas Pophale) SiO2 
 PCOD8164699
Probable space group: I 21 21 21
;
_chemical_formula_sum "Si O2"
_cell_formula_units_Z 48
_cell_length_a 18.548547
_cell_length_b 15.949176
_cell_length_c 8.879436
_cell_angle_alpha 90.000000
_cell_angle_beta 90.000000
_cell_angle_gamma 90.000000
_cell_volume 2626.839431
_symmetry_space_group_name_H-M "I 21 21 21"
_symmetry_group_IT_number 24
_symmetry_cell_setting 'orthorhombic'
loop_
_space_group_symop_operation_xyz
x,y,z
-x,1/2-y,z
x,-y,1/2-z
1/2-x,y,-z
1/2+x,1/2+y,1/2+z
1/2-x,-y,1/2+z
1/2+x,1/2-y,-z
-x,1/2+y,1/2-z
loop_
_atom_site_type_symbol
_atom_site_label
_atom_site_fract_x
_atom_site_fract_y
_atom_site_fract_z
Si Si1 0.539758 0.165189 0.112594
Si Si2 0.450858 0.829638 0.889907
Si Si3 0.169358 0.744450 0.303881
Si Si4 0.572046 0.090939 0.803849
Si Si5 0.329620 0.765268 0.342726
Si Si6 0.416693 0.093668 0.298828
O O1 0.500000 0.250000 0.049314
O O2 0.613636 0.191618 0.197361
O O3 0.494415 0.118617 0.237264
O O4 0.552862 0.098460 0.980062
O O5 0.500000 0.750000 0.943273
O O6 0.378914 0.805564 0.797669
O O7 0.500039 0.886625 0.785212
O O8 0.421758 0.888017 0.023952
O O9 0.139539 0.651552 0.274757
O O10 0.253878 0.743279 0.263432
O O11 0.167291 0.773834 0.476833
O O12 0.597918 0.000000 0.750000
O O13 0.352621 0.853205 0.273201
O O14 0.398047 0.000000 0.250000
#
# Coordination Sequence:
#
# PCOD8164699 Si02
#       6
#     8   8   8   8   8   8
#     4   9  17  33  55  73  98 139 173 199 250 317
#     4  10  19  32  52  78 105 134 169 209 255 304
#     4   9  19  35  55  74  99 137 175 204 247 312
#     4  10  18  31  53  80 102 126 168 220 256 290
#     4   9  18  36  55  71  98 139 174 199 247 319
#     4  11  21  33  50  76 104 131 169 217 257 296
#
# _framework density 18.27291
#
# number of rings (size 3 to 8) (size 9 to 14) (size 15 to 20)
#    0.000    2.333    0.000    6.000    0.000    0.667 
#    0.000    5.000    0.000   14.000    0.000    0.000 
#    0.000    0.000    0.000    0.000    0.000    0.000 
#
# Total GULP energy -297460.393247 kJ/mol
# GULP energy per Si atom -12394.183052 kJ/mol
# Density = 1.823132 g / cm^3
# Si number density = 18.272910 Si / 1000 Ang^3
#
#
#
# Elastic Constant Matrix: (Units=GPa)
#
#
# Indices 1 2 3 4 5 6 
#
# 1 158.7622 64.6454 51.2243 0.0000 0.0000 0.0000
# 2 64.6454 103.7489 63.4081 0.0000 0.0000 0.0000
# 3 51.2243 63.4081 74.3807 0.0000 0.0000 0.0000
# 4 0.0000 0.0000 0.0000 25.6030 0.0000 0.0000
# 5 0.0000 0.0000 0.0000 0.0000 21.0956 0.0000
# 6 0.0000 0.0000 0.0000 0.0000 0.0000 14.4364
#
#
#
# Elastic Compliance Matrix: (Units=1/GPa)
#
#
# Indices 1 2 3 4 5 6 
#
# 1 0.008724 -0.003683 -0.002869 0.000000 0.000000 0.000000
# 2 -0.003683 0.021677 -0.015943 0.000000 0.000000 0.000000
# 3 -0.002869 -0.015943 0.029011 0.000000 0.000000 0.000000
# 4 0.000000 0.000000 0.000000 0.039058 0.000000 0.000000
# 5 0.000000 0.000000 0.000000 0.000000 0.047403 0.000000
# 6 0.000000 0.000000 0.000000 0.000000 0.000000 0.069269
#
#
# Mechanical properties :
#
#
# Convention : Reuss Voigt Hill
#
# Bulk Modulus (GPa) = 69.33197 77.27194 73.30195
# Shear Modulus (GPa) = 18.87220 22.73459 20.80339
#
# Velocity S-wave (km/s) = 3.21720 3.53110 3.37780
# Velocity P-wave (km/s) = 7.19898 7.68143 7.44412
#
# Compressibility (1/GPa) = 0.01442336
#
# Stress axis : x y z
#
# Youngs Moduli (GPa) = 114.62994 46.13102 34.46926
#
# Poissons Ratio (x) = 0.16988 0.09888
# Poissons Ratio (y) = 0.42213 0.54956
# Poissons Ratio (z) = 0.32882 0.73549
#
# Static dielectric constant tensor:
#      x y z
#    x 3.803100 0.000000 0.000000 
#    y 0.000000 3.306250 0.000000 
#    z 0.000000 0.000000 3.300600 
# 
# 
# High freq. dielectric constant tensor:
#      x y z
#    x 1.711440 0.000000 0.000000 
#    y 0.000000 1.691330 0.000000 
#    z 0.000000 0.000000 1.705820 
# 
# From -- ./inp_files/12770.got.cif
#   From: 2010.03.12/outbox.cif.g09.slc.cpg/sg24_7_cif.got.tgz:12770.got - 2010.04.14 03:06:53.
