data_PCOD8164337
_publ_section_title
;
Structure prediction by ZEFSAII (Michael W. Deem and Ramdas Pophale) SiO2 
 PCOD8164337
Probable space group: I 2 2 2
;
_chemical_formula_sum "Si O2"
_cell_formula_units_Z 26
_cell_length_a 9.666281
_cell_length_b 6.877181
_cell_length_c 19.822334
_cell_angle_alpha 90.000000
_cell_angle_beta 90.000000
_cell_angle_gamma 90.000000
_cell_volume 1317.724620
_symmetry_space_group_name_H-M "I 2 2 2"
_symmetry_group_IT_number 23
_symmetry_cell_setting 'orthorhombic'
loop_
_space_group_symop_operation_xyz
x,y,z
-x,-y,z
x,-y,-z
-x,y,-z
1/2+x,1/2+y,1/2+z
1/2-x,1/2-y,1/2+z
1/2+x,1/2-y,1/2-z
1/2-x,1/2+y,1/2-z
loop_
_atom_site_type_symbol
_atom_site_label
_atom_site_fract_x
_atom_site_fract_y
_atom_site_fract_z
Si Si1 0.841857 0.137107 0.667413
Si Si2 0.879074 0.743071 0.615084
Si Si3 0.500000 0.000000 0.000000
Si Si4 0.846357 0.015100 0.184167
O O1 0.852364 0.014347 0.735864
O O2 0.706064 0.268743 0.666385
O O3 0.975966 0.275999 0.656812
O O4 0.840051 0.973086 0.608151
O O5 0.752091 0.646189 0.653269
O O6 0.899629 0.639199 0.543259
O O7 0.000000 0.000000 0.153093
#
# Coordination Sequence:
#
# PCOD8164337 Si02
#       4
#     8   8   2   8
#     4  11  21  39  65  98 132 165 221 270 339 387
#     4  11  24  41  63  99 125 182 222 266 321 390
#     4  12  24  46  70  84 138 184 238 264 292 412
#     4  12  21  37  64 101 136 167 207 283 340 391
#
# _framework density 19.730982000000001
#
# number of rings (size 3 to 8) (size 9 to 14) (size 15 to 20)
#    0.000    0.615    9.231    0.000    0.000    3.692 
#    0.000    0.769    0.000    0.000   16.000    0.000 
#    0.000    0.000    0.000    0.000    0.000    0.000 
#
# Total GULP energy -161161.749232 kJ/mol
# GULP energy per Si atom -12397.057633 kJ/mol
# Density = 1.968607 g / cm^3
# Si number density = 19.730982 Si / 1000 Ang^3
#
#
#
# Elastic Constant Matrix: (Units=GPa)
#
#
# Indices 1 2 3 4 5 6 
#
# 1 156.6491 85.7541 41.5800 0.0000 0.0000 0.0000
# 2 85.7541 132.6154 50.2124 0.0000 0.0000 0.0000
# 3 41.5800 50.2124 79.5160 0.0000 0.0000 0.0000
# 4 0.0000 0.0000 0.0000 43.0502 0.0000 0.0000
# 5 0.0000 0.0000 0.0000 0.0000 15.4447 0.0000
# 6 0.0000 0.0000 0.0000 0.0000 0.0000 48.6255
#
#
#
# Elastic Compliance Matrix: (Units=1/GPa)
#
#
# Indices 1 2 3 4 5 6 
#
# 1 0.010017 -0.005907 -0.001508 0.000000 0.000000 0.000000
# 2 -0.005907 0.013393 -0.005369 0.000000 0.000000 0.000000
# 3 -0.001508 -0.005369 0.016755 0.000000 0.000000 0.000000
# 4 0.000000 0.000000 0.000000 0.023229 0.000000 0.000000
# 5 0.000000 0.000000 0.000000 0.000000 0.064747 0.000000
# 6 0.000000 0.000000 0.000000 0.000000 0.000000 0.020565
#
#
# Mechanical properties :
#
#
# Convention : Reuss Voigt Hill
#
# Bulk Modulus (GPa) = 68.50210 80.43039 74.46624
# Shear Modulus (GPa) = 27.91122 34.17302 31.04212
#
# Velocity S-wave (km/s) = 3.76518 4.16618 3.97075
# Velocity P-wave (km/s) = 7.32772 7.99967 7.67106
#
# Compressibility (1/GPa) = 0.01459809
#
# Stress axis : x y z
#
# Youngs Moduli (GPa) = 99.82535 74.66756 59.68375
#
# Poissons Ratio (x) = 0.44103 0.09003
# Poissons Ratio (y) = 0.58962 0.32042
# Poissons Ratio (z) = 0.15058 0.40086
#
# Static dielectric constant tensor:
#      x y z
#    x 3.696760 0.000000 0.000000 
#    y 0.000000 3.834180 0.000000 
#    z 0.000000 0.000000 3.421790 
# 
# 
# High freq. dielectric constant tensor:
#      x y z
#    x 1.767920 0.000000 0.000000 
#    y 0.000000 1.792230 0.000000 
#    z 0.000000 0.000000 1.730790 
# 
# From -- ./inp_files/6372.got.cif
#   From: 2010.03.12/outbox.cif.g09.slc.cpg/sg23_4_cif.got.tgz:6372.got - 2010.04.14 02:50:06.
