data_PCOD8164438
_publ_section_title
;
Structure prediction by ZEFSAII (Michael W. Deem and Ramdas Pophale) SiO2 
 PCOD8164438
Probable space group: I 2 2 2
;
_chemical_formula_sum "Si O2"
_cell_formula_units_Z 32
_cell_length_a 10.066331
_cell_length_b 10.850086
_cell_length_c 12.984330
_cell_angle_alpha 90.000000
_cell_angle_beta 90.000000
_cell_angle_gamma 90.000000
_cell_volume 1418.155756
_symmetry_space_group_name_H-M "I 2 2 2"
_symmetry_group_IT_number 23
_symmetry_cell_setting 'orthorhombic'
loop_
_space_group_symop_operation_xyz
x,y,z
-x,-y,z
x,-y,-z
-x,y,-z
1/2+x,1/2+y,1/2+z
1/2-x,1/2-y,1/2+z
1/2+x,1/2-y,1/2-z
1/2-x,1/2+y,1/2-z
loop_
_atom_site_type_symbol
_atom_site_label
_atom_site_fract_x
_atom_site_fract_y
_atom_site_fract_z
Si Si1 0.384793 0.720762 0.580544
Si Si2 0.856048 0.857046 0.529093
Si Si3 0.170631 0.544249 0.613195
Si Si4 0.930263 0.308735 0.300078
O O1 0.500000 0.698699 0.500000
O O2 0.264689 0.796640 0.530793
O O3 0.322554 0.589963 0.613391
O O4 0.447644 0.788046 0.678700
O O5 0.857332 0.812327 0.649157
O O6 0.000000 0.803362 0.500000
O O7 0.848108 0.000000 0.500000
O O8 0.125333 0.500000 0.500000
O O9 0.167040 0.426077 0.687480
O O10 0.073690 0.653793 0.652852
#
# Coordination Sequence:
#
# PCOD8164438 Si02
#       4
#     8   8   8   8
#     4  12  29  45  74 117 154 182 254 319 371 437
#     4  11  24  46  73 104 149 197 247 305 371 453
#     4  11  23  49  78 102 145 209 251 295 366 464
#     4  11  24  45  79 105 145 203 248 297 384 441
#
# _framework density 22.564518
#
# number of rings (size 3 to 8) (size 9 to 14) (size 15 to 20)
#    0.000    0.750    5.000    1.500    7.000    3.000 
#    0.000    0.000    0.000    0.000    0.000    0.000 
#    0.000    0.000    0.000    0.000    0.000    0.000 
#
# Total GULP energy -198216.687517 kJ/mol
# GULP energy per Si atom -12388.542970 kJ/mol
# Density = 2.251316 g / cm^3
# Si number density = 22.564518 Si / 1000 Ang^3
#
#
#
# Elastic Constant Matrix: (Units=GPa)
#
#
# Indices 1 2 3 4 5 6 
#
# 1 153.1486 59.9105 62.9392 0.0000 0.0000 0.0000
# 2 59.9105 116.3349 47.4728 0.0000 0.0000 0.0000
# 3 62.9392 47.4728 152.9288 0.0000 0.0000 0.0000
# 4 0.0000 0.0000 0.0000 21.7077 0.0000 0.0000
# 5 0.0000 0.0000 0.0000 0.0000 17.8377 0.0000
# 6 0.0000 0.0000 0.0000 0.0000 0.0000 25.5571
#
#
#
# Elastic Compliance Matrix: (Units=1/GPa)
#
#
# Indices 1 2 3 4 5 6 
#
# 1 0.008993 -0.003573 -0.002592 0.000000 0.000000 0.000000
# 2 -0.003573 0.011263 -0.002026 0.000000 0.000000 0.000000
# 3 -0.002592 -0.002026 0.008234 0.000000 0.000000 0.000000
# 4 0.000000 0.000000 0.000000 0.046067 0.000000 0.000000
# 5 0.000000 0.000000 0.000000 0.000000 0.056061 0.000000
# 6 0.000000 0.000000 0.000000 0.000000 0.000000 0.039128
#
#
# Mechanical properties :
#
#
# Convention : Reuss Voigt Hill
#
# Bulk Modulus (GPa) = 82.58766 84.78416 83.68591
# Shear Modulus (GPa) = 26.29325 29.82650 28.05988
#
# Velocity S-wave (km/s) = 3.41728 3.63964 3.53021
# Velocity P-wave (km/s) = 7.22845 7.43763 7.33379
#
# Compressibility (1/GPa) = 0.01210835
#
# Stress axis : x y z
#
# Youngs Moduli (GPa) = 111.20233 88.78869 121.44175
#
# Poissons Ratio (x) = 0.31728 0.31474
# Poissons Ratio (y) = 0.39738 0.24598
# Poissons Ratio (z) = 0.28820 0.17984
#
# Static dielectric constant tensor:
#      x y z
#    x 4.123800 0.000000 0.000000 
#    y 0.000000 4.593920 0.000000 
#    z 0.000000 0.000000 3.983370 
# 
# 
# High freq. dielectric constant tensor:
#      x y z
#    x 1.889580 0.000000 0.000000 
#    y 0.000000 1.892560 0.000000 
#    z 0.000000 0.000000 1.886010 
# 
# From -- ./inp_files/9234.got.cif
#   From: 2010.03.12/outbox.cif.g09.slc.cpg/sg23_5_cif.got.tgz:9234.got - 2010.04.14 02:50:06.
