data_PCOD8164564
_publ_section_title
;
Structure prediction by ZEFSAII (Michael W. Deem and Ramdas Pophale) SiO2 
 PCOD8164564
Probable space group: I 2 2 2
;
_chemical_formula_sum "Si O2"
_cell_formula_units_Z 48
_cell_length_a 17.112078
_cell_length_b 9.394754
_cell_length_c 16.724181
_cell_angle_alpha 90.000000
_cell_angle_beta 90.000000
_cell_angle_gamma 90.000000
_cell_volume 2688.642275
_symmetry_space_group_name_H-M "I 2 2 2"
_symmetry_group_IT_number 23
_symmetry_cell_setting 'orthorhombic'
loop_
_space_group_symop_operation_xyz
x,y,z
-x,-y,z
x,-y,-z
-x,y,-z
1/2+x,1/2+y,1/2+z
1/2-x,1/2-y,1/2+z
1/2+x,1/2-y,1/2-z
1/2-x,1/2+y,1/2-z
loop_
_atom_site_type_symbol
_atom_site_label
_atom_site_fract_x
_atom_site_fract_y
_atom_site_fract_z
Si Si1 0.843470 0.333940 0.825468
Si Si2 0.192327 0.334259 0.645234
Si Si3 0.807673 0.334259 0.645234
Si Si4 0.587041 0.168944 1.000000
Si Si5 0.500000 0.169166 0.590392
Si Si6 0.343470 0.833940 0.674532
O O1 0.772500 0.250681 0.866255
O O2 0.846619 0.303581 0.730927
O O3 0.831569 0.500000 0.843683
O O4 0.923411 0.274814 0.863599
O O5 0.211567 0.500000 0.633920
O O6 0.131948 0.278043 0.578945
O O7 0.153381 0.303581 0.730927
O O8 0.868052 0.278043 0.578945
O O9 0.727500 0.249319 0.633745
O O10 0.500000 0.235096 0.000000
O O11 0.581570 0.000000 0.000000
O O12 0.500000 0.228394 0.500000
O O13 0.576589 0.225186 0.636401
O O14 0.500000 0.000000 0.590930
#
# Coordination Sequence:
#
# PCOD8164564 Si02
#       6
#     8   8   8   8   8   8
#     4   9  18  32  51  71  94 125 159 195 234 277
#     4   9  18  32  50  72  96 123 156 194 238 282
#     4   9  18  32  50  72  96 123 156 194 238 282
#     4   9  18  30  49  74  97 122 156 197 235 277
#     4   9  18  30  47  72  96 122 159 197 231 273
#     4   9  18  32  51  71  94 125 159 195 234 277
#
# _framework density 17.852878
#
# number of rings (size 3 to 8) (size 9 to 14) (size 15 to 20)
#    0.000    3.000    0.000    0.000    4.667    0.000 
#    0.000    0.833    0.000    3.000    0.000    0.000 
#    0.000    0.000    0.000    0.000    0.000    0.000 
#
# Total GULP energy -297612.347765 kJ/mol
# GULP energy per Si atom -12400.514490 kJ/mol
# Density = 1.781224 g / cm^3
# Si number density = 17.852878 Si / 1000 Ang^3
#
#
#
# Elastic Constant Matrix: (Units=GPa)
#
#
# Indices 1 2 3 4 5 6 
#
# 1 202.1148 43.6967 107.4231 0.0000 0.0000 0.0000
# 2 43.6967 28.3643 28.7030 0.0000 0.0000 0.0000
# 3 107.4231 28.7030 124.7359 0.0000 0.0000 0.0000
# 4 0.0000 0.0000 0.0000 16.0268 0.0000 0.0000
# 5 0.0000 0.0000 0.0000 0.0000 37.0908 0.0000
# 6 0.0000 0.0000 0.0000 0.0000 0.0000 27.3256
#
#
#
# Elastic Compliance Matrix: (Units=1/GPa)
#
#
# Indices 1 2 3 4 5 6 
#
# 1 0.010747 -0.009373 -0.007098 0.000000 0.000000 0.000000
# 2 -0.009373 0.054131 -0.004384 0.000000 0.000000 0.000000
# 3 -0.007098 -0.004384 0.015139 0.000000 0.000000 0.000000
# 4 0.000000 0.000000 0.000000 0.062395 0.000000 0.000000
# 5 0.000000 0.000000 0.000000 0.000000 0.026961 0.000000
# 6 0.000000 0.000000 0.000000 0.000000 0.000000 0.036596
#
#
# Mechanical properties :
#
#
# Convention : Reuss Voigt Hill
#
# Bulk Modulus (GPa) = 26.10541 79.42895 52.76718
# Shear Modulus (GPa) = 19.19760 27.78148 23.48954
#
# Velocity S-wave (km/s) = 3.28277 3.94907 3.63123
# Velocity P-wave (km/s) = 5.38730 8.08585 6.87037
#
# Compressibility (1/GPa) = 0.03830624
#
# Stress axis : x y z
#
# Youngs Moduli (GPa) = 93.05035 18.47354 66.05455
#
# Poissons Ratio (x) = 0.17315 0.46889
# Poissons Ratio (y) = 0.87215 0.28960
# Poissons Ratio (z) = 0.66051 0.08099
#
# Static dielectric constant tensor:
#      x y z
#    x 3.522330 0.000000 0.000000 
#    y 0.000000 2.934200 0.000000 
#    z 0.000000 0.000000 3.443390 
# 
# 
# High freq. dielectric constant tensor:
#      x y z
#    x 1.699040 0.000000 0.000000 
#    y 0.000000 1.646840 0.000000 
#    z 0.000000 0.000000 1.701560 
# 
# From -- ./inp_files/9915.got.cif
#   From: 2010.03.12/outbox.cif.g09.slc.cpg/sg23_5_cif.got.tgz:9915.got - 2010.04.14 02:50:06.
