data_PCOD8164802
_publ_section_title
;
Structure prediction by ZEFSAII (Michael W. Deem and Ramdas Pophale) SiO2 
 PCOD8164802
Probable space group: I 21 21 21
;
_chemical_formula_sum "Si O2"
_cell_formula_units_Z 44
_cell_length_a 10.088796
_cell_length_b 14.512106
_cell_length_c 15.167963
_cell_angle_alpha 90.000000
_cell_angle_beta 90.000000
_cell_angle_gamma 90.000000
_cell_volume 2220.736563
_symmetry_space_group_name_H-M "I 21 21 21"
_symmetry_group_IT_number 24
_symmetry_cell_setting 'orthorhombic'
loop_
_space_group_symop_operation_xyz
x,y,z
-x,1/2-y,z
x,-y,1/2-z
1/2-x,y,-z
1/2+x,1/2+y,1/2+z
1/2-x,-y,1/2+z
1/2+x,1/2-y,-z
-x,1/2+y,1/2-z
loop_
_atom_site_type_symbol
_atom_site_label
_atom_site_fract_x
_atom_site_fract_y
_atom_site_fract_z
Si Si1 0.050154 0.853973 0.544544
Si Si2 0.250000 0.360925 0.500000
Si Si3 0.593452 0.600458 0.818723
Si Si4 0.194212 0.538772 0.590142
Si Si5 0.000000 0.250000 0.441634
Si Si6 0.177469 0.907865 0.371462
Si Si7 0.350760 0.500000 0.750000
O O1 0.062304 0.882025 0.441557
O O2 0.188457 0.863546 0.594236
O O3 0.000000 0.750000 0.554045
O O4 0.956195 0.926570 0.595181
O O5 0.215913 0.427907 0.582809
O O6 0.386966 0.303302 0.504047
O O7 0.594038 0.684974 0.884068
O O8 0.683923 0.518975 0.860306
O O9 0.646338 0.635131 0.724054
O O10 0.443077 0.565300 0.809234
O O11 0.250000 0.587792 0.500000
O O12 0.264676 0.563657 0.682880
#
# Coordination Sequence:
#
# PCOD8164802 Si02
#       7
#     8   4   8   8   4   8   4
#     4  11  23  37  60  93 123 165 204 265 315 379
#     4  10  24  40  60  96 124 172 206 274 320 372
#     4  10  21  40  65  89 117 169 206 263 310 378
#     4  10  21  40  61  86 124 162 211 253 327 381
#     4  12  22  40  66  98 124 164 230 260 316 382
#     4   9  22  41  58  88 127 160 208 253 333 370
#     4  10  18  38  66  88 114 166 210 250 318 374
#
# _framework density 19.813247
#
# number of rings (size 3 to 8) (size 9 to 14) (size 15 to 20)
#    0.545    1.455    1.818    3.273    3.818    5.818 
#    0.000    0.000    0.000    0.000    0.000    0.000 
#    0.000    0.000    0.000    0.000    0.000    0.000 
#
# Total GULP energy -272560.800472 kJ/mol
# GULP energy per Si atom -12389.127294 kJ/mol
# Density = 1.976815 g / cm^3
# Si number density = 19.813247 Si / 1000 Ang^3
#
#
#
# Elastic Constant Matrix: (Units=GPa)
#
#
# Indices 1 2 3 4 5 6 
#
# 1 95.2750 38.4679 38.5198 0.0000 0.0000 0.0000
# 2 38.4679 83.5410 24.4941 0.0000 0.0000 0.0000
# 3 38.5198 24.4941 88.3458 0.0000 0.0000 0.0000
# 4 0.0000 0.0000 0.0000 -35.7835 0.0000 0.0000
# 5 0.0000 0.0000 0.0000 0.0000 35.5933 0.0000
# 6 0.0000 0.0000 0.0000 0.0000 0.0000 31.0996
#
#
#
# Elastic Compliance Matrix: (Units=1/GPa)
#
#
# Indices 1 2 3 4 5 6 
#
# 1 0.014616 -0.005292 -0.004906 0.000000 0.000000 0.000000
# 2 -0.005292 0.014945 -0.001836 0.000000 0.000000 0.000000
# 3 -0.004906 -0.001836 0.013967 0.000000 0.000000 0.000000
# 4 0.000000 0.000000 0.000000 -0.027946 0.000000 0.000000
# 5 0.000000 0.000000 0.000000 0.000000 0.028095 0.000000
# 6 0.000000 0.000000 0.000000 0.000000 0.000000 0.032155
#
#
# Mechanical properties :
#
#
# Convention : Reuss Voigt Hill
#
# Bulk Modulus (GPa) = 51.38490 52.23614 51.81052
# Shear Modulus (GPa) = 46.99835 17.22721 32.11278
#
# Velocity S-wave (km/s) = 4.87567 2.95189 4.03025
# Velocity P-wave (km/s) = 7.59521 6.16763 6.91834
#
# Compressibility (1/GPa) = 0.01946097
#
# Stress axis : x y z
#
# Youngs Moduli (GPa) = 68.41889 66.91067 71.59666
#
# Poissons Ratio (x) = 0.35408 0.35122
# Poissons Ratio (y) = 0.36206 0.13147
# Poissons Ratio (z) = 0.33563 0.12287
#
# Static dielectric constant tensor:
#      x y z
#    x 3.501590 0.000000 0.000000 
#    y 0.000000 3.481930 0.000000 
#    z 0.000000 0.000000 3.603660 
# 
# 
# High freq. dielectric constant tensor:
#      x y z
#    x 1.771420 0.000000 0.000000 
#    y 0.000000 1.757170 0.000000 
#    z 0.000000 0.000000 1.770880 
# 
# From -- ./inp_files/29449.got.cif
#   From: 2010.03.12/outbox.cif.g09.slc.cpg/sg24_15_cif.got.tgz:29449.got - 2010.04.14 03:06:53.
