data_PCOD8164894
_publ_section_title
;
Structure prediction by ZEFSAII (Michael W. Deem and Ramdas Pophale) SiO2 
 PCOD8164894
Probable space group: I 21 21 21
;
_chemical_formula_sum "Si O2"
_cell_formula_units_Z 40
_cell_length_a 11.378132
_cell_length_b 13.856970
_cell_length_c 13.427893
_cell_angle_alpha 90.000000
_cell_angle_beta 90.000000
_cell_angle_gamma 90.000000
_cell_volume 2117.128002
_symmetry_space_group_name_H-M "I 21 21 21"
_symmetry_group_IT_number 24
_symmetry_cell_setting 'orthorhombic'
loop_
_space_group_symop_operation_xyz
x,y,z
-x,1/2-y,z
x,-y,1/2-z
1/2-x,y,-z
1/2+x,1/2+y,1/2+z
1/2-x,-y,1/2+z
1/2+x,1/2-y,-z
-x,1/2+y,1/2-z
loop_
_atom_site_type_symbol
_atom_site_label
_atom_site_fract_x
_atom_site_fract_y
_atom_site_fract_z
Si Si1 0.103990 0.677190 0.332476
Si Si2 0.854491 0.582505 0.057575
Si Si3 0.750000 0.924318 0.500000
Si Si4 0.401378 0.599335 0.030611
Si Si5 0.277976 0.287456 0.635463
Si Si6 0.465989 0.000000 0.750000
O O1 0.182496 0.646331 0.425122
O O2 0.192271 0.723849 0.251663
O O3 0.000000 0.750000 0.365656
O O4 0.048532 0.587977 0.275902
O O5 0.802371 0.685427 0.086649
O O6 0.886373 0.521470 0.154399
O O7 0.750000 0.526169 0.000000
O O8 0.958795 0.594027 0.976662
O O9 0.847587 0.992803 0.552824
O O10 0.356593 0.675777 0.115052
O O11 0.358639 0.633108 0.920676
#
# Coordination Sequence:
#
# PCOD8164894 Si02
#       6
#     8   8   4   8   8   4
#     4  12  21  40  66  88 123 165 214 257 310 393
#     4  12  22  37  63  93 130 159 208 260 315 377
#     4  10  22  38  60  90 118 166 216 256 294 376
#     4  10  19  35  60  95 122 153 208 263 315 358
#     4  10  19  33  64  93 113 154 206 263 317 358
#     4  12  22  40  62  92 122 166 212 250 310 382
#
# _framework density 18.893519999999999
#
# number of rings (size 3 to 8) (size 9 to 14) (size 15 to 20)
#    0.000    1.200    8.000    1.800    0.000    0.000 
#    1.800    2.000    4.400    0.000    0.000    0.000 
#    0.000    0.000    0.000    0.000    0.000    0.000 
#
# Total GULP energy -247858.526089 kJ/mol
# GULP energy per Si atom -12392.926304 kJ/mol
# Density = 1.885052 g / cm^3
# Si number density = 18.893520 Si / 1000 Ang^3
#
#
#
# Elastic Constant Matrix: (Units=GPa)
#
#
# Indices 1 2 3 4 5 6 
#
# 1 101.5937 7.3920 38.8283 0.0000 0.0000 0.0000
# 2 7.3920 52.6792 16.1605 0.0000 0.0000 0.0000
# 3 38.8283 16.1605 85.2342 0.0000 0.0000 0.0000
# 4 0.0000 0.0000 0.0000 29.0086 0.0000 0.0000
# 5 0.0000 0.0000 0.0000 0.0000 38.7684 0.0000
# 6 0.0000 0.0000 0.0000 0.0000 0.0000 -14.5534
#
#
#
# Elastic Compliance Matrix: (Units=1/GPa)
#
#
# Indices 1 2 3 4 5 6 
#
# 1 0.011918 -0.000007 -0.005428 0.000000 0.000000 0.000000
# 2 -0.000007 0.020155 -0.003818 0.000000 0.000000 0.000000
# 3 -0.005428 -0.003818 0.014929 0.000000 0.000000 0.000000
# 4 0.000000 0.000000 0.000000 0.034473 0.000000 0.000000
# 5 0.000000 0.000000 0.000000 0.000000 0.025794 0.000000
# 6 0.000000 0.000000 0.000000 0.000000 0.000000 -0.068712
#
#
# Mechanical properties :
#
#
# Convention : Reuss Voigt Hill
#
# Bulk Modulus (GPa) = 35.09303 40.47429 37.78366
# Shear Modulus (GPa) = 75.11812 22.45313 48.78563
#
# Velocity S-wave (km/s) = 6.31229 3.45106 5.08698
# Velocity P-wave (km/s) = 8.47001 6.11135 7.38545
#
# Compressibility (1/GPa) = 0.02849569
#
# Stress axis : x y z
#
# Youngs Moduli (GPa) = 83.90547 49.61514 66.98381
#
# Poissons Ratio (x) = 0.00036 0.36358
# Poissons Ratio (y) = 0.00061 0.25575
# Poissons Ratio (z) = 0.45543 0.18944
#
# Static dielectric constant tensor:
#      x y z
#    x 4.092380 0.000000 0.000000 
#    y 0.000000 3.445880 0.000000 
#    z 0.000000 0.000000 4.455740 
# 
# 
# High freq. dielectric constant tensor:
#      x y z
#    x 1.730250 0.000000 0.000000 
#    y 0.000000 1.728180 0.000000 
#    z 0.000000 0.000000 1.712180 
# 
# From -- ./inp_files/25596.got.cif
#   From: 2010.03.12/outbox.cif.g09.slc.cpg/sg24_13_cif.got.tgz:25596.got - 2010.04.14 03:06:53.
