data_PCOD8164817
_publ_section_title
;
Structure prediction by ZEFSAII (Michael W. Deem and Ramdas Pophale) SiO2 
 PCOD8164817
Probable space group: I 21 21 21
;
_chemical_formula_sum "Si O2"
_cell_formula_units_Z 56
_cell_length_a 8.122960
_cell_length_b 18.366869
_cell_length_c 17.202837
_cell_angle_alpha 90.000000
_cell_angle_beta 90.000000
_cell_angle_gamma 90.000000
_cell_volume 2566.548748
_symmetry_space_group_name_H-M "I 21 21 21"
_symmetry_group_IT_number 24
_symmetry_cell_setting 'orthorhombic'
loop_
_space_group_symop_operation_xyz
x,y,z
-x,1/2-y,z
x,-y,1/2-z
1/2-x,y,-z
1/2+x,1/2+y,1/2+z
1/2-x,-y,1/2+z
1/2+x,1/2-y,-z
-x,1/2+y,1/2-z
loop_
_atom_site_type_symbol
_atom_site_label
_atom_site_fract_x
_atom_site_fract_y
_atom_site_fract_z
Si Si1 0.322336 0.736806 0.575715
Si Si2 0.750000 0.087835 0.500000
Si Si3 0.082160 0.325958 0.363359
Si Si4 0.202004 0.500000 0.750000
Si Si5 0.610949 0.639456 0.345472
Si Si6 0.244614 0.346579 0.785219
Si Si7 0.516236 0.482623 0.391281
Si Si8 0.798758 0.574494 0.204256
O O1 0.500000 0.750000 0.542248
O O2 0.250000 0.696303 0.500000
O O3 0.210183 0.806599 0.598407
O O4 0.359830 0.685370 0.648522
O O5 0.825121 0.140308 0.435910
O O6 0.595908 0.040162 0.465739
O O7 0.217301 0.308185 0.296846
O O8 0.000000 0.250000 0.388927
O O9 0.959192 0.385980 0.328451
O O10 0.300668 0.431866 0.784234
O O11 0.088885 0.463692 0.684870
O O12 0.439635 0.672270 0.313493
O O13 0.564844 0.567634 0.395793
O O14 0.715411 0.625707 0.268106
O O15 0.684263 0.437890 0.373160
O O16 0.844340 0.500000 0.250000
#
# Coordination Sequence:
#
# PCOD8164817 Si02
#       8
#     8   4   8   4   8   8   8   8
#     4  12  26  46  64 102 146 188 232 285 363 438
#     4  12  26  46  66  98 150 190 232 310 362 422
#     4  12  27  43  67 103 136 187 246 296 360 433
#     4  10  18  42  72 102 124 176 240 282 344 426
#     4  10  20  42  71 100 135 179 231 292 356 428
#     4  11  21  42  71  97 139 178 232 287 352 425
#     4  10  20  44  70 103 136 180 236 294 356 424
#     4  10  20  40  71  99 133 176 237 298 353 433
#
# _framework density 21.819184
#
# number of rings (size 3 to 8) (size 9 to 14) (size 15 to 20)
#    0.000    1.143    5.000    3.429    1.000    1.714 
#   15.429    1.429    0.000    0.000    0.000    0.000 
#    0.000    0.000    0.000    0.000    0.000    0.000 
#
# Total GULP energy -346882.368691 kJ/mol
# GULP energy per Si atom -12388.656025 kJ/mol
# Density = 2.176952 g / cm^3
# Si number density = 21.819184 Si / 1000 Ang^3
#
#
#
# Elastic Constant Matrix: (Units=GPa)
#
#
# Indices 1 2 3 4 5 6 
#
# 1 100.6040 34.5448 48.4955 0.0000 0.0000 0.0000
# 2 34.5448 97.4999 39.9847 0.0000 0.0000 0.0000
# 3 48.4955 39.9847 133.9194 0.0000 0.0000 0.0000
# 4 0.0000 0.0000 0.0000 29.2867 0.0000 0.0000
# 5 0.0000 0.0000 0.0000 0.0000 41.2406 0.0000
# 6 0.0000 0.0000 0.0000 0.0000 0.0000 13.0307
#
#
#
# Elastic Compliance Matrix: (Units=1/GPa)
#
#
# Indices 1 2 3 4 5 6 
#
# 1 0.012765 -0.002994 -0.003729 0.000000 0.000000 0.000000
# 2 -0.002994 0.012390 -0.002615 0.000000 0.000000 0.000000
# 3 -0.003729 -0.002615 0.009598 0.000000 0.000000 0.000000
# 4 0.000000 0.000000 0.000000 0.034145 0.000000 0.000000
# 5 0.000000 0.000000 0.000000 0.000000 0.024248 0.000000
# 6 0.000000 0.000000 0.000000 0.000000 0.000000 0.076742
#
#
# Mechanical properties :
#
#
# Convention : Reuss Voigt Hill
#
# Bulk Modulus (GPa) = 62.19673 64.23035 63.21354
# Shear Modulus (GPa) = 25.78345 30.64482 28.21413
#
# Velocity S-wave (km/s) = 3.44130 3.75172 3.59986
# Velocity P-wave (km/s) = 6.66014 6.94756 6.80537
#
# Compressibility (1/GPa) = 0.01607802
#
# Stress axis : x y z
#
# Youngs Moduli (GPa) = 78.33702 80.71323 104.18537
#
# Poissons Ratio (x) = 0.24163 0.38849
# Poissons Ratio (y) = 0.23451 0.27246
# Poissons Ratio (z) = 0.29211 0.21107
#
# Static dielectric constant tensor:
#      x y z
#    x 4.058790 0.000000 0.000000 
#    y 0.000000 3.988700 0.000000 
#    z 0.000000 0.000000 4.051790 
# 
# 
# High freq. dielectric constant tensor:
#      x y z
#    x 1.868070 0.000000 0.000000 
#    y 0.000000 1.853450 0.000000 
#    z 0.000000 0.000000 1.854140 
# 
# From -- ./inp_files/25101.got.cif
#   From: 2010.03.12/outbox.cif.g09.slc.cpg/sg24_13_cif.got.tgz:25101.got - 2010.04.14 03:06:53.
