data_PCOD8164693
_publ_section_title
;
Structure prediction by ZEFSAII (Michael W. Deem and Ramdas Pophale) SiO2 
 PCOD8164693
Probable space group: I 21 21 21
;
_chemical_formula_sum "Si O2"
_cell_formula_units_Z 64
_cell_length_a 23.377421
_cell_length_b 8.624290
_cell_length_c 19.074931
_cell_angle_alpha 90.000000
_cell_angle_beta 90.000000
_cell_angle_gamma 90.000000
_cell_volume 3845.766618
_symmetry_space_group_name_H-M "I 21 21 21"
_symmetry_group_IT_number 24
_symmetry_cell_setting 'orthorhombic'
loop_
_space_group_symop_operation_xyz
x,y,z
-x,1/2-y,z
x,-y,1/2-z
1/2-x,y,-z
1/2+x,1/2+y,1/2+z
1/2-x,-y,1/2+z
1/2+x,1/2-y,-z
-x,1/2+y,1/2-z
loop_
_atom_site_type_symbol
_atom_site_label
_atom_site_fract_x
_atom_site_fract_y
_atom_site_fract_z
Si Si1 0.331025 0.679576 0.023855
Si Si2 0.111609 0.816561 0.750000
Si Si3 0.331025 0.320424 0.023855
Si Si4 0.559698 0.180759 0.110583
Si Si5 0.940302 0.819242 0.889417
Si Si6 0.725201 0.681726 0.600318
Si Si7 0.759770 0.683809 0.750000
Si Si8 0.274799 0.818274 0.899682
O O1 0.315123 0.500000 0.034407
O O2 0.395004 0.715588 0.048906
O O3 0.287609 0.783455 0.068712
O O4 0.324121 0.726358 0.942014
O O5 0.078114 0.760653 0.682170
O O6 0.078115 0.760653 0.817831
O O7 0.175929 0.746136 0.750000
O O8 0.112880 0.000000 0.750000
O O9 0.395004 0.284412 0.048906
O O10 0.287609 0.216545 0.068712
O O11 0.324121 0.273642 0.942015
O O12 0.500000 0.250000 0.084034
O O13 0.553347 0.000000 0.125214
O O14 0.000000 0.750000 0.915966
O O15 0.725174 0.738817 0.681143
O O16 0.712961 0.500000 0.594555
O O17 0.765988 0.500000 0.750000
O O18 0.725174 0.738817 0.818857
#
# Coordination Sequence:
#
# PCOD8164693 Si02
#       8
#     8   8   8   8   8   8   8   8
#     4  10  20  33  47  70  98 125 160 203 244 285
#     4  11  20  34  51  69 100 133 169 205 236 282
#     4  10  20  33  47  70  98 125 160 203 244 285
#     4  11  23  36  50  69  97 132 171 206 243 287
#     4  11  23  36  50  69  97 132 171 206 243 287
#     4  10  18  31  51  72  96 127 161 196 239 289
#     4   9  18  30  48  75 100 127 162 197 233 286
#     4  10  18  31  51  72  96 127 161 196 239 289
#
# _framework density 16.641674999999999
#
# number of rings (size 3 to 8) (size 9 to 14) (size 15 to 20)
#    0.000    1.750    2.500    4.500    0.000    3.000 
#    0.000    2.500    0.000    0.000    0.000    0.875 
#    0.000    0.000    0.000    0.000    0.000    0.000 
#
# Total GULP energy -396803.682365 kJ/mol
# GULP energy per Si atom -12400.115074 kJ/mol
# Density = 1.660380 g / cm^3
# Si number density = 16.641675 Si / 1000 Ang^3
#
#
#
# Elastic Constant Matrix: (Units=GPa)
#
#
# Indices 1 2 3 4 5 6 
#
# 1 101.8021 33.2051 63.0550 0.0000 0.0000 0.0000
# 2 33.2051 59.6414 26.2008 0.0000 0.0000 0.0000
# 3 63.0550 26.2008 128.6164 0.0000 0.0000 0.0000
# 4 0.0000 0.0000 0.0000 22.1924 0.0000 0.0000
# 5 0.0000 0.0000 0.0000 0.0000 27.6069 0.0000
# 6 0.0000 0.0000 0.0000 0.0000 0.0000 24.6910
#
#
#
# Elastic Compliance Matrix: (Units=1/GPa)
#
#
# Indices 1 2 3 4 5 6 
#
# 1 0.015809 -0.005927 -0.006543 0.000000 0.000000 0.000000
# 2 -0.005927 0.020637 -0.001298 0.000000 0.000000 0.000000
# 3 -0.006543 -0.001298 0.011247 0.000000 0.000000 0.000000
# 4 0.000000 0.000000 0.000000 0.045060 0.000000 0.000000
# 5 0.000000 0.000000 0.000000 0.000000 0.036223 0.000000
# 6 0.000000 0.000000 0.000000 0.000000 0.000000 0.040501
#
#
# Mechanical properties :
#
#
# Convention : Reuss Voigt Hill
#
# Bulk Modulus (GPa) = 49.61165 59.44242 54.52704
# Shear Modulus (GPa) = 24.54195 26.07132 25.30663
#
# Velocity S-wave (km/s) = 3.84439 3.96236 3.90382
# Velocity P-wave (km/s) = 7.04146 7.53195 7.29083
#
# Compressibility (1/GPa) = 0.02015655
#
# Stress axis : x y z
#
# Youngs Moduli (GPa) = 63.25541 48.45636 88.91051
#
# Poissons Ratio (x) = 0.28721 0.58174
# Poissons Ratio (y) = 0.37493 0.11542
# Poissons Ratio (z) = 0.41388 0.06291
#
# Static dielectric constant tensor:
#      x y z
#    x 3.100200 0.000000 0.000000 
#    y 0.000000 3.157920 0.000000 
#    z 0.000000 0.000000 3.505950 
# 
# 
# High freq. dielectric constant tensor:
#      x y z
#    x 1.613900 0.000000 0.000000 
#    y 0.000000 1.649240 0.000000 
#    z 0.000000 0.000000 1.638010 
# 
# From -- ./inp_files/31586.got.cif
#   From: 2010.03.12/outbox.cif.g09.slc.cpg/sg24_16_cif.got.tgz:31586.got - 2010.04.14 03:06:53.
