data_PCOD8164971
_publ_section_title
;
Structure prediction by ZEFSAII (Michael W. Deem and Ramdas Pophale) SiO2 
 PCOD8164971
Probable space group: I 21 21 21
;
_chemical_formula_sum "Si O2"
_cell_formula_units_Z 36
_cell_length_a 13.792565
_cell_length_b 8.484637
_cell_length_c 14.243931
_cell_angle_alpha 90.000000
_cell_angle_beta 90.000000
_cell_angle_gamma 90.000000
_cell_volume 1666.894705
_symmetry_space_group_name_H-M "I 21 21 21"
_symmetry_group_IT_number 24
_symmetry_cell_setting 'orthorhombic'
loop_
_space_group_symop_operation_xyz
x,y,z
-x,1/2-y,z
x,-y,1/2-z
1/2-x,y,-z
1/2+x,1/2+y,1/2+z
1/2-x,-y,1/2+z
1/2+x,1/2-y,-z
-x,1/2+y,1/2-z
loop_
_atom_site_type_symbol
_atom_site_label
_atom_site_fract_x
_atom_site_fract_y
_atom_site_fract_z
Si Si1 0.794311 0.571604 0.354027
Si Si2 0.265407 0.427789 0.847683
Si Si3 0.377342 0.940496 0.036484
Si Si4 0.036789 0.426635 0.849213
Si Si5 0.750000 0.842661 0.000000
O O1 0.807116 0.500000 0.250000
O O2 0.815052 0.757695 0.354123
O O3 0.868870 0.490632 0.427010
O O4 0.685767 0.549682 0.393243
O O5 0.296273 0.500000 0.750000
O O6 0.150695 0.424959 0.864129
O O7 0.306169 0.546887 0.925761
O O8 0.487586 0.961506 0.070775
O O9 0.333952 0.764263 0.048285
O O10 0.006767 0.500000 0.750000
O O11 0.000000 0.250000 0.858030
#
# Coordination Sequence:
#
# PCOD8164971 Si02
#       5
#     8   8   8   8   4
#     4  10  19  36  59  84 119 158 203 239 294 357
#     4  11  22  35  58  89 119 149 197 249 297 357
#     4  10  21  36  57  85 120 161 196 242 303 357
#     4  11  24  36  60  91 124 156 190 248 310 357
#     4  10  22  36  56  82 122 156 194 246 288 356
#
# _framework density 21.597045999999999
#
# number of rings (size 3 to 8) (size 9 to 14) (size 15 to 20)
#    0.000    1.778    2.222    4.667    6.222    0.000 
#    0.000    0.000    0.000    1.333    0.000    0.000 
#    0.000    0.000    0.000    0.000    0.000    0.000 
#
# Total GULP energy -223150.147720 kJ/mol
# GULP energy per Si atom -12397.230429 kJ/mol
# Density = 2.154789 g / cm^3
# Si number density = 21.597046 Si / 1000 Ang^3
#
#
#
# Elastic Constant Matrix: (Units=GPa)
#
#
# Indices 1 2 3 4 5 6 
#
# 1 23.8482 -5.4872 9.8783 0.0000 0.0000 0.0000
# 2 -5.4872 145.6683 37.1771 0.0000 0.0000 0.0000
# 3 9.8783 37.1771 146.7982 0.0000 0.0000 0.0000
# 4 0.0000 0.0000 0.0000 43.9882 0.0000 0.0000
# 5 0.0000 0.0000 0.0000 0.0000 16.7701 0.0000
# 6 0.0000 0.0000 0.0000 0.0000 0.0000 8.3275
#
#
#
# Elastic Compliance Matrix: (Units=1/GPa)
#
#
# Indices 1 2 3 4 5 6 
#
# 1 0.044024 0.002581 -0.003616 0.000000 0.000000 0.000000
# 2 0.002581 0.007491 -0.002071 0.000000 0.000000 0.000000
# 3 -0.003616 -0.002071 0.007580 0.000000 0.000000 0.000000
# 4 0.000000 0.000000 0.000000 0.022733 0.000000 0.000000
# 5 0.000000 0.000000 0.000000 0.000000 0.059630 0.000000
# 6 0.000000 0.000000 0.000000 0.000000 0.000000 0.120084
#
#
# Mechanical properties :
#
#
# Convention : Reuss Voigt Hill
#
# Bulk Modulus (GPa) = 18.90972 44.38346 31.64659
# Shear Modulus (GPa) = 17.52048 32.13359 24.82703
#
# Velocity S-wave (km/s) = 2.85132 3.86148 3.39419
# Velocity P-wave (km/s) = 4.42886 6.36213 5.48140
#
# Compressibility (1/GPa) = 0.05288286
#
# Stress axis : x y z
#
# Youngs Moduli (GPa) = 22.71506 133.50017 131.92917
#
# Poissons Ratio (x) = -0.34459 0.47707
# Poissons Ratio (y) = -0.05863 0.27319
# Poissons Ratio (z) = 0.08214 0.27644
#
# Static dielectric constant tensor:
#      x y z
#    x 3.463320 0.000000 0.000000 
#    y 0.000000 4.117890 0.000000 
#    z 0.000000 0.000000 3.808340 
# 
# 
# High freq. dielectric constant tensor:
#      x y z
#    x 1.799940 0.000000 0.000000 
#    y 0.000000 1.870200 0.000000 
#    z 0.000000 0.000000 1.857020 
# 
# From -- ./inp_files/12476.got.cif
#   From: 2010.03.12/outbox.cif.g09.slc.cpg/sg24_7_cif.got.tgz:12476.got - 2010.04.14 03:06:53.
