data_PCOD8164219
_publ_section_title
;
Structure prediction by ZEFSAII (Michael W. Deem and Ramdas Pophale) SiO2 
 PCOD8164219
Probable space group: I 2 2 2
;
_chemical_formula_sum "Si O2"
_cell_formula_units_Z 48
_cell_length_a 10.592353
_cell_length_b 24.945533
_cell_length_c 8.906185
_cell_angle_alpha 90.000000
_cell_angle_beta 90.000000
_cell_angle_gamma 90.000000
_cell_volume 2353.298107
_symmetry_space_group_name_H-M "I 2 2 2"
_symmetry_group_IT_number 23
_symmetry_cell_setting 'orthorhombic'
loop_
_space_group_symop_operation_xyz
x,y,z
-x,-y,z
x,-y,-z
-x,y,-z
1/2+x,1/2+y,1/2+z
1/2-x,1/2-y,1/2+z
1/2+x,1/2-y,1/2-z
1/2-x,1/2+y,1/2-z
loop_
_atom_site_type_symbol
_atom_site_label
_atom_site_fract_x
_atom_site_fract_y
_atom_site_fract_z
Si Si1 0.254880 0.898830 0.179280
Si Si2 0.142199 0.002985 0.662744
Si Si3 0.753434 0.903992 0.172633
Si Si4 0.639819 0.289235 0.320966
Si Si5 0.496311 0.062681 0.323022
Si Si6 0.147735 0.783632 0.172985
O O1 0.164056 0.942455 0.250444
O O2 0.389768 0.903747 0.255615
O O3 0.192437 0.842465 0.219580
O O4 0.272304 0.907869 0.003293
O O5 0.217853 0.000000 0.500000
O O6 0.170083 0.955321 0.775611
O O7 0.000000 0.000000 0.616142
O O8 0.835328 0.851726 0.212034
O O9 0.622843 0.904990 0.261770
O O10 0.750883 0.257445 0.238720
O O11 0.649873 0.276276 0.495517
O O12 0.496612 0.274540 0.265966
O O13 0.500000 0.066905 0.500000
O O14 0.500000 0.000000 0.270779
#
# Coordination Sequence:
#
# PCOD8164219 Si02
#       6
#     8   8   8   8   8   8
#     4  11  23  40  64  91 125 164 211 262 314 378
#     4  11  23  38  59  90 125 161 205 255 316 383
#     4  11  23  40  64  91 125 164 211 262 314 378
#     4  10  24  45  67  95 128 165 213 266 321 381
#     4  11  23  39  61  93 132 168 208 255 316 381
#     4  10  24  45  67  95 128 165 213 266 321 381
#
# _framework density 20.396905
#
# number of rings (size 3 to 8) (size 9 to 14) (size 15 to 20)
#    0.000    1.333    1.667    3.000    2.333    6.667 
#    0.000    0.000    0.000    0.000    0.000    0.000 
#    0.000    0.000    0.000    0.000    0.000    0.000 
#
# Total GULP energy -297530.269457 kJ/mol
# GULP energy per Si atom -12397.094561 kJ/mol
# Density = 2.035048 g / cm^3
# Si number density = 20.396905 Si / 1000 Ang^3
#
#
#
# Elastic Constant Matrix: (Units=GPa)
#
#
# Indices 1 2 3 4 5 6 
#
# 1 120.5537 11.1907 23.8856 0.0004 -0.0002 -0.0002
# 2 11.1907 67.9772 26.8951 0.0001 0.0003 -0.0005
# 3 23.8856 26.8951 64.9916 0.0023 0.0000 -0.0008
# 4 0.0004 0.0001 0.0023 13.6255 -0.0007 -0.0005
# 5 -0.0002 0.0003 0.0000 -0.0007 32.5802 0.0002
# 6 -0.0002 -0.0005 -0.0008 -0.0005 0.0002 37.1165
#
#
#
# Elastic Compliance Matrix: (Units=1/GPa)
#
#
# Indices 1 2 3 4 5 6 
#
# 1 0.008949 -0.000206 -0.003204 0.000000 0.000000 0.000000
# 2 -0.000206 0.017596 -0.007206 0.000001 0.000000 0.000000
# 3 -0.003204 -0.007206 0.019546 -0.000003 0.000000 0.000000
# 4 0.000000 0.000001 -0.000003 0.073392 0.000002 0.000001
# 5 0.000000 0.000000 0.000000 0.000002 0.030693 0.000000
# 6 0.000000 0.000000 0.000000 0.000001 0.000000 0.026942
#
#
# Mechanical properties :
#
#
# Convention : Reuss Voigt Hill
#
# Bulk Modulus (GPa) = 40.22540 41.94058 41.08299
# Shear Modulus (GPa) = 24.19719 29.43451 26.81585
#
# Velocity S-wave (km/s) = 3.44803 3.80292 3.62982
# Velocity P-wave (km/s) = 5.96792 6.31584 6.14434
#
# Compressibility (1/GPa) = 0.02485992
#
# Stress axis : x y z
#
# Youngs Moduli (GPa) = 111.74522 56.83213 51.16125
#
# Poissons Ratio (x) = 0.01169 0.16391
# Poissons Ratio (y) = 0.02298 0.36866
# Poissons Ratio (z) = 0.35801 0.40953
#
# Static dielectric constant tensor:
#      x y z
#    x 3.855040 -0.000010 0.000000 
#    y -0.000010 3.710320 -0.000010 
#    z 0.000000 -0.000010 3.736020 
# 
# 
# High freq. dielectric constant tensor:
#      x y z
#    x 1.816180 0.000000 0.000000 
#    y 0.000000 1.797650 0.000000 
#    z 0.000000 0.000000 1.804860 
# 
# From -- ./inp_files/8661.got.cif
#   From: 2010.03.12/outbox.cif.g09.slc.cpg/sg23_5_cif.got.tgz:8661.got - 2010.04.14 02:50:06.
