data_PCOD8164505
_publ_section_title
;
Structure prediction by ZEFSAII (Michael W. Deem and Ramdas Pophale) SiO2 
 PCOD8164505
Probable space group: I 2 2 2
;
_chemical_formula_sum "Si O2"
_cell_formula_units_Z 48
_cell_length_a 18.112106
_cell_length_b 19.466893
_cell_length_c 6.245205
_cell_angle_alpha 90.000000
_cell_angle_beta 90.000000
_cell_angle_gamma 90.000000
_cell_volume 2201.974532
_symmetry_space_group_name_H-M "I 2 2 2"
_symmetry_group_IT_number 23
_symmetry_cell_setting 'orthorhombic'
loop_
_space_group_symop_operation_xyz
x,y,z
-x,-y,z
x,-y,-z
-x,y,-z
1/2+x,1/2+y,1/2+z
1/2-x,1/2-y,1/2+z
1/2+x,1/2-y,1/2-z
1/2-x,1/2+y,1/2-z
loop_
_atom_site_type_symbol
_atom_site_label
_atom_site_fract_x
_atom_site_fract_y
_atom_site_fract_z
Si Si1 0.000000 0.500000 0.500000
Si Si2 0.439957 0.247670 0.150642
Si Si3 0.500000 0.500000 0.000000
Si Si4 0.388182 0.060078 0.657092
Si Si5 0.425902 0.431813 0.618588
Si Si6 0.675333 0.814195 0.841631
Si Si7 0.840037 0.196838 0.998733
Si Si8 0.000000 0.657359 0.000000
O O1 0.946295 0.541802 0.343133
O O2 0.394707 0.300105 0.297846
O O3 0.496803 0.202102 0.286925
O O4 0.500000 0.287525 0.000000
O O5 0.381869 0.197944 0.033169
O O6 0.446544 0.451440 0.860579
O O7 0.323957 0.105781 0.765637
O O8 0.427829 0.110665 0.492800
O O9 0.357377 0.000000 0.500000
O O10 0.394877 0.500000 0.500000
O O11 0.500000 0.405127 0.500000
O O12 0.362537 0.373177 0.624421
O O13 0.756885 0.801208 0.922784
O O14 0.650611 0.762739 0.652244
#
# Coordination Sequence:
#
# PCOD8164505 Si02
#       8
#     2   8   2   8   8   8   8   4
#     4  12  22  40  66 102 140 188 220 298 344 394
#     4  12  24  42  73 104 137 186 242 297 346 416
#     4   8  18  48  74 106 132 172 230 304 352 426
#     4  12  24  40  67 101 140 184 233 284 341 409
#     4   9  22  44  72 106 136 169 235 294 351 429
#     4  12  27  46  69 101 145 193 237 288 350 427
#     4  12  26  48  69 102 146 186 232 294 359 420
#     4  12  21  42  66 104 137 168 242 290 335 404
#
# _framework density 21.798618000000001
#
# number of rings (size 3 to 8) (size 9 to 14) (size 15 to 20)
#    0.000    0.833    6.667    1.000    3.500    2.667 
#    3.000    0.000    1.833    0.000    0.000    0.000 
#    0.000    0.000    0.000    0.000    0.000    0.000 
#
# Total GULP energy -297438.772168 kJ/mol
# GULP energy per Si atom -12393.282174 kJ/mol
# Density = 2.174900 g / cm^3
# Si number density = 21.798618 Si / 1000 Ang^3
#
#
#
# Elastic Constant Matrix: (Units=GPa)
#
#
# Indices 1 2 3 4 5 6 
#
# 1 91.7899 42.3873 46.3517 0.0000 0.0000 0.0000
# 2 42.3873 119.6560 50.9165 0.0000 0.0000 0.0000
# 3 46.3517 50.9165 131.9543 0.0000 0.0000 0.0000
# 4 0.0000 0.0000 0.0000 22.2754 0.0000 0.0000
# 5 0.0000 0.0000 0.0000 0.0000 35.7208 0.0000
# 6 0.0000 0.0000 0.0000 0.0000 0.0000 20.1304
#
#
#
# Elastic Compliance Matrix: (Units=1/GPa)
#
#
# Indices 1 2 3 4 5 6 
#
# 1 0.014387 -0.003525 -0.003694 0.000000 0.000000 0.000000
# 2 -0.003525 0.010863 -0.002953 0.000000 0.000000 0.000000
# 3 -0.003694 -0.002953 0.010015 0.000000 0.000000 0.000000
# 4 0.000000 0.000000 0.000000 0.044893 0.000000 0.000000
# 5 0.000000 0.000000 0.000000 0.000000 0.027995 0.000000
# 6 0.000000 0.000000 0.000000 0.000000 0.000000 0.049676
#
#
# Mechanical properties :
#
#
# Convention : Reuss Voigt Hill
#
# Bulk Modulus (GPa) = 67.01675 69.19017 68.10346
# Shear Modulus (GPa) = 27.30047 29.20829 28.25438
#
# Velocity S-wave (km/s) = 3.54276 3.66446 3.60412
# Velocity P-wave (km/s) = 6.89530 7.05080 6.97349
#
# Compressibility (1/GPa) = 0.01492164
#
# Stress axis : x y z
#
# Youngs Moduli (GPa) = 69.50506 92.05844 99.84540
#
# Poissons Ratio (x) = 0.32449 0.36881
# Poissons Ratio (y) = 0.24500 0.29488
# Poissons Ratio (z) = 0.25674 0.27188
#
# Static dielectric constant tensor:
#      x y z
#    x 3.707510 0.000000 0.000000 
#    y 0.000000 3.895910 0.000000 
#    z 0.000000 0.000000 4.214080 
# 
# 
# High freq. dielectric constant tensor:
#      x y z
#    x 1.841480 0.000000 0.000000 
#    y 0.000000 1.852740 0.000000 
#    z 0.000000 0.000000 1.872940 
# 
# From -- ./inp_files/3915.got.cif
#   From: 2010.03.12/outbox.cif.g09.slc.cpg/sg23_2_cif.got.tgz:3915.got - 2010.04.14 02:50:06.
