data_PCOD8164751
_publ_section_title
;
Structure prediction by ZEFSAII (Michael W. Deem and Ramdas Pophale) SiO2 
 PCOD8164751
Probable space group: I 21 21 21
;
_chemical_formula_sum "Si O2"
_cell_formula_units_Z 60
_cell_length_a 14.299420
_cell_length_b 12.475168
_cell_length_c 16.870768
_cell_angle_alpha 90.000000
_cell_angle_beta 90.000000
_cell_angle_gamma 90.000000
_cell_volume 3009.536941
_symmetry_space_group_name_H-M "I 21 21 21"
_symmetry_group_IT_number 24
_symmetry_cell_setting 'orthorhombic'
loop_
_space_group_symop_operation_xyz
x,y,z
-x,1/2-y,z
x,-y,1/2-z
1/2-x,y,-z
1/2+x,1/2+y,1/2+z
1/2-x,-y,1/2+z
1/2+x,1/2-y,-z
-x,1/2+y,1/2-z
loop_
_atom_site_type_symbol
_atom_site_label
_atom_site_fract_x
_atom_site_fract_y
_atom_site_fract_z
Si Si1 0.776851 0.323549 0.410597
Si Si2 0.518966 0.000000 0.250000
Si Si3 0.667620 0.873495 0.813475
Si Si4 0.417571 0.591289 0.651138
Si Si5 0.710076 0.741362 0.586349
Si Si6 0.158755 0.665313 0.709997
Si Si7 0.917964 0.321313 0.673284
Si Si8 0.130613 0.970022 0.342375
O O1 0.750000 0.299860 0.500000
O O2 0.838343 0.226359 0.373856
O O3 0.675123 0.334218 0.374936
O O4 0.837131 0.430990 0.397039
O O5 0.581540 0.924213 0.305584
O O6 0.455882 0.939806 0.186320
O O7 0.593755 0.860514 0.740570
O O8 0.771337 0.878866 0.777800
O O9 0.645812 0.984389 0.858939
O O10 0.382789 0.682299 0.588513
O O11 0.524526 0.560336 0.635882
O O12 0.750000 0.714114 0.500000
O O13 0.790271 0.809513 0.628701
O O14 0.693424 0.632486 0.635541
O O15 0.106065 0.770265 0.741612
O O16 0.000000 0.250000 0.631008
O O17 0.143861 0.000000 0.250000
#
# Coordination Sequence:
#
# PCOD8164751 Si02
#       8
#     8   4   8   8   8   8   8   8
#     4  11  25  42  60  92 133 172 199 256 342 386
#     4  10  18  34  62  84 114 142 218 266 288 354
#     4   9  18  40  67  90 125 153 222 269 310 376
#     4  10  20  40  65 102 116 163 222 269 313 364
#     4  11  24  40  60  90 137 169 202 252 328 397
#     4   9  18  36  60  86 110 162 203 255 310 356
#     4   9  20  38  59  88 110 155 212 253 297 364
#     4  12  23  41  68  94 125 168 221 270 309 375
#
# _framework density 19.936620999999999
#
# number of rings (size 3 to 8) (size 9 to 14) (size 15 to 20)
#    0.000    1.867    1.333    4.800    2.800    1.067 
#    4.800    2.667    0.000    0.000    0.000    0.000 
#    0.000    0.000    0.000    0.000    0.000    0.000 
#
# Total GULP energy -371848.722644 kJ/mol
# GULP energy per Si atom -12394.957421 kJ/mol
# Density = 1.989124 g / cm^3
# Si number density = 19.936621 Si / 1000 Ang^3
#
#
#
# Elastic Constant Matrix: (Units=GPa)
#
#
# Indices 1 2 3 4 5 6 
#
# 1 110.9554 55.3230 43.9829 0.0000 0.0000 0.0000
# 2 55.3230 142.8283 54.9779 0.0000 0.0000 0.0000
# 3 43.9829 54.9779 85.2430 0.0000 0.0000 0.0000
# 4 0.0000 0.0000 0.0000 16.6781 0.0000 0.0000
# 5 0.0000 0.0000 0.0000 0.0000 19.5848 0.0000
# 6 0.0000 0.0000 0.0000 0.0000 0.0000 33.4199
#
#
#
# Elastic Compliance Matrix: (Units=1/GPa)
#
#
# Indices 1 2 3 4 5 6 
#
# 1 0.012271 -0.003081 -0.004344 0.000000 0.000000 0.000000
# 2 -0.003081 0.010087 -0.004916 0.000000 0.000000 0.000000
# 3 -0.004344 -0.004916 0.017143 0.000000 0.000000 0.000000
# 4 0.000000 0.000000 0.000000 0.059959 0.000000 0.000000
# 5 0.000000 0.000000 0.000000 0.000000 0.051060 0.000000
# 6 0.000000 0.000000 0.000000 0.000000 0.000000 0.029922
#
#
# Mechanical properties :
#
#
# Convention : Reuss Voigt Hill
#
# Bulk Modulus (GPa) = 67.48216 71.95492 69.71854
# Shear Modulus (GPa) = 23.80217 26.25274 25.02746
#
# Velocity S-wave (km/s) = 3.45902 3.63272 3.54694
# Velocity P-wave (km/s) = 7.06222 7.33251 7.19864
#
# Compressibility (1/GPa) = 0.01481873
#
# Stress axis : x y z
#
# Youngs Moduli (GPa) = 81.49401 99.13733 58.33119
#
# Poissons Ratio (x) = 0.30541 0.25342
# Poissons Ratio (y) = 0.25106 0.28676
# Poissons Ratio (z) = 0.35405 0.48737
#
# Static dielectric constant tensor:
#      x y z
#    x 3.949140 0.000000 0.000000 
#    y 0.000000 3.952520 0.000000 
#    z 0.000000 0.000000 3.158320 
# 
# 
# High freq. dielectric constant tensor:
#      x y z
#    x 1.790970 0.000000 0.000000 
#    y 0.000000 1.797200 0.000000 
#    z 0.000000 0.000000 1.730880 
# 
# From -- ./inp_files/30878.got.cif
#   From: 2010.03.12/outbox.cif.g09.slc.cpg/sg24_16_cif.got.tgz:30878.got - 2010.04.14 03:06:53.
