data_PCOD8164198
_publ_section_title
;
Structure prediction by ZEFSAII (Michael W. Deem and Ramdas Pophale) SiO2 
 PCOD8164198
Probable space group: I 2 2 2
;
_chemical_formula_sum "Si O2"
_cell_formula_units_Z 56
_cell_length_a 8.789418
_cell_length_b 13.473316
_cell_length_c 21.979399
_cell_angle_alpha 90.000000
_cell_angle_beta 90.000000
_cell_angle_gamma 90.000000
_cell_volume 2602.857712
_symmetry_space_group_name_H-M "I 2 2 2"
_symmetry_group_IT_number 23
_symmetry_cell_setting 'orthorhombic'
loop_
_space_group_symop_operation_xyz
x,y,z
-x,-y,z
x,-y,-z
-x,y,-z
1/2+x,1/2+y,1/2+z
1/2-x,1/2-y,1/2+z
1/2+x,1/2-y,1/2-z
1/2-x,1/2+y,1/2-z
loop_
_atom_site_type_symbol
_atom_site_label
_atom_site_fract_x
_atom_site_fract_y
_atom_site_fract_z
Si Si1 0.341616 0.119493 0.276088
Si Si2 0.911266 0.402476 0.092547
Si Si3 0.671217 0.533956 0.563531
Si Si4 0.821933 0.262414 0.895859
Si Si5 0.665646 0.616582 0.004088
Si Si6 0.321940 0.528859 0.693132
Si Si7 0.824959 0.703827 0.242018
O O1 0.351789 0.064003 0.341115
O O2 0.201278 0.196250 0.280522
O O3 0.502246 0.167479 0.255599
O O4 0.298599 0.040391 0.226205
O O5 0.779429 0.358030 0.050430
O O6 0.000000 0.500000 0.064932
O O7 0.006785 0.302098 0.100507
O O8 0.500000 0.500000 0.555394
O O9 0.755298 0.500000 0.500000
O O10 0.688531 0.652174 0.575823
O O11 0.731965 0.473729 0.622441
O O12 0.768450 0.267833 0.826072
O O13 0.726099 0.343925 0.932146
O O14 0.648205 0.500000 0.000000
O O15 0.500000 0.667142 0.000000
O O16 0.500000 0.500000 0.699045
O O17 0.298208 0.633509 0.725229
#
# Coordination Sequence:
#
# PCOD8164198 Si02
#       7
#     8   8   8   8   8   8   8
#     4  11  23  42  65 100 131 174 220 278 340 403
#     4  11  23  41  68 100 132 178 230 272 339 418
#     4  10  24  42  69  98 128 176 232 280 324 398
#     4  11  23  44  67  97 137 177 234 277 333 416
#     4  11  25  41  64 101 142 176 220 283 353 407
#     4  11  23  42  67  97 135 170 226 280 339 403
#     4  11  24  41  69  97 134 173 221 278 340 409
#
# _framework density 21.514814000000001
#
# number of rings (size 3 to 8) (size 9 to 14) (size 15 to 20)
#    0.000    1.143    2.857    3.429   10.000    2.286 
#    0.000    0.000    0.000    0.000    0.000    0.000 
#    0.000    0.000    0.000    0.000    0.000    0.000 
#
# Total GULP energy -346890.562991 kJ/mol
# GULP energy per Si atom -12388.948678 kJ/mol
# Density = 2.146585 g / cm^3
# Si number density = 21.514814 Si / 1000 Ang^3
#
#
#
# Elastic Constant Matrix: (Units=GPa)
#
#
# Indices 1 2 3 4 5 6 
#
# 1 64.2512 -1.8485 49.5087 0.0000 0.0000 0.0000
# 2 -1.8485 94.9491 48.2004 0.0000 0.0000 0.0000
# 3 49.5087 48.2004 157.6987 0.0000 0.0000 0.0000
# 4 0.0000 0.0000 0.0000 -715.0507 0.0000 0.0000
# 5 0.0000 0.0000 0.0000 0.0000 30.9930 0.0000
# 6 0.0000 0.0000 0.0000 0.0000 0.0000 27.5479
#
#
#
# Elastic Compliance Matrix: (Units=1/GPa)
#
#
# Indices 1 2 3 4 5 6 
#
# 1 0.022166 0.004692 -0.008393 0.000000 0.000000 0.000000
# 2 0.004692 0.013460 -0.005587 0.000000 0.000000 0.000000
# 3 -0.008393 -0.005587 0.010684 0.000000 0.000000 0.000000
# 4 0.000000 0.000000 0.000000 -0.001399 0.000000 0.000000
# 5 0.000000 0.000000 0.000000 0.000000 0.032265 0.000000
# 6 0.000000 0.000000 0.000000 0.000000 0.000000 0.036300
#
#
# Mechanical properties :
#
#
# Convention : Reuss Voigt Hill
#
# Bulk Modulus (GPa) = 36.05697 56.51335 46.28516
# Shear Modulus (GPa) = 35.38635 -116.56607 -40.58986
#
# Velocity S-wave (km/s) = 4.05994 -7.36865 -4.34821
# Velocity P-wave (km/s) = 6.22680 6.78763 1.91035
#
# Compressibility (1/GPa) = 0.02773389
#
# Stress axis : x y z
#
# Youngs Moduli (GPa) = 45.11355 74.29682 93.59905
#
# Poissons Ratio (x) = -0.34862 0.78559
# Poissons Ratio (y) = -0.21169 0.52294
# Poissons Ratio (z) = 0.37865 0.41510
#
# Static dielectric constant tensor:
#      x y z
#    x 8.412010 0.000000 0.000000 
#    y 0.000000 3.145060 0.000000 
#    z 0.000000 0.000000 4.510040 
# 
# 
# High freq. dielectric constant tensor:
#      x y z
#    x 1.828120 0.000000 0.000000 
#    y 0.000000 1.847040 0.000000 
#    z 0.000000 0.000000 1.859340 
# 
# From -- ./inp_files/26270.got.cif
#   From: 2010.03.12/outbox.cif.g09.slc.cpg/sg23_14_cif.got.tgz:26270.got - 2010.04.14 02:50:06.
