data_PCOD8164805
_publ_section_title
;
Structure prediction by ZEFSAII (Michael W. Deem and Ramdas Pophale) SiO2 
 PCOD8164805
Probable space group: I 21 21 21
;
_chemical_formula_sum "Si O2"
_cell_formula_units_Z 48
_cell_length_a 8.179984
_cell_length_b 16.502052
_cell_length_c 15.763479
_cell_angle_alpha 90.000000
_cell_angle_beta 90.000000
_cell_angle_gamma 90.000000
_cell_volume 2127.857194
_symmetry_space_group_name_H-M "I 21 21 21"
_symmetry_group_IT_number 24
_symmetry_cell_setting 'orthorhombic'
loop_
_space_group_symop_operation_xyz
x,y,z
-x,1/2-y,z
x,-y,1/2-z
1/2-x,y,-z
1/2+x,1/2+y,1/2+z
1/2-x,-y,1/2+z
1/2+x,1/2-y,-z
-x,1/2+y,1/2-z
loop_
_atom_site_type_symbol
_atom_site_label
_atom_site_fract_x
_atom_site_fract_y
_atom_site_fract_z
Si Si1 0.272580 0.500000 0.750000
Si Si2 0.823887 0.266232 0.238475
Si Si3 0.783948 0.573848 0.807361
Si Si4 0.504768 0.511397 0.592462
Si Si5 0.395932 0.318331 0.940381
Si Si6 0.618396 0.144342 0.331574
Si Si7 0.750000 0.916263 0.000000
O O1 0.380191 0.508587 0.668519
O O2 0.164209 0.579559 0.759337
O O3 0.808440 0.364303 0.242701
O O4 0.828937 0.226002 0.145038
O O5 0.669219 0.230526 0.291209
O O6 0.000000 0.250000 0.282983
O O7 0.848862 0.500000 0.750000
O O8 0.670488 0.536243 0.882500
O O9 0.928062 0.626450 0.850838
O O10 0.522741 0.607371 0.574441
O O11 0.414840 0.469609 0.512418
O O12 0.500000 0.250000 0.990161
O O13 0.250000 0.349121 0.000000
O O14 0.720426 0.139299 0.418284
#
# Coordination Sequence:
#
# PCOD8164805 Si02
#       7
#     4   8   8   8   8   8   4
#     4  10  18  38  68  88 126 176 232 278 342 434
#     4  11  23  45  72 100 136 188 241 292 358 433
#     4  12  24  41  70 107 133 177 240 301 362 427
#     4  11  21  43  67  96 137 184 241 284 353 440
#     4  11  24  43  64 102 144 190 236 294 365 432
#     4  11  23  42  66 101 135 176 235 299 351 426
#     4  10  24  42  68  94 132 188 230 288 354 428
#
# _framework density 22.557905999999999
#
# number of rings (size 3 to 8) (size 9 to 14) (size 15 to 20)
#    0.000    1.000    4.167    4.500    0.000    2.000 
#    6.000    5.000    0.000    0.000    0.000    0.000 
#    0.000    0.000    0.000    0.000    0.000    0.000 
#
# Total GULP energy -297335.432039 kJ/mol
# GULP energy per Si atom -12388.976335 kJ/mol
# Density = 2.250656 g / cm^3
# Si number density = 22.557906 Si / 1000 Ang^3
#
#
#
# Elastic Constant Matrix: (Units=GPa)
#
#
# Indices 1 2 3 4 5 6 
#
# 1 125.7743 41.5490 22.5977 0.0000 0.0000 0.0000
# 2 41.5490 135.7911 26.0466 0.0000 0.0000 0.0000
# 3 22.5977 26.0466 60.2555 0.0000 0.0000 0.0000
# 4 0.0000 0.0000 0.0000 21.6748 0.0000 0.0000
# 5 0.0000 0.0000 0.0000 0.0000 30.0661 0.0000
# 6 0.0000 0.0000 0.0000 0.0000 0.0000 42.1168
#
#
#
# Elastic Compliance Matrix: (Units=1/GPa)
#
#
# Indices 1 2 3 4 5 6 
#
# 1 0.009158 -0.002337 -0.002424 0.000000 0.000000 0.000000
# 2 -0.002337 0.008627 -0.002852 0.000000 0.000000 0.000000
# 3 -0.002424 -0.002852 0.018738 0.000000 0.000000 0.000000
# 4 0.000000 0.000000 0.000000 0.046137 0.000000 0.000000
# 5 0.000000 0.000000 0.000000 0.000000 0.033260 0.000000
# 6 0.000000 0.000000 0.000000 0.000000 0.000000 0.023744
#
#
# Mechanical properties :
#
#
# Convention : Reuss Voigt Hill
#
# Bulk Modulus (GPa) = 46.95923 55.80083 51.38003
# Shear Modulus (GPa) = 30.86614 34.21338 32.53976
#
# Velocity S-wave (km/s) = 3.70308 3.89870 3.80214
# Velocity P-wave (km/s) = 6.25668 6.71244 6.48856
#
# Compressibility (1/GPa) = 0.02129507
#
# Stress axis : x y z
#
# Youngs Moduli (GPa) = 109.18902 115.92143 53.36682
#
# Poissons Ratio (x) = 0.27094 0.12938
# Poissons Ratio (y) = 0.25520 0.15223
# Poissons Ratio (z) = 0.26472 0.33066
#
# Static dielectric constant tensor:
#      x y z
#    x 4.166590 0.000000 0.000000 
#    y 0.000000 4.438210 0.000000 
#    z 0.000000 0.000000 3.547050 
# 
# 
# High freq. dielectric constant tensor:
#      x y z
#    x 1.887020 0.000000 0.000000 
#    y 0.000000 1.905630 0.000000 
#    z 0.000000 0.000000 1.863550 
# 
# From -- ./inp_files/24827.got.cif
#   From: 2010.03.12/outbox.cif.g09.slc.cpg/sg24_13_cif.got.tgz:24827.got - 2010.04.14 03:06:53.
