data_PCOD8164322
_publ_section_title
;
Structure prediction by ZEFSAII (Michael W. Deem and Ramdas Pophale) SiO2 
 PCOD8164322
Probable space group: I 2 2 2
;
_chemical_formula_sum "Si O2"
_cell_formula_units_Z 64
_cell_length_a 15.049762
_cell_length_b 9.670106
_cell_length_c 20.994917
_cell_angle_alpha 90.000000
_cell_angle_beta 90.000000
_cell_angle_gamma 90.000000
_cell_volume 3055.448927
_symmetry_space_group_name_H-M "I 2 2 2"
_symmetry_group_IT_number 23
_symmetry_cell_setting 'orthorhombic'
loop_
_space_group_symop_operation_xyz
x,y,z
-x,-y,z
x,-y,-z
-x,y,-z
1/2+x,1/2+y,1/2+z
1/2-x,1/2-y,1/2+z
1/2+x,1/2-y,1/2-z
1/2-x,1/2+y,1/2-z
loop_
_atom_site_type_symbol
_atom_site_label
_atom_site_fract_x
_atom_site_fract_y
_atom_site_fract_z
Si Si1 0.056009 0.628600 0.868763
Si Si2 0.812639 0.742009 0.366115
Si Si3 0.289623 0.505906 0.573848
Si Si4 0.184004 0.288492 0.756981
Si Si5 0.100585 0.998220 0.425134
Si Si6 0.057006 0.875840 0.161607
Si Si7 0.748490 0.292455 0.875116
Si Si8 0.912741 0.558691 0.274174
O O1 0.157699 0.634236 0.894872
O O2 0.057732 0.615533 0.793459
O O3 0.000000 0.500000 0.899195
O O4 0.001941 0.770327 0.881605
O O5 0.784863 0.622193 0.415058
O O6 0.733087 0.806180 0.324427
O O7 0.853524 0.860160 0.407743
O O8 0.882366 0.686224 0.315614
O O9 0.316140 0.500000 0.500000
O O10 0.373897 0.550259 0.614923
O O11 0.248816 0.360765 0.596373
O O12 0.097869 0.198453 0.775950
O O13 0.241588 0.211760 0.702375
O O14 0.162039 0.440418 0.731054
O O15 0.095354 0.000000 0.500000
O O16 0.161444 0.871010 0.401031
O O17 0.000000 0.000000 0.396693
O O18 0.000000 0.000000 0.191184
O O19 0.000000 0.500000 0.309158
#
# Coordination Sequence:
#
# PCOD8164322 Si02
#       8
#     8   8   8   8   8   8   8   8
#     4  11  22  41  65  98 144 181 214 278 351 420
#     4  11  24  41  70  97 130 178 225 276 348 410
#     4  11  25  44  69  96 135 187 237 283 331 402
#     4  11  23  38  64 103 137 172 219 274 355 412
#     4  11  28  49  69  97 135 184 240 293 336 400
#     4  11  23  41  64  99 139 179 225 279 343 410
#     4  12  24  44  71 100 140 179 229 288 356 412
#     4  11  21  37  60  96 137 169 209 269 344 419
#
# _framework density 20.946186000000001
#
# number of rings (size 3 to 8) (size 9 to 14) (size 15 to 20)
#    0.000    0.875    6.250    1.500    3.500    1.750 
#    0.000    0.000    0.000    2.250    0.000    0.000 
#    0.000    0.000    0.000    0.000    0.000    0.000 
#
# Total GULP energy -396740.341832 kJ/mol
# GULP energy per Si atom -12398.135682 kJ/mol
# Density = 2.089851 g / cm^3
# Si number density = 20.946186 Si / 1000 Ang^3
#
#
#
# Elastic Constant Matrix: (Units=GPa)
#
#
# Indices 1 2 3 4 5 6 
#
# 1 127.8217 63.6441 16.3193 0.0000 0.0000 0.0000
# 2 63.6441 142.8605 23.0352 0.0000 0.0000 0.0000
# 3 16.3193 23.0352 69.1709 0.0000 0.0000 0.0000
# 4 0.0000 0.0000 0.0000 25.5760 0.0000 0.0000
# 5 0.0000 0.0000 0.0000 0.0000 21.1582 0.0000
# 6 0.0000 0.0000 0.0000 0.0000 0.0000 41.0655
#
#
#
# Elastic Compliance Matrix: (Units=1/GPa)
#
#
# Indices 1 2 3 4 5 6 
#
# 1 0.010110 -0.004353 -0.000936 0.000000 0.000000 0.000000
# 2 -0.004353 0.009271 -0.002061 0.000000 0.000000 0.000000
# 3 -0.000936 -0.002061 0.015364 0.000000 0.000000 0.000000
# 4 0.000000 0.000000 0.000000 0.039099 0.000000 0.000000
# 5 0.000000 0.000000 0.000000 0.000000 0.047263 0.000000
# 6 0.000000 0.000000 0.000000 0.000000 0.000000 0.024351
#
#
# Mechanical properties :
#
#
# Convention : Reuss Voigt Hill
#
# Bulk Modulus (GPa) = 49.88292 60.65002 55.26647
# Shear Modulus (GPa) = 29.96875 33.35023 31.65949
#
# Velocity S-wave (km/s) = 3.78663 3.99455 3.89198
# Velocity P-wave (km/s) = 6.55626 7.09177 6.82927
#
# Compressibility (1/GPa) = 0.02004694
#
# Stress axis : x y z
#
# Youngs Moduli (GPa) = 98.90780 107.85778 65.08776
#
# Poissons Ratio (x) = 0.46954 0.06090
# Poissons Ratio (y) = 0.43058 0.13411
# Poissons Ratio (z) = 0.09254 0.22224
#
# Static dielectric constant tensor:
#      x y z
#    x 4.345400 0.000000 0.000000 
#    y 0.000000 4.017390 0.000000 
#    z 0.000000 0.000000 3.468800 
# 
# 
# High freq. dielectric constant tensor:
#      x y z
#    x 1.834870 0.000000 0.000000 
#    y 0.000000 1.836810 0.000000 
#    z 0.000000 0.000000 1.789510 
# 
# From -- ./inp_files/28574.got.cif
#   From: 2010.03.12/outbox.cif.g09.slc.cpg/sg23_15_cif.got.tgz:28574.got - 2010.04.14 02:50:06.
