data_PCOD8164775
_publ_section_title
;
Structure prediction by ZEFSAII (Michael W. Deem and Ramdas Pophale) SiO2 
 PCOD8164775
Probable space group: I 21 21 21
;
_chemical_formula_sum "Si O2"
_cell_formula_units_Z 40
_cell_length_a 16.731513
_cell_length_b 13.643959
_cell_length_c 8.002627
_cell_angle_alpha 90.000000
_cell_angle_beta 90.000000
_cell_angle_gamma 90.000000
_cell_volume 1826.872321
_symmetry_space_group_name_H-M "I 21 21 21"
_symmetry_group_IT_number 24
_symmetry_cell_setting 'orthorhombic'
loop_
_space_group_symop_operation_xyz
x,y,z
-x,1/2-y,z
x,-y,1/2-z
1/2-x,y,-z
1/2+x,1/2+y,1/2+z
1/2-x,-y,1/2+z
1/2+x,1/2-y,-z
-x,1/2+y,1/2-z
loop_
_atom_site_type_symbol
_atom_site_label
_atom_site_fract_x
_atom_site_fract_y
_atom_site_fract_z
Si Si1 0.000000 0.750000 0.508393
Si Si2 0.107536 0.040170 0.561346
Si Si3 0.192635 0.586697 0.646042
Si Si4 0.750000 0.586320 0.500000
Si Si5 0.450710 0.544397 0.579853
Si Si6 0.850589 0.290267 0.760555
O O1 0.026666 0.658952 0.392915
O O2 0.072336 0.792629 0.618769
O O3 0.127633 0.156584 0.584391
O O4 0.104294 0.000000 0.750000
O O5 0.175379 0.984396 0.453799
O O6 0.024431 0.025404 0.468209
O O7 0.235013 0.500000 0.750000
O O8 0.250000 0.625528 0.500000
O O9 0.112772 0.539317 0.569170
O O10 0.173720 0.677444 0.769302
O O11 0.774993 0.653852 0.656274
O O12 0.414367 0.500000 0.750000
#
# Coordination Sequence:
#
# PCOD8164775 Si02
#       6
#     4   8   8   4   8   8
#     4  10  20  40  62  84 124 174 202 258 324 394
#     4  10  20  39  64  96 121 164 213 264 329 390
#     4  11  24  44  67  90 129 179 222 268 317 392
#     4  10  18  36  60  98 126 156 206 264 326 386
#     4  11  23  40  63  95 127 165 218 272 329 382
#     4  10  21  39  67  90 123 171 214 258 331 386
#
# _framework density 21.895344999999999
#
# number of rings (size 3 to 8) (size 9 to 14) (size 15 to 20)
#    0.000    1.600    5.000    1.200    2.800    2.400 
#    5.400    0.000    0.000    0.000    0.000    0.000 
#    0.000    0.000    0.000    0.000    0.000    0.000 
#
# Total GULP energy -247922.573995 kJ/mol
# GULP energy per Si atom -12396.128700 kJ/mol
# Density = 2.184551 g / cm^3
# Si number density = 21.895345 Si / 1000 Ang^3
#
#
#
# Elastic Constant Matrix: (Units=GPa)
#
#
# Indices 1 2 3 4 5 6 
#
# 1 95.0785 28.2215 12.0881 0.0000 0.0000 0.0000
# 2 28.2215 154.4567 43.2639 0.0000 0.0000 0.0000
# 3 12.0881 43.2639 42.7486 0.0000 0.0000 0.0000
# 4 0.0000 0.0000 0.0000 36.9619 0.0000 0.0000
# 5 0.0000 0.0000 0.0000 0.0000 13.1769 0.0000
# 6 0.0000 0.0000 0.0000 0.0000 0.0000 20.8833
#
#
#
# Elastic Compliance Matrix: (Units=1/GPa)
#
#
# Indices 1 2 3 4 5 6 
#
# 1 0.011192 -0.001617 -0.001528 0.000000 0.000000 0.000000
# 2 -0.001617 0.009269 -0.008924 0.000000 0.000000 0.000000
# 3 -0.001528 -0.008924 0.032856 0.000000 0.000000 0.000000
# 4 0.000000 0.000000 0.000000 0.027055 0.000000 0.000000
# 5 0.000000 0.000000 0.000000 0.000000 0.075891 0.000000
# 6 0.000000 0.000000 0.000000 0.000000 0.000000 0.047885
#
#
# Mechanical properties :
#
#
# Convention : Reuss Voigt Hill
#
# Bulk Modulus (GPa) = 34.27105 51.04785 42.65945
# Shear Modulus (GPa) = 21.00727 28.11841 24.56284
#
# Velocity S-wave (km/s) = 3.10084 3.58749 3.35301
# Velocity P-wave (km/s) = 5.33915 6.36594 5.87502
#
# Compressibility (1/GPa) = 0.02917915
#
# Stress axis : x y z
#
# Youngs Moduli (GPa) = 89.35068 107.88272 30.43565
#
# Poissons Ratio (x) = 0.17442 0.04652
# Poissons Ratio (y) = 0.14446 0.27160
# Poissons Ratio (z) = 0.13657 0.96273
#
# Static dielectric constant tensor:
#      x y z
#    x 4.011640 0.000000 0.000000 
#    y 0.000000 4.355900 0.000000 
#    z 0.000000 0.000000 3.609900 
# 
# 
# High freq. dielectric constant tensor:
#      x y z
#    x 1.867750 0.000000 0.000000 
#    y 0.000000 1.875660 0.000000 
#    z 0.000000 0.000000 1.809760 
# 
# From -- ./inp_files/12396.got.cif
#   From: 2010.03.12/outbox.cif.g09.slc.cpg/sg24_7_cif.got.tgz:12396.got - 2010.04.14 03:06:53.
