data_PCOD8164596
_publ_section_title
;
Structure prediction by ZEFSAII (Michael W. Deem and Ramdas Pophale) SiO2 
 PCOD8164596
Probable space group: I 21 21 21
;
_chemical_formula_sum "Si O2"
_cell_formula_units_Z 28
_cell_length_a 12.920087
_cell_length_b 9.917643
_cell_length_c 8.867892
_cell_angle_alpha 90.000000
_cell_angle_beta 90.000000
_cell_angle_gamma 90.000000
_cell_volume 1136.303396
_symmetry_space_group_name_H-M "I 21 21 21"
_symmetry_group_IT_number 24
_symmetry_cell_setting 'orthorhombic'
loop_
_space_group_symop_operation_xyz
x,y,z
-x,1/2-y,z
x,-y,1/2-z
1/2-x,y,-z
1/2+x,1/2+y,1/2+z
1/2-x,-y,1/2+z
1/2+x,1/2-y,-z
-x,1/2+y,1/2-z
loop_
_atom_site_type_symbol
_atom_site_label
_atom_site_fract_x
_atom_site_fract_y
_atom_site_fract_z
Si Si1 0.617002 0.000000 0.750000
Si Si2 0.309687 0.211585 0.784100
Si Si3 0.905821 0.648506 0.605060
Si Si4 0.956339 0.389535 0.474416
O O1 0.689162 0.127138 0.781551
O O2 0.546839 0.029223 0.606823
O O3 0.188721 0.175944 0.782159
O O4 0.361202 0.141730 0.638727
O O5 0.371375 0.163821 0.930763
O O6 0.929476 0.486616 0.615692
O O7 0.000000 0.750000 0.641652
O O8 0.000000 0.250000 0.541871
#
# Coordination Sequence:
#
# PCOD8164596 Si02
#       4
#     4   8   8   8
#     4  10  16  34  58  86 116 158 206 246 296 358
#     4  10  20  31  63  90 119 156 208 252 304 353
#     4  11  19  35  61  91 117 159 202 251 304 363
#     4  10  18  34  62  88 116 157 203 254 294 356
#
# _framework density 24.641303000000001
#
# number of rings (size 3 to 8) (size 9 to 14) (size 15 to 20)
#    0.000    1.714    5.714    0.857    0.000    0.000 
#    0.000    0.000   44.000    0.000    0.000    0.000 
#    0.000    0.000    0.000    0.000    0.000    0.000 
#
# Total GULP energy -173597.093403 kJ/mol
# GULP energy per Si atom -12399.792386 kJ/mol
# Density = 2.458522 g / cm^3
# Si number density = 24.641303 Si / 1000 Ang^3
#
#
#
# Elastic Constant Matrix: (Units=GPa)
#
#
# Indices 1 2 3 4 5 6 
#
# 1 181.3328 98.6402 35.7752 0.0000 0.0000 0.0000
# 2 98.6402 226.0587 34.8559 0.0000 0.0000 0.0000
# 3 35.7752 34.8559 65.9235 0.0000 0.0000 0.0000
# 4 0.0000 0.0000 0.0000 10.3242 0.0000 0.0000
# 5 0.0000 0.0000 0.0000 0.0000 21.8016 0.0000
# 6 0.0000 0.0000 0.0000 0.0000 0.0000 43.2598
#
#
#
# Elastic Compliance Matrix: (Units=1/GPa)
#
#
# Indices 1 2 3 4 5 6 
#
# 1 0.007616 -0.002924 -0.002587 0.000000 0.000000 0.000000
# 2 -0.002924 0.005939 -0.001553 0.000000 0.000000 0.000000
# 3 -0.002587 -0.001553 0.017394 0.000000 0.000000 0.000000
# 4 0.000000 0.000000 0.000000 0.096859 0.000000 0.000000
# 5 0.000000 0.000000 0.000000 0.000000 0.045868 0.000000
# 6 0.000000 0.000000 0.000000 0.000000 0.000000 0.023116
#
#
# Mechanical properties :
#
#
# Convention : Reuss Voigt Hill
#
# Bulk Modulus (GPa) = 59.45149 90.20639 74.82894
# Shear Modulus (GPa) = 23.09168 35.34671 29.21919
#
# Velocity S-wave (km/s) = 3.06455 3.79152 3.44725
# Velocity P-wave (km/s) = 6.05814 7.47361 6.80279
#
# Compressibility (1/GPa) = 0.01682044
#
# Stress axis : x y z
#
# Youngs Moduli (GPa) = 131.30602 168.37478 57.49067
#
# Poissons Ratio (x) = 0.49238 0.14871
# Poissons Ratio (y) = 0.38398 0.08930
# Poissons Ratio (z) = 0.33966 0.26153
#
# Static dielectric constant tensor:
#      x y z
#    x 4.420450 0.000000 0.000000 
#    y 0.000000 5.457010 0.000000 
#    z 0.000000 0.000000 4.005430 
# 
# 
# High freq. dielectric constant tensor:
#      x y z
#    x 1.972540 0.000000 0.000000 
#    y 0.000000 2.012330 0.000000 
#    z 0.000000 0.000000 1.972770 
# 
# From -- ./inp_files/19089.got.cif
#   From: 2010.03.12/outbox.cif.g09.slc.cpg/sg24_10_cif.got.tgz:19089.got - 2010.04.14 03:06:53.
