data_PCOD8164696
_publ_section_title
;
Structure prediction by ZEFSAII (Michael W. Deem and Ramdas Pophale) SiO2 
 PCOD8164696
Probable space group: I 21 21 21
;
_chemical_formula_sum "Si O2"
_cell_formula_units_Z 64
_cell_length_a 8.669676
_cell_length_b 20.786447
_cell_length_c 19.812656
_cell_angle_alpha 90.000000
_cell_angle_beta 90.000000
_cell_angle_gamma 90.000000
_cell_volume 3570.473622
_symmetry_space_group_name_H-M "I 21 21 21"
_symmetry_group_IT_number 24
_symmetry_cell_setting 'orthorhombic'
loop_
_space_group_symop_operation_xyz
x,y,z
-x,1/2-y,z
x,-y,1/2-z
1/2-x,y,-z
1/2+x,1/2+y,1/2+z
1/2-x,-y,1/2+z
1/2+x,1/2-y,-z
-x,1/2+y,1/2-z
loop_
_atom_site_type_symbol
_atom_site_label
_atom_site_fract_x
_atom_site_fract_y
_atom_site_fract_z
Si Si1 0.181749 0.623795 0.430764
Si Si2 0.682229 0.983503 0.069218
Si Si3 0.179120 0.322146 0.801183
Si Si4 0.817356 0.062090 0.711104
Si Si5 0.318251 0.123795 0.930764
Si Si6 0.182644 0.937910 0.788896
Si Si7 0.817771 0.516497 0.930782
Si Si8 0.320880 0.822146 0.301182
O O1 0.250000 0.652937 0.500000
O O2 0.253519 0.554186 0.416748
O O3 0.225935 0.670859 0.370048
O O4 1.000000 0.617445 0.437575
O O5 0.732874 0.939051 0.132442
O O6 0.500000 0.988355 0.062337
O O7 0.750000 0.953817 0.000000
O O8 0.243513 0.372175 0.745259
O O9 0.203962 0.250000 0.773195
O O10 1.000000 0.335795 0.816799
O O11 0.000000 0.059250 0.716092
O O12 0.747596 0.000000 0.750000
O O13 0.274065 0.170859 0.870048
O O14 0.246481 0.054186 0.916748
O O15 0.250000 0.152937 0.000000
O O16 0.232874 0.939051 0.867558
O O17 0.243513 0.872175 0.754741
O O18 0.252404 0.000000 0.750000
O O19 0.750000 0.546183 0.000000
#
# Coordination Sequence:
#
# PCOD8164696 Si02
#       8
#     8   8   8   8   8   8   8   8
#     4  11  21  33  50  73 104 137 171 205 248 297
#     4  10  18  31  52  76 104 132 167 209 253 295
#     4  10  20  35  54  75  99 132 172 210 249 296
#     4   9  16  30  53  76 100 130 165 207 252 296
#     4  11  21  33  50  73 104 137 171 205 248 297
#     4   9  16  30  53  76 100 130 165 207 252 296
#     4  10  18  31  52  76 104 132 167 209 253 295
#     4  10  20  35  54  75  99 132 172 210 249 296
#
# _framework density 17.924793999999999
#
# number of rings (size 3 to 8) (size 9 to 14) (size 15 to 20)
#    0.000    2.000    2.500    4.500    0.000    1.000 
#    0.000    3.750    0.000    0.750    0.000    0.000 
#    0.000    0.000    0.000    0.000    0.000    1.000 
#
# Total GULP energy -396743.853300 kJ/mol
# GULP energy per Si atom -12398.245416 kJ/mol
# Density = 1.788400 g / cm^3
# Si number density = 17.924794 Si / 1000 Ang^3
#
#
#
# Elastic Constant Matrix: (Units=GPa)
#
#
# Indices 1 2 3 4 5 6 
#
# 1 76.1319 21.8794 38.9916 0.0000 0.0000 0.0000
# 2 21.8794 103.3287 76.5192 0.0000 0.0000 0.0000
# 3 38.9916 76.5192 150.8607 0.0000 0.0000 0.0000
# 4 0.0000 0.0000 0.0000 25.6104 0.0000 0.0000
# 5 0.0000 0.0000 0.0000 0.0000 25.1903 0.0000
# 6 0.0000 0.0000 0.0000 0.0000 0.0000 11.9379
#
#
#
# Elastic Compliance Matrix: (Units=1/GPa)
#
#
# Indices 1 2 3 4 5 6 
#
# 1 0.015155 -0.000494 -0.003666 0.000000 0.000000 0.000000
# 2 -0.000494 0.015516 -0.007742 0.000000 0.000000 0.000000
# 3 -0.003666 -0.007742 0.011503 0.000000 0.000000 0.000000
# 4 0.000000 0.000000 0.000000 0.039047 0.000000 0.000000
# 5 0.000000 0.000000 0.000000 0.000000 0.039698 0.000000
# 6 0.000000 0.000000 0.000000 0.000000 0.000000 0.083767
#
#
# Mechanical properties :
#
#
# Convention : Reuss Voigt Hill
#
# Bulk Modulus (GPa) = 54.43986 67.23353 60.83669
# Shear Modulus (GPa) = 21.31164 25.40978 23.36071
#
# Velocity S-wave (km/s) = 3.45185 3.76916 3.61399
# Velocity P-wave (km/s) = 6.80619 7.51879 7.17135
#
# Compressibility (1/GPa) = 0.01836889
#
# Stress axis : x y z
#
# Youngs Moduli (GPa) = 65.98557 64.44990 86.93138
#
# Poissons Ratio (x) = 0.03182 0.31873
# Poissons Ratio (y) = 0.03258 0.67305
# Poissons Ratio (z) = 0.24193 0.49899
#
# Static dielectric constant tensor:
#      x y z
#    x 3.133380 0.000000 0.000000 
#    y 0.000000 3.197610 0.000000 
#    z 0.000000 0.000000 3.656890 
# 
# 
# High freq. dielectric constant tensor:
#      x y z
#    x 1.677480 0.000000 0.000000 
#    y 0.000000 1.664530 0.000000 
#    z 0.000000 0.000000 1.702170 
# 
# From -- ./inp_files/32959.got.cif
#   From: 2010.03.12/outbox.cif.g09.slc.cpg/sg24_17_cif.got.tgz:32959.got - 2010.04.14 03:06:53.
