data_PCOD8164517
_publ_section_title
;
Structure prediction by ZEFSAII (Michael W. Deem and Ramdas Pophale) SiO2 
 PCOD8164517
Probable space group: I 2 2 2
;
_chemical_formula_sum "Si O2"
_cell_formula_units_Z 38
_cell_length_a 24.828342
_cell_length_b 6.467175
_cell_length_c 10.445995
_cell_angle_alpha 90.000000
_cell_angle_beta 90.000000
_cell_angle_gamma 90.000000
_cell_volume 1677.305402
_symmetry_space_group_name_H-M "I 2 2 2"
_symmetry_group_IT_number 23
_symmetry_cell_setting 'orthorhombic'
loop_
_space_group_symop_operation_xyz
x,y,z
-x,-y,z
x,-y,-z
-x,y,-z
1/2+x,1/2+y,1/2+z
1/2-x,1/2-y,1/2+z
1/2+x,1/2-y,1/2-z
1/2-x,1/2+y,1/2-z
loop_
_atom_site_type_symbol
_atom_site_label
_atom_site_fract_x
_atom_site_fract_y
_atom_site_fract_z
Si Si1 0.710780 0.593214 0.366429
Si Si2 0.824006 0.734843 0.299209
Si Si3 0.618647 0.090426 0.635252
Si Si4 0.452536 0.333447 0.187101
Si Si5 0.131597 0.000000 0.500000
Si Si6 0.000000 0.500000 0.500000
O O1 0.729511 0.500000 0.500000
O O2 0.764621 0.638950 0.286284
O O3 0.673381 0.437895 0.287975
O O4 0.674855 0.794763 0.390312
O O5 0.869854 0.580347 0.245775
O O6 0.833490 0.803895 0.448652
O O7 0.569067 0.235568 0.680615
O O8 0.599055 0.000000 0.500000
O O9 0.500000 0.500000 0.212519
O O10 0.403388 0.452798 0.124034
O O11 0.465988 0.148582 0.090796
#
# Coordination Sequence:
#
# PCOD8164517 Si02
#       6
#     8   8   8   8   4   2
#     4  12  26  44  69 104 156 198 246 302 352 453
#     4  12  27  43  71 113 148 199 247 297 371 438
#     4  12  27  48  75 104 151 203 243 298 375 446
#     4  12  26  48  78 109 140 187 250 323 375 442
#     4  12  25  46  74 108 144 184 246 315 374 432
#     4  12  22  48  82 106 144 172 242 322 396 434
#
# _framework density 22.655383
#
# number of rings (size 3 to 8) (size 9 to 14) (size 15 to 20)
#    0.000    0.000    8.421    1.263    7.368    0.000 
#    0.000    0.526    4.632    0.000    0.000    0.000 
#    0.000    0.000    0.000    0.000    0.000    0.000 
#
# Total GULP energy -235607.866084 kJ/mol
# GULP energy per Si atom -12400.414004 kJ/mol
# Density = 2.260382 g / cm^3
# Si number density = 22.655383 Si / 1000 Ang^3
#
#
#
# Elastic Constant Matrix: (Units=GPa)
#
#
# Indices 1 2 3 4 5 6 
#
# 1 95.7272 49.8083 49.1247 0.0000 0.0000 0.0000
# 2 49.8083 115.5855 52.1339 0.0000 0.0000 0.0000
# 3 49.1247 52.1339 128.0502 0.0000 0.0000 0.0000
# 4 0.0000 0.0000 0.0000 50.5051 0.0000 0.0000
# 5 0.0000 0.0000 0.0000 0.0000 33.0841 0.0000
# 6 0.0000 0.0000 0.0000 0.0000 0.0000 39.2313
#
#
#
# Elastic Compliance Matrix: (Units=1/GPa)
#
#
# Indices 1 2 3 4 5 6 
#
# 1 0.014822 -0.004682 -0.003780 0.000000 0.000000 0.000000
# 2 -0.004682 0.012077 -0.003121 0.000000 0.000000 0.000000
# 3 -0.003780 -0.003121 0.010530 0.000000 0.000000 0.000000
# 4 0.000000 0.000000 0.000000 0.019800 0.000000 0.000000
# 5 0.000000 0.000000 0.000000 0.000000 0.030226 0.000000
# 6 0.000000 0.000000 0.000000 0.000000 0.000000 0.025490
#
#
# Mechanical properties :
#
#
# Convention : Reuss Voigt Hill
#
# Bulk Modulus (GPa) = 70.10963 71.27742 70.69353
# Shear Modulus (GPa) = 35.49476 37.11717 36.30597
#
# Velocity S-wave (km/s) = 3.96248 4.05203 4.00751
# Velocity P-wave (km/s) = 7.20752 7.30902 7.25845
#
# Compressibility (1/GPa) = 0.01426337
#
# Stress axis : x y z
#
# Youngs Moduli (GPa) = 67.46503 82.80302 94.96563
#
# Poissons Ratio (x) = 0.38771 0.35898
# Poissons Ratio (y) = 0.31590 0.29635
# Poissons Ratio (z) = 0.25502 0.25840
#
# Static dielectric constant tensor:
#      x y z
#    x 3.859650 0.000000 0.000000 
#    y 0.000000 4.658440 0.000000 
#    z 0.000000 0.000000 4.104540 
# 
# 
# High freq. dielectric constant tensor:
#      x y z
#    x 1.888070 0.000000 0.000000 
#    y 0.000000 1.909360 0.000000 
#    z 0.000000 0.000000 1.890610 
# 
# From -- ./inp_files/13919.got.cif
#   From: 2010.03.12/outbox.cif.g09.slc.cpg/sg23_7_cif.got.tgz:13919.got - 2010.04.14 02:50:06.
