data_PCOD8164921
_publ_section_title
;
Structure prediction by ZEFSAII (Michael W. Deem and Ramdas Pophale) SiO2 
 PCOD8164921
Probable space group: I 21 21 21
;
_chemical_formula_sum "Si O2"
_cell_formula_units_Z 64
_cell_length_a 30.102928
_cell_length_b 8.875816
_cell_length_c 11.521304
_cell_angle_alpha 90.000000
_cell_angle_beta 90.000000
_cell_angle_gamma 90.000000
_cell_volume 3078.354749
_symmetry_space_group_name_H-M "I 21 21 21"
_symmetry_group_IT_number 24
_symmetry_cell_setting 'orthorhombic'
loop_
_space_group_symop_operation_xyz
x,y,z
-x,1/2-y,z
x,-y,1/2-z
1/2-x,y,-z
1/2+x,1/2+y,1/2+z
1/2-x,-y,1/2+z
1/2+x,1/2-y,-z
-x,1/2+y,1/2-z
loop_
_atom_site_type_symbol
_atom_site_label
_atom_site_fract_x
_atom_site_fract_y
_atom_site_fract_z
Si Si1 0.085995 0.138349 0.321408
Si Si2 0.136508 0.609230 0.847631
Si Si3 0.506842 0.427833 0.371091
Si Si4 0.433683 0.411790 0.543068
Si Si5 0.700780 0.888628 0.469529
Si Si6 0.619110 0.810960 0.613137
Si Si7 0.100312 0.959099 0.536873
Si Si8 0.323449 0.138735 0.195633
O O1 0.053312 0.266350 0.376161
O O2 0.120030 0.224631 0.235976
O O3 0.061471 0.000000 0.250000
O O4 0.113329 0.064832 0.427304
O O5 0.114890 0.500000 0.750000
O O6 0.179120 0.525217 0.900199
O O7 0.152347 0.764788 0.794289
O O8 0.099968 0.646709 0.943701
O O9 0.500000 0.250000 0.358335
O O10 0.491200 0.500000 0.250000
O O11 0.476861 0.480871 0.480396
O O12 0.556132 0.481881 0.400607
O O13 0.410184 0.537714 0.622167
O O14 0.750000 0.941639 0.500000
O O15 0.670239 0.848635 0.580800
O O16 0.705990 0.741278 0.388201
O O17 0.595724 0.712083 0.511895
O O18 0.139428 0.957600 0.628203
O O19 0.294352 0.000000 0.250000
#
# Coordination Sequence:
#
# PCOD8164921 Si02
#       8
#     8   8   8   8   8   8   8   8
#     4  10  20  39  59  83 115 161 212 248 299 361
#     4   9  19  36  61  88 119 163 201 240 310 382
#     4  12  27  39  59  92 128 159 204 268 323 373
#     4  11  21  38  58  87 123 156 211 257 300 374
#     4   9  19  39  61  89 125 156 202 261 308 365
#     4   9  21  38  64  86 115 164 209 255 301 370
#     4  10  21  39  59  83 125 163 201 252 313 364
#     4  10  19  34  60  88 118 164 197 240 312 385
#
# _framework density 20.790324999999999
#
# number of rings (size 3 to 8) (size 9 to 14) (size 15 to 20)
#    0.000    2.000    1.250    2.625    3.500    0.000 
#    0.000   17.500    0.000    0.000    0.000    0.000 
#    0.000    0.000    0.000    0.000    0.000    0.000 
#
# Total GULP energy -396526.002922 kJ/mol
# GULP energy per Si atom -12391.437591 kJ/mol
# Density = 2.074301 g / cm^3
# Si number density = 20.790325 Si / 1000 Ang^3
#
#
#
# Elastic Constant Matrix: (Units=GPa)
#
#
# Indices 1 2 3 4 5 6 
#
# 1 67.6645 11.5708 25.8187 0.0000 0.0000 0.0000
# 2 11.5708 98.9820 40.1347 0.0000 0.0000 0.0000
# 3 25.8187 40.1347 101.3698 0.0000 0.0000 0.0000
# 4 0.0000 0.0000 0.0000 44.5893 0.0000 0.0000
# 5 0.0000 0.0000 0.0000 0.0000 13.1786 0.0000
# 6 0.0000 0.0000 0.0000 0.0000 0.0000 14.4036
#
#
#
# Elastic Compliance Matrix: (Units=1/GPa)
#
#
# Indices 1 2 3 4 5 6 
#
# 1 0.016376 -0.000266 -0.004066 0.000000 0.000000 0.000000
# 2 -0.000266 0.012039 -0.004699 0.000000 0.000000 0.000000
# 3 -0.004066 -0.004699 0.012761 0.000000 0.000000 0.000000
# 4 0.000000 0.000000 0.000000 0.022427 0.000000 0.000000
# 5 0.000000 0.000000 0.000000 0.000000 0.075880 0.000000
# 6 0.000000 0.000000 0.000000 0.000000 0.000000 0.069427
#
#
# Mechanical properties :
#
#
# Convention : Reuss Voigt Hill
#
# Bulk Modulus (GPa) = 43.26200 47.00718 45.13459
# Shear Modulus (GPa) = 21.30600 27.13378 24.21989
#
# Velocity S-wave (km/s) = 3.20473 3.61656 3.41685
# Velocity P-wave (km/s) = 5.87772 6.33234 6.10926
#
# Compressibility (1/GPa) = 0.02311497
#
# Stress axis : x y z
#
# Youngs Moduli (GPa) = 61.06667 83.06194 78.36512
#
# Poissons Ratio (x) = 0.02208 0.31860
# Poissons Ratio (y) = 0.01623 0.36823
# Poissons Ratio (z) = 0.24827 0.39030
#
# Static dielectric constant tensor:
#      x y z
#    x 3.213930 0.000000 0.000000 
#    y 0.000000 4.076910 0.000000 
#    z 0.000000 0.000000 4.125290 
# 
# 
# High freq. dielectric constant tensor:
#      x y z
#    x 1.753790 0.000000 0.000000 
#    y 0.000000 1.839340 0.000000 
#    z 0.000000 0.000000 1.830680 
# 
# From -- ./inp_files/11659.got.cif
#   From: 2010.03.12/outbox.cif.g09.slc.cpg/sg24_6_cif.got.tgz:11659.got - 2010.04.14 03:06:53.
