data_PCOD8164629
_publ_section_title
;
Structure prediction by ZEFSAII (Michael W. Deem and Ramdas Pophale) SiO2 
 PCOD8164629
Probable space group: I 21 21 21
;
_chemical_formula_sum "Si O2"
_cell_formula_units_Z 44
_cell_length_a 9.025737
_cell_length_b 22.535049
_cell_length_c 11.256848
_cell_angle_alpha 90.000000
_cell_angle_beta 90.000000
_cell_angle_gamma 90.000000
_cell_volume 2289.591389
_symmetry_space_group_name_H-M "I 21 21 21"
_symmetry_group_IT_number 24
_symmetry_cell_setting 'orthorhombic'
loop_
_space_group_symop_operation_xyz
x,y,z
-x,1/2-y,z
x,-y,1/2-z
1/2-x,y,-z
1/2+x,1/2+y,1/2+z
1/2-x,-y,1/2+z
1/2+x,1/2-y,-z
-x,1/2+y,1/2-z
loop_
_atom_site_type_symbol
_atom_site_label
_atom_site_fract_x
_atom_site_fract_y
_atom_site_fract_z
Si Si1 0.500000 0.750000 0.731834
Si Si2 0.419697 0.472747 0.375212
Si Si3 0.909409 0.982195 0.375264
Si Si4 0.807556 0.150249 0.124985
Si Si5 0.717707 0.722851 0.127046
Si Si6 0.068822 0.340231 0.677860
O O1 0.430359 0.698024 0.655692
O O2 0.626938 0.719340 0.807983
O O3 0.486875 0.500000 0.250000
O O4 0.244677 0.482760 0.373063
O O5 0.489027 0.501027 0.498007
O O6 0.448118 0.402612 0.389201
O O7 0.887476 0.912418 0.375977
O O8 0.993526 0.000000 0.250000
O O9 0.658966 0.148180 0.202531
O O10 0.750000 0.170636 0.000000
O O11 0.659962 0.790435 0.104490
O O12 0.596640 0.685091 0.201139
O O13 0.750000 0.693269 0.000000
#
# Coordination Sequence:
#
# PCOD8164629 Si02
#       6
#     4   8   8   8   8   8
#     4  10  24  36  56  82 116 154 194 236 290 346
#     4  10  17  31  54  88 107 148 186 243 284 342
#     4  10  18  29  53  90 112 140 191 243 284 336
#     4  11  20  37  57  86 117 148 197 243 283 349
#     4  10  22  38  55  84 114 154 188 242 290 351
#     4  10  20  35  60  83 114 147 196 237 296 346
#
# _framework density 19.217403000000001
#
# number of rings (size 3 to 8) (size 9 to 14) (size 15 to 20)
#    0.000    1.818    5.455    1.091    2.545    4.364 
#    0.000    0.000    0.000    3.273    0.000    0.000 
#    0.000    0.000    0.000    0.000    0.000    0.000 
#
# Total GULP energy -272545.859910 kJ/mol
# GULP energy per Si atom -12388.448178 kJ/mol
# Density = 1.917366 g / cm^3
# Si number density = 19.217403 Si / 1000 Ang^3
#
#
#
# Elastic Constant Matrix: (Units=GPa)
#
#
# Indices 1 2 3 4 5 6 
#
# 1 82.8550 47.0997 46.0458 0.0000 -0.0001 0.0003
# 2 47.0997 141.5417 60.9384 -0.0010 0.0001 -0.0014
# 3 46.0458 60.9384 166.2812 -0.0023 0.0002 -0.0035
# 4 0.0000 -0.0010 -0.0023 23.8854 0.0002 -0.0028
# 5 -0.0001 0.0001 0.0002 0.0002 6.1762 0.0008
# 6 0.0003 -0.0014 -0.0035 -0.0028 0.0008 14.7498
#
#
#
# Elastic Compliance Matrix: (Units=1/GPa)
#
#
# Indices 1 2 3 4 5 6 
#
# 1 0.016015 -0.004061 -0.002947 0.000000 0.000000 -0.000001
# 2 -0.004061 0.009418 -0.002327 0.000000 0.000000 0.000000
# 3 -0.002947 -0.002327 0.007683 0.000001 0.000000 0.000002
# 4 0.000000 0.000000 0.000001 0.041867 -0.000002 0.000008
# 5 0.000000 0.000000 0.000000 -0.000002 0.161913 -0.000008
# 6 -0.000001 0.000000 0.000002 0.000008 -0.000008 0.067798
#
#
# Mechanical properties :
#
#
# Convention : Reuss Voigt Hill
#
# Bulk Modulus (GPa) = 69.21746 77.64955 73.43350
# Shear Modulus (GPa) = 15.23565 24.73521 19.98543
#
# Velocity S-wave (km/s) = 2.81873 3.59155 3.22835
# Velocity P-wave (km/s) = 6.83301 7.59556 7.22435
#
# Compressibility (1/GPa) = 0.01444722
#
# Stress axis : x y z
#
# Youngs Moduli (GPa) = 62.44084 106.17785 130.16193
#
# Poissons Ratio (x) = 0.43114 0.38355
# Poissons Ratio (y) = 0.25355 0.30290
# Poissons Ratio (z) = 0.18400 0.24709
#
# Static dielectric constant tensor:
#      x y z
#    x 3.061800 0.000010 -0.000010 
#    y 0.000010 3.764910 -0.000010 
#    z -0.000010 -0.000010 4.215520 
# 
# 
# High freq. dielectric constant tensor:
#      x y z
#    x 1.698670 0.000000 0.000000 
#    y 0.000000 1.756850 0.000000 
#    z 0.000000 0.000000 1.757910 
# 
# From -- ./inp_files/11198.got.cif
#   From: 2010.03.12/outbox.cif.g09.slc.cpg/sg24_6_cif.got.tgz:11198.got - 2010.04.14 03:06:53.
