data_PCOD8164107
_publ_section_title
;
Structure prediction by ZEFSAII (Michael W. Deem and Ramdas Pophale) SiO2 
 PCOD8164107
Probable space group: I 2 2 2
;
_chemical_formula_sum "Si O2"
_cell_formula_units_Z 52
_cell_length_a 9.052229
_cell_length_b 14.073029
_cell_length_c 17.634663
_cell_angle_alpha 90.000000
_cell_angle_beta 90.000000
_cell_angle_gamma 90.000000
_cell_volume 2246.519948
_symmetry_space_group_name_H-M "I 2 2 2"
_symmetry_group_IT_number 23
_symmetry_cell_setting 'orthorhombic'
loop_
_space_group_symop_operation_xyz
x,y,z
-x,-y,z
x,-y,-z
-x,y,-z
1/2+x,1/2+y,1/2+z
1/2-x,1/2-y,1/2+z
1/2+x,1/2-y,1/2-z
1/2-x,1/2+y,1/2-z
loop_
_atom_site_type_symbol
_atom_site_label
_atom_site_fract_x
_atom_site_fract_y
_atom_site_fract_z
Si Si1 0.363282 0.303424 0.454680
Si Si2 0.360758 0.117491 0.131168
Si Si3 0.107988 0.912644 0.309352
Si Si4 0.076527 0.411894 0.228354
Si Si5 0.231270 0.500000 0.500000
Si Si6 0.047565 0.201092 0.186869
Si Si7 0.367480 0.303296 0.044411
O O1 0.500000 0.263135 0.500000
O O2 0.328174 0.407722 0.484844
O O3 0.404577 0.313110 0.366613
O O4 0.246367 0.222181 0.477083
O O5 0.478604 0.096752 0.196072
O O6 0.194261 0.143773 0.161343
O O7 0.421927 0.205403 0.082887
O O8 0.360901 0.024744 0.076211
O O9 0.250669 0.940114 0.257210
O O10 0.177998 0.876343 0.389043
O O11 0.008159 0.831648 0.269387
O O12 0.000000 0.000000 0.322696
O O13 0.080727 0.312822 0.184257
O O14 0.000000 0.500000 0.182263
O O15 0.500000 0.353269 0.000000
#
# Coordination Sequence:
#
# PCOD8164107 Si02
#       7
#     8   8   8   8   4   8   8
#     4  11  22  40  72 107 150 192 240 308 378 459
#     4  11  24  46  71 111 152 193 238 315 386 470
#     4  12  28  48  74 107 147 200 256 316 374 466
#     4  12  26  46  72 105 149 193 254 307 378 451
#     4  10  23  40  69 116 154 190 244 294 386 466
#     4  12  24  45  77 109 147 195 252 314 390 458
#     4  11  25  46  70 101 147 193 249 306 385 440
#
# _framework density 23.146912
#
# number of rings (size 3 to 8) (size 9 to 14) (size 15 to 20)
#    0.000    0.615    6.154    1.154    6.462    4.000 
#    0.000    3.462    0.000    0.462    0.000    0.000 
#    0.000    0.000    0.000    0.000    0.000    0.000 
#
# Total GULP energy -322098.599663 kJ/mol
# GULP energy per Si atom -12388.407679 kJ/mol
# Density = 2.309423 g / cm^3
# Si number density = 23.146912 Si / 1000 Ang^3
#
#
#
# Elastic Constant Matrix: (Units=GPa)
#
#
# Indices 1 2 3 4 5 6 
#
# 1 148.1207 47.4795 58.5878 0.0000 0.0000 0.0000
# 2 47.4795 99.7091 20.0304 0.0000 0.0000 0.0000
# 3 58.5878 20.0304 97.8424 0.0000 0.0000 0.0000
# 4 0.0000 0.0000 0.0000 34.9597 0.0000 0.0000
# 5 0.0000 0.0000 0.0000 0.0000 38.8780 0.0000
# 6 0.0000 0.0000 0.0000 0.0000 0.0000 1.3771
#
#
#
# Elastic Compliance Matrix: (Units=1/GPa)
#
#
# Indices 1 2 3 4 5 6 
#
# 1 0.010013 -0.003716 -0.005235 0.000000 0.000000 0.000000
# 2 -0.003716 0.011839 -0.000198 0.000000 0.000000 0.000000
# 3 -0.005235 -0.000198 0.013396 0.000000 0.000000 0.000000
# 4 0.000000 0.000000 0.000000 0.028604 0.000000 0.000000
# 5 0.000000 0.000000 0.000000 0.000000 0.025721 0.000000
# 6 0.000000 0.000000 0.000000 0.000000 0.000000 0.726175
#
#
# Mechanical properties :
#
#
# Convention : Reuss Voigt Hill
#
# Bulk Modulus (GPa) = 59.00299 66.42973 62.71636
# Shear Modulus (GPa) = 5.95452 29.68126 17.81789
#
# Velocity S-wave (km/s) = 1.60564 3.58480 2.77749
# Velocity P-wave (km/s) = 5.38363 6.77465 6.11880
#
# Compressibility (1/GPa) = 0.01694829
#
# Stress axis : x y z
#
# Youngs Moduli (GPa) = 99.86788 84.46874 74.64995
#
# Poissons Ratio (x) = 0.31392 0.39080
# Poissons Ratio (y) = 0.37115 0.01480
# Poissons Ratio (z) = 0.52282 0.01674
#
# Static dielectric constant tensor:
#      x y z
#    x 4.607140 0.000000 0.000000 
#    y 0.000000 4.288060 0.000000 
#    z 0.000000 0.000000 4.620440 
# 
# 
# High freq. dielectric constant tensor:
#      x y z
#    x 1.927600 0.000000 0.000000 
#    y 0.000000 1.908690 0.000000 
#    z 0.000000 0.000000 1.908910 
# 
# From -- ./inp_files/26211.got.cif
#   From: 2010.03.12/outbox.cif.g09.slc.cpg/sg23_14_cif.got.tgz:26211.got - 2010.04.14 02:50:06.
