data_PCOD8164396
_publ_section_title
;
Structure prediction by ZEFSAII (Michael W. Deem and Ramdas Pophale) SiO2 
 PCOD8164396
Probable space group: I 2 2 2
;
_chemical_formula_sum "Si O2"
_cell_formula_units_Z 58
_cell_length_a 30.019397
_cell_length_b 8.779504
_cell_length_c 9.784988
_cell_angle_alpha 90.000000
_cell_angle_beta 90.000000
_cell_angle_gamma 90.000000
_cell_volume 2578.886583
_symmetry_space_group_name_H-M "I 2 2 2"
_symmetry_group_IT_number 23
_symmetry_cell_setting 'orthorhombic'
loop_
_space_group_symop_operation_xyz
x,y,z
-x,-y,z
x,-y,-z
-x,y,-z
1/2+x,1/2+y,1/2+z
1/2-x,1/2-y,1/2+z
1/2+x,1/2-y,1/2-z
1/2-x,1/2+y,1/2-z
loop_
_atom_site_type_symbol
_atom_site_label
_atom_site_fract_x
_atom_site_fract_y
_atom_site_fract_z
Si Si1 0.500000 0.000000 0.500000
Si Si2 0.664232 0.783702 0.416332
Si Si3 0.805529 0.090959 0.318690
Si Si4 0.162578 0.226099 0.418202
Si Si5 0.495718 0.331631 0.160204
Si Si6 0.928619 0.347342 0.181090
Si Si7 0.798220 0.405608 0.817782
Si Si8 0.927450 0.392204 0.625318
O O1 0.530037 0.114408 0.586034
O O2 0.684848 0.640356 0.336390
O O3 0.610479 0.773117 0.410121
O O4 0.682212 0.784374 0.571509
O O5 0.678093 0.934914 0.336881
O O6 0.820822 0.222234 0.425136
O O7 0.753588 0.062976 0.341604
O O8 0.833512 0.939436 0.349512
O O9 0.193280 0.343197 0.333835
O O10 0.111694 0.280270 0.421802
O O11 0.500000 0.500000 0.228205
O O12 0.447198 0.270072 0.204792
O O13 0.533759 0.207777 0.196804
O O14 0.500000 0.350455 0.000000
O O15 0.909520 0.498103 0.255004
O O16 0.944723 0.500000 0.500000
#
# Coordination Sequence:
#
# PCOD8164396 Si02
#       8
#     2   8   8   8   8   8   8   8
#     4  12  24  40  72  92 128 188 226 270 316 400
#     4  11  24  41  69  97 135 173 226 282 334 402
#     4  11  24  43  65  98 139 175 219 285 345 394
#     4  11  25  40  66  98 131 175 222 276 336 402
#     4  11  25  41  70  99 132 167 208 281 346 396
#     4  12  24  43  67  99 130 176 231 271 329 399
#     4  11  22  44  67  97 130 182 227 274 331 412
#     4  12  23  43  68  98 130 168 225 276 334 404
#
# _framework density 22.490324000000001
#
# number of rings (size 3 to 8) (size 9 to 14) (size 15 to 20)
#    0.000    0.690    4.138    4.966    1.931    1.655 
#    0.000    3.103    3.034    0.000    0.000    0.000 
#    0.000    0.000    0.000    0.000    0.000    0.000 
#
# Total GULP energy -359613.463818 kJ/mol
# GULP energy per Si atom -12400.464270 kJ/mol
# Density = 2.243914 g / cm^3
# Si number density = 22.490324 Si / 1000 Ang^3
#
#
#
# Elastic Constant Matrix: (Units=GPa)
#
#
# Indices 1 2 3 4 5 6 
#
# 1 136.5578 32.2860 13.9470 0.0000 0.0000 0.0000
# 2 32.2860 84.3826 10.1605 0.0000 0.0000 0.0000
# 3 13.9470 10.1605 35.2635 0.0000 0.0000 0.0000
# 4 0.0000 0.0000 0.0000 28.8528 0.0000 0.0000
# 5 0.0000 0.0000 0.0000 0.0000 32.8007 0.0000
# 6 0.0000 0.0000 0.0000 0.0000 0.0000 24.9854
#
#
#
# Elastic Compliance Matrix: (Units=1/GPa)
#
#
# Indices 1 2 3 4 5 6 
#
# 1 0.008249 -0.002863 -0.002438 0.000000 0.000000 0.000000
# 2 -0.002863 0.013270 -0.002691 0.000000 0.000000 0.000000
# 3 -0.002438 -0.002691 0.030097 0.000000 0.000000 0.000000
# 4 0.000000 0.000000 0.000000 0.034659 0.000000 0.000000
# 5 0.000000 0.000000 0.000000 0.000000 0.030487 0.000000
# 6 0.000000 0.000000 0.000000 0.000000 0.000000 0.040023
#
#
# Mechanical properties :
#
#
# Convention : Reuss Voigt Hill
#
# Bulk Modulus (GPa) = 28.06371 40.99897 34.53134
# Shear Modulus (GPa) = 27.07882 30.64848 28.86365
#
# Velocity S-wave (km/s) = 3.47366 3.69554 3.58632
# Velocity P-wave (km/s) = 5.34731 6.03974 5.70404
#
# Compressibility (1/GPa) = 0.03563321
#
# Stress axis : x y z
#
# Youngs Moduli (GPa) = 121.23196 75.35740 33.22536
#
# Poissons Ratio (x) = 0.21571 0.08099
# Poissons Ratio (y) = 0.34703 0.08942
# Poissons Ratio (z) = 0.29552 0.20281
#
# Static dielectric constant tensor:
#      x y z
#    x 4.024360 0.000000 0.000000 
#    y 0.000000 4.236230 0.000000 
#    z 0.000000 0.000000 4.093700 
# 
# 
# High freq. dielectric constant tensor:
#      x y z
#    x 1.893920 0.000000 0.000000 
#    y 0.000000 1.879830 0.000000 
#    z 0.000000 0.000000 1.882980 
# 
# From -- ./inp_files/18610.got.cif
#   From: 2010.03.12/outbox.cif.g09.slc.cpg/sg23_10_cif.got.tgz:18610.got - 2010.04.14 02:50:06.
