data_PCOD8164970
_publ_section_title
;
Structure prediction by ZEFSAII (Michael W. Deem and Ramdas Pophale) SiO2 
 PCOD8164970
Probable space group: I 21 21 21
;
_chemical_formula_sum "Si O2"
_cell_formula_units_Z 64
_cell_length_a 18.070530
_cell_length_b 8.150750
_cell_length_c 22.668131
_cell_angle_alpha 90.000000
_cell_angle_beta 90.000000
_cell_angle_gamma 90.000000
_cell_volume 3338.752120
_symmetry_space_group_name_H-M "I 21 21 21"
_symmetry_group_IT_number 24
_symmetry_cell_setting 'orthorhombic'
loop_
_space_group_symop_operation_xyz
x,y,z
-x,1/2-y,z
x,-y,1/2-z
1/2-x,y,-z
1/2+x,1/2+y,1/2+z
1/2-x,-y,1/2+z
1/2+x,1/2-y,-z
-x,1/2+y,1/2-z
loop_
_atom_site_type_symbol
_atom_site_label
_atom_site_fract_x
_atom_site_fract_y
_atom_site_fract_z
Si Si1 0.175790 0.270048 0.034117
Si Si2 0.956815 0.409997 0.978004
Si Si3 0.824079 0.813170 0.234981
Si Si4 0.595879 0.898861 0.988677
Si Si5 0.197827 0.892663 0.802980
Si Si6 0.420748 0.189715 0.397406
Si Si7 0.583770 0.702371 0.873411
Si Si8 0.168652 0.891670 0.347355
O O1 0.154975 0.456102 0.018318
O O2 0.186830 0.247700 0.104136
O O3 0.250000 0.221360 0.000000
O O4 0.111905 0.141768 0.017609
O O5 0.927269 0.504613 0.921047
O O6 0.000000 0.250000 0.955011
O O7 0.011746 0.529790 0.015376
O O8 0.739029 0.763128 0.225230
O O9 0.870122 0.795079 0.175907
O O10 0.856466 0.697803 0.287204
O O11 0.827907 0.000000 0.250000
O O12 0.608491 0.765547 0.937887
O O13 0.608815 0.812057 0.051593
O O14 0.135258 0.815168 0.843629
O O15 0.162103 0.000000 0.750000
O O16 0.257548 0.999986 0.839115
O O17 0.500000 0.250000 0.373580
O O18 0.500000 0.750000 0.860701
O O19 0.600658 0.507907 0.868260
#
# Coordination Sequence:
#
# PCOD8164970 Si02
#       8
#     8   8   8   8   8   8   8   8
#     4  11  21  33  54  84 110 141 191 233 268 329
#     4   9  19  36  54  79 113 145 174 218 281 326
#     4  10  22  39  56  77 110 147 183 229 281 324
#     4  10  21  34  53  81 116 148 175 225 285 332
#     4   9  20  39  59  78 107 148 185 224 279 336
#     4  10  19  36  59  82 110 143 181 224 279 337
#     4  11  21  36  57  80 108 147 191 227 269 328
#     4  10  21  37  55  77 110 147 184 228 278 326
#
# _framework density 19.168838000000001
#
# number of rings (size 3 to 8) (size 9 to 14) (size 15 to 20)
#    0.000    2.000    0.000    5.250    0.000    4.000 
#    0.000    8.750    0.000    0.000    0.000    0.000 
#    0.000    0.000    0.000    0.000    0.000    0.000 
#
# Total GULP energy -396802.298456 kJ/mol
# GULP energy per Si atom -12400.071827 kJ/mol
# Density = 1.912521 g / cm^3
# Si number density = 19.168838 Si / 1000 Ang^3
#
#
#
# Elastic Constant Matrix: (Units=GPa)
#
#
# Indices 1 2 3 4 5 6 
#
# 1 73.4246 35.8396 51.0292 0.0000 0.0000 0.0000
# 2 35.8396 112.3484 47.1913 0.0000 0.0000 0.0000
# 3 51.0292 47.1913 110.5041 0.0000 0.0000 0.0000
# 4 0.0000 0.0000 0.0000 25.0565 0.0000 0.0000
# 5 0.0000 0.0000 0.0000 0.0000 28.6111 0.0000
# 6 0.0000 0.0000 0.0000 0.0000 0.0000 16.9823
#
#
#
# Elastic Compliance Matrix: (Units=1/GPa)
#
#
# Indices 1 2 3 4 5 6 
#
# 1 0.020956 -0.003193 -0.008313 0.000000 0.000000 0.000000
# 2 -0.003193 0.011333 -0.003365 0.000000 0.000000 0.000000
# 3 -0.008313 -0.003365 0.014326 0.000000 0.000000 0.000000
# 4 0.000000 0.000000 0.000000 0.039910 0.000000 0.000000
# 5 0.000000 0.000000 0.000000 0.000000 0.034951 0.000000
# 6 0.000000 0.000000 0.000000 0.000000 0.000000 0.058885
#
#
# Mechanical properties :
#
#
# Convention : Reuss Voigt Hill
#
# Bulk Modulus (GPa) = 59.27385 62.71081 60.99233
# Shear Modulus (GPa) = 23.17739 24.94446 24.06092
#
# Velocity S-wave (km/s) = 3.48101 3.61127 3.54674
# Velocity P-wave (km/s) = 6.86627 7.08339 6.97567
#
# Compressibility (1/GPa) = 0.01687085
#
# Stress axis : x y z
#
# Youngs Moduli (GPa) = 47.71978 88.23750 69.80475
#
# Poissons Ratio (x) = 0.28174 0.58032
# Poissons Ratio (y) = 0.15237 0.23492
# Poissons Ratio (z) = 0.39672 0.29695
#
# Static dielectric constant tensor:
#      x y z
#    x 3.386430 0.000000 0.000000 
#    y 0.000000 3.646960 0.000000 
#    z 0.000000 0.000000 3.452680 
# 
# 
# High freq. dielectric constant tensor:
#      x y z
#    x 1.732300 0.000000 0.000000 
#    y 0.000000 1.756950 0.000000 
#    z 0.000000 0.000000 1.743070 
# 
# From -- ./inp_files/29807.got.cif
#   From: 2010.03.12/outbox.cif.g09.slc.cpg/sg24_15_cif.got.tgz:29807.got - 2010.04.14 03:06:53.
