data_PCOD8164822
_publ_section_title
;
Structure prediction by ZEFSAII (Michael W. Deem and Ramdas Pophale) SiO2 
 PCOD8164822
Probable space group: I 21 21 21
;
_chemical_formula_sum "Si O2"
_cell_formula_units_Z 64
_cell_length_a 22.311350
_cell_length_b 9.452031
_cell_length_c 19.950734
_cell_angle_alpha 90.000000
_cell_angle_beta 90.000000
_cell_angle_gamma 90.000000
_cell_volume 4207.361850
_symmetry_space_group_name_H-M "I 21 21 21"
_symmetry_group_IT_number 24
_symmetry_cell_setting 'orthorhombic'
loop_
_space_group_symop_operation_xyz
x,y,z
-x,1/2-y,z
x,-y,1/2-z
1/2-x,y,-z
1/2+x,1/2+y,1/2+z
1/2-x,-y,1/2+z
1/2+x,1/2-y,-z
-x,1/2+y,1/2-z
loop_
_atom_site_type_symbol
_atom_site_label
_atom_site_fract_x
_atom_site_fract_y
_atom_site_fract_z
Si Si1 0.151525 0.583741 0.184759
Si Si2 0.759081 0.090420 0.108212
Si Si3 0.848475 0.583741 0.184760
Si Si4 0.740919 0.590420 0.608213
Si Si5 0.654392 0.408125 0.018168
Si Si6 0.567888 0.586039 0.940547
Si Si7 0.654392 0.908125 0.481832
Si Si8 0.067887 0.413961 0.440547
O O1 0.128935 0.500000 0.250000
O O2 0.216225 0.520299 0.162935
O O3 0.158542 0.750000 0.199567
O O4 0.101897 0.552721 0.128503
O O5 0.757905 0.250000 0.138245
O O6 0.692261 0.044462 0.084083
O O7 0.801940 0.087267 0.044697
O O8 0.871065 0.500000 0.250000
O O9 0.783775 0.520298 0.162935
O O10 0.898102 0.552722 0.128502
O O11 0.698060 0.587267 0.544697
O O12 0.807739 0.544462 0.584083
O O13 0.629694 0.250000 0.028906
O O14 0.598135 0.509439 0.004309
O O15 0.570510 0.750000 0.957571
O O16 0.500000 0.531922 0.932469
O O17 0.598134 0.009439 0.495691
#
# Coordination Sequence:
#
# PCOD8164822 Si02
#       8
#     8   8   8   8   8   8   8   8
#     4  10  19  29  41  57  79 109 143 174 204 238
#     4   8  14  26  42  59  79 100 126 164 208 248
#     4  10  19  29  41  57  79 109 143 174 204 238
#     4   8  14  26  42  59  79 100 126 164 208 248
#     4   8  14  25  42  61  78  99 128 164 206 247
#     4   9  18  30  41  56  81 111 141 172 203 236
#     4   8  14  25  42  61  78  99 128 164 206 247
#     4   9  18  30  41  56  81 111 141 172 203 236
#
# _framework density 15.211432
#
# number of rings (size 3 to 8) (size 9 to 14) (size 15 to 20)
#    0.000    3.250    0.000    2.250    0.000    3.000 
#    0.000    5.000    0.000    0.000    0.000    0.000 
#    0.000    1.000    0.000    3.250    0.000    4.750 
#
# Total GULP energy -396568.106773 kJ/mol
# GULP energy per Si atom -12392.753337 kJ/mol
# Density = 1.517681 g / cm^3
# Si number density = 15.211432 Si / 1000 Ang^3
#
#
#
# Elastic Constant Matrix: (Units=GPa)
#
#
# Indices 1 2 3 4 5 6 
#
# 1 100.7004 58.9738 46.0793 0.0000 0.0000 0.0000
# 2 58.9738 78.6246 28.8312 0.0000 0.0000 0.0000
# 3 46.0793 28.8312 25.7210 0.0000 0.0000 0.0000
# 4 0.0000 0.0000 0.0000 24.9347 0.0000 0.0000
# 5 0.0000 0.0000 0.0000 0.0000 14.1190 0.0000
# 6 0.0000 0.0000 0.0000 0.0000 0.0000 24.2301
#
#
#
# Elastic Compliance Matrix: (Units=1/GPa)
#
#
# Indices 1 2 3 4 5 6 
#
# 1 0.058853 -0.009307 -0.095004 0.000000 0.000000 0.000000
# 2 -0.009307 0.023067 -0.009183 0.000000 0.000000 0.000000
# 3 -0.095004 -0.009183 0.219371 0.000000 0.000000 0.000000
# 4 0.000000 0.000000 0.000000 0.040105 0.000000 0.000000
# 5 0.000000 0.000000 0.000000 0.000000 0.070827 0.000000
# 6 0.000000 0.000000 0.000000 0.000000 0.000000 0.041271
#
#
# Mechanical properties :
#
#
# Convention : Reuss Voigt Hill
#
# Bulk Modulus (GPa) = 13.45814 52.53496 32.99655
# Shear Modulus (GPa) = 7.08970 17.40089 12.24529
#
# Velocity S-wave (km/s) = 2.16122 3.38588 2.84034
# Velocity P-wave (km/s) = 3.88516 7.06378 5.70050
#
# Compressibility (1/GPa) = 0.07430449
#
# Stress axis : x y z
#
# Youngs Moduli (GPa) = 16.99143 43.35272 4.55848
#
# Poissons Ratio (x) = 0.40346 0.43307
# Poissons Ratio (y) = 0.15813 0.04186
# Poissons Ratio (z) = 1.61425 0.39811
#
# Static dielectric constant tensor:
#      x y z
#    x 3.043840 0.000000 0.000000 
#    y 0.000000 3.041590 0.000000 
#    z 0.000000 0.000000 2.799990 
# 
# 
# High freq. dielectric constant tensor:
#      x y z
#    x 1.563210 0.000000 0.000000 
#    y 0.000000 1.588600 0.000000 
#    z 0.000000 0.000000 1.547390 
# 
# From -- ./inp_files/15487.got.cif
#   From: 2010.03.12/outbox.cif.g09.slc.cpg/sg24_8_cif.got.tgz:15487.got - 2010.04.14 03:06:53.
