data_PCOD8164211
_publ_section_title
;
Structure prediction by ZEFSAII (Michael W. Deem and Ramdas Pophale) SiO2 
 PCOD8164211
Probable space group: I 2 2 2
;
_chemical_formula_sum "Si O2"
_cell_formula_units_Z 38
_cell_length_a 23.623163
_cell_length_b 10.614818
_cell_length_c 7.118978
_cell_angle_alpha 90.000000
_cell_angle_beta 90.000000
_cell_angle_gamma 90.000000
_cell_volume 1785.123428
_symmetry_space_group_name_H-M "I 2 2 2"
_symmetry_group_IT_number 23
_symmetry_cell_setting 'orthorhombic'
loop_
_space_group_symop_operation_xyz
x,y,z
-x,-y,z
x,-y,-z
-x,y,-z
1/2+x,1/2+y,1/2+z
1/2-x,1/2-y,1/2+z
1/2+x,1/2-y,1/2-z
1/2-x,1/2+y,1/2-z
loop_
_atom_site_type_symbol
_atom_site_label
_atom_site_fract_x
_atom_site_fract_y
_atom_site_fract_z
Si Si1 0.305568 0.532750 0.286143
Si Si2 0.139267 0.272906 0.148321
Si Si3 0.406213 0.354562 0.292312
Si Si4 0.000000 0.000000 0.000000
Si Si5 0.566997 0.144402 0.010551
Si Si6 0.708923 0.000000 0.500000
O O1 0.292483 0.500000 0.500000
O O2 0.315945 0.681719 0.247195
O O3 0.358874 0.450476 0.208340
O O4 0.247344 0.504376 0.183100
O O5 0.089832 0.313917 0.288141
O O6 0.111067 0.182665 0.999477
O O7 0.168119 0.382798 0.030863
O O8 0.465241 0.421448 0.342218
O O9 0.409901 0.234074 0.154898
O O10 0.500000 0.152268 0.000000
O O11 0.588150 0.000000 0.000000
#
# Coordination Sequence:
#
# PCOD8164211 Si02
#       6
#     8   8   8   2   8   4
#     4  10  24  44  64 101 136 175 235 295 340 415
#     4  11  24  45  65 102 134 182 236 281 358 418
#     4  11  23  45  70  99 142 173 238 296 346 427
#     4  12  20  44  74 110 132 198 232 302 368 396
#     4  11  25  43  67 101 141 183 230 284 347 424
#     4  12  26  40  74  94 136 196 222 290 354 418
#
# _framework density 21.287044999999999
#
# number of rings (size 3 to 8) (size 9 to 14) (size 15 to 20)
#    0.000    1.053    3.158    3.789    5.895    2.526 
#    0.000    2.105    0.000    0.000    0.000    0.000 
#    0.000    0.000    0.000    0.000    0.000    0.000 
#
# Total GULP energy -235468.745613 kJ/mol
# GULP energy per Si atom -12393.091874 kJ/mol
# Density = 2.123859 g / cm^3
# Si number density = 21.287045 Si / 1000 Ang^3
#
#
#
# Elastic Constant Matrix: (Units=GPa)
#
#
# Indices 1 2 3 4 5 6 
#
# 1 87.1745 22.8175 29.0612 0.0000 0.0000 0.0000
# 2 22.8175 120.5199 29.4756 0.0000 0.0000 0.0000
# 3 29.0612 29.4756 74.0063 0.0000 0.0000 0.0000
# 4 0.0000 0.0000 0.0000 43.9662 0.0000 0.0000
# 5 0.0000 0.0000 0.0000 0.0000 43.6777 0.0000
# 6 0.0000 0.0000 0.0000 0.0000 0.0000 11.3605
#
#
#
# Elastic Compliance Matrix: (Units=1/GPa)
#
#
# Indices 1 2 3 4 5 6 
#
# 1 0.013405 -0.001385 -0.004712 0.000000 0.000000 0.000000
# 2 -0.001385 0.009336 -0.003174 0.000000 0.000000 0.000000
# 3 -0.004712 -0.003174 0.016627 0.000000 0.000000 0.000000
# 4 0.000000 0.000000 0.000000 0.022745 0.000000 0.000000
# 5 0.000000 0.000000 0.000000 0.000000 0.022895 0.000000
# 6 0.000000 0.000000 0.000000 0.000000 0.000000 0.088024
#
#
# Mechanical properties :
#
#
# Convention : Reuss Voigt Hill
#
# Bulk Modulus (GPa) = 48.02128 49.37880 48.70004
# Shear Modulus (GPa) = 25.18678 33.15731 29.17205
#
# Velocity S-wave (km/s) = 3.44350 3.95096 3.70593
# Velocity P-wave (km/s) = 6.19823 6.63781 6.42178
#
# Compressibility (1/GPa) = 0.02082410
#
# Stress axis : x y z
#
# Youngs Moduli (GPa) = 74.60063 107.11183 60.14306
#
# Poissons Ratio (x) = 0.14840 0.28340
# Poissons Ratio (y) = 0.10335 0.19092
# Poissons Ratio (z) = 0.35152 0.34001
#
# Static dielectric constant tensor:
#      x y z
#    x 3.944110 0.000000 0.000000 
#    y 0.000000 4.805980 0.000000 
#    z 0.000000 0.000000 3.696100 
# 
# 
# High freq. dielectric constant tensor:
#      x y z
#    x 1.839220 0.000000 0.000000 
#    y 0.000000 1.854640 0.000000 
#    z 0.000000 0.000000 1.836860 
# 
# From -- ./inp_files/12447.got.cif
#   From: 2010.03.12/outbox.cif.g09.slc.cpg/sg23_7_cif.got.tgz:12447.got - 2010.04.14 02:50:06.
