data_PCOD8164460
_publ_section_title
;
Structure prediction by ZEFSAII (Michael W. Deem and Ramdas Pophale) SiO2 
 PCOD8164460
Probable space group: I 2 2 2
;
_chemical_formula_sum "Si O2"
_cell_formula_units_Z 40
_cell_length_a 16.856398
_cell_length_b 13.024657
_cell_length_c 8.004741
_cell_angle_alpha 90.000000
_cell_angle_beta 90.000000
_cell_angle_gamma 90.000000
_cell_volume 1757.431299
_symmetry_space_group_name_H-M "I 2 2 2"
_symmetry_group_IT_number 23
_symmetry_cell_setting 'orthorhombic'
loop_
_space_group_symop_operation_xyz
x,y,z
-x,-y,z
x,-y,-z
-x,y,-z
1/2+x,1/2+y,1/2+z
1/2-x,1/2-y,1/2+z
1/2+x,1/2-y,1/2-z
1/2-x,1/2+y,1/2-z
loop_
_atom_site_type_symbol
_atom_site_label
_atom_site_fract_x
_atom_site_fract_y
_atom_site_fract_z
Si Si1 0.934151 0.800219 0.376979
Si Si2 0.655592 0.535699 0.684994
Si Si3 0.300397 0.657540 0.882425
Si Si4 0.201457 0.651422 0.185348
Si Si5 0.981766 0.615173 0.807391
O O1 0.912771 0.882842 0.233600
O O2 0.855365 0.780653 0.485993
O O3 0.000000 0.847547 0.500000
O O4 0.965410 0.693827 0.299343
O O5 0.635503 0.500000 0.500000
O O6 0.653866 0.442377 0.816541
O O7 0.743902 0.582898 0.693048
O O8 0.279043 0.729392 0.726441
O O9 0.221203 0.629159 0.989454
O O10 0.110655 0.631250 0.225608
O O11 0.000000 0.500000 0.748849
O O12 0.000000 0.633641 0.000000
#
# Coordination Sequence:
#
# PCOD8164460 Si02
#       5
#     8   8   8   8   8
#     4  11  24  49  70 107 145 187 242 303 366 435
#     4  11  27  46  77 109 142 197 248 301 368 436
#     4  11  25  44  73 104 144 191 243 299 365 428
#     4  11  24  45  70 102 144 189 240 302 355 439
#     4  11  28  45  73 107 145 190 238 301 373 436
#
# _framework density 22.760491999999999
#
# number of rings (size 3 to 8) (size 9 to 14) (size 15 to 20)
#    0.000    1.000    2.000    3.600   14.000    3.600 
#    0.000    1.000    0.000    0.000    0.000    0.000 
#    0.000    0.000    0.000    0.000    0.000    0.000 
#
# Total GULP energy -248004.289283 kJ/mol
# GULP energy per Si atom -12400.214464 kJ/mol
# Density = 2.270869 g / cm^3
# Si number density = 22.760492 Si / 1000 Ang^3
#
#
#
# Elastic Constant Matrix: (Units=GPa)
#
#
# Indices 1 2 3 4 5 6 
#
# 1 98.8592 66.3846 39.2672 0.0000 0.0000 0.0000
# 2 66.3846 162.6800 75.0239 0.0000 0.0000 0.0000
# 3 39.2672 75.0239 110.8913 0.0000 0.0000 0.0000
# 4 0.0000 0.0000 0.0000 39.8480 0.0000 0.0000
# 5 0.0000 0.0000 0.0000 0.0000 28.8846 0.0000
# 6 0.0000 0.0000 0.0000 0.0000 0.0000 35.8620
#
#
#
# Elastic Compliance Matrix: (Units=1/GPa)
#
#
# Indices 1 2 3 4 5 6 
#
# 1 0.014127 -0.005026 -0.001602 0.000000 0.000000 0.000000
# 2 -0.005026 0.010723 -0.005475 0.000000 0.000000 0.000000
# 3 -0.001602 -0.005475 0.013289 0.000000 0.000000 0.000000
# 4 0.000000 0.000000 0.000000 0.025095 0.000000 0.000000
# 5 0.000000 0.000000 0.000000 0.000000 0.034621 0.000000
# 6 0.000000 0.000000 0.000000 0.000000 0.000000 0.027885
#
#
# Mechanical properties :
#
#
# Convention : Reuss Voigt Hill
#
# Bulk Modulus (GPa) = 71.77173 81.53134 76.65153
# Shear Modulus (GPa) = 32.34383 33.70257 33.02320
#
# Velocity S-wave (km/s) = 3.77377 3.85222 3.81320
# Velocity P-wave (km/s) = 7.11269 7.46226 7.28957
#
# Compressibility (1/GPa) = 0.01393306
#
# Stress axis : x y z
#
# Youngs Moduli (GPa) = 70.78846 93.25944 75.24910
#
# Poissons Ratio (x) = 0.46870 0.12056
# Poissons Ratio (y) = 0.35577 0.41198
# Poissons Ratio (z) = 0.11341 0.51058
#
# Static dielectric constant tensor:
#      x y z
#    x 4.186270 0.000000 0.000000 
#    y 0.000000 4.202910 0.000000 
#    z 0.000000 0.000000 4.192850 
# 
# 
# High freq. dielectric constant tensor:
#      x y z
#    x 1.901330 0.000000 0.000000 
#    y 0.000000 1.901760 0.000000 
#    z 0.000000 0.000000 1.902810 
# 
# From -- ./inp_files/8216.got.cif
#   From: 2010.03.12/outbox.cif.g09.slc.cpg/sg23_5_cif.got.tgz:8216.got - 2010.04.14 02:50:06.
