data_PCOD8164055
_publ_section_title
;
Structure prediction by ZEFSAII (Michael W. Deem and Ramdas Pophale) SiO2 
 PCOD8164055
Probable space group: I 2 2 2
;
_chemical_formula_sum "Si O2"
_cell_formula_units_Z 64
_cell_length_a 11.111785
_cell_length_b 30.582026
_cell_length_c 9.374772
_cell_angle_alpha 90.000000
_cell_angle_beta 90.000000
_cell_angle_gamma 90.000000
_cell_volume 3185.743437
_symmetry_space_group_name_H-M "I 2 2 2"
_symmetry_group_IT_number 23
_symmetry_cell_setting 'orthorhombic'
loop_
_space_group_symop_operation_xyz
x,y,z
-x,-y,z
x,-y,-z
-x,y,-z
1/2+x,1/2+y,1/2+z
1/2-x,1/2-y,1/2+z
1/2+x,1/2-y,1/2-z
1/2-x,1/2+y,1/2-z
loop_
_atom_site_type_symbol
_atom_site_label
_atom_site_fract_x
_atom_site_fract_y
_atom_site_fract_z
Si Si1 0.839734 0.246609 0.682387
Si Si2 0.989860 0.838144 0.335362
Si Si3 0.280492 0.611515 0.754702
Si Si4 0.630918 0.836708 0.961203
Si Si5 0.866955 0.385306 0.015500
Si Si6 0.365185 0.783548 0.482864
Si Si7 0.359412 0.449809 0.482931
Si Si8 0.765985 0.882071 0.197872
O O1 0.951039 0.212367 0.684464
O O2 0.878557 0.286228 0.581448
O O3 0.717610 0.225794 0.619986
O O4 0.808139 0.262453 0.841412
O O5 0.892074 0.868994 0.264209
O O6 0.000000 0.850281 0.500000
O O7 0.117612 0.850344 0.265050
O O8 0.172189 0.633929 0.670375
O O9 0.230188 0.593682 0.906374
O O10 0.327184 0.568502 0.673416
O O11 0.718613 0.842465 0.097842
O O12 0.500000 0.854628 0.000000
O O13 0.870685 0.335144 0.966324
O O14 0.828406 0.392630 0.177951
O O15 0.000000 0.406088 0.000000
O O16 0.500000 0.764288 0.500000
O O17 0.322826 0.500000 0.500000
O O18 0.500000 0.442114 0.500000
O O19 0.283364 0.425041 0.603451
#
# Coordination Sequence:
#
# PCOD8164055 Si02
#       8
#     8   8   8   8   8   8   8   8
#     4  12  25  41  58  88 129 172 230 283 324 364
#     4  12  23  38  62  92 127 170 214 271 328 378
#     4  11  22  42  67  94 130 172 212 265 336 389
#     4  11  25  40  61  86 125 179 225 266 319 375
#     4  11  22  42  64  88 124 174 221 261 312 390
#     4  11  26  41  59  84 125 172 226 278 328 374
#     4  10  22  42  71 104 133 159 201 263 333 417
#     4  11  22  41  67  93 128 166 214 260 331 394
#
# _framework density 20.089500999999998
#
# number of rings (size 3 to 8) (size 9 to 14) (size 15 to 20)
#    0.000    0.875    5.000    1.875    3.500    0.000 
#    0.000    0.625    0.000   16.500    0.000    0.000 
#    0.000    0.000    0.000    0.000    0.000    0.000 
#
# Total GULP energy -396867.503233 kJ/mol
# GULP energy per Si atom -12402.109476 kJ/mol
# Density = 2.004378 g / cm^3
# Si number density = 20.089501 Si / 1000 Ang^3
#
#
#
# Elastic Constant Matrix: (Units=GPa)
#
#
# Indices 1 2 3 4 5 6 
#
# 1 102.2980 32.7840 35.7591 -0.0002 0.0070 -0.0022
# 2 32.7840 98.9013 40.8524 -0.0010 0.0016 -0.0004
# 3 35.7591 40.8524 130.5607 -0.0016 0.0089 -0.0011
# 4 -0.0002 -0.0010 -0.0016 12.4738 0.0013 0.0015
# 5 0.0070 0.0016 0.0089 0.0013 40.3215 -0.0006
# 6 -0.0022 -0.0004 -0.0011 0.0015 -0.0006 15.7931
#
#
#
# Elastic Compliance Matrix: (Units=1/GPa)
#
#
# Indices 1 2 3 4 5 6 
#
# 1 0.011483 -0.002879 -0.002244 0.000000 -0.000001 0.000001
# 2 -0.002879 0.012334 -0.003071 0.000001 0.000001 0.000000
# 3 -0.002244 -0.003071 0.009235 0.000001 -0.000002 0.000000
# 4 0.000000 0.000001 0.000001 0.080168 -0.000003 -0.000008
# 5 -0.000001 0.000001 -0.000002 -0.000003 0.024801 0.000001
# 6 0.000001 0.000000 0.000000 -0.000008 0.000001 0.063319
#
#
# Mechanical properties :
#
#
# Convention : Reuss Voigt Hill
#
# Bulk Modulus (GPa) = 60.01268 61.17233 60.59251
# Shear Modulus (GPa) = 22.39331 28.54198 25.46764
#
# Velocity S-wave (km/s) = 3.34230 3.77336 3.56435
# Velocity P-wave (km/s) = 6.69568 7.03565 6.86777
#
# Compressibility (1/GPa) = 0.01666315
#
# Stress axis : x y z
#
# Youngs Moduli (GPa) = 87.08884 81.07727 108.28745
#
# Poissons Ratio (x) = 0.23345 0.24300
# Poissons Ratio (y) = 0.25076 0.33251
# Poissons Ratio (z) = 0.19543 0.24896
#
# Static dielectric constant tensor:
#      x y z
#    x 3.899270 0.000000 0.000000 
#    y 0.000000 3.307440 -0.000010 
#    z 0.000000 -0.000010 3.933650 
# 
# 
# High freq. dielectric constant tensor:
#      x y z
#    x 1.796450 0.000000 0.000000 
#    y 0.000000 1.741100 0.000000 
#    z 0.000000 0.000000 1.803880 
# 
# From -- ./inp_files/8968.got.cif
#   From: 2010.03.12/outbox.cif.g09.slc.cpg/sg23_5_cif.got.tgz:8968.got - 2010.04.14 02:50:06.
