data_PCOD8164546
_publ_section_title
;
Structure prediction by ZEFSAII (Michael W. Deem and Ramdas Pophale) SiO2 
 PCOD8164546
Probable space group: I 2 2 2
;
_chemical_formula_sum "Si O2"
_cell_formula_units_Z 30
_cell_length_a 12.495478
_cell_length_b 8.259009
_cell_length_c 11.458665
_cell_angle_alpha 90.000000
_cell_angle_beta 90.000000
_cell_angle_gamma 90.000000
_cell_volume 1182.537268
_symmetry_space_group_name_H-M "I 2 2 2"
_symmetry_group_IT_number 23
_symmetry_cell_setting 'orthorhombic'
loop_
_space_group_symop_operation_xyz
x,y,z
-x,-y,z
x,-y,-z
-x,y,-z
1/2+x,1/2+y,1/2+z
1/2-x,1/2-y,1/2+z
1/2+x,1/2-y,1/2-z
1/2-x,1/2+y,1/2-z
loop_
_atom_site_type_symbol
_atom_site_label
_atom_site_fract_x
_atom_site_fract_y
_atom_site_fract_z
Si Si1 0.500000 0.000000 0.000000
Si Si2 0.745768 0.000000 0.500000
Si Si3 0.401587 0.146498 0.215969
Si Si4 0.186331 0.002477 0.263341
Si Si5 0.073168 0.262101 0.107867
O O1 0.433185 0.877114 0.918612
O O2 0.823748 0.066583 0.602650
O O3 0.672915 0.141891 0.446368
O O4 0.313385 0.007737 0.238027
O O5 0.348650 0.317702 0.243721
O O6 0.504819 0.128495 0.301052
O O7 0.114888 0.103382 0.174406
O O8 0.000000 0.205635 0.000000
#
# Coordination Sequence:
#
# PCOD8164546 Si02
#       5
#     2   4   8   8   8
#     4  12  32  52  80 120 170 212 274 342 416 482
#     4  12  25  50  85 112 172 218 277 340 403 498
#     4  12  29  52  83 120 165 218 273 341 415 483
#     4  12  28  50  81 123 161 216 278 336 410 481
#     4  12  27  51  82 122 166 219 273 337 418 490
#
# _framework density 25.369181999999999
#
# number of rings (size 3 to 8) (size 9 to 14) (size 15 to 20)
#    0.000    0.000    5.333    2.800    3.733    4.267 
#    0.000    0.000    0.000    0.000    0.000    0.000 
#    0.000    0.000    0.000    0.000    0.000    0.000 
#
# Total GULP energy -185945.048956 kJ/mol
# GULP energy per Si atom -12396.336597 kJ/mol
# Density = 2.531144 g / cm^3
# Si number density = 25.369182 Si / 1000 Ang^3
#
#
#
# Elastic Constant Matrix: (Units=GPa)
#
#
# Indices 1 2 3 4 5 6 
#
# 1 69.2922 33.7113 19.0509 0.0000 0.0000 0.0000
# 2 33.7113 141.2420 31.5472 0.0000 0.0000 0.0000
# 3 19.0509 31.5472 181.3547 0.0000 0.0000 0.0000
# 4 0.0000 0.0000 0.0000 51.9456 0.0000 0.0000
# 5 0.0000 0.0000 0.0000 0.0000 62.0021 0.0000
# 6 0.0000 0.0000 0.0000 0.0000 0.0000 25.1914
#
#
#
# Elastic Compliance Matrix: (Units=1/GPa)
#
#
# Indices 1 2 3 4 5 6 
#
# 1 0.016533 -0.003702 -0.001093 0.000000 0.000000 0.000000
# 2 -0.003702 0.008195 -0.001037 0.000000 0.000000 0.000000
# 3 -0.001093 -0.001037 0.005809 0.000000 0.000000 0.000000
# 4 0.000000 0.000000 0.000000 0.019251 0.000000 0.000000
# 5 0.000000 0.000000 0.000000 0.000000 0.016128 0.000000
# 6 0.000000 0.000000 0.000000 0.000000 0.000000 0.039696
#
#
# Mechanical properties :
#
#
# Convention : Reuss Voigt Hill
#
# Bulk Modulus (GPa) = 52.98144 62.27863 57.63003
# Shear Modulus (GPa) = 40.46372 48.33312 44.39842
#
# Velocity S-wave (km/s) = 3.99807 4.36958 4.18795
# Velocity P-wave (km/s) = 6.49941 7.07530 6.79346
#
# Compressibility (1/GPa) = 0.01887454
#
# Stress axis : x y z
#
# Youngs Moduli (GPa) = 60.48451 122.02290 172.14110
#
# Poissons Ratio (x) = 0.45173 0.18812
# Poissons Ratio (y) = 0.22391 0.17846
# Poissons Ratio (z) = 0.06610 0.12650
#
# Static dielectric constant tensor:
#      x y z
#    x 5.084420 0.000000 0.000000 
#    y 0.000000 4.300220 0.000000 
#    z 0.000000 0.000000 5.402750 
# 
# 
# High freq. dielectric constant tensor:
#      x y z
#    x 2.020560 0.000000 0.000000 
#    y 0.000000 2.016420 0.000000 
#    z 0.000000 0.000000 2.037960 
# 
# From -- ./inp_files/16314.got.cif
#   From: 2010.03.12/outbox.cif.g09.slc.cpg/sg23_9_cif.got.tgz:16314.got - 2010.04.14 02:50:06.
