data_PCOD8164646
_publ_section_title
;
Structure prediction by ZEFSAII (Michael W. Deem and Ramdas Pophale) SiO2 
 PCOD8164646
Probable space group: I 21 21 21
;
_chemical_formula_sum "Si O2"
_cell_formula_units_Z 60
_cell_length_a 16.387008
_cell_length_b 16.078530
_cell_length_c 13.034569
_cell_angle_alpha 90.000000
_cell_angle_beta 90.000000
_cell_angle_gamma 90.000000
_cell_volume 3434.335202
_symmetry_space_group_name_H-M "I 21 21 21"
_symmetry_group_IT_number 24
_symmetry_cell_setting 'orthorhombic'
loop_
_space_group_symop_operation_xyz
x,y,z
-x,1/2-y,z
x,-y,1/2-z
1/2-x,y,-z
1/2+x,1/2+y,1/2+z
1/2-x,-y,1/2+z
1/2+x,1/2-y,-z
-x,1/2+y,1/2-z
loop_
_atom_site_type_symbol
_atom_site_label
_atom_site_fract_x
_atom_site_fract_y
_atom_site_fract_z
Si Si1 0.117873 0.419845 0.688830
Si Si2 0.387322 0.707450 0.688496
Si Si3 0.659383 0.677888 0.509470
Si Si4 0.056051 0.588844 0.033423
Si Si5 0.803885 0.078563 0.311431
Si Si6 0.492453 0.595820 0.541480
Si Si7 0.000000 0.750000 0.138408
Si Si8 0.080432 0.302576 0.866064
O O1 0.084501 0.500000 0.750000
O O2 0.063188 0.405850 0.588896
O O3 0.210916 0.434107 0.654446
O O4 0.112835 0.338251 0.759371
O O5 0.345197 0.771849 0.614352
O O6 0.313178 0.651104 0.727904
O O7 0.461687 0.654452 0.635454
O O8 0.421300 0.754475 0.788501
O O9 0.750000 0.637289 0.500000
O O10 0.587920 0.609441 0.514534
O O11 0.647594 0.741258 0.414676
O O12 0.144461 0.594860 0.086103
O O13 0.015923 0.501353 0.066905
O O14 0.000346 0.666312 0.069352
O O15 0.838455 0.000000 0.250000
O O16 0.437448 0.620916 0.443570
O O17 0.000000 0.250000 0.845007
#
# Coordination Sequence:
#
# PCOD8164646 Si02
#       8
#     8   8   8   8   8   8   4   8
#     4  11  21  34  51  79 110 145 178 218 271 332
#     4  10  17  35  53  81 111 139 176 220 270 331
#     4  10  19  32  56  84 109 135 173 230 274 313
#     4  11  22  36  52  80 109 147 183 226 263 326
#     4  10  20  31  52  79 111 141 173 218 278 324
#     4  10  18  34  55  80 110 138 180 221 263 325
#     4  10  22  34  56  80 102 144 188 216 270 322
#     4   9  19  34  53  79 106 143 179 217 268 323
#
# _framework density 17.470631000000001
#
# number of rings (size 3 to 8) (size 9 to 14) (size 15 to 20)
#    0.000    1.867    4.000    2.000    0.933    0.000 
#    0.000    0.000    0.000    3.200    6.933    0.000 
#    0.000    0.000    0.000    0.000    0.000    0.000 
#
# Total GULP energy -371908.751813 kJ/mol
# GULP energy per Si atom -12396.958394 kJ/mol
# Density = 1.743087 g / cm^3
# Si number density = 17.470631 Si / 1000 Ang^3
#
#
#
# Elastic Constant Matrix: (Units=GPa)
#
#
# Indices 1 2 3 4 5 6 
#
# 1 69.6763 20.9135 21.1932 0.0000 0.0000 0.0000
# 2 20.9135 87.4496 37.0608 0.0000 0.0000 0.0000
# 3 21.1932 37.0608 101.3650 0.0000 0.0000 0.0000
# 4 0.0000 0.0000 0.0000 23.7885 0.0000 0.0000
# 5 0.0000 0.0000 0.0000 0.0000 18.3121 0.0000
# 6 0.0000 0.0000 0.0000 0.0000 0.0000 18.9499
#
#
#
# Elastic Compliance Matrix: (Units=1/GPa)
#
#
# Indices 1 2 3 4 5 6 
#
# 1 0.015898 -0.002832 -0.002288 0.000000 0.000000 0.000000
# 2 -0.002832 0.014036 -0.004540 0.000000 0.000000 0.000000
# 3 -0.002288 -0.004540 0.012004 0.000000 0.000000 0.000000
# 4 0.000000 0.000000 0.000000 0.042037 0.000000 0.000000
# 5 0.000000 0.000000 0.000000 0.000000 0.054609 0.000000
# 6 0.000000 0.000000 0.000000 0.000000 0.000000 0.052771
#
#
# Mechanical properties :
#
#
# Convention : Reuss Voigt Hill
#
# Bulk Modulus (GPa) = 44.21384 46.31398 45.26391
# Shear Modulus (GPa) = 22.91320 24.16500 23.53910
#
# Velocity S-wave (km/s) = 3.62543 3.72315 3.67461
# Velocity P-wave (km/s) = 6.54885 6.71190 6.63088
#
# Compressibility (1/GPa) = 0.02261735
#
# Stress axis : x y z
#
# Youngs Moduli (GPa) = 62.90003 71.24316 83.30799
#
# Poissons Ratio (x) = 0.20177 0.19065
# Poissons Ratio (y) = 0.17815 0.37820
# Poissons Ratio (z) = 0.14394 0.32343
#
# Static dielectric constant tensor:
#      x y z
#    x 3.020560 0.000000 0.000000 
#    y 0.000000 3.170450 0.000000 
#    z 0.000000 0.000000 3.250140 
# 
# 
# High freq. dielectric constant tensor:
#      x y z
#    x 1.656130 0.000000 0.000000 
#    y 0.000000 1.660690 0.000000 
#    z 0.000000 0.000000 1.679210 
# 
# From -- ./inp_files/21019.got.cif
#   From: 2010.03.12/outbox.cif.g09.slc.cpg/sg24_11_cif.got.tgz:21019.got - 2010.04.14 03:06:53.
