data_PCOD8164433
_publ_section_title
;
Structure prediction by ZEFSAII (Michael W. Deem and Ramdas Pophale) SiO2 
 PCOD8164433
Probable space group: I 2 2 2
;
_chemical_formula_sum "Si O2"
_cell_formula_units_Z 26
_cell_length_a 8.271523
_cell_length_b 10.379161
_cell_length_c 13.747999
_cell_angle_alpha 90.000000
_cell_angle_beta 90.000000
_cell_angle_gamma 90.000000
_cell_volume 1180.285909
_symmetry_space_group_name_H-M "I 2 2 2"
_symmetry_group_IT_number 23
_symmetry_cell_setting 'orthorhombic'
loop_
_space_group_symop_operation_xyz
x,y,z
-x,-y,z
x,-y,-z
-x,y,-z
1/2+x,1/2+y,1/2+z
1/2-x,1/2-y,1/2+z
1/2+x,1/2-y,1/2-z
1/2-x,1/2+y,1/2-z
loop_
_atom_site_type_symbol
_atom_site_label
_atom_site_fract_x
_atom_site_fract_y
_atom_site_fract_z
Si Si1 0.822152 0.849956 0.998643
Si Si2 0.000000 0.000000 0.500000
Si Si3 0.162246 0.183677 0.650696
Si Si4 0.897837 0.369610 0.683985
O O1 0.740294 0.806547 0.098271
O O2 0.707431 0.819050 0.907242
O O3 0.000000 0.783037 0.000000
O O4 0.847525 0.000000 0.000000
O O5 0.115900 0.082901 0.568025
O O6 0.280361 0.109071 0.724357
O O7 0.011923 0.246782 0.708576
O O8 0.000000 0.500000 0.662983
#
# Coordination Sequence:
#
# PCOD8164433 Si02
#       4
#     8   2   8   8
#     4  11  23  45  75 105 140 189 246 296 355 431
#     4  12  28  44  72  96 154 180 238 294 368 404
#     4  12  27  46  71 108 145 191 237 301 361 428
#     4  12  26  46  76 106 146 192 243 297 362 431
#
# _framework density 22.028559000000001
#
# number of rings (size 3 to 8) (size 9 to 14) (size 15 to 20)
#    0.000    0.308    6.154    1.846    4.308    4.923 
#    0.000    0.000    0.000    0.000    0.000    0.000 
#    0.000    0.000    0.000    0.000    0.000    0.000 
#
# Total GULP energy -161169.284273 kJ/mol
# GULP energy per Si atom -12397.637252 kJ/mol
# Density = 2.197842 g / cm^3
# Si number density = 22.028559 Si / 1000 Ang^3
#
#
#
# Elastic Constant Matrix: (Units=GPa)
#
#
# Indices 1 2 3 4 5 6 
#
# 1 140.0666 33.6274 54.5273 0.0000 0.0000 0.0000
# 2 33.6274 54.1267 5.7898 0.0000 0.0000 0.0000
# 3 54.5273 5.7898 105.7598 0.0000 0.0000 0.0000
# 4 0.0000 0.0000 0.0000 5.6837 0.0000 0.0000
# 5 0.0000 0.0000 0.0000 0.0000 53.2769 0.0000
# 6 0.0000 0.0000 0.0000 0.0000 0.0000 20.3693
#
#
#
# Elastic Compliance Matrix: (Units=1/GPa)
#
#
# Indices 1 2 3 4 5 6 
#
# 1 0.010582 -0.006026 -0.005126 0.000000 0.000000 0.000000
# 2 -0.006026 0.022015 0.001901 0.000000 0.000000 0.000000
# 3 -0.005126 0.001901 0.011994 0.000000 0.000000 0.000000
# 4 0.000000 0.000000 0.000000 0.175942 0.000000 0.000000
# 5 0.000000 0.000000 0.000000 0.000000 0.018770 0.000000
# 6 0.000000 0.000000 0.000000 0.000000 0.000000 0.049093
#
#
# Mechanical properties :
#
#
# Convention : Reuss Voigt Hill
#
# Bulk Modulus (GPa) = 38.32735 54.20470 46.26603
# Shear Modulus (GPa) = 15.84319 29.59988 22.72153
#
# Velocity S-wave (km/s) = 2.68472 3.66963 3.21512
# Velocity P-wave (km/s) = 5.20067 6.52801 5.90178
#
# Compressibility (1/GPa) = 0.02609103
#
# Stress axis : x y z
#
# Youngs Moduli (GPa) = 94.50409 45.42272 83.37506
#
# Poissons Ratio (x) = 0.27371 0.42736
# Poissons Ratio (y) = 0.56946 -0.15854
# Poissons Ratio (z) = 0.48440 -0.08637
#
# Static dielectric constant tensor:
#      x y z
#    x 5.007020 0.000000 0.000000 
#    y 0.000000 3.770860 0.000000 
#    z 0.000000 0.000000 3.894470 
# 
# 
# High freq. dielectric constant tensor:
#      x y z
#    x 1.890410 0.000000 0.000000 
#    y 0.000000 1.857150 0.000000 
#    z 0.000000 0.000000 1.865210 
# 
# From -- ./inp_files/6439.got.cif
#   From: 2010.03.12/outbox.cif.g09.slc.cpg/sg23_4_cif.got.tgz:6439.got - 2010.04.14 02:50:06.
