data_PCOD8164456
_publ_section_title
;
Structure prediction by ZEFSAII (Michael W. Deem and Ramdas Pophale) SiO2 
 PCOD8164456
Probable space group: I 2 2 2
;
_chemical_formula_sum "Si O2"
_cell_formula_units_Z 48
_cell_length_a 13.648538
_cell_length_b 16.743562
_cell_length_c 9.273848
_cell_angle_alpha 90.000000
_cell_angle_beta 90.000000
_cell_angle_gamma 90.000000
_cell_volume 2119.307433
_symmetry_space_group_name_H-M "I 2 2 2"
_symmetry_group_IT_number 23
_symmetry_cell_setting 'orthorhombic'
loop_
_space_group_symop_operation_xyz
x,y,z
-x,-y,z
x,-y,-z
-x,y,-z
1/2+x,1/2+y,1/2+z
1/2-x,1/2-y,1/2+z
1/2+x,1/2-y,1/2-z
1/2-x,1/2+y,1/2-z
loop_
_atom_site_type_symbol
_atom_site_label
_atom_site_fract_x
_atom_site_fract_y
_atom_site_fract_z
Si Si1 0.636235 0.673468 0.282713
Si Si2 0.462973 0.747897 0.158999
Si Si3 0.758895 0.086571 0.982308
Si Si4 0.733321 0.079224 0.423923
Si Si5 0.248542 0.176727 0.301751
Si Si6 0.424668 0.073927 0.813348
O O1 0.520069 0.687188 0.267526
O O2 0.670150 0.652230 0.444678
O O3 0.677729 0.605215 0.178379
O O4 0.678313 0.759047 0.234515
O O5 0.350816 0.725084 0.173804
O O6 0.481303 0.841459 0.196860
O O7 0.500000 0.728272 0.000000
O O8 0.649915 0.082201 0.051616
O O9 0.754897 0.104612 0.812506
O O10 0.808755 0.000000 0.000000
O O11 0.711296 0.145068 0.545865
O O12 0.634641 0.061271 0.334766
O O13 0.771949 0.000000 0.500000
O O14 0.500000 0.000000 0.835542
#
# Coordination Sequence:
#
# PCOD8164456 Si02
#       6
#     8   8   8   8   8   8
#     4  11  24  44  70 104 140 194 238 298 363 434
#     4  12  25  44  76 109 139 189 256 296 360 445
#     4  11  25  46  71 102 144 192 230 300 373 426
#     4  11  24  47  68 101 147 190 233 297 375 426
#     4  12  23  47  73 102 149 188 242 302 359 440
#     4  11  27  45  70 111 146 184 237 299 374 445
#
# _framework density 22.648909
#
# number of rings (size 3 to 8) (size 9 to 14) (size 15 to 20)
#    0.000    0.667    5.000    4.000    7.000    1.000 
#    0.000    5.833    0.000    0.000    0.000    0.000 
#    0.000    0.000    0.000    0.000    0.000    0.000 
#
# Total GULP energy -297623.792261 kJ/mol
# GULP energy per Si atom -12400.991344 kJ/mol
# Density = 2.259736 g / cm^3
# Si number density = 22.648909 Si / 1000 Ang^3
#
#
#
# Elastic Constant Matrix: (Units=GPa)
#
#
# Indices 1 2 3 4 5 6 
#
# 1 69.4228 29.1857 17.3604 0.0000 0.0000 0.0000
# 2 29.1857 100.2892 12.4153 0.0000 0.0000 0.0000
# 3 17.3604 12.4153 95.2778 0.0000 0.0000 0.0000
# 4 0.0000 0.0000 0.0000 43.1287 0.0000 0.0000
# 5 0.0000 0.0000 0.0000 0.0000 25.8004 0.0000
# 6 0.0000 0.0000 0.0000 0.0000 0.0000 38.9545
#
#
#
# Elastic Compliance Matrix: (Units=1/GPa)
#
#
# Indices 1 2 3 4 5 6 
#
# 1 0.016974 -0.004632 -0.002489 0.000000 0.000000 0.000000
# 2 -0.004632 0.011398 -0.000641 0.000000 0.000000 0.000000
# 3 -0.002489 -0.000641 0.011033 0.000000 0.000000 0.000000
# 4 0.000000 0.000000 0.000000 0.023186 0.000000 0.000000
# 5 0.000000 0.000000 0.000000 0.000000 0.038759 0.000000
# 6 0.000000 0.000000 0.000000 0.000000 0.000000 0.025671
#
#
# Mechanical properties :
#
#
# Convention : Reuss Voigt Hill
#
# Bulk Modulus (GPa) = 41.87460 42.54583 42.21021
# Shear Modulus (GPa) = 33.22116 35.31195 34.26656
#
# Velocity S-wave (km/s) = 3.83402 3.95283 3.89388
# Velocity P-wave (km/s) = 6.17482 6.29753 6.23647
#
# Compressibility (1/GPa) = 0.02388083
#
# Stress axis : x y z
#
# Youngs Moduli (GPa) = 58.91329 87.73144 90.63904
#
# Poissons Ratio (x) = 0.40633 0.22563
# Poissons Ratio (y) = 0.27286 0.05813
# Poissons Ratio (z) = 0.14665 0.05627
#
# Static dielectric constant tensor:
#      x y z
#    x 4.158910 0.000000 0.000000 
#    y 0.000000 4.331960 0.000000 
#    z 0.000000 0.000000 4.182460 
# 
# 
# High freq. dielectric constant tensor:
#      x y z
#    x 1.873570 0.000000 0.000000 
#    y 0.000000 1.908960 0.000000 
#    z 0.000000 0.000000 1.901740 
# 
# From -- ./inp_files/9929.got.cif
#   From: 2010.03.12/outbox.cif.g09.slc.cpg/sg23_5_cif.got.tgz:9929.got - 2010.04.14 02:50:06.
