data_PCOD8164302
_publ_section_title
;
Structure prediction by ZEFSAII (Michael W. Deem and Ramdas Pophale) SiO2 
 PCOD8164302
Probable space group: I 2 2 2
;
_chemical_formula_sum "Si O2"
_cell_formula_units_Z 36
_cell_length_a 6.204185
_cell_length_b 15.429266
_cell_length_c 18.509446
_cell_angle_alpha 90.000000
_cell_angle_beta 90.000000
_cell_angle_gamma 90.000000
_cell_volume 1771.835611
_symmetry_space_group_name_H-M "I 2 2 2"
_symmetry_group_IT_number 23
_symmetry_cell_setting 'orthorhombic'
loop_
_space_group_symop_operation_xyz
x,y,z
-x,-y,z
x,-y,-z
-x,y,-z
1/2+x,1/2+y,1/2+z
1/2-x,1/2-y,1/2+z
1/2+x,1/2-y,1/2-z
1/2-x,1/2+y,1/2-z
loop_
_atom_site_type_symbol
_atom_site_label
_atom_site_fract_x
_atom_site_fract_y
_atom_site_fract_z
Si Si1 0.500000 0.000000 0.245211
Si Si2 0.643236 0.165810 0.830067
Si Si3 0.414149 0.783658 0.420212
Si Si4 0.297695 0.287114 0.817154
Si Si5 0.859220 0.921464 0.649620
O O1 0.631362 0.934724 0.192155
O O2 0.326151 0.951565 0.294791
O O3 0.810378 0.191143 0.894029
O O4 0.402936 0.199298 0.849859
O O5 0.704915 0.228191 0.762650
O O6 0.500000 0.769917 0.500000
O O7 0.609334 0.815095 0.370620
O O8 0.241084 0.862469 0.414907
O O9 0.468154 0.364527 0.807315
O O10 0.000000 0.000000 0.615597
#
# Coordination Sequence:
#
# PCOD8164302 Si02
#       5
#     4   8   8   8   8
#     4  12  22  38  63 107 126 162 224 290 326 380
#     4  11  21  36  68  95 123 169 221 273 326 398
#     4  11  25  43  62  94 137 178 217 269 338 412
#     4  11  20  39  65  91 122 168 218 266 329 402
#     4  11  21  37  64  95 132 166 217 269 334 394
#
# _framework density 20.317912
#
# number of rings (size 3 to 8) (size 9 to 14) (size 15 to 20)
#    0.000    0.889    6.667    1.333    0.000    3.556 
#    0.000    8.333    0.000    4.000    0.000    0.000 
#    0.000    0.000    0.000    0.000    0.000    0.000 
#
# Total GULP energy -223058.477706 kJ/mol
# GULP energy per Si atom -12392.137650 kJ/mol
# Density = 2.027167 g / cm^3
# Si number density = 20.317912 Si / 1000 Ang^3
#
#
#
# Elastic Constant Matrix: (Units=GPa)
#
#
# Indices 1 2 3 4 5 6 
#
# 1 99.3362 39.3507 40.2427 0.0000 0.0000 0.0000
# 2 39.3507 105.9989 41.5731 0.0000 0.0000 0.0000
# 3 40.2427 41.5731 108.3022 0.0000 0.0000 0.0000
# 4 0.0000 0.0000 0.0000 18.4468 0.0000 0.0000
# 5 0.0000 0.0000 0.0000 0.0000 30.1307 0.0000
# 6 0.0000 0.0000 0.0000 0.0000 0.0000 36.0628
#
#
#
# Elastic Compliance Matrix: (Units=1/GPa)
#
#
# Indices 1 2 3 4 5 6 
#
# 1 0.012814 -0.003402 -0.003456 0.000000 0.000000 0.000000
# 2 -0.003402 0.012009 -0.003346 0.000000 0.000000 0.000000
# 3 -0.003456 -0.003346 0.011802 0.000000 0.000000 0.000000
# 4 0.000000 0.000000 0.000000 0.054210 0.000000 0.000000
# 5 0.000000 0.000000 0.000000 0.000000 0.033189 0.000000
# 6 0.000000 0.000000 0.000000 0.000000 0.000000 0.027729
#
#
# Mechanical properties :
#
#
# Convention : Reuss Voigt Hill
#
# Bulk Modulus (GPa) = 61.65739 61.77450 61.71594
# Shear Modulus (GPa) = 28.15847 29.75944 28.95895
#
# Velocity S-wave (km/s) = 3.72680 3.83128 3.77940
# Velocity P-wave (km/s) = 6.99506 7.07401 7.03464
#
# Compressibility (1/GPa) = 0.01621866
#
# Stress axis : x y z
#
# Youngs Moduli (GPa) = 78.03736 83.26951 84.73270
#
# Poissons Ratio (x) = 0.28327 0.29281
# Poissons Ratio (y) = 0.26547 0.28350
# Poissons Ratio (z) = 0.26967 0.27861
#
# Static dielectric constant tensor:
#      x y z
#    x 4.217470 0.000000 0.000000 
#    y 0.000000 3.789760 0.000000 
#    z 0.000000 0.000000 3.275720 
# 
# 
# High freq. dielectric constant tensor:
#      x y z
#    x 1.825530 0.000000 0.000000 
#    y 0.000000 1.789240 0.000000 
#    z 0.000000 0.000000 1.742410 
# 
# From -- ./inp_files/3742.got.cif
#   From: 2010.03.12/outbox.cif.g09.slc.cpg/sg23_2_cif.got.tgz:3742.got - 2010.04.14 02:50:06.
