data_PCOD8164897
_publ_section_title
;
Structure prediction by ZEFSAII (Michael W. Deem and Ramdas Pophale) SiO2 
 PCOD8164897
Probable space group: I 21 21 21
;
_chemical_formula_sum "Si O2"
_cell_formula_units_Z 52
_cell_length_a 13.285497
_cell_length_b 21.031833
_cell_length_c 8.904487
_cell_angle_alpha 90.000000
_cell_angle_beta 90.000000
_cell_angle_gamma 90.000000
_cell_volume 2488.077103
_symmetry_space_group_name_H-M "I 21 21 21"
_symmetry_group_IT_number 24
_symmetry_cell_setting 'orthorhombic'
loop_
_space_group_symop_operation_xyz
x,y,z
-x,1/2-y,z
x,-y,1/2-z
1/2-x,y,-z
1/2+x,1/2+y,1/2+z
1/2-x,-y,1/2+z
1/2+x,1/2-y,-z
-x,1/2+y,1/2-z
loop_
_atom_site_type_symbol
_atom_site_label
_atom_site_fract_x
_atom_site_fract_y
_atom_site_fract_z
Si Si1 0.408025 0.630557 0.261049
Si Si2 0.393713 0.264505 0.999286
Si Si3 0.559228 0.043468 0.974906
Si Si4 0.680502 0.134172 0.780955
Si Si5 0.750000 0.346003 0.000000
Si Si6 0.477128 0.397567 0.549806
Si Si7 0.133367 0.929656 0.281294
O O1 0.422503 0.694842 0.354191
O O2 0.440382 0.568253 0.354949
O O3 0.291063 0.624248 0.213274
O O4 0.480051 0.633730 0.114935
O O5 0.500000 0.250000 0.917146
O O6 0.343615 0.198052 0.046734
O O7 0.320979 0.302541 0.885096
O O8 0.652814 0.073765 0.884863
O O9 0.456667 0.067194 0.899748
O O10 0.568711 0.968195 0.965389
O O11 0.600475 0.143372 0.648300
O O12 0.777269 0.388155 0.146642
O O13 0.588237 0.399050 0.626717
O O14 0.177283 0.000000 0.250000
#
# Coordination Sequence:
#
# PCOD8164897 Si02
#       7
#     8   8   8   8   4   8   8
#     4  11  20  33  53  90 129 160 212 261 297 371
#     4  11  22  39  62  86 115 166 223 257 296 371
#     4   9  18  34  56  86 125 170 208 245 305 383
#     4  10  19  34  52  87 126 158 216 263 288 370
#     4  12  20  42  74  88 114 174 208 254 320 374
#     4  10  20  34  57  85 130 168 191 262 332 357
#     4   9  21  41  64  95 117 148 210 256 312 381
#
# _framework density 20.899674000000001
#
# number of rings (size 3 to 8) (size 9 to 14) (size 15 to 20)
#    0.000    1.846    1.538    6.462    0.000    3.692 
#    0.000    8.462    0.000    0.000    0.000    0.000 
#    0.000    0.000    0.000    0.000    0.000    0.000 
#
# Total GULP energy -322396.522371 kJ/mol
# GULP energy per Si atom -12399.866245 kJ/mol
# Density = 2.085210 g / cm^3
# Si number density = 20.899674 Si / 1000 Ang^3
#
#
#
# Elastic Constant Matrix: (Units=GPa)
#
#
# Indices 1 2 3 4 5 6 
#
# 1 74.7003 37.9831 25.1199 0.0000 0.0000 0.0000
# 2 37.9831 105.5939 39.0533 0.0000 0.0000 0.0000
# 3 25.1199 39.0533 134.1815 0.0002 -0.0004 -0.0002
# 4 0.0000 0.0000 0.0002 11.8817 -0.0002 -0.0001
# 5 0.0000 0.0000 -0.0004 -0.0002 32.0558 0.0000
# 6 0.0000 0.0000 -0.0002 -0.0001 0.0000 31.2499
#
#
#
# Elastic Compliance Matrix: (Units=1/GPa)
#
#
# Indices 1 2 3 4 5 6 
#
# 1 0.016663 -0.005424 -0.001541 0.000000 0.000000 0.000000
# 2 -0.005424 0.012378 -0.002587 0.000000 0.000000 0.000000
# 3 -0.001541 -0.002587 0.008494 0.000000 0.000000 0.000000
# 4 0.000000 0.000000 0.000000 0.084163 0.000000 0.000000
# 5 0.000000 0.000000 0.000000 0.000000 0.031196 0.000000
# 6 0.000000 0.000000 0.000000 0.000000 0.000000 0.032000
#
#
# Mechanical properties :
#
#
# Convention : Reuss Voigt Hill
#
# Bulk Modulus (GPa) = 54.25599 57.64314 55.94957
# Shear Modulus (GPa) = 23.79349 29.19211 26.49280
#
# Velocity S-wave (km/s) = 3.37777 3.74140 3.56422
# Velocity P-wave (km/s) = 6.42098 6.80477 6.61566
#
# Compressibility (1/GPa) = 0.01843114
#
# Stress axis : x y z
#
# Youngs Moduli (GPa) = 60.01360 80.78741 117.72941
#
# Poissons Ratio (x) = 0.43819 0.18140
# Poissons Ratio (y) = 0.32551 0.30459
# Poissons Ratio (z) = 0.09247 0.20902
#
# Static dielectric constant tensor:
#      x y z
#    x 3.619070 0.000000 0.000000 
#    y 0.000000 3.763880 0.000000 
#    z 0.000000 0.000000 3.777460 
# 
# 
# High freq. dielectric constant tensor:
#      x y z
#    x 1.805370 0.000000 0.000000 
#    y 0.000000 1.812110 0.000000 
#    z 0.000000 0.000000 1.805210 
# 
# From -- ./inp_files/13066.got.cif
#   From: 2010.03.12/outbox.cif.g09.slc.cpg/sg24_7_cif.got.tgz:13066.got - 2010.04.14 03:06:53.
