data_PCOD8164484
_publ_section_title
;
Structure prediction by ZEFSAII (Michael W. Deem and Ramdas Pophale) SiO2 
 PCOD8164484
Probable space group: I 2 2 2
;
_chemical_formula_sum "Si O2"
_cell_formula_units_Z 38
_cell_length_a 19.032237
_cell_length_b 10.809919
_cell_length_c 8.512270
_cell_angle_alpha 90.000000
_cell_angle_beta 90.000000
_cell_angle_gamma 90.000000
_cell_volume 1751.288385
_symmetry_space_group_name_H-M "I 2 2 2"
_symmetry_group_IT_number 23
_symmetry_cell_setting 'orthorhombic'
loop_
_space_group_symop_operation_xyz
x,y,z
-x,-y,z
x,-y,-z
-x,y,-z
1/2+x,1/2+y,1/2+z
1/2-x,1/2-y,1/2+z
1/2+x,1/2-y,1/2-z
1/2-x,1/2+y,1/2-z
loop_
_atom_site_type_symbol
_atom_site_label
_atom_site_fract_x
_atom_site_fract_y
_atom_site_fract_z
Si Si1 0.880089 0.500000 0.500000
Si Si2 0.011853 0.861655 0.316729
Si Si3 0.218993 0.355328 0.029388
Si Si4 0.087960 0.338239 0.226616
Si Si5 0.500000 0.000000 0.500000
Si Si6 0.339619 0.774417 0.799341
O O1 0.924645 0.595582 0.395166
O O2 0.838816 0.412896 0.375187
O O3 0.084897 0.791978 0.276435
O O4 0.000000 0.859731 0.500000
O O5 0.948364 0.793473 0.230372
O O6 0.000000 0.000000 0.251317
O O7 0.194410 0.284079 0.872811
O O8 0.222504 0.500000 0.000000
O O9 0.168803 0.321951 0.176932
O O10 0.295838 0.310676 0.081289
O O11 0.052546 0.419304 0.096393
#
# Coordination Sequence:
#
# PCOD8164484 Si02
#       6
#     4   8   8   8   2   8
#     4  12  22  43  70 106 132 195 244 298 372 423
#     4  11  26  45  71 107 144 191 240 297 370 432
#     4  12  27  48  72 107 149 193 243 301 368 436
#     4  12  23  45  71 105 142 186 249 305 364 437
#     4  12  24  38  70 104 144 178 242 318 360 426
#     4  12  27  46  72 108 146 196 242 303 367 442
#
# _framework density 21.698312999999999
#
# number of rings (size 3 to 8) (size 9 to 14) (size 15 to 20)
#    0.000    0.211    5.263    3.789    2.947    0.842 
#    0.000    3.684    0.000    0.000    0.000    0.000 
#    0.000    0.000    0.000    0.000    0.000    0.000 
#
# Total GULP energy -235549.957450 kJ/mol
# GULP energy per Si atom -12397.366182 kJ/mol
# Density = 2.164893 g / cm^3
# Si number density = 21.698313 Si / 1000 Ang^3
#
#
#
# Elastic Constant Matrix: (Units=GPa)
#
#
# Indices 1 2 3 4 5 6 
#
# 1 91.1005 59.4498 13.2455 0.0000 0.0000 0.0000
# 2 59.4498 153.7684 41.0779 0.0000 0.0000 0.0000
# 3 13.2455 41.0779 96.2115 0.0000 0.0000 0.0000
# 4 0.0000 0.0000 0.0000 31.9196 0.0000 0.0000
# 5 0.0000 0.0000 0.0000 0.0000 44.5210 0.0000
# 6 0.0000 0.0000 0.0000 0.0000 0.0000 35.7536
#
#
#
# Elastic Compliance Matrix: (Units=1/GPa)
#
#
# Indices 1 2 3 4 5 6 
#
# 1 0.014698 -0.005804 0.000455 0.000000 0.000000 0.000000
# 2 -0.005804 0.009632 -0.003314 0.000000 0.000000 0.000000
# 3 0.000455 -0.003314 0.011746 0.000000 0.000000 0.000000
# 4 0.000000 0.000000 0.000000 0.031329 0.000000 0.000000
# 5 0.000000 0.000000 0.000000 0.000000 0.022461 0.000000
# 6 0.000000 0.000000 0.000000 0.000000 0.000000 0.027969
#
#
# Mechanical properties :
#
#
# Convention : Reuss Voigt Hill
#
# Bulk Modulus (GPa) = 53.33180 63.18077 58.25628
# Shear Modulus (GPa) = 35.35756 37.59265 36.47511
#
# Velocity S-wave (km/s) = 4.04110 4.16686 4.10446
# Velocity P-wave (km/s) = 6.81220 7.23404 7.02629
#
# Compressibility (1/GPa) = 0.01875054
#
# Stress axis : x y z
#
# Youngs Moduli (GPa) = 68.03453 103.81565 85.13590
#
# Poissons Ratio (x) = 0.60256 -0.03870
# Poissons Ratio (y) = 0.39488 0.28210
# Poissons Ratio (z) = -0.03092 0.34400
#
# Static dielectric constant tensor:
#      x y z
#    x 4.093530 0.000000 0.000000 
#    y 0.000000 4.295970 0.000000 
#    z 0.000000 0.000000 4.139620 
# 
# 
# High freq. dielectric constant tensor:
#      x y z
#    x 1.848930 0.000000 0.000000 
#    y 0.000000 1.863490 0.000000 
#    z 0.000000 0.000000 1.868400 
# 
# From -- ./inp_files/8230.got.cif
#   From: 2010.03.12/outbox.cif.g09.slc.cpg/sg23_5_cif.got.tgz:8230.got - 2010.04.14 02:50:06.
