data_PCOD8164311
_publ_section_title
;
Structure prediction by ZEFSAII (Michael W. Deem and Ramdas Pophale) SiO2 
 PCOD8164311
Probable space group: I 2 2 2
;
_chemical_formula_sum "Si O2"
_cell_formula_units_Z 38
_cell_length_a 18.394361
_cell_length_b 15.218816
_cell_length_c 6.451757
_cell_angle_alpha 90.000000
_cell_angle_beta 90.000000
_cell_angle_gamma 90.000000
_cell_volume 1806.107406
_symmetry_space_group_name_H-M "I 2 2 2"
_symmetry_group_IT_number 23
_symmetry_cell_setting 'orthorhombic'
loop_
_space_group_symop_operation_xyz
x,y,z
-x,-y,z
x,-y,-z
-x,y,-z
1/2+x,1/2+y,1/2+z
1/2-x,1/2-y,1/2+z
1/2+x,1/2-y,1/2-z
1/2-x,1/2+y,1/2-z
loop_
_atom_site_type_symbol
_atom_site_label
_atom_site_fract_x
_atom_site_fract_y
_atom_site_fract_z
Si Si1 0.285069 0.500000 0.000000
Si Si2 0.419149 0.784961 0.979184
Si Si3 0.612740 0.618520 0.280704
Si Si4 0.666765 0.734182 0.630216
Si Si5 0.697784 0.857643 0.287877
Si Si6 0.500000 0.500000 0.500000
O O1 0.332929 0.571583 0.879834
O O2 0.235261 0.451770 0.826641
O O3 0.421941 0.704898 0.818472
O O4 0.364327 0.860625 0.891213
O O5 0.500000 0.825347 0.000000
O O6 0.394441 0.745167 0.197056
O O7 0.653081 0.647200 0.491815
O O8 0.547678 0.555328 0.341057
O O9 0.663577 0.825212 0.504112
O O10 0.745631 0.719925 0.730966
#
# Coordination Sequence:
#
# PCOD8164311 Si02
#       6
#     4   8   8   8   8   2
#     4  12  24  41  62 103 130 174 214 288 326 386
#     4  11  24  42  67  93 128 175 220 270 328 402
#     4  11  25  38  62  94 139 168 212 262 338 407
#     4  11  20  44  65  95 123 175 222 262 321 403
#     4  11  22  39  67  95 128 167 224 272 322 395
#     4  12  24  38  56 100 142 174 190 270 344 416
#
# _framework density 21.039722999999999
#
# number of rings (size 3 to 8) (size 9 to 14) (size 15 to 20)
#    0.000    0.842    4.211    3.789    2.947    2.526 
#    0.000    0.000    0.000    3.789    0.000    0.000 
#    0.000    0.000    0.000    0.000    0.000    0.000 
#
# Total GULP energy -235643.322814 kJ/mol
# GULP energy per Si atom -12402.280148 kJ/mol
# Density = 2.099184 g / cm^3
# Si number density = 21.039723 Si / 1000 Ang^3
#
#
#
# Elastic Constant Matrix: (Units=GPa)
#
#
# Indices 1 2 3 4 5 6 
#
# 1 137.6469 22.3736 41.4829 0.0000 0.0000 0.0000
# 2 22.3736 54.2331 11.9594 0.0000 0.0000 0.0000
# 3 41.4829 11.9594 98.9823 0.0000 0.0000 0.0000
# 4 0.0000 0.0000 0.0000 26.2331 0.0000 0.0000
# 5 0.0000 0.0000 0.0000 0.0000 33.9060 0.0000
# 6 0.0000 0.0000 0.0000 0.0000 0.0000 32.5089
#
#
#
# Elastic Compliance Matrix: (Units=1/GPa)
#
#
# Indices 1 2 3 4 5 6 
#
# 1 0.008730 -0.002871 -0.003312 0.000000 0.000000 0.000000
# 2 -0.002871 0.019888 -0.001200 0.000000 0.000000 0.000000
# 3 -0.003312 -0.001200 0.011636 0.000000 0.000000 0.000000
# 4 0.000000 0.000000 0.000000 0.038120 0.000000 0.000000
# 5 0.000000 0.000000 0.000000 0.000000 0.029493 0.000000
# 6 0.000000 0.000000 0.000000 0.000000 0.000000 0.030761
#
#
# Mechanical properties :
#
#
# Convention : Reuss Voigt Hill
#
# Bulk Modulus (GPa) = 39.23354 49.16602 44.19978
# Shear Modulus (GPa) = 30.88550 32.86601 31.87576
#
# Velocity S-wave (km/s) = 3.83556 3.95662 3.89656
# Velocity P-wave (km/s) = 6.18895 6.65523 6.42632
#
# Compressibility (1/GPa) = 0.02548840
#
# Stress axis : x y z
#
# Youngs Moduli (GPa) = 114.55162 50.28176 85.94272
#
# Poissons Ratio (x) = 0.14436 0.28461
# Poissons Ratio (y) = 0.32889 0.10310
# Poissons Ratio (z) = 0.37936 0.06032
#
# Static dielectric constant tensor:
#      x y z
#    x 3.854290 0.000000 0.000000 
#    y 0.000000 3.540890 0.000000 
#    z 0.000000 0.000000 4.063530 
# 
# 
# High freq. dielectric constant tensor:
#      x y z
#    x 1.823250 0.000000 0.000000 
#    y 0.000000 1.793670 0.000000 
#    z 0.000000 0.000000 1.843970 
# 
# From -- ./inp_files/3138.got.cif
#   From: 2010.03.12/outbox.cif.g09.slc.cpg/sg23_2_cif.got.tgz:3138.got - 2010.04.14 02:50:06.
