data_PCOD8164560
_publ_section_title
;
Structure prediction by ZEFSAII (Michael W. Deem and Ramdas Pophale) SiO2 
 PCOD8164560
Probable space group: I 2 2 2
;
_chemical_formula_sum "Si O2"
_cell_formula_units_Z 40
_cell_length_a 18.770132
_cell_length_b 13.500919
_cell_length_c 9.498179
_cell_angle_alpha 90.000000
_cell_angle_beta 90.000000
_cell_angle_gamma 90.000000
_cell_volume 2406.971835
_symmetry_space_group_name_H-M "I 2 2 2"
_symmetry_group_IT_number 23
_symmetry_cell_setting 'orthorhombic'
loop_
_space_group_symop_operation_xyz
x,y,z
-x,-y,z
x,-y,-z
-x,y,-z
1/2+x,1/2+y,1/2+z
1/2-x,1/2-y,1/2+z
1/2+x,1/2-y,1/2-z
1/2-x,1/2+y,1/2-z
loop_
_atom_site_type_symbol
_atom_site_label
_atom_site_fract_x
_atom_site_fract_y
_atom_site_fract_z
Si Si1 0.273018 0.610399 0.838877
Si Si2 0.148250 0.304210 0.335257
Si Si3 0.226981 0.889601 0.661124
Si Si4 0.500000 0.111997 0.832822
Si Si5 0.851749 0.304210 0.335258
O O1 0.204338 0.625748 0.742377
O O2 0.303514 0.500000 0.812983
O O3 0.335163 0.688923 0.801567
O O4 0.248594 0.624778 0.000001
O O5 0.164836 0.188922 0.301567
O O6 0.154428 0.327903 0.499999
O O7 0.069595 0.329613 0.277847
O O8 0.295661 0.874253 0.757625
O O9 0.569595 0.170387 0.777848
O O10 0.500000 0.000000 0.773198
O O11 0.500000 0.109940 0.000000
#
# Coordination Sequence:
#
# PCOD8164560 Si02
#       5
#     8   8   8   8   8
#     4   9  17  29  44  63  87 112 139 174 212 247
#     4   9  17  29  45  64  85 111 143 174 206 249
#     4   9  17  29  44  63  87 112 139 174 212 247
#     4   9  16  26  42  64  86 107 137 177 212 243
#     4   9  17  29  45  64  85 111 143 174 206 249
#
# _framework density 16.618392
#
# number of rings (size 3 to 8) (size 9 to 14) (size 15 to 20)
#    0.000    3.000    0.000    1.200    0.000    2.400 
#    0.000    2.000    0.000    9.600    0.000    0.000 
#    0.000   12.800    0.000    0.000    0.000    0.000 
#
# Total GULP energy -247937.071210 kJ/mol
# GULP energy per Si atom -12396.853561 kJ/mol
# Density = 1.658057 g / cm^3
# Si number density = 16.618392 Si / 1000 Ang^3
#
#
#
# Elastic Constant Matrix: (Units=GPa)
#
#
# Indices 1 2 3 4 5 6 
#
# 1 144.7630 77.2006 29.6487 0.0000 0.0000 0.0000
# 2 77.2006 138.2326 27.9043 0.0000 0.0000 0.0000
# 3 29.6487 27.9043 28.6967 0.0000 0.0000 0.0000
# 4 0.0000 0.0000 0.0000 17.9794 0.0000 0.0000
# 5 0.0000 0.0000 0.0000 0.0000 20.3359 0.0000
# 6 0.0000 0.0000 0.0000 0.0000 0.0000 20.7235
#
#
#
# Elastic Compliance Matrix: (Units=1/GPa)
#
#
# Indices 1 2 3 4 5 6 
#
# 1 0.010744 -0.004678 -0.006552 0.000000 0.000000 0.000000
# 2 -0.004678 0.011038 -0.005900 0.000000 0.000000 0.000000
# 3 -0.006552 -0.005900 0.047354 0.000000 0.000000 0.000000
# 4 0.000000 0.000000 0.000000 0.055619 0.000000 0.000000
# 5 0.000000 0.000000 0.000000 0.000000 0.049174 0.000000
# 6 0.000000 0.000000 0.000000 0.000000 0.000000 0.048254
#
#
# Mechanical properties :
#
#
# Convention : Reuss Voigt Hill
#
# Bulk Modulus (GPa) = 28.67296 64.57772 46.62534
# Shear Modulus (GPa) = 18.65193 23.60367 21.12780
#
# Velocity S-wave (km/s) = 3.35381 3.77282 3.56947
# Velocity P-wave (km/s) = 5.68230 7.61068 6.71606
#
# Compressibility (1/GPa) = 0.03487606
#
# Stress axis : x y z
#
# Youngs Moduli (GPa) = 93.07100 90.59849 21.11771
#
# Poissons Ratio (x) = 0.42382 0.13837
# Poissons Ratio (y) = 0.43538 0.12459
# Poissons Ratio (z) = 0.60981 0.53451
#
# Static dielectric constant tensor:
#      x y z
#    x 3.174970 0.000000 0.000000 
#    y 0.000000 3.324790 0.000000 
#    z 0.000000 0.000000 2.964650 
# 
# 
# High freq. dielectric constant tensor:
#      x y z
#    x 1.623880 0.000000 0.000000 
#    y 0.000000 1.651240 0.000000 
#    z 0.000000 0.000000 1.618390 
# 
# From -- ./inp_files/9565.got.cif
#   From: 2010.03.12/outbox.cif.g09.slc.cpg/sg23_5_cif.got.tgz:9565.got - 2010.04.14 02:50:06.
