data_PCOD8164134
_publ_section_title
;
Structure prediction by ZEFSAII (Michael W. Deem and Ramdas Pophale) SiO2 
 PCOD8164134
Probable space group: I 2 2 2
;
_chemical_formula_sum "Si O2"
_cell_formula_units_Z 40
_cell_length_a 22.451561
_cell_length_b 9.257886
_cell_length_c 8.623849
_cell_angle_alpha 90.000000
_cell_angle_beta 90.000000
_cell_angle_gamma 90.000000
_cell_volume 1792.501443
_symmetry_space_group_name_H-M "I 2 2 2"
_symmetry_group_IT_number 23
_symmetry_cell_setting 'orthorhombic'
loop_
_space_group_symop_operation_xyz
x,y,z
-x,-y,z
x,-y,-z
-x,y,-z
1/2+x,1/2+y,1/2+z
1/2-x,1/2-y,1/2+z
1/2+x,1/2-y,1/2-z
1/2-x,1/2+y,1/2-z
loop_
_atom_site_type_symbol
_atom_site_label
_atom_site_fract_x
_atom_site_fract_y
_atom_site_fract_z
Si Si1 0.291540 0.333057 0.742897
Si Si2 0.649895 0.500000 0.000000
Si Si3 0.944722 0.109102 0.267749
Si Si4 0.941560 0.565377 0.671678
Si Si5 0.817075 0.493717 0.816985
Si Si6 0.126582 0.000000 0.000000
O O1 0.223437 0.387859 0.727282
O O2 0.294137 0.161391 0.739519
O O3 0.333045 0.399067 0.608368
O O4 0.310150 0.379099 0.916731
O O5 0.611116 0.569005 0.131123
O O6 0.960429 0.267388 0.326070
O O7 0.918740 0.104616 0.093386
O O8 0.000000 0.000000 0.292159
O O9 0.932611 0.500000 0.500000
O O10 0.884766 0.526210 0.773384
O O11 0.000000 0.500000 0.752208
O O12 0.810380 0.500000 0.000000
#
# Coordination Sequence:
#
# PCOD8164134 Si02
#       6
#     8   4   8   8   8   4
#     4  11  26  44  73 106 143 189 241 307 365 439
#     4  10  23  42  72 102 137 180 240 300 364 420
#     4  11  24  44  74 101 140 190 248 296 354 437
#     4  11  28  47  70 104 146 193 243 295 367 436
#     4  12  28  47  73 106 149 191 247 298 373 434
#     4  10  25  44  72 102 147 184 250 300 376 420
#
# _framework density 22.315185
#
# number of rings (size 3 to 8) (size 9 to 14) (size 15 to 20)
#    0.000    1.000    1.000    3.000   21.000    0.400 
#    3.600    0.000    0.000    0.000    0.000    0.000 
#    0.000    0.000    0.000    0.000    0.000    0.000 
#
# Total GULP energy -247935.842110 kJ/mol
# GULP energy per Si atom -12396.792105 kJ/mol
# Density = 2.226439 g / cm^3
# Si number density = 22.315185 Si / 1000 Ang^3
#
#
#
# Elastic Constant Matrix: (Units=GPa)
#
#
# Indices 1 2 3 4 5 6 
#
# 1 154.7781 72.0407 34.4867 0.0000 0.0000 0.0000
# 2 72.0407 169.0354 42.3446 0.0000 0.0000 0.0000
# 3 34.4867 42.3446 103.5024 0.0000 0.0000 0.0000
# 4 0.0000 0.0000 0.0000 19.3228 0.0000 0.0000
# 5 0.0000 0.0000 0.0000 0.0000 16.2054 0.0000
# 6 0.0000 0.0000 0.0000 0.0000 0.0000 33.8500
#
#
#
# Elastic Compliance Matrix: (Units=1/GPa)
#
#
# Indices 1 2 3 4 5 6 
#
# 1 0.008253 -0.003151 -0.001461 0.000000 0.000000 0.000000
# 2 -0.003151 0.007795 -0.002139 0.000000 0.000000 0.000000
# 3 -0.001461 -0.002139 0.011023 0.000000 0.000000 0.000000
# 4 0.000000 0.000000 0.000000 0.051752 0.000000 0.000000
# 5 0.000000 0.000000 0.000000 0.000000 0.061708 0.000000
# 6 0.000000 0.000000 0.000000 0.000000 0.000000 0.029542
#
#
# Mechanical properties :
#
#
# Convention : Reuss Voigt Hill
#
# Bulk Modulus (GPa) = 73.69575 80.56221 77.12898
# Shear Modulus (GPa) = 26.58176 32.43856 29.51016
#
# Velocity S-wave (km/s) = 3.45512 3.81682 3.64046
# Velocity P-wave (km/s) = 7.00098 7.45684 7.23250
#
# Compressibility (1/GPa) = 0.01356930
#
# Stress axis : x y z
#
# Youngs Moduli (GPa) = 121.16586 128.28953 90.71653
#
# Poissons Ratio (x) = 0.40430 0.13250
# Poissons Ratio (y) = 0.38185 0.19404
# Poissons Ratio (z) = 0.17697 0.27440
#
# Static dielectric constant tensor:
#      x y z
#    x 4.592620 0.000000 0.000000 
#    y 0.000000 3.655850 0.000000 
#    z 0.000000 0.000000 4.438650 
# 
# 
# High freq. dielectric constant tensor:
#      x y z
#    x 1.901330 0.000000 0.000000 
#    y 0.000000 1.882060 0.000000 
#    z 0.000000 0.000000 1.887390 
# 
# From -- ./inp_files/12452.got.cif
#   From: 2010.03.12/outbox.cif.g09.slc.cpg/sg23_7_cif.got.tgz:12452.got - 2010.04.14 02:50:06.
