data_PCOD8164143
_publ_section_title
;
Structure prediction by ZEFSAII (Michael W. Deem and Ramdas Pophale) SiO2 
 PCOD8164143
Probable space group: I 2 2 2
;
_chemical_formula_sum "Si O2"
_cell_formula_units_Z 36
_cell_length_a 8.042061
_cell_length_b 13.812772
_cell_length_c 14.751835
_cell_angle_alpha 90.000000
_cell_angle_beta 90.000000
_cell_angle_gamma 90.000000
_cell_volume 1638.680374
_symmetry_space_group_name_H-M "I 2 2 2"
_symmetry_group_IT_number 23
_symmetry_cell_setting 'orthorhombic'
loop_
_space_group_symop_operation_xyz
x,y,z
-x,-y,z
x,-y,-z
-x,y,-z
1/2+x,1/2+y,1/2+z
1/2-x,1/2-y,1/2+z
1/2+x,1/2-y,1/2-z
1/2-x,1/2+y,1/2-z
loop_
_atom_site_type_symbol
_atom_site_label
_atom_site_fract_x
_atom_site_fract_y
_atom_site_fract_z
Si Si1 0.185127 0.024160 0.603467
Si Si2 0.000000 0.500000 0.784529
Si Si3 0.184208 0.759131 0.361249
Si Si4 0.693621 0.607366 0.491995
Si Si5 0.646685 0.816251 0.815031
O O1 0.335046 0.970684 0.657134
O O2 0.232733 0.136575 0.602398
O O3 0.190245 0.000000 0.500000
O O4 0.000000 0.000000 0.644634
O O5 0.046538 0.591543 0.723210
O O6 0.245797 0.674024 0.426012
O O7 0.257144 0.752575 0.259581
O O8 0.985258 0.755812 0.359533
O O9 0.775738 0.500000 0.500000
O O10 0.500000 0.596923 0.500000
O O11 0.728058 0.651441 0.393391
#
# Coordination Sequence:
#
# PCOD8164143 Si02
#       5
#     8   4   8   8   8
#     4  10  24  41  67 101 135 185 229 292 351 423
#     4  10  23  44  65 100 138 180 232 286 354 418
#     4  11  25  42  68  99 134 179 231 291 350 421
#     4  11  25  46  70 102 142 185 235 291 355 430
#     4  11  24  42  68 101 133 186 228 292 351 420
#
# _framework density 21.968896000000001
#
# number of rings (size 3 to 8) (size 9 to 14) (size 15 to 20)
#    0.000    1.333    0.000    3.667    9.333    4.444 
#   16.000    0.000    0.000    0.000    0.000    0.000 
#    0.000    0.000    0.000    0.000    0.000    0.000 
#
# Total GULP energy -223145.139399 kJ/mol
# GULP energy per Si atom -12396.952189 kJ/mol
# Density = 2.191889 g / cm^3
# Si number density = 21.968896 Si / 1000 Ang^3
#
#
#
# Elastic Constant Matrix: (Units=GPa)
#
#
# Indices 1 2 3 4 5 6 
#
# 1 127.4399 21.7788 53.7626 0.0000 0.0000 0.0000
# 2 21.7788 97.1904 53.1051 0.0000 0.0000 0.0000
# 3 53.7626 53.1051 149.2511 0.0000 0.0000 0.0000
# 4 0.0000 0.0000 0.0000 20.1889 0.0000 0.0000
# 5 0.0000 0.0000 0.0000 0.0000 41.0273 0.0000
# 6 0.0000 0.0000 0.0000 0.0000 0.0000 34.3063
#
#
#
# Elastic Compliance Matrix: (Units=1/GPa)
#
#
# Indices 1 2 3 4 5 6 
#
# 1 0.009261 -0.000313 -0.003224 0.000000 0.000000 0.000000
# 2 -0.000313 0.012783 -0.004435 0.000000 0.000000 0.000000
# 3 -0.003224 -0.004435 0.009440 0.000000 0.000000 0.000000
# 4 0.000000 0.000000 0.000000 0.049532 0.000000 0.000000
# 5 0.000000 0.000000 0.000000 0.000000 0.024374 0.000000
# 6 0.000000 0.000000 0.000000 0.000000 0.000000 0.029149
#
#
# Mechanical properties :
#
#
# Convention : Reuss Voigt Hill
#
# Bulk Modulus (GPa) = 64.36243 70.13047 67.24645
# Shear Modulus (GPa) = 32.12053 35.45348 33.78700
#
# Velocity S-wave (km/s) = 3.82788 4.02158 3.92592
# Velocity P-wave (km/s) = 6.99268 7.31820 7.15729
#
# Compressibility (1/GPa) = 0.01553701
#
# Stress axis : x y z
#
# Youngs Moduli (GPa) = 107.98411 78.23006 105.93532
#
# Poissons Ratio (x) = 0.02452 0.34157
# Poissons Ratio (y) = 0.03384 0.46986
# Poissons Ratio (z) = 0.34817 0.34698
#
# Static dielectric constant tensor:
#      x y z
#    x 4.454150 0.000000 0.000000 
#    y 0.000000 4.471990 0.000000 
#    z 0.000000 0.000000 3.461020 
# 
# 
# High freq. dielectric constant tensor:
#      x y z
#    x 1.876200 0.000000 0.000000 
#    y 0.000000 1.870910 0.000000 
#    z 0.000000 0.000000 1.871220 
# 
# From -- ./inp_files/19715.got.cif
#   From: 2010.03.12/outbox.cif.g09.slc.cpg/sg23_10_cif.got.tgz:19715.got - 2010.04.14 02:50:06.
