data_PCOD8164213
_publ_section_title
;
Structure prediction by ZEFSAII (Michael W. Deem and Ramdas Pophale) SiO2 
 PCOD8164213
Probable space group: I 2 2 2
;
_chemical_formula_sum "Si O2"
_cell_formula_units_Z 60
_cell_length_a 12.812758
_cell_length_b 18.452580
_cell_length_c 11.671432
_cell_angle_alpha 90.000000
_cell_angle_beta 90.000000
_cell_angle_gamma 90.000000
_cell_volume 2759.458484
_symmetry_space_group_name_H-M "I 2 2 2"
_symmetry_group_IT_number 23
_symmetry_cell_setting 'orthorhombic'
loop_
_space_group_symop_operation_xyz
x,y,z
-x,-y,z
x,-y,-z
-x,y,-z
1/2+x,1/2+y,1/2+z
1/2-x,1/2-y,1/2+z
1/2+x,1/2-y,1/2-z
1/2-x,1/2+y,1/2-z
loop_
_atom_site_type_symbol
_atom_site_label
_atom_site_fract_x
_atom_site_fract_y
_atom_site_fract_z
Si Si1 0.113275 0.518204 0.630893
Si Si2 0.372385 0.705963 0.206049
Si Si3 0.500000 0.661197 0.000000
Si Si4 0.811844 0.908762 0.631393
Si Si5 0.891962 0.208604 0.968538
Si Si6 0.254693 0.155217 0.855650
Si Si7 0.746398 0.440102 0.198965
Si Si8 0.882463 0.370771 0.013956
O O1 0.108200 0.500000 0.500000
O O2 0.144098 0.602949 0.644515
O O3 0.204073 0.468840 0.683709
O O4 0.000000 0.500000 0.686649
O O5 0.400184 0.727744 0.334675
O O6 0.285834 0.761902 0.165046
O O7 0.333675 0.624094 0.219527
O O8 0.465645 0.708723 0.111026
O O9 0.398848 0.615159 0.960740
O O10 0.826185 0.870374 0.755692
O O11 0.694283 0.888333 0.592191
O O12 0.819420 0.995527 0.639633
O O13 0.801403 0.155823 0.018649
O O14 0.882584 0.284839 0.035478
O O15 0.000000 0.169489 0.000000
O O16 0.841825 0.413250 0.123396
O O17 0.000000 0.400101 0.000000
#
# Coordination Sequence:
#
# PCOD8164213 Si02
#       8
#     8   8   4   8   8   8   8   8
#     4  10  24  44  67 100 138 183 230 285 352 421
#     4  12  25  43  68  99 138 181 229 286 349 415
#     4  12  26  45  66 104 139 182 228 292 361 426
#     4  11  24  44  67 101 142 177 230 291 356 418
#     4  11  23  43  68  98 136 183 230 284 345 418
#     4  11  23  45  68  97 142 180 234 289 339 426
#     4  11  24  41  68  98 133 186 225 288 351 418
#     4  11  23  40  67 101 136 177 231 288 353 417
#
# _framework density 21.743397000000002
#
# number of rings (size 3 to 8) (size 9 to 14) (size 15 to 20)
#    0.000    0.933    4.000    2.000    3.733    2.667 
#    2.400    0.000    0.000    5.200    0.000    0.000 
#    0.000    0.000    0.000    0.000    0.000    0.000 
#
# Total GULP energy -371828.611748 kJ/mol
# GULP energy per Si atom -12394.287058 kJ/mol
# Density = 2.169391 g / cm^3
# Si number density = 21.743397 Si / 1000 Ang^3
#
#
#
# Elastic Constant Matrix: (Units=GPa)
#
#
# Indices 1 2 3 4 5 6 
#
# 1 97.3805 41.3625 46.5180 0.0000 0.0000 0.0000
# 2 41.3625 100.1066 16.5875 0.0000 0.0000 0.0000
# 3 46.5180 16.5875 115.7227 -0.0002 -0.0001 0.0000
# 4 0.0000 0.0000 -0.0002 26.0571 0.0000 0.0000
# 5 0.0000 0.0000 -0.0001 0.0000 33.7977 0.0000
# 6 0.0000 0.0000 0.0000 0.0000 0.0000 25.5501
#
#
#
# Elastic Compliance Matrix: (Units=1/GPa)
#
#
# Indices 1 2 3 4 5 6 
#
# 1 0.015068 -0.005349 -0.005290 0.000000 0.000000 0.000000
# 2 -0.005349 0.012131 0.000411 0.000000 0.000000 0.000000
# 3 -0.005290 0.000411 0.010709 0.000000 0.000000 0.000000
# 4 0.000000 0.000000 0.000000 0.038377 0.000000 0.000000
# 5 0.000000 0.000000 0.000000 0.000000 0.029588 0.000000
# 6 0.000000 0.000000 0.000000 0.000000 0.000000 0.039139
#
#
# Mechanical properties :
#
#
# Convention : Reuss Voigt Hill
#
# Bulk Modulus (GPa) = 57.29958 58.01618 57.65788
# Shear Modulus (GPa) = 29.19086 30.99713 30.09399
#
# Velocity S-wave (km/s) = 3.66801 3.77979 3.72432
# Velocity P-wave (km/s) = 6.65950 6.76677 6.71335
#
# Compressibility (1/GPa) = 0.01745213
#
# Stress axis : x y z
#
# Youngs Moduli (GPa) = 66.36437 82.43030 93.37955
#
# Poissons Ratio (x) = 0.44095 0.49401
# Poissons Ratio (y) = 0.35501 -0.03842
# Poissons Ratio (z) = 0.35109 -0.03392
#
# Static dielectric constant tensor:
#      x y z
#    x 3.957790 0.000000 0.000000 
#    y 0.000000 3.882160 0.000000 
#    z 0.000000 0.000000 4.120450 
# 
# 
# High freq. dielectric constant tensor:
#      x y z
#    x 1.846390 0.000000 0.000000 
#    y 0.000000 1.851900 0.000000 
#    z 0.000000 0.000000 1.867040 
# 
# From -- ./inp_files/15982.got.cif
#   From: 2010.03.12/outbox.cif.g09.slc.cpg/sg23_8_cif.got.tgz:15982.got - 2010.04.14 02:50:06.
