data_PCOD8164272
_publ_section_title
;
Structure prediction by ZEFSAII (Michael W. Deem and Ramdas Pophale) SiO2 
 PCOD8164272
Probable space group: I 2 2 2
;
_chemical_formula_sum "Si O2"
_cell_formula_units_Z 38
_cell_length_a 9.552671
_cell_length_b 24.058940
_cell_length_c 7.991045
_cell_angle_alpha 90.000000
_cell_angle_beta 90.000000
_cell_angle_gamma 90.000000
_cell_volume 1836.559005
_symmetry_space_group_name_H-M "I 2 2 2"
_symmetry_group_IT_number 23
_symmetry_cell_setting 'orthorhombic'
loop_
_space_group_symop_operation_xyz
x,y,z
-x,-y,z
x,-y,-z
-x,y,-z
1/2+x,1/2+y,1/2+z
1/2-x,1/2-y,1/2+z
1/2+x,1/2-y,1/2-z
1/2-x,1/2+y,1/2-z
loop_
_atom_site_type_symbol
_atom_site_label
_atom_site_fract_x
_atom_site_fract_y
_atom_site_fract_z
Si Si1 0.500000 0.000000 0.000000
Si Si2 0.318009 0.360310 0.626383
Si Si3 0.313473 0.086006 0.824441
Si Si4 0.025139 0.682524 0.305281
Si Si5 0.968507 0.060305 0.309083
Si Si6 0.500000 0.265830 0.500000
O O1 0.586419 0.035495 0.132398
O O2 0.278240 0.404996 0.489261
O O3 0.176709 0.345317 0.726923
O O4 0.441636 0.388434 0.733574
O O5 0.365818 0.304270 0.532111
O O6 0.404534 0.138243 0.762766
O O7 0.198059 0.071633 0.687116
O O8 0.000000 0.702139 0.500000
O O9 0.017617 0.731755 0.171684
O O10 0.000000 0.056138 0.500000
O O11 0.000000 0.000000 0.222956
#
# Coordination Sequence:
#
# PCOD8164272 Si02
#       6
#     2   8   8   8   8   4
#     4  12  20  40  78  98 136 184 232 276 354 418
#     4  11  23  45  65 101 130 176 231 283 340 414
#     4  11  22  44  68 100 134 175 227 286 337 414
#     4  10  26  45  65 101 140 176 238 283 341 408
#     4  11  25  42  68 101 139 176 222 285 353 412
#     4  12  26  42  73  97 134 194 224 282 356 394
#
# _framework density 20.690867000000001
#
# number of rings (size 3 to 8) (size 9 to 14) (size 15 to 20)
#    0.000    1.053    5.263    1.263    8.842    1.684 
#    0.000    0.000    0.000    0.000    0.000    0.000 
#    0.000    0.000    0.000    0.000    0.000    0.000 
#
# Total GULP energy -235462.707814 kJ/mol
# GULP energy per Si atom -12392.774095 kJ/mol
# Density = 2.064377 g / cm^3
# Si number density = 20.690867 Si / 1000 Ang^3
#
#
#
# Elastic Constant Matrix: (Units=GPa)
#
#
# Indices 1 2 3 4 5 6 
#
# 1 164.4370 63.9120 48.2071 0.0008 0.0015 0.0022
# 2 63.9120 130.4152 61.2469 -0.0009 0.0002 0.0006
# 3 48.2071 61.2469 85.9774 0.0097 -0.0038 0.0063
# 4 0.0008 -0.0009 0.0097 31.7503 -0.0009 0.0018
# 5 0.0015 0.0002 -0.0038 -0.0009 25.8717 0.0009
# 6 0.0022 0.0006 0.0063 0.0018 0.0009 16.0343
#
#
#
# Elastic Compliance Matrix: (Units=1/GPa)
#
#
# Indices 1 2 3 4 5 6 
#
# 1 0.007854 -0.002676 -0.002497 0.000000 -0.000001 0.000000
# 2 -0.002676 0.012435 -0.007357 0.000003 -0.000001 0.000003
# 3 -0.002497 -0.007357 0.018272 -0.000006 0.000003 -0.000007
# 4 0.000000 0.000003 -0.000006 0.031496 0.000001 -0.000004
# 5 -0.000001 -0.000001 0.000003 0.000001 0.038652 -0.000002
# 6 0.000000 0.000003 -0.000007 -0.000004 -0.000002 0.062366
#
#
# Mechanical properties :
#
#
# Convention : Reuss Voigt Hill
#
# Bulk Modulus (GPa) = 74.07898 80.84018 77.45958
# Shear Modulus (GPa) = 24.92081 28.56217 26.74149
#
# Velocity S-wave (km/s) = 3.47426 3.71944 3.59894
# Velocity P-wave (km/s) = 7.20933 7.58953 7.40187
#
# Compressibility (1/GPa) = 0.01349911
#
# Stress axis : x y z
#
# Youngs Moduli (GPa) = 127.33151 80.42135 54.72782
#
# Poissons Ratio (x) = 0.21521 0.13666
# Poissons Ratio (y) = 0.34074 0.40266
# Poissons Ratio (z) = 0.31796 0.59169
#
# Static dielectric constant tensor:
#      x y z
#    x 3.538440 -0.000030 0.000020 
#    y -0.000030 4.128820 -0.000010 
#    z 0.000020 -0.000010 3.543150 
# 
# 
# High freq. dielectric constant tensor:
#      x y z
#    x 1.834910 0.000000 0.000000 
#    y 0.000000 1.816920 0.000000 
#    z 0.000000 0.000000 1.790590 
# 
# From -- ./inp_files/6928.got.cif
#   From: 2010.03.12/outbox.cif.g09.slc.cpg/sg23_4_cif.got.tgz:6928.got - 2010.04.14 02:50:06.
