data_PCOD8164731
_publ_section_title
;
Structure prediction by ZEFSAII (Michael W. Deem and Ramdas Pophale) SiO2 
 PCOD8164731
Probable space group: I 21 21 21
;
_chemical_formula_sum "Si O2"
_cell_formula_units_Z 56
_cell_length_a 5.183580
_cell_length_b 25.178043
_cell_length_c 23.718600
_cell_angle_alpha 90.000000
_cell_angle_beta 90.000000
_cell_angle_gamma 90.000000
_cell_volume 3095.571414
_symmetry_space_group_name_H-M "I 21 21 21"
_symmetry_group_IT_number 24
_symmetry_cell_setting 'orthorhombic'
loop_
_space_group_symop_operation_xyz
x,y,z
-x,1/2-y,z
x,-y,1/2-z
1/2-x,y,-z
1/2+x,1/2+y,1/2+z
1/2-x,-y,1/2+z
1/2+x,1/2-y,-z
-x,1/2+y,1/2-z
loop_
_atom_site_type_symbol
_atom_site_label
_atom_site_fract_x
_atom_site_fract_y
_atom_site_fract_z
Si Si1 0.996419 0.056236 0.463230
Si Si2 0.163245 0.439033 0.246571
Si Si3 0.503587 0.065278 0.963476
Si Si4 0.516795 0.309879 0.325147
Si Si5 0.465593 0.123735 0.847811
Si Si6 0.978638 0.875231 0.147720
Si Si7 0.460272 0.347819 0.205826
O O1 0.750000 0.072524 0.500000
O O2 0.250000 0.063924 0.500000
O O3 0.017621 0.094748 0.410552
O O4 0.970154 0.995361 0.442191
O O5 0.238385 0.500000 0.250000
O O6 0.428292 0.406069 0.235668
O O7 0.973524 0.427798 0.193488
O O8 0.022908 0.419059 0.303054
O O9 0.487568 0.105381 0.911653
O O10 0.750000 0.081781 0.000000
O O11 0.250000 0.072987 0.000000
O O12 0.500000 0.250000 0.348262
O O13 0.789970 0.334347 0.342540
O O14 0.491400 0.306658 0.256981
O O15 0.288353 0.343213 0.353696
O O16 0.701610 0.163473 0.831106
O O17 0.199463 0.154663 0.836993
#
# Coordination Sequence:
#
# PCOD8164731 Si02
#       7
#     8   8   8   8   8   8   8
#     4  10  21  37  54  74 105 144 185 225 254 311
#     4   9  19  31  49  76 109 141 163 207 267 323
#     4  10  20  33  50  75 105 152 191 207 247 301
#     4  11  21  38  58  80 108 137 175 230 280 333
#     4  10  18  33  48  71 112 133 169 222 241 307
#     4  11  21  37  56  83 104 139 185 217 276 332
#     4   9  19  33  47  76 105 136 166 210 263 319
#
# _framework density 18.090358999999999
#
# number of rings (size 3 to 8) (size 9 to 14) (size 15 to 20)
#    0.857    1.143    1.429    3.000    0.000    0.571 
#    5.143    0.000    0.000    8.571    0.000    0.000 
#    0.000   11.429    0.000    0.000    0.000    0.000 
#
# Total GULP energy -347051.141149 kJ/mol
# GULP energy per Si atom -12394.683612 kJ/mol
# Density = 1.804919 g / cm^3
# Si number density = 18.090359 Si / 1000 Ang^3
#
#
#
# Elastic Constant Matrix: (Units=GPa)
#
#
# Indices 1 2 3 4 5 6 
#
# 1 122.2254 7.0322 26.3722 0.0000 0.0000 0.0000
# 2 7.0322 22.1637 6.0639 0.0000 0.0000 0.0000
# 3 26.3722 6.0639 91.4315 0.0000 0.0000 0.0000
# 4 0.0000 0.0000 0.0000 14.7072 0.0000 0.0000
# 5 0.0000 0.0000 0.0000 0.0000 23.5851 0.0000
# 6 0.0000 0.0000 0.0000 0.0000 0.0000 13.9012
#
#
#
# Elastic Compliance Matrix: (Units=1/GPa)
#
#
# Indices 1 2 3 4 5 6 
#
# 1 0.008823 -0.002142 -0.002403 0.000000 0.000000 0.000000
# 2 -0.002142 0.046473 -0.002464 0.000000 0.000000 0.000000
# 3 -0.002403 -0.002464 0.011794 0.000000 0.000000 0.000000
# 4 0.000000 0.000000 0.000000 0.067994 0.000000 0.000000
# 5 0.000000 0.000000 0.000000 0.000000 0.042400 0.000000
# 6 0.000000 0.000000 0.000000 0.000000 0.000000 0.071936
#
#
# Mechanical properties :
#
#
# Convention : Reuss Voigt Hill
#
# Bulk Modulus (GPa) = 18.84262 34.97303 26.90783
# Shear Modulus (GPa) = 17.78544 23.52883 20.65714
#
# Velocity S-wave (km/s) = 3.13892 3.61033 3.38285
# Velocity P-wave (km/s) = 4.85546 6.06249 5.49223
#
# Compressibility (1/GPa) = 0.05307118
#
# Stress axis : x y z
#
# Youngs Moduli (GPa) = 113.33601 21.51796 84.79121
#
# Poissons Ratio (x) = 0.04609 0.20375
# Poissons Ratio (y) = 0.24278 0.20895
# Poissons Ratio (z) = 0.27234 0.05303
#
# Static dielectric constant tensor:
#      x y z
#    x 3.429840 0.000000 0.000000 
#    y 0.000000 2.953970 0.000000 
#    z 0.000000 0.000000 3.184350 
# 
# 
# High freq. dielectric constant tensor:
#      x y z
#    x 1.717130 0.000000 0.000000 
#    y 0.000000 1.665480 0.000000 
#    z 0.000000 0.000000 1.692300 
# 
# From -- ./inp_files/32267.got.cif
#   From: 2010.03.12/outbox.cif.g09.slc.cpg/sg24_17_cif.got.tgz:32267.got - 2010.04.14 03:06:53.
