data_PCOD8164157
_publ_section_title
;
Structure prediction by ZEFSAII (Michael W. Deem and Ramdas Pophale) SiO2 
 PCOD8164157
Probable space group: I 2 2 2
;
_chemical_formula_sum "Si O2"
_cell_formula_units_Z 34
_cell_length_a 7.760775
_cell_length_b 13.009041
_cell_length_c 13.508103
_cell_angle_alpha 90.000000
_cell_angle_beta 90.000000
_cell_angle_gamma 90.000000
_cell_volume 1363.781323
_symmetry_space_group_name_H-M "I 2 2 2"
_symmetry_group_IT_number 23
_symmetry_cell_setting 'orthorhombic'
loop_
_space_group_symop_operation_xyz
x,y,z
-x,-y,z
x,-y,-z
-x,y,-z
1/2+x,1/2+y,1/2+z
1/2-x,1/2-y,1/2+z
1/2+x,1/2-y,1/2-z
1/2-x,1/2+y,1/2-z
loop_
_atom_site_type_symbol
_atom_site_label
_atom_site_fract_x
_atom_site_fract_y
_atom_site_fract_z
Si Si1 0.253611 0.500000 0.000000
Si Si2 0.871154 0.808596 0.101218
Si Si3 0.839636 0.219005 0.556684
Si Si4 0.000000 0.500000 0.831655
Si Si5 0.459046 0.209227 0.230157
Si Si6 0.000000 0.000000 0.000000
O O1 0.360023 0.404652 0.954618
O O2 0.147364 0.542228 0.905441
O O3 0.707389 0.769941 0.163986
O O4 0.037830 0.771259 0.164961
O O5 0.885312 0.929544 0.074276
O O6 0.843173 0.756214 0.991767
O O7 0.866694 0.254566 0.670694
O O8 0.000000 0.272401 0.500000
O O9 0.948553 0.590140 0.757923
#
# Coordination Sequence:
#
# PCOD8164157 Si02
#       6
#     4   8   8   4   8   2
#     4  11  21  42  70 104 141 199 246 314 376 440
#     4  11  27  49  75 105 151 201 252 315 380 455
#     4  10  23  45  72 106 148 192 248 312 370 447
#     4  11  24  36  73 104 140 196 251 306 375 446
#     4  11  25  47  75 109 151 199 258 310 375 460
#     4  12  32  48  78 110 162 200 246 324 400 450
#
# _framework density 24.930683999999999
#
# number of rings (size 3 to 8) (size 9 to 14) (size 15 to 20)
#    0.000    1.176    2.353    1.765    9.882    0.000 
#    8.471    0.000    0.000    0.000    0.000    0.000 
#    0.000    0.000    0.000    0.000    0.000    0.000 
#
# Total GULP energy -210601.098431 kJ/mol
# GULP energy per Si atom -12388.299908 kJ/mol
# Density = 2.487394 g / cm^3
# Si number density = 24.930684 Si / 1000 Ang^3
#
#
#
# Elastic Constant Matrix: (Units=GPa)
#
#
# Indices 1 2 3 4 5 6 
#
# 1 57.2494 3.3109 44.4961 0.0000 0.0000 0.0000
# 2 3.3109 132.8182 50.2452 0.0000 0.0000 0.0000
# 3 44.4961 50.2452 178.3235 0.0000 0.0000 0.0000
# 4 0.0000 0.0000 0.0000 58.8308 0.0000 0.0000
# 5 0.0000 0.0000 0.0000 0.0000 37.2965 0.0000
# 6 0.0000 0.0000 0.0000 0.0000 0.0000 43.6242
#
#
#
# Elastic Compliance Matrix: (Units=1/GPa)
#
#
# Indices 1 2 3 4 5 6 
#
# 1 0.022012 0.001712 -0.005975 0.000000 0.000000 0.000000
# 2 0.001712 0.008560 -0.002839 0.000000 0.000000 0.000000
# 3 -0.005975 -0.002839 0.007899 0.000000 0.000000 0.000000
# 4 0.000000 0.000000 0.000000 0.016998 0.000000 0.000000
# 5 0.000000 0.000000 0.000000 0.000000 0.026812 0.000000
# 6 0.000000 0.000000 0.000000 0.000000 0.000000 0.022923
#
#
# Mechanical properties :
#
#
# Convention : Reuss Voigt Hill
#
# Bulk Modulus (GPa) = 41.20894 62.72174 51.96534
# Shear Modulus (GPa) = 39.21623 45.97290 42.59456
#
# Velocity S-wave (km/s) = 3.97042 4.29887 4.13791
# Velocity P-wave (km/s) = 6.13060 7.06070 6.61203
#
# Compressibility (1/GPa) = 0.02426658
#
# Stress axis : x y z
#
# Youngs Moduli (GPa) = 45.42908 116.81616 126.60430
#
# Poissons Ratio (x) = -0.19994 0.75645
# Poissons Ratio (y) = -0.07776 0.35944
# Poissons Ratio (z) = 0.27143 0.33165
#
# Static dielectric constant tensor:
#      x y z
#    x 4.633950 0.000000 0.000000 
#    y 0.000000 3.947110 0.000000 
#    z 0.000000 0.000000 5.014250 
# 
# 
# High freq. dielectric constant tensor:
#      x y z
#    x 2.004850 0.000000 0.000000 
#    y 0.000000 1.968250 0.000000 
#    z 0.000000 0.000000 2.031830 
# 
# From -- ./inp_files/16385.got.cif
#   From: 2010.03.12/outbox.cif.g09.slc.cpg/sg23_9_cif.got.tgz:16385.got - 2010.04.14 02:50:06.
