data_PCOD8164636
_publ_section_title
;
Structure prediction by ZEFSAII (Michael W. Deem and Ramdas Pophale) SiO2 
 PCOD8164636
Probable space group: I 21 21 21
;
_chemical_formula_sum "Si O2"
_cell_formula_units_Z 64
_cell_length_a 14.903288
_cell_length_b 24.698395
_cell_length_c 9.558081
_cell_angle_alpha 90.000000
_cell_angle_beta 90.000000
_cell_angle_gamma 90.000000
_cell_volume 3518.208169
_symmetry_space_group_name_H-M "I 21 21 21"
_symmetry_group_IT_number 24
_symmetry_cell_setting 'orthorhombic'
loop_
_space_group_symop_operation_xyz
x,y,z
-x,1/2-y,z
x,-y,1/2-z
1/2-x,y,-z
1/2+x,1/2+y,1/2+z
1/2-x,-y,1/2+z
1/2+x,1/2-y,-z
-x,1/2+y,1/2-z
loop_
_atom_site_type_symbol
_atom_site_label
_atom_site_fract_x
_atom_site_fract_y
_atom_site_fract_z
Si Si1 0.328386 0.276850 0.887896
Si Si2 0.406663 0.449698 0.945904
Si Si3 0.841960 0.343558 0.080158
Si Si4 0.985669 0.190841 0.919187
Si Si5 0.564317 0.930259 0.959958
Si Si6 0.899080 0.098966 0.756227
Si Si7 0.198137 0.378710 0.268523
Si Si8 0.922704 0.560902 0.264667
O O1 0.338664 0.214406 0.839310
O O2 0.302245 0.314279 0.757838
O O3 0.250000 0.281308 0.000000
O O4 0.420709 0.301784 0.947604
O O5 0.388481 0.512853 0.919005
O O6 0.333947 0.412485 0.868322
O O7 0.505060 0.436609 0.888896
O O8 0.405043 0.440632 0.111785
O O9 0.851704 0.392549 0.192504
O O10 0.750000 0.355463 0.000000
O O11 0.923218 0.338859 0.968396
O O12 0.938992 0.156888 0.797346
O O13 0.000000 0.250000 0.852140
O O14 0.634705 0.886436 0.902381
O O15 0.468728 0.923863 0.882803
O O16 0.545011 0.924316 0.124829
O O17 0.798335 0.102939 0.699150
O O18 0.880223 0.500000 0.250000
#
# Coordination Sequence:
#
# PCOD8164636 Si02
#       8
#     8   8   8   8   8   8   8   8
#     4  10  17  32  56  89 110 137 181 231 272 320
#     4  10  19  34  53  76 106 152 194 228 259 313
#     4  10  20  34  63  88 102 133 193 241 275 325
#     4  10  19  33  54  82 112 135 178 234 280 319
#     4  10  23  33  49  78 116 155 184 218 270 341
#     4  12  20  32  52  77 114 149 186 222 271 327
#     4  11  19  32  50  79 117 148 183 221 270 322
#     4   9  18  38  59  78 108 139 179 232 286 323
#
# _framework density 18.191078000000001
#
# number of rings (size 3 to 8) (size 9 to 14) (size 15 to 20)
#    0.000    1.750    3.750    3.000    0.000    3.000 
#    0.000    1.250    5.500    0.000    0.000    0.000 
#    0.000    0.000    0.000    0.000    0.000    0.000 
#
# Total GULP energy -396681.100555 kJ/mol
# GULP energy per Si atom -12396.284392 kJ/mol
# Density = 1.814967 g / cm^3
# Si number density = 18.191078 Si / 1000 Ang^3
#
#
#
# Elastic Constant Matrix: (Units=GPa)
#
#
# Indices 1 2 3 4 5 6 
#
# 1 72.1564 32.8099 20.0824 0.0001 0.0001 0.0000
# 2 32.8099 113.7487 27.4455 0.0003 -0.0001 -0.0001
# 3 20.0824 27.4455 88.8754 -0.0013 -0.0004 -0.0006
# 4 0.0001 0.0003 -0.0013 23.1230 -0.0002 -0.0001
# 5 0.0001 -0.0001 -0.0004 -0.0002 17.7180 -0.0001
# 6 0.0000 -0.0001 -0.0006 -0.0001 -0.0001 26.1320
#
#
#
# Elastic Compliance Matrix: (Units=1/GPa)
#
#
# Indices 1 2 3 4 5 6 
#
# 1 0.016422 -0.004151 -0.002429 0.000000 0.000000 0.000000
# 2 -0.004151 0.010548 -0.002319 0.000000 0.000000 0.000000
# 3 -0.002429 -0.002319 0.012517 0.000001 0.000000 0.000000
# 4 0.000000 0.000000 0.000001 0.043247 0.000000 0.000000
# 5 0.000000 0.000000 0.000000 0.000000 0.056440 0.000000
# 6 0.000000 0.000000 0.000000 0.000000 0.000000 0.038267
#
#
# Mechanical properties :
#
#
# Convention : Reuss Voigt Hill
#
# Bulk Modulus (GPa) = 46.10676 48.38400 47.24538
# Shear Modulus (GPa) = 24.69511 26.35746 25.52629
#
# Velocity S-wave (km/s) = 3.68848 3.81060 3.75004
# Velocity P-wave (km/s) = 6.59853 6.78353 6.69167
#
# Compressibility (1/GPa) = 0.02168879
#
# Stress axis : x y z
#
# Youngs Moduli (GPa) = 60.89321 94.80281 79.89245
#
# Poissons Ratio (x) = 0.39351 0.19406
# Poissons Ratio (y) = 0.25275 0.18531
# Poissons Ratio (z) = 0.14791 0.21989
#
# Static dielectric constant tensor:
#      x y z
#    x 3.252780 0.000000 0.000000 
#    y 0.000000 3.658990 0.000000 
#    z 0.000000 0.000000 3.075680 
# 
# 
# High freq. dielectric constant tensor:
#      x y z
#    x 1.687480 0.000000 0.000000 
#    y 0.000000 1.717960 0.000000 
#    z 0.000000 0.000000 1.675920 
# 
# From -- ./inp_files/13355.got.cif
#   From: 2010.03.12/outbox.cif.g09.slc.cpg/sg24_7_cif.got.tgz:13355.got - 2010.04.14 03:06:53.
