data_PCOD8164071
_publ_section_title
;
Structure prediction by ZEFSAII (Michael W. Deem and Ramdas Pophale) SiO2 
 PCOD8164071
Probable space group: I 2 2 2
;
_chemical_formula_sum "Si O2"
_cell_formula_units_Z 64
_cell_length_a 11.081624
_cell_length_b 8.568624
_cell_length_c 33.035951
_cell_angle_alpha 90.000000
_cell_angle_beta 90.000000
_cell_angle_gamma 90.000000
_cell_volume 3136.904590
_symmetry_space_group_name_H-M "I 2 2 2"
_symmetry_group_IT_number 23
_symmetry_cell_setting 'orthorhombic'
loop_
_space_group_symop_operation_xyz
x,y,z
-x,-y,z
x,-y,-z
-x,y,-z
1/2+x,1/2+y,1/2+z
1/2-x,1/2-y,1/2+z
1/2+x,1/2-y,1/2-z
1/2-x,1/2+y,1/2-z
loop_
_atom_site_type_symbol
_atom_site_label
_atom_site_fract_x
_atom_site_fract_y
_atom_site_fract_z
Si Si1 0.571282 0.220191 0.311972
Si Si2 0.521294 0.315291 0.853592
Si Si3 0.912940 0.857545 0.272231
Si Si4 0.645250 0.822069 0.456434
Si Si5 0.818701 0.608416 0.821216
Si Si6 0.300134 0.194109 0.889661
Si Si7 0.236858 0.156029 0.124901
Si Si8 0.630974 0.182044 0.451058
O O1 0.614404 0.249712 0.266268
O O2 0.426100 0.227429 0.309616
O O3 0.623057 0.343916 0.344423
O O4 0.621063 0.057791 0.329356
O O5 0.500000 0.500000 0.856210
O O6 0.475470 0.260506 0.808928
O O7 0.443885 0.228612 0.888636
O O8 0.660647 0.272573 0.858217
O O9 0.780535 0.913440 0.286253
O O10 0.000000 0.000000 0.259397
O O11 0.742556 0.714476 0.433812
O O12 0.509695 0.793200 0.440636
O O13 0.656535 0.768656 0.502862
O O14 0.673592 0.003101 0.448003
O O15 0.759908 0.674233 0.861719
O O16 0.283038 0.019467 0.874549
O O17 0.204590 0.209652 0.079562
#
# Coordination Sequence:
#
# PCOD8164071 Si02
#       8
#     8   8   8   8   8   8   8   8
#     4  11  24  39  62  84 117 161 205 257 305 375
#     4  10  22  44  65  85 117 165 209 256 311 381
#     4  10  23  39  64  85 117 153 204 264 319 363
#     4   9  18  37  63  89 128 159 207 249 302 373
#     4  10  24  42  57  87 117 161 210 249 308 372
#     4  11  23  39  60  90 126 162 202 256 311 374
#     4  12  24  37  62  92 126 159 205 259 317 368
#     4   9  19  36  62  94 120 166 202 252 305 368
#
# _framework density 20.402277999999999
#
# number of rings (size 3 to 8) (size 9 to 14) (size 15 to 20)
#    0.000    1.750    0.000    5.625    5.250    5.000 
#    4.500    1.875    0.000    3.750    0.000    0.000 
#    0.000    0.000    0.000    0.000    0.000    0.000 
#
# Total GULP energy -396750.896491 kJ/mol
# GULP energy per Si atom -12398.465515 kJ/mol
# Density = 2.035584 g / cm^3
# Si number density = 20.402278 Si / 1000 Ang^3
#
#
#
# Elastic Constant Matrix: (Units=GPa)
#
#
# Indices 1 2 3 4 5 6 
#
# 1 104.7517 26.3020 35.2833 0.0000 0.0000 0.0000
# 2 26.3020 70.8392 29.1085 0.0000 0.0000 0.0000
# 3 35.2833 29.1085 94.6526 0.0000 0.0000 0.0000
# 4 0.0000 0.0000 0.0000 33.3759 0.0000 0.0000
# 5 0.0000 0.0000 0.0000 0.0000 30.8197 0.0000
# 6 0.0000 0.0000 0.0000 0.0000 0.0000 27.1615
#
#
#
# Elastic Compliance Matrix: (Units=1/GPa)
#
#
# Indices 1 2 3 4 5 6 
#
# 1 0.011397 -0.002846 -0.003373 0.000000 0.000000 0.000000
# 2 -0.002846 0.016869 -0.004127 0.000000 0.000000 0.000000
# 3 -0.003373 -0.004127 0.013092 0.000000 0.000000 0.000000
# 4 0.000000 0.000000 0.000000 0.029962 0.000000 0.000000
# 5 0.000000 0.000000 0.000000 0.000000 0.032447 0.000000
# 6 0.000000 0.000000 0.000000 0.000000 0.000000 0.036817
#
#
# Mechanical properties :
#
#
# Convention : Reuss Voigt Hill
#
# Bulk Modulus (GPa) = 48.38907 50.18125 49.28516
# Shear Modulus (GPa) = 29.73304 30.24140 29.98722
#
# Velocity S-wave (km/s) = 3.82165 3.85418 3.83795
# Velocity P-wave (km/s) = 6.57589 6.66750 6.62186
#
# Compressibility (1/GPa) = 0.02066582
#
# Stress axis : x y z
#
# Youngs Moduli (GPa) = 87.74157 59.28107 76.38491
#
# Poissons Ratio (x) = 0.16868 0.25768
# Poissons Ratio (y) = 0.24967 0.31524
# Poissons Ratio (z) = 0.29599 0.24465
#
# Static dielectric constant tensor:
#      x y z
#    x 3.962030 0.000000 0.000000 
#    y 0.000000 3.478120 0.000000 
#    z 0.000000 0.000000 3.632070 
# 
# 
# High freq. dielectric constant tensor:
#      x y z
#    x 1.803250 0.000000 0.000000 
#    y 0.000000 1.786160 0.000000 
#    z 0.000000 0.000000 1.791990 
# 
# From -- ./inp_files/30471.got.cif
#   From: 2010.03.12/outbox.cif.g09.slc.cpg/sg23_16_cif.got.tgz:30471.got - 2010.04.14 02:50:06.
