data_PCOD8164824
_publ_section_title
;
Structure prediction by ZEFSAII (Michael W. Deem and Ramdas Pophale) SiO2 
 PCOD8164824
Probable space group: I 21 21 21
;
_chemical_formula_sum "Si O2"
_cell_formula_units_Z 64
_cell_length_a 5.017415
_cell_length_b 27.088901
_cell_length_c 26.974026
_cell_angle_alpha 90.000000
_cell_angle_beta 90.000000
_cell_angle_gamma 90.000000
_cell_volume 3666.208683
_symmetry_space_group_name_H-M "I 21 21 21"
_symmetry_group_IT_number 24
_symmetry_cell_setting 'orthorhombic'
loop_
_space_group_symop_operation_xyz
x,y,z
-x,1/2-y,z
x,-y,1/2-z
1/2-x,y,-z
1/2+x,1/2+y,1/2+z
1/2-x,-y,1/2+z
1/2+x,1/2-y,-z
-x,1/2+y,1/2-z
loop_
_atom_site_type_symbol
_atom_site_label
_atom_site_fract_x
_atom_site_fract_y
_atom_site_fract_z
Si Si1 0.861284 0.944419 0.450020
Si Si2 0.982808 0.633414 0.806124
Si Si3 0.655397 0.555931 0.386367
Si Si4 0.017188 0.133413 0.806126
Si Si5 0.844607 0.444066 0.613633
Si Si6 0.966936 0.196433 0.193871
Si Si7 0.138713 0.555585 0.049980
Si Si8 0.466933 0.696434 0.806126
O O1 0.750000 0.917141 0.500000
O O2 0.633552 0.943633 0.409681
O O3 0.126275 0.920599 0.424819
O O4 0.942876 0.000002 0.465763
O O5 0.040110 0.614911 0.749999
O O6 0.872448 0.586953 0.836432
O O7 0.757329 0.674158 0.807437
O O8 0.246779 0.659329 0.830282
O O9 0.627541 0.586951 0.336433
O O10 0.743813 0.499999 0.372475
O O11 0.242667 0.174157 0.807440
O O12 0.753217 0.159328 0.830284
O O13 0.626284 0.420597 0.575179
O O14 0.133563 0.443630 0.590321
O O15 0.863775 0.205065 0.249998
O O16 0.000000 0.250000 0.167182
O O17 0.250000 0.582862 0.000000
O O18 0.500000 0.750000 0.832815
#
# Coordination Sequence:
#
# PCOD8164824 Si02
#       8
#     8   8   8   8   8   8   8   8
#     4   9  17  30  47  65  87 118 156 198 238 267
#     4  10  19  30  45  67  96 127 156 186 223 275
#     4  10  19  30  45  67  96 127 156 186 223 275
#     4  10  19  30  45  67  96 127 156 186 223 275
#     4  10  19  30  45  67  96 127 156 186 223 275
#     4   9  17  30  47  65  87 118 156 198 238 267
#     4   9  17  30  47  65  87 118 156 198 238 267
#     4   9  17  30  47  65  87 118 156 198 238 267
#
# _framework density 17.456724000000001
#
# number of rings (size 3 to 8) (size 9 to 14) (size 15 to 20)
#    0.000    2.500    0.000    3.000    0.000    6.500 
#    0.000    0.000    0.000    9.000    0.000    0.000 
#    0.000   56.000    0.000    0.000    0.000    0.000 
#
# Total GULP energy -396495.283634 kJ/mol
# GULP energy per Si atom -12390.477614 kJ/mol
# Density = 1.741699 g / cm^3
# Si number density = 17.456724 Si / 1000 Ang^3
#
#
#
# Elastic Constant Matrix: (Units=GPa)
#
#
# Indices 1 2 3 4 5 6 
#
# 1 82.8802 9.7107 7.6848 0.0000 0.0000 0.0000
# 2 9.7107 62.5670 33.3481 0.0000 0.0000 0.0000
# 3 7.6848 33.3481 60.8621 0.0000 0.0000 0.0000
# 4 0.0000 0.0000 0.0000 2.4906 0.0000 0.0000
# 5 0.0000 0.0000 0.0000 0.0000 25.6449 0.0000
# 6 0.0000 0.0000 0.0000 0.0000 0.0000 25.0463
#
#
#
# Elastic Compliance Matrix: (Units=1/GPa)
#
#
# Indices 1 2 3 4 5 6 
#
# 1 0.012311 -0.001529 -0.000717 0.000000 0.000000 0.000000
# 2 -0.001529 0.022766 -0.012281 0.000000 0.000000 0.000000
# 3 -0.000717 -0.012281 0.023250 0.000000 0.000000 0.000000
# 4 0.000000 0.000000 0.000000 0.401516 0.000000 0.000000
# 5 0.000000 0.000000 0.000000 0.000000 0.038994 0.000000
# 6 0.000000 0.000000 0.000000 0.000000 0.000000 0.039926
#
#
# Mechanical properties :
#
#
# Convention : Reuss Voigt Hill
#
# Bulk Modulus (GPa) = 34.15987 34.19960 34.17974
# Shear Modulus (GPa) = 8.65689 21.00738 14.83214
#
# Velocity S-wave (km/s) = 2.22931 3.47277 2.91804
# Velocity P-wave (km/s) = 5.12223 5.97610 5.56556
#
# Compressibility (1/GPa) = 0.02927412
#
# Stress axis : x y z
#
# Youngs Moduli (GPa) = 81.22695 43.92534 43.01029
#
# Poissons Ratio (x) = 0.06715 0.03083
# Poissons Ratio (y) = 0.12417 0.52821
# Poissons Ratio (z) = 0.05823 0.53945
#
# Static dielectric constant tensor:
#      x y z
#    x 3.452190 0.000000 0.000000 
#    y 0.000000 3.096570 0.000000 
#    z 0.000000 0.000000 3.106180 
# 
# 
# High freq. dielectric constant tensor:
#      x y z
#    x 1.702340 0.000000 0.000000 
#    y 0.000000 1.636720 0.000000 
#    z 0.000000 0.000000 1.638670 
# 
# From -- ./inp_files/34861.got.cif
#   From: 2010.03.12/outbox.cif.g09.slc.cpg/sg24_18_cif.got.tgz:34861.got - 2010.04.14 03:06:53.
