data_PCOD8164907
_publ_section_title
;
Structure prediction by ZEFSAII (Michael W. Deem and Ramdas Pophale) SiO2 
 PCOD8164907
Probable space group: I 21 21 21
;
_chemical_formula_sum "Si O2"
_cell_formula_units_Z 64
_cell_length_a 26.777879
_cell_length_b 13.702122
_cell_length_c 9.010388
_cell_angle_alpha 90.000000
_cell_angle_beta 90.000000
_cell_angle_gamma 90.000000
_cell_volume 3306.035385
_symmetry_space_group_name_H-M "I 21 21 21"
_symmetry_group_IT_number 24
_symmetry_cell_setting 'orthorhombic'
loop_
_space_group_symop_operation_xyz
x,y,z
-x,1/2-y,z
x,-y,1/2-z
1/2-x,y,-z
1/2+x,1/2+y,1/2+z
1/2-x,-y,1/2+z
1/2+x,1/2-y,-z
-x,1/2+y,1/2-z
loop_
_atom_site_type_symbol
_atom_site_label
_atom_site_fract_x
_atom_site_fract_y
_atom_site_fract_z
Si Si1 0.999698 0.021738 0.423244
Si Si2 0.807714 0.761413 0.493699
Si Si3 0.696618 0.016740 0.073669
Si Si4 0.541011 0.324455 0.943273
Si Si5 0.118886 0.136709 0.854223
Si Si6 0.390170 0.428088 0.610112
Si Si7 0.602209 0.424420 0.473706
Si Si8 0.375084 0.211709 0.722419
O O1 0.944426 0.057539 0.467183
O O2 0.044083 0.092816 0.479789
O O3 0.003513 0.000000 0.250000
O O4 0.011062 0.918866 0.500152
O O5 0.750000 0.740991 0.500000
O O6 0.819635 0.873612 0.531905
O O7 0.829239 0.691650 0.621627
O O8 0.828641 0.729097 0.332912
O O9 0.700789 0.000000 0.250000
O O10 0.750000 0.990501 0.000000
O O11 0.653875 0.946343 0.008066
O O12 0.500000 0.250000 0.890992
O O13 0.577858 0.337404 0.804272
O O14 0.575049 0.291934 0.083387
O O15 0.111110 0.124731 0.682809
O O16 0.117168 0.038128 0.956384
O O17 0.383289 0.500000 0.750000
O O18 0.389378 0.316313 0.657476
O O19 0.637388 0.366974 0.592265
#
# Coordination Sequence:
#
# PCOD8164907 Si02
#       8
#     8   8   8   8   8   8   8   8
#     4  10  19  34  58  86 127 165 205 249 298 366
#     4  10  23  43  66  93 122 159 207 261 316 377
#     4  11  25  44  66  89 124 167 208 256 326 377
#     4  10  19  34  56  84 117 166 205 247 304 365
#     4   9  22  41  61  86 126 163 204 253 315 372
#     4  11  22  39  59  94 129 160 213 265 300 367
#     4  10  21  41  60  91 125 169 204 250 312 377
#     4  11  22  37  65  91 124 162 210 257 309 371
#
# _framework density 19.358535
#
# number of rings (size 3 to 8) (size 9 to 14) (size 15 to 20)
#    0.000    1.750    2.500    1.875    5.250    0.000 
#    6.750    3.125    0.000    0.000    0.000    0.000 
#    0.000    0.000    0.000    0.000    0.000    0.000 
#
# Total GULP energy -396530.966460 kJ/mol
# GULP energy per Si atom -12391.592702 kJ/mol
# Density = 1.931447 g / cm^3
# Si number density = 19.358535 Si / 1000 Ang^3
#
#
#
# Elastic Constant Matrix: (Units=GPa)
#
#
# Indices 1 2 3 4 5 6 
#
# 1 120.9713 49.7574 50.7089 0.0000 0.0000 0.0000
# 2 49.7574 59.9172 43.3776 0.0000 0.0000 0.0000
# 3 50.7089 43.3776 117.9120 0.0000 0.0000 0.0000
# 4 0.0000 0.0000 0.0000 28.6921 0.0000 0.0000
# 5 0.0000 0.0000 0.0000 0.0000 17.0963 0.0000
# 6 0.0000 0.0000 0.0000 0.0000 0.0000 -60.2466
#
#
#
# Elastic Compliance Matrix: (Units=1/GPa)
#
#
# Indices 1 2 3 4 5 6 
#
# 1 0.012960 -0.009170 -0.002200 0.000000 0.000000 0.000000
# 2 -0.009170 0.029236 -0.006812 0.000000 0.000000 0.000000
# 3 -0.002200 -0.006812 0.011933 0.000000 0.000000 0.000000
# 4 0.000000 0.000000 0.000000 0.034853 0.000000 0.000000
# 5 0.000000 0.000000 0.000000 0.000000 0.058492 0.000000
# 6 0.000000 0.000000 0.000000 0.000000 0.000000 -0.016598
#
#
# Mechanical properties :
#
#
# Convention : Reuss Voigt Hill
#
# Bulk Modulus (GPa) = 56.28841 65.16537 60.72689
# Shear Modulus (GPa) = 28.87461 7.43879 18.15670
#
# Velocity S-wave (km/s) = 3.86627 1.96239 3.06587
# Velocity P-wave (km/s) = 7.00505 6.23459 6.63102
#
# Compressibility (1/GPa) = 0.01776565
#
# Stress axis : x y z
#
# Youngs Moduli (GPa) = 77.15759 34.20408 83.80032
#
# Poissons Ratio (x) = 0.31365 0.18439
# Poissons Ratio (y) = 0.70753 0.57084
# Poissons Ratio (z) = 0.16977 0.23299
#
# Static dielectric constant tensor:
#      x y z
#    x 3.582440 0.000000 0.000000 
#    y 0.000000 3.674320 0.000000 
#    z 0.000000 0.000000 3.968020 
# 
# 
# High freq. dielectric constant tensor:
#      x y z
#    x 1.749370 0.000000 0.000000 
#    y 0.000000 1.753380 0.000000 
#    z 0.000000 0.000000 1.748930 
# 
# From -- ./inp_files/16036.got.cif
#   From: 2010.03.12/outbox.cif.g09.slc.cpg/sg24_9_cif.got.tgz:16036.got - 2010.04.14 03:06:53.
