data_PCOD8164423
_publ_section_title
;
Structure prediction by ZEFSAII (Michael W. Deem and Ramdas Pophale) SiO2 
 PCOD8164423
Probable space group: I 2 2 2
;
_chemical_formula_sum "Si O2"
_cell_formula_units_Z 32
_cell_length_a 9.180190
_cell_length_b 8.573992
_cell_length_c 15.842671
_cell_angle_alpha 90.000000
_cell_angle_beta 90.000000
_cell_angle_gamma 90.000000
_cell_volume 1246.990507
_symmetry_space_group_name_H-M "I 2 2 2"
_symmetry_group_IT_number 23
_symmetry_cell_setting 'orthorhombic'
loop_
_space_group_symop_operation_xyz
x,y,z
-x,-y,z
x,-y,-z
-x,y,-z
1/2+x,1/2+y,1/2+z
1/2-x,1/2-y,1/2+z
1/2+x,1/2-y,1/2-z
1/2-x,1/2+y,1/2-z
loop_
_atom_site_type_symbol
_atom_site_label
_atom_site_fract_x
_atom_site_fract_y
_atom_site_fract_z
Si Si1 0.251613 0.107077 0.917215
Si Si2 0.261970 0.828641 0.805249
Si Si3 0.951275 0.167770 0.651991
Si Si4 0.012222 0.328796 0.097859
O O1 0.388979 0.227877 0.926457
O O2 0.109981 0.199278 0.884477
O O3 0.294486 0.001380 0.837965
O O4 0.226688 0.000000 0.000000
O O5 0.183713 0.845265 0.716037
O O6 0.416717 0.743598 0.795755
O O7 0.167576 0.740335 0.876405
O O8 0.000000 0.000000 0.616237
O O9 0.000000 0.500000 0.143249
O O10 0.000000 0.361385 0.000000
#
# Coordination Sequence:
#
# PCOD8164423 Si02
#       4
#     8   8   8   8
#     4  12  26  49  77 111 152 198 254 312 379 450
#     4  12  25  46  75 110 149 201 247 307 375 450
#     4  12  27  47  74 111 154 200 250 315 375 448
#     4  11  23  43  73 109 146 190 244 302 369 444
#
# _framework density 25.661784000000001
#
# number of rings (size 3 to 8) (size 9 to 14) (size 15 to 20)
#    0.000    0.250    2.500    7.500    0.000    4.000 
#    0.000    1.250    0.000    0.000    0.000    0.000 
#    0.000    0.000    0.000    0.000    0.000    0.000 
#
# Total GULP energy -198336.506858 kJ/mol
# GULP energy per Si atom -12396.031679 kJ/mol
# Density = 2.560338 g / cm^3
# Si number density = 25.661784 Si / 1000 Ang^3
#
#
#
# Elastic Constant Matrix: (Units=GPa)
#
#
# Indices 1 2 3 4 5 6 
#
# 1 122.2241 48.1456 6.3728 0.0000 0.0000 0.0000
# 2 48.1456 179.1889 11.0320 0.0000 0.0000 0.0000
# 3 6.3728 11.0320 42.6991 0.0000 0.0000 0.0000
# 4 0.0000 0.0000 0.0000 19.9660 0.0000 0.0000
# 5 0.0000 0.0000 0.0000 0.0000 31.2693 0.0000
# 6 0.0000 0.0000 0.0000 0.0000 0.0000 59.3320
#
#
#
# Elastic Compliance Matrix: (Units=1/GPa)
#
#
# Indices 1 2 3 4 5 6 
#
# 1 0.009173 -0.002419 -0.000744 0.000000 0.000000 0.000000
# 2 -0.002419 0.006309 -0.001269 0.000000 0.000000 0.000000
# 3 -0.000744 -0.001269 0.023859 0.000000 0.000000 0.000000
# 4 0.000000 0.000000 0.000000 0.050085 0.000000 0.000000
# 5 0.000000 0.000000 0.000000 0.000000 0.031980 0.000000
# 6 0.000000 0.000000 0.000000 0.000000 0.000000 0.016854
#
#
# Mechanical properties :
#
#
# Convention : Reuss Voigt Hill
#
# Bulk Modulus (GPa) = 32.81201 52.80144 42.80672
# Shear Modulus (GPa) = 31.78979 40.68425 36.23702
#
# Velocity S-wave (km/s) = 3.52348 3.98603 3.76187
# Velocity P-wave (km/s) = 5.41916 6.46569 5.96542
#
# Compressibility (1/GPa) = 0.03047665
#
# Stress axis : x y z
#
# Youngs Moduli (GPa) = 109.01148 158.50965 41.91363
#
# Poissons Ratio (x) = 0.38343 0.03119
# Poissons Ratio (y) = 0.26369 0.05319
# Poissons Ratio (z) = 0.08112 0.20114
#
# Static dielectric constant tensor:
#      x y z
#    x 4.854220 0.000000 0.000000 
#    y 0.000000 5.296850 0.000000 
#    z 0.000000 0.000000 4.283210 
# 
# 
# High freq. dielectric constant tensor:
#      x y z
#    x 2.030310 0.000000 0.000000 
#    y 0.000000 2.056810 0.000000 
#    z 0.000000 0.000000 2.006680 
# 
# From -- ./inp_files/25936.got.cif
#   From: 2010.03.12/outbox.cif.g09.slc.cpg/sg23_13_cif.got.tgz:25936.got - 2010.04.14 02:50:06.
