data_PCOD8164506
_publ_section_title
;
Structure prediction by ZEFSAII (Michael W. Deem and Ramdas Pophale) SiO2 
 PCOD8164506
Probable space group: I 2 2 2
;
_chemical_formula_sum "Si O2"
_cell_formula_units_Z 64
_cell_length_a 11.893953
_cell_length_b 18.766716
_cell_length_c 12.832417
_cell_angle_alpha 90.000000
_cell_angle_beta 90.000000
_cell_angle_gamma 90.000000
_cell_volume 2864.329420
_symmetry_space_group_name_H-M "I 2 2 2"
_symmetry_group_IT_number 23
_symmetry_cell_setting 'orthorhombic'
loop_
_space_group_symop_operation_xyz
x,y,z
-x,-y,z
x,-y,-z
-x,y,-z
1/2+x,1/2+y,1/2+z
1/2-x,1/2-y,1/2+z
1/2+x,1/2-y,1/2-z
1/2-x,1/2+y,1/2-z
loop_
_atom_site_type_symbol
_atom_site_label
_atom_site_fract_x
_atom_site_fract_y
_atom_site_fract_z
Si Si1 0.717451 0.924188 0.542032
Si Si2 0.675368 0.649720 0.229313
Si Si3 0.976089 0.918516 0.191779
Si Si4 0.215567 0.831043 0.902477
Si Si5 0.572733 0.202112 0.802621
Si Si6 0.436736 0.201234 0.596278
Si Si7 0.403893 0.639309 0.086900
Si Si8 0.845601 0.299596 0.610095
O O1 0.791917 0.913752 0.648430
O O2 0.608831 0.874534 0.556734
O O3 0.798087 0.905636 0.447789
O O4 0.672508 0.000000 0.500000
O O5 0.595892 0.620962 0.323217
O O6 0.606262 0.714827 0.173135
O O7 0.790468 0.676461 0.281115
O O8 0.880988 0.890607 0.111172
O O9 0.946961 0.901509 0.311195
O O10 0.000000 0.000000 0.168263
O O11 0.316020 0.845734 0.819595
O O12 0.165967 0.753209 0.874597
O O13 0.275279 0.832539 0.015116
O O14 0.528392 0.192484 0.686398
O O15 0.476991 0.176678 0.885023
O O16 0.500000 0.238734 0.500000
O O17 0.348268 0.714919 0.111541
O O18 0.500000 0.642991 0.000000
#
# Coordination Sequence:
#
# PCOD8164506 Si02
#       8
#     8   8   8   8   8   8   8   8
#     4  12  25  42  65  99 151 197 239 290 383 465
#     4  12  22  43  68 105 144 192 241 311 374 443
#     4  12  27  44  68 105 148 195 244 302 383 457
#     4  12  25  42  70 107 140 192 252 317 374 431
#     4  12  21  42  70 104 146 184 252 317 374 439
#     4  12  25  41  68 106 145 190 240 311 376 448
#     4  12  22  38  67 108 145 184 237 306 374 444
#     4  12  23  40  72 105 144 187 255 316 366 440
#
# _framework density 22.343799000000001
#
# number of rings (size 3 to 8) (size 9 to 14) (size 15 to 20)
#    0.000    0.000    7.500    3.375    1.750    0.250 
#    0.000    1.250    0.000    0.750    0.000    3.500 
#    0.000    0.000    0.000    0.000    0.000    0.000 
#
# Total GULP energy -396565.767152 kJ/mol
# GULP energy per Si atom -12392.680224 kJ/mol
# Density = 2.229294 g / cm^3
# Si number density = 22.343799 Si / 1000 Ang^3
#
#
#
# Elastic Constant Matrix: (Units=GPa)
#
#
# Indices 1 2 3 4 5 6 
#
# 1 137.9769 51.2576 45.7902 0.0000 0.0001 0.0000
# 2 51.2576 118.5670 36.2862 0.0004 -0.0001 0.0001
# 3 45.7902 36.2862 100.1995 0.0003 -0.0001 -0.0001
# 4 0.0000 0.0004 0.0003 28.6874 -0.0001 0.0000
# 5 0.0001 -0.0001 -0.0001 -0.0001 32.9587 0.0000
# 6 0.0000 0.0001 -0.0001 0.0000 0.0000 29.5682
#
#
#
# Elastic Compliance Matrix: (Units=1/GPa)
#
#
# Indices 1 2 3 4 5 6 
#
# 1 0.009466 -0.003113 -0.003198 0.000000 0.000000 0.000000
# 2 -0.003113 0.010509 -0.002383 0.000000 0.000000 0.000000
# 3 -0.003198 -0.002383 0.012305 0.000000 0.000000 0.000000
# 4 0.000000 0.000000 0.000000 0.034859 0.000000 0.000000
# 5 0.000000 0.000000 0.000000 0.000000 0.030341 0.000000
# 6 0.000000 0.000000 0.000000 0.000000 0.000000 0.033820
#
#
# Mechanical properties :
#
#
# Convention : Reuss Voigt Hill
#
# Bulk Modulus (GPa) = 67.15777 69.26793 68.21285
# Shear Modulus (GPa) = 32.54114 33.13683 32.83899
#
# Velocity S-wave (km/s) = 3.82040 3.85521 3.83784
# Velocity P-wave (km/s) = 7.04148 7.13338 7.08758
#
# Compressibility (1/GPa) = 0.01489031
#
# Stress axis : x y z
#
# Youngs Moduli (GPa) = 105.64638 95.15428 81.27005
#
# Poissons Ratio (x) = 0.29624 0.25992
# Poissons Ratio (y) = 0.32890 0.19367
# Poissons Ratio (z) = 0.33788 0.22676
#
# Static dielectric constant tensor:
#      x y z
#    x 4.523000 0.000000 0.000000 
#    y 0.000000 3.631260 0.000000 
#    z 0.000000 0.000000 4.392520 
# 
# 
# High freq. dielectric constant tensor:
#      x y z
#    x 1.913180 0.000000 0.000000 
#    y 0.000000 1.829210 0.000000 
#    z 0.000000 0.000000 1.887250 
# 
# From -- ./inp_files/21067.got.cif
#   From: 2010.03.12/outbox.cif.g09.slc.cpg/sg23_11_cif.got.tgz:21067.got - 2010.04.14 02:50:06.
