data_PCOD8164041
_publ_section_title
;
Structure prediction by ZEFSAII (Michael W. Deem and Ramdas Pophale) SiO2 
 PCOD8164041
Probable space group: I 2 2 2
;
_chemical_formula_sum "Si O2"
_cell_formula_units_Z 56
_cell_length_a 20.037565
_cell_length_b 8.852726
_cell_length_c 15.120634
_cell_angle_alpha 90.000000
_cell_angle_beta 90.000000
_cell_angle_gamma 90.000000
_cell_volume 2682.205002
_symmetry_space_group_name_H-M "I 2 2 2"
_symmetry_group_IT_number 23
_symmetry_cell_setting 'orthorhombic'
loop_
_space_group_symop_operation_xyz
x,y,z
-x,-y,z
x,-y,-z
-x,y,-z
1/2+x,1/2+y,1/2+z
1/2-x,1/2-y,1/2+z
1/2+x,1/2-y,1/2-z
1/2-x,1/2+y,1/2-z
loop_
_atom_site_type_symbol
_atom_site_label
_atom_site_fract_x
_atom_site_fract_y
_atom_site_fract_z
Si Si1 0.568731 0.311953 0.262266
Si Si2 0.782079 0.824641 0.804784
Si Si3 0.745587 0.674305 0.987802
Si Si4 0.699909 0.328434 0.348093
Si Si5 0.568766 0.918969 0.883114
Si Si6 0.607182 0.212339 0.947392
Si Si7 0.923608 0.149304 0.269419
O O1 0.619333 0.307815 0.344474
O O2 0.593850 0.178986 0.198479
O O3 0.489802 0.299328 0.286124
O O4 0.581489 0.471424 0.215730
O O5 0.737504 0.785011 0.719230
O O6 0.859025 0.784175 0.780568
O O7 0.776109 0.001490 0.827749
O O8 0.757599 0.723354 0.886835
O O9 0.787580 0.783882 0.050949
O O10 0.669596 0.693184 0.018493
O O11 0.766461 0.500000 0.000000
O O12 0.500000 0.000000 0.858348
O O13 0.625385 0.045982 0.905465
O O14 0.558300 0.813713 0.969302
O O15 0.567576 0.296365 0.869939
#
# Coordination Sequence:
#
# PCOD8164041 Si02
#       7
#     8   8   8   8   8   8   8
#     4  10  23  41  64  93 125 172 218 267 321 397
#     4  11  24  43  67  97 133 175 220 279 330 395
#     4  12  27  43  64  96 133 173 226 278 334 395
#     4  11  24  42  68  97 130 175 223 274 340 390
#     4  11  23  37  57  94 132 168 210 261 327 395
#     4  11  23  36  58  88 130 166 209 261 323 390
#     4  10  22  42  64  91 128 169 220 264 325 391
#
# _framework density 20.878343999999998
#
# number of rings (size 3 to 8) (size 9 to 14) (size 15 to 20)
#    0.000    1.143    2.857    3.000   10.000    1.143 
#    0.000    2.143    0.000    4.286    0.000    0.000 
#    0.000    0.000    0.000    0.000    0.000    0.000 
#
# Total GULP energy -346987.032006 kJ/mol
# GULP energy per Si atom -12392.394000 kJ/mol
# Density = 2.083082 g / cm^3
# Si number density = 20.878344 Si / 1000 Ang^3
#
#
#
# Elastic Constant Matrix: (Units=GPa)
#
#
# Indices 1 2 3 4 5 6 
#
# 1 91.9032 7.5877 6.3339 0.0000 0.0000 0.0000
# 2 7.5877 76.7319 9.3450 0.0000 0.0000 0.0000
# 3 6.3339 9.3450 57.8581 0.0000 0.0000 0.0000
# 4 0.0000 0.0000 0.0000 34.1672 0.0000 0.0000
# 5 0.0000 0.0000 0.0000 0.0000 30.7446 0.0000
# 6 0.0000 0.0000 0.0000 0.0000 0.0000 25.7280
#
#
#
# Elastic Compliance Matrix: (Units=1/GPa)
#
#
# Indices 1 2 3 4 5 6 
#
# 1 0.011033 -0.000963 -0.001052 0.000000 0.000000 0.000000
# 2 -0.000963 0.013378 -0.002055 0.000000 0.000000 0.000000
# 3 -0.001052 -0.002055 0.017731 0.000000 0.000000 0.000000
# 4 0.000000 0.000000 0.000000 0.029268 0.000000 0.000000
# 5 0.000000 0.000000 0.000000 0.000000 0.032526 0.000000
# 6 0.000000 0.000000 0.000000 0.000000 0.000000 0.038868
#
#
# Mechanical properties :
#
#
# Convention : Reuss Voigt Hill
#
# Bulk Modulus (GPa) = 29.41108 30.33627 29.87367
# Shear Modulus (GPa) = 30.81126 31.67641 31.24383
#
# Velocity S-wave (km/s) = 3.84572 3.89934 3.87262
# Velocity P-wave (km/s) = 5.81695 5.90209 5.85967
#
# Compressibility (1/GPa) = 0.03400079
#
# Stress axis : x y z
#
# Youngs Moduli (GPa) = 90.63693 74.75008 56.39896
#
# Poissons Ratio (x) = 0.07197 0.05935
# Poissons Ratio (y) = 0.08727 0.11592
# Poissons Ratio (z) = 0.09538 0.15364
#
# Static dielectric constant tensor:
#      x y z
#    x 4.007520 0.000000 0.000000 
#    y 0.000000 4.068640 0.000000 
#    z 0.000000 0.000000 3.614890 
# 
# 
# High freq. dielectric constant tensor:
#      x y z
#    x 1.819720 0.000000 0.000000 
#    y 0.000000 1.830930 0.000000 
#    z 0.000000 0.000000 1.792470 
# 
# From -- ./inp_files/10208.got.cif
#   From: 2010.03.12/outbox.cif.g09.slc.cpg/sg23_6_cif.got.tgz:10208.got - 2010.04.14 02:50:06.
