data_PCOD8164638
_publ_section_title
;
Structure prediction by ZEFSAII (Michael W. Deem and Ramdas Pophale) SiO2 
 PCOD8164638
Probable space group: I 21 21 21
;
_chemical_formula_sum "Si O2"
_cell_formula_units_Z 36
_cell_length_a 24.484652
_cell_length_b 4.910692
_cell_length_c 14.696450
_cell_angle_alpha 90.000000
_cell_angle_beta 90.000000
_cell_angle_gamma 90.000000
_cell_volume 1767.050955
_symmetry_space_group_name_H-M "I 21 21 21"
_symmetry_group_IT_number 24
_symmetry_cell_setting 'orthorhombic'
loop_
_space_group_symop_operation_xyz
x,y,z
-x,1/2-y,z
x,-y,1/2-z
1/2-x,y,-z
1/2+x,1/2+y,1/2+z
1/2-x,-y,1/2+z
1/2+x,1/2-y,-z
-x,1/2+y,1/2-z
loop_
_atom_site_type_symbol
_atom_site_label
_atom_site_fract_x
_atom_site_fract_y
_atom_site_fract_z
Si Si1 0.693705 0.643477 0.953312
Si Si2 0.168861 0.638832 0.342431
Si Si3 0.946223 0.124664 0.086948
Si Si4 0.922124 0.618373 0.972228
Si Si5 0.000000 0.250000 0.686545
O O1 0.686912 0.448713 0.863914
O O2 0.694004 0.956176 0.922593
O O3 0.750000 0.564246 0.000000
O O4 0.643990 0.622427 0.025589
O O5 0.190415 0.500000 0.250000
O O6 0.102982 0.641226 0.341352
O O7 0.000000 0.250000 0.136951
O O8 0.938303 0.312059 0.997643
O O9 0.949221 0.818650 0.047862
O O10 0.946082 0.685769 0.873340
O O11 0.015999 0.500000 0.750000
#
# Coordination Sequence:
#
# PCOD8164638 Si02
#       5
#     8   8   8   8   4
#     4  10  21  39  62  81 109 158 200 229 286 358
#     4  10  21  36  57  88 117 143 184 243 290 328
#     4  10  17  33  57  79 109 152 179 214 278 353
#     4  10  20  35  55  79 110 146 195 230 278 353
#     4  12  22  34  54  82 116 146 186 246 294 322
#
# _framework density 20.372926
#
# number of rings (size 3 to 8) (size 9 to 14) (size 15 to 20)
#    0.000    1.778    2.222    2.667    0.000    0.000 
#    0.000   10.000    0.000    0.000    0.000    0.000 
#    0.000    0.000    0.000    0.000    0.000    0.000 
#
# Total GULP energy -223076.155677 kJ/mol
# GULP energy per Si atom -12393.119760 kJ/mol
# Density = 2.032656 g / cm^3
# Si number density = 20.372926 Si / 1000 Ang^3
#
#
#
# Elastic Constant Matrix: (Units=GPa)
#
#
# Indices 1 2 3 4 5 6 
#
# 1 123.3201 15.8818 33.6129 0.0000 0.0000 0.0000
# 2 15.8818 77.9034 9.5944 0.0000 0.0000 0.0000
# 3 33.6129 9.5944 56.0303 0.0000 0.0000 0.0000
# 4 0.0000 0.0000 0.0000 20.5139 0.0000 0.0000
# 5 0.0000 0.0000 0.0000 0.0000 23.5865 0.0000
# 6 0.0000 0.0000 0.0000 0.0000 0.0000 25.1399
#
#
#
# Elastic Compliance Matrix: (Units=1/GPa)
#
#
# Indices 1 2 3 4 5 6 
#
# 1 0.009822 -0.001304 -0.005669 0.000000 0.000000 0.000000
# 2 -0.001304 0.013286 -0.001493 0.000000 0.000000 0.000000
# 3 -0.005669 -0.001493 0.021504 0.000000 0.000000 0.000000
# 4 0.000000 0.000000 0.000000 0.048747 0.000000 0.000000
# 5 0.000000 0.000000 0.000000 0.000000 0.042397 0.000000
# 6 0.000000 0.000000 0.000000 0.000000 0.000000 0.039777
#
#
# Mechanical properties :
#
#
# Convention : Reuss Voigt Hill
#
# Bulk Modulus (GPa) = 36.12663 41.71467 38.92065
# Shear Modulus (GPa) = 24.79019 27.05904 25.92461
#
# Velocity S-wave (km/s) = 3.49208 3.64838 3.57109
# Velocity P-wave (km/s) = 5.83358 6.18608 6.01241
#
# Compressibility (1/GPa) = 0.02768041
#
# Stress axis : x y z
#
# Youngs Moduli (GPa) = 101.81097 75.26649 46.50310
#
# Poissons Ratio (x) = 0.09816 0.26363
# Poissons Ratio (y) = 0.13278 0.06941
# Poissons Ratio (z) = 0.57717 0.11235
#
# Static dielectric constant tensor:
#      x y z
#    x 3.697500 0.000000 0.000000 
#    y 0.000000 3.926290 0.000000 
#    z 0.000000 0.000000 3.221280 
# 
# 
# High freq. dielectric constant tensor:
#      x y z
#    x 1.787400 0.000000 0.000000 
#    y 0.000000 1.824130 0.000000 
#    z 0.000000 0.000000 1.753790 
# 
# From -- ./inp_files/23615.got.cif
#   From: 2010.03.12/outbox.cif.g09.slc.cpg/sg24_12_cif.got.tgz:23615.got - 2010.04.14 03:06:53.
