data_PCOD8164353
_publ_section_title
;
Structure prediction by ZEFSAII (Michael W. Deem and Ramdas Pophale) SiO2 
 PCOD8164353
Probable space group: I 2 2 2
;
_chemical_formula_sum "Si O2"
_cell_formula_units_Z 40
_cell_length_a 12.190472
_cell_length_b 17.556280
_cell_length_c 8.961314
_cell_angle_alpha 90.000000
_cell_angle_beta 90.000000
_cell_angle_gamma 90.000000
_cell_volume 1917.894506
_symmetry_space_group_name_H-M "I 2 2 2"
_symmetry_group_IT_number 23
_symmetry_cell_setting 'orthorhombic'
loop_
_space_group_symop_operation_xyz
x,y,z
-x,-y,z
x,-y,-z
-x,y,-z
1/2+x,1/2+y,1/2+z
1/2-x,1/2-y,1/2+z
1/2+x,1/2-y,1/2-z
1/2-x,1/2+y,1/2-z
loop_
_atom_site_type_symbol
_atom_site_label
_atom_site_fract_x
_atom_site_fract_y
_atom_site_fract_z
Si Si1 0.500000 0.500000 0.735191
Si Si2 0.500000 0.378691 0.500000
Si Si3 0.113548 0.285667 0.442284
Si Si4 0.101250 0.544306 0.650677
Si Si5 0.795679 0.818595 0.181433
Si Si6 0.728726 0.474423 0.160822
O O1 0.545002 0.431119 0.633588
O O2 0.598014 0.522846 0.842269
O O3 0.397286 0.332136 0.567120
O O4 0.077516 0.367904 0.380142
O O5 0.166061 0.241117 0.304640
O O6 0.197624 0.286267 0.580437
O O7 0.000000 0.246505 0.500000
O O8 0.121373 0.500000 0.500000
O O9 0.214667 0.538141 0.738151
O O10 0.000000 0.500000 0.734252
O O11 0.745301 0.890695 0.272406
O O12 0.773267 0.500000 0.000000
#
# Coordination Sequence:
#
# PCOD8164353 Si02
#       6
#     4   4   8   8   8   8
#     4   9  19  36  66  94 130 170 216 266 324 394
#     4   9  20  40  64  94 125 178 222 266 325 412
#     4  12  26  45  68  99 135 182 227 285 348 408
#     4  11  21  45  72  90 123 175 231 274 326 395
#     4  11  26  42  65  99 138 175 225 281 356 401
#     4  11  23  39  65  99 131 170 220 275 331 401
#
# _framework density 20.856203000000001
#
# number of rings (size 3 to 8) (size 9 to 14) (size 15 to 20)
#    0.000    1.200    4.000    1.500    8.400    3.600 
#    0.000    0.000    0.000    0.000    0.000    0.000 
#    0.000    0.000    0.000    0.000    0.000    0.000 
#
# Total GULP energy -247791.018652 kJ/mol
# GULP energy per Si atom -12389.550933 kJ/mol
# Density = 2.080873 g / cm^3
# Si number density = 20.856203 Si / 1000 Ang^3
#
#
#
# Elastic Constant Matrix: (Units=GPa)
#
#
# Indices 1 2 3 4 5 6 
#
# 1 124.7837 33.3536 61.6720 0.0000 0.0000 0.0000
# 2 33.3536 73.6067 51.1112 0.0000 0.0000 0.0000
# 3 61.6720 51.1112 105.2310 -0.0002 0.0002 0.0000
# 4 0.0000 0.0000 -0.0002 27.6491 0.0000 0.0000
# 5 0.0000 0.0000 0.0002 0.0000 35.7566 0.0000
# 6 0.0000 0.0000 0.0000 0.0000 0.0000 30.2774
#
#
#
# Elastic Compliance Matrix: (Units=1/GPa)
#
#
# Indices 1 2 3 4 5 6 
#
# 1 0.011312 -0.000788 -0.006247 0.000000 0.000000 0.000000
# 2 -0.000788 0.020554 -0.009521 0.000000 0.000000 0.000000
# 3 -0.006247 -0.009521 0.017788 0.000000 0.000000 0.000000
# 4 0.000000 0.000000 0.000000 0.036168 0.000000 0.000000
# 5 0.000000 0.000000 0.000000 0.000000 0.027967 0.000000
# 6 0.000000 0.000000 0.000000 0.000000 0.000000 0.033028
#
#
# Mechanical properties :
#
#
# Convention : Reuss Voigt Hill
#
# Bulk Modulus (GPa) = 60.45168 66.21055 63.33112
# Shear Modulus (GPa) = 26.96240 29.23561 28.09900
#
# Velocity S-wave (km/s) = 3.59942 3.74808 3.67450
# Velocity P-wave (km/s) = 6.80605 7.10957 6.95947
#
# Compressibility (1/GPa) = 0.01654214
#
# Stress axis : x y z
#
# Youngs Moduli (GPa) = 88.40316 48.65134 56.21641
#
# Poissons Ratio (x) = 0.03835 0.35116
# Poissons Ratio (y) = 0.06968 0.53526
# Poissons Ratio (z) = 0.55222 0.46323
#
# Static dielectric constant tensor:
#      x y z
#    x 4.086520 0.000000 0.000000 
#    y 0.000000 3.795450 0.000000 
#    z 0.000000 0.000000 3.794460 
# 
# 
# High freq. dielectric constant tensor:
#      x y z
#    x 1.829720 0.000000 0.000000 
#    y 0.000000 1.803470 0.000000 
#    z 0.000000 0.000000 1.816940 
# 
# From -- ./inp_files/8504.got.cif
#   From: 2010.03.12/outbox.cif.g09.slc.cpg/sg23_5_cif.got.tgz:8504.got - 2010.04.14 02:50:06.
