data_PCOD8164601
_publ_section_title
;
Structure prediction by ZEFSAII (Michael W. Deem and Ramdas Pophale) SiO2 
 PCOD8164601
Probable space group: I 21 21 21
;
_chemical_formula_sum "Si O2"
_cell_formula_units_Z 56
_cell_length_a 12.418928
_cell_length_b 8.483904
_cell_length_c 23.538276
_cell_angle_alpha 90.000000
_cell_angle_beta 90.000000
_cell_angle_gamma 90.000000
_cell_volume 2480.016131
_symmetry_space_group_name_H-M "I 21 21 21"
_symmetry_group_IT_number 24
_symmetry_cell_setting 'orthorhombic'
loop_
_space_group_symop_operation_xyz
x,y,z
-x,1/2-y,z
x,-y,1/2-z
1/2-x,y,-z
1/2+x,1/2+y,1/2+z
1/2-x,-y,1/2+z
1/2+x,1/2-y,-z
-x,1/2+y,1/2-z
loop_
_atom_site_type_symbol
_atom_site_label
_atom_site_fract_x
_atom_site_fract_y
_atom_site_fract_z
Si Si1 0.592037 0.344708 0.218932
Si Si2 0.213140 0.007452 0.937446
Si Si3 0.765569 0.879711 0.565450
Si Si4 0.437155 0.593522 0.637950
Si Si5 0.135641 0.921232 0.160469
Si Si6 0.178522 0.762426 0.271085
Si Si7 0.004038 0.579802 0.596543
O O1 0.500000 0.250000 0.254168
O O2 0.634833 0.500000 0.250000
O O3 0.695340 0.230344 0.214543
O O4 0.534491 0.397986 0.161168
O O5 0.228833 0.192214 0.923259
O O6 0.279453 0.907224 0.891091
O O7 0.084902 0.966487 0.932989
O O8 0.250000 0.959531 0.000000
O O9 0.750000 0.920112 0.500000
O O10 0.661840 0.947916 0.597178
O O11 0.871580 0.973582 0.589415
O O12 0.500000 0.750000 0.615294
O O13 0.513507 0.437936 0.636627
O O14 0.392490 0.622142 0.702243
O O15 0.149764 0.079555 0.196013
O O16 0.153283 0.774137 0.203475
O O17 0.000000 0.750000 0.564993
#
# Coordination Sequence:
#
# PCOD8164601 Si02
#       7
#     8   8   8   8   8   8   8
#     4  11  19  32  56  76 110 143 184 227 282 337
#     4  10  17  26  42  68  96 131 174 216 257 335
#     4  10  19  27  42  66 102 145 166 204 274 337
#     4  10  18  29  47  68  99 136 183 215 258 336
#     4  10  18  30  51  70  98 142 180 220 268 322
#     4  10  17  33  51  69 100 148 179 226 276 323
#     4   9  17  29  44  66 100 136 170 208 263 328
#
# _framework density 22.580497999999999
#
# number of rings (size 3 to 8) (size 9 to 14) (size 15 to 20)
#    0.000    2.000    5.714    1.714    2.000    0.571 
#    0.000    0.000   31.429    0.000    0.000    0.000 
#    0.000   27.429    0.000    0.000    0.000    0.000 
#
# Total GULP energy -346957.338950 kJ/mol
# GULP energy per Si atom -12391.333534 kJ/mol
# Density = 2.252910 g / cm^3
# Si number density = 22.580498 Si / 1000 Ang^3
#
#
#
# Elastic Constant Matrix: (Units=GPa)
#
#
# Indices 1 2 3 4 5 6 
#
# 1 220.6021 14.4996 74.5465 0.0000 0.0000 0.0000
# 2 14.4996 12.6437 13.1901 0.0000 0.0000 0.0000
# 3 74.5465 13.1901 146.8113 0.0000 0.0000 0.0000
# 4 0.0000 0.0000 0.0000 13.6649 0.0000 0.0000
# 5 0.0000 0.0000 0.0000 0.0000 35.0025 0.0000
# 6 0.0000 0.0000 0.0000 0.0000 0.0000 5.1228
#
#
#
# Elastic Compliance Matrix: (Units=1/GPa)
#
#
# Indices 1 2 3 4 5 6 
#
# 1 0.005636 -0.003837 -0.002517 0.000000 0.000000 0.000000
# 2 -0.003837 0.089883 -0.006127 0.000000 0.000000 0.000000
# 3 -0.002517 -0.006127 0.008640 0.000000 0.000000 0.000000
# 4 0.000000 0.000000 0.000000 0.073180 0.000000 0.000000
# 5 0.000000 0.000000 0.000000 0.000000 0.028569 0.000000
# 6 0.000000 0.000000 0.000000 0.000000 0.000000 0.195205
#
#
# Mechanical properties :
#
#
# Convention : Reuss Voigt Hill
#
# Bulk Modulus (GPa) = 12.62681 64.94771 38.78726
# Shear Modulus (GPa) = 11.05035 29.27946 20.16491
#
# Velocity S-wave (km/s) = 2.21458 3.60484 2.99159
# Velocity P-wave (km/s) = 3.48471 6.79350 5.39884
#
# Compressibility (1/GPa) = 0.07919656
#
# Stress axis : x y z
#
# Youngs Moduli (GPa) = 177.43732 11.12554 115.74133
#
# Poissons Ratio (x) = 0.04269 0.29131
# Poissons Ratio (y) = 0.68089 0.70914
# Poissons Ratio (z) = 0.44660 0.06817
#
# Static dielectric constant tensor:
#      x y z
#    x 4.928940 0.000000 0.000000 
#    y 0.000000 3.641060 0.000000 
#    z 0.000000 0.000000 3.975090 
# 
# 
# High freq. dielectric constant tensor:
#      x y z
#    x 1.924720 0.000000 0.000000 
#    y 0.000000 1.806120 0.000000 
#    z 0.000000 0.000000 1.877470 
# 
# From -- ./inp_files/20095.got.cif
#   From: 2010.03.12/outbox.cif.g09.slc.cpg/sg24_11_cif.got.tgz:20095.got - 2010.04.14 03:06:53.
