data_PCOD8164285
_publ_section_title
;
Structure prediction by ZEFSAII (Michael W. Deem and Ramdas Pophale) SiO2 
 PCOD8164285
Probable space group: I 2 2 2
;
_chemical_formula_sum "Si O2"
_cell_formula_units_Z 56
_cell_length_a 16.759868
_cell_length_b 9.611677
_cell_length_c 21.031882
_cell_angle_alpha 90.000000
_cell_angle_beta 90.000000
_cell_angle_gamma 90.000000
_cell_volume 3388.035079
_symmetry_space_group_name_H-M "I 2 2 2"
_symmetry_group_IT_number 23
_symmetry_cell_setting 'orthorhombic'
loop_
_space_group_symop_operation_xyz
x,y,z
-x,-y,z
x,-y,-z
-x,y,-z
1/2+x,1/2+y,1/2+z
1/2-x,1/2-y,1/2+z
1/2+x,1/2-y,1/2-z
1/2-x,1/2+y,1/2-z
loop_
_atom_site_type_symbol
_atom_site_label
_atom_site_fract_x
_atom_site_fract_y
_atom_site_fract_z
Si Si1 0.345401 0.260164 0.390932
Si Si2 0.642630 0.571368 0.643746
Si Si3 0.436728 0.118125 0.279499
Si Si4 0.957570 0.860810 0.268365
Si Si5 0.407228 0.656271 0.486200
Si Si6 0.718018 0.013980 0.774889
Si Si7 0.299059 0.287660 0.815814
O O1 0.379483 0.413284 0.374135
O O2 0.394360 0.155355 0.346079
O O3 0.361667 0.237178 0.466148
O O4 0.249658 0.239708 0.381239
O O5 0.590189 0.614897 0.703567
O O6 0.619491 0.680156 0.587228
O O7 0.736978 0.574510 0.662043
O O8 0.475241 0.247834 0.244055
O O9 0.373278 0.062914 0.227588
O O10 0.500000 0.000000 0.296178
O O11 0.894801 0.806445 0.322558
O O12 0.000000 0.000000 0.293415
O O13 0.379255 0.500000 0.500000
O O14 0.500000 0.677975 0.500000
O O15 0.765410 0.070528 0.714042
O O16 0.721128 0.846209 0.771512
#
# Coordination Sequence:
#
# PCOD8164285 Si02
#       7
#     8   8   8   8   8   8   8
#     4   9  17  30  45  66  97 126 155 193 237 283
#     4   9  17  29  46  67  95 125 158 196 230 286
#     4  11  19  29  45  69  97 126 154 199 252 284
#     4  11  19  29  47  69  94 126 162 200 240 290
#     4   9  16  25  45  71  93 120 161 194 225 272
#     4   9  18  30  43  66  94 125 155 192 242 293
#     4   9  18  30  44  66  95 125 156 193 241 292
#
# _framework density 16.528753999999999
#
# number of rings (size 3 to 8) (size 9 to 14) (size 15 to 20)
#    0.000    2.429    2.857    0.857    4.000    0.000 
#    0.000    0.000    0.000    3.857    0.000    1.000 
#    0.000    1.143    0.000    0.000    0.000    0.000 
#
# Total GULP energy -346892.879173 kJ/mol
# GULP energy per Si atom -12389.031399 kJ/mol
# Density = 1.649113 g / cm^3
# Si number density = 16.528754 Si / 1000 Ang^3
#
#
#
# Elastic Constant Matrix: (Units=GPa)
#
#
# Indices 1 2 3 4 5 6 
#
# 1 97.0854 23.5128 44.9047 0.0000 0.0000 0.0000
# 2 23.5128 59.1440 14.7369 0.0000 0.0000 0.0000
# 3 44.9047 14.7369 64.5316 0.0000 0.0000 0.0000
# 4 0.0000 0.0000 0.0000 13.7109 0.0000 0.0000
# 5 0.0000 0.0000 0.0000 0.0000 23.0783 0.0000
# 6 0.0000 0.0000 0.0000 0.0000 0.0000 29.2074
#
#
#
# Elastic Compliance Matrix: (Units=1/GPa)
#
#
# Indices 1 2 3 4 5 6 
#
# 1 0.015952 -0.003792 -0.010235 0.000000 0.000000 0.000000
# 2 -0.003792 0.018829 -0.001661 0.000000 0.000000 0.000000
# 3 -0.010235 -0.001661 0.022998 0.000000 0.000000 0.000000
# 4 0.000000 0.000000 0.000000 0.072935 0.000000 0.000000
# 5 0.000000 0.000000 0.000000 0.000000 0.043331 0.000000
# 6 0.000000 0.000000 0.000000 0.000000 0.000000 0.034238
#
#
# Mechanical properties :
#
#
# Convention : Reuss Voigt Hill
#
# Bulk Modulus (GPa) = 37.87379 43.00775 40.44077
# Shear Modulus (GPa) = 20.12402 22.37310 21.24856
#
# Velocity S-wave (km/s) = 3.49308 3.68310 3.58935
# Velocity P-wave (km/s) = 6.26358 6.64556 6.45739
#
# Compressibility (1/GPa) = 0.02640348
#
# Stress axis : x y z
#
# Youngs Moduli (GPa) = 62.68690 53.10879 43.48296
#
# Poissons Ratio (x) = 0.20137 0.44503
# Poissons Ratio (y) = 0.23769 0.07225
# Poissons Ratio (z) = 0.64158 0.08824
#
# Static dielectric constant tensor:
#      x y z
#    x 3.441770 0.000000 0.000000 
#    y 0.000000 3.108900 0.000000 
#    z 0.000000 0.000000 3.074910 
# 
# 
# High freq. dielectric constant tensor:
#      x y z
#    x 1.642510 0.000000 0.000000 
#    y 0.000000 1.629150 0.000000 
#    z 0.000000 0.000000 1.590140 
# 
# From -- ./inp_files/11453.got.cif
#   From: 2010.03.12/outbox.cif.g09.slc.cpg/sg23_6_cif.got.tgz:11453.got - 2010.04.14 02:50:06.
