data_PCOD8164886
_publ_section_title
;
Structure prediction by ZEFSAII (Michael W. Deem and Ramdas Pophale) SiO2 
 PCOD8164886
Probable space group: I 21 21 21
;
_chemical_formula_sum "Si O2"
_cell_formula_units_Z 64
_cell_length_a 9.374105
_cell_length_b 19.072741
_cell_length_c 18.225278
_cell_angle_alpha 90.000000
_cell_angle_beta 90.000000
_cell_angle_gamma 90.000000
_cell_volume 3258.495208
_symmetry_space_group_name_H-M "I 21 21 21"
_symmetry_group_IT_number 24
_symmetry_cell_setting 'orthorhombic'
loop_
_space_group_symop_operation_xyz
x,y,z
-x,1/2-y,z
x,-y,1/2-z
1/2-x,y,-z
1/2+x,1/2+y,1/2+z
1/2-x,-y,1/2+z
1/2+x,1/2-y,-z
-x,1/2+y,1/2-z
loop_
_atom_site_type_symbol
_atom_site_label
_atom_site_fract_x
_atom_site_fract_y
_atom_site_fract_z
Si Si1 0.034240 0.327258 0.756849
Si Si2 0.136665 0.505612 0.146982
Si Si3 0.513097 0.892315 0.757321
Si Si4 0.824568 0.198866 0.166349
Si Si5 0.743366 0.355923 0.828515
Si Si6 0.040069 0.536639 0.826220
Si Si7 0.900395 0.101526 0.035003
Si Si8 0.355807 0.954865 0.440934
O O1 0.166436 0.328933 0.813702
O O2 0.047046 0.379348 0.687346
O O3 0.000000 0.250000 0.724963
O O4 0.906527 0.352537 0.807195
O O5 0.098479 0.446508 0.205916
O O6 0.047772 0.578232 0.161187
O O7 0.305605 0.513715 0.147473
O O8 0.095454 0.477710 0.066887
O O9 0.582592 0.816263 0.740408
O O10 0.345093 0.889981 0.739379
O O11 0.823043 0.281055 0.148819
O O12 0.909175 0.159495 0.100153
O O13 0.739209 0.407656 0.897375
O O14 0.995614 0.500000 0.750000
O O15 0.928034 0.514169 0.889515
O O16 0.750000 0.119941 0.000000
O O17 0.028372 0.100012 0.975830
O O18 0.250000 0.991807 0.500000
#
# Coordination Sequence:
#
# PCOD8164886 Si02
#       8
#     8   8   8   8   8   8   8   8
#     4  10  21  37  63  96 118 153 208 256 314 370
#     4  10  19  34  60  84 107 149 207 254 288 345
#     4  10  19  33  58  82 111 146 204 251 295 332
#     4  10  20  38  58  81 119 167 207 236 289 360
#     4  11  23  37  54  87 129 159 194 250 297 361
#     4  12  19  39  67  87 114 161 206 258 304 351
#     4  11  21  37  59  80 116 165 209 240 279 357
#     4  12  26  39  56  90 129 160 206 244 303 368
#
# _framework density 19.640968999999998
#
# number of rings (size 3 to 8) (size 9 to 14) (size 15 to 20)
#    0.000    1.250    5.000    3.375    0.000    3.500 
#    0.000    2.500    0.000    0.000    3.250    0.000 
#    0.000    0.000    0.000    0.000    0.000    0.000 
#
# Total GULP energy -396478.171912 kJ/mol
# GULP energy per Si atom -12389.942872 kJ/mol
# Density = 1.959626 g / cm^3
# Si number density = 19.640969 Si / 1000 Ang^3
#
#
#
# Elastic Constant Matrix: (Units=GPa)
#
#
# Indices 1 2 3 4 5 6 
#
# 1 89.6674 20.9833 27.9483 0.0000 0.0000 0.0000
# 2 20.9833 80.9687 37.6133 0.0000 0.0000 0.0000
# 3 27.9483 37.6133 60.7399 0.0000 0.0000 0.0000
# 4 0.0000 0.0000 0.0000 18.4776 0.0000 0.0000
# 5 0.0000 0.0000 0.0000 0.0000 34.2748 0.0000
# 6 0.0000 0.0000 0.0000 0.0000 0.0000 25.8267
#
#
#
# Elastic Compliance Matrix: (Units=1/GPa)
#
#
# Indices 1 2 3 4 5 6 
#
# 1 0.013059 -0.000832 -0.005494 0.000000 0.000000 0.000000
# 2 -0.000832 0.017391 -0.010386 0.000000 0.000000 0.000000
# 3 -0.005494 -0.010386 0.025423 0.000000 0.000000 0.000000
# 4 0.000000 0.000000 0.000000 0.054119 0.000000 0.000000
# 5 0.000000 0.000000 0.000000 0.000000 0.029176 0.000000
# 6 0.000000 0.000000 0.000000 0.000000 0.000000 0.038720
#
#
# Mechanical properties :
#
#
# Convention : Reuss Voigt Hill
#
# Bulk Modulus (GPa) = 44.54561 44.94061 44.74311
# Shear Modulus (GPa) = 22.85226 25.37122 24.11174
#
# Velocity S-wave (km/s) = 3.41471 3.59799 3.50755
# Velocity P-wave (km/s) = 6.18678 6.33967 6.26369
#
# Compressibility (1/GPa) = 0.02244890
#
# Stress axis : x y z
#
# Youngs Moduli (GPa) = 76.57316 57.50063 39.33408
#
# Poissons Ratio (x) = 0.04786 0.21608
# Poissons Ratio (y) = 0.06374 0.40854
# Poissons Ratio (z) = 0.42066 0.59723
#
# Static dielectric constant tensor:
#      x y z
#    x 3.743670 0.000000 0.000000 
#    y 0.000000 4.058020 0.000000 
#    z 0.000000 0.000000 3.850910 
# 
# 
# High freq. dielectric constant tensor:
#      x y z
#    x 1.792500 0.000000 0.000000 
#    y 0.000000 1.749300 0.000000 
#    z 0.000000 0.000000 1.727230 
# 
# From -- ./inp_files/29797.got.cif
#   From: 2010.03.12/outbox.cif.g09.slc.cpg/sg24_15_cif.got.tgz:29797.got - 2010.04.14 03:06:53.
