data_PCOD8164039
_publ_section_title
;
Structure prediction by ZEFSAII (Michael W. Deem and Ramdas Pophale) SiO2 
 PCOD8164039
Probable space group: I 2 2 2
;
_chemical_formula_sum "Si O2"
_cell_formula_units_Z 24
_cell_length_a 23.445342
_cell_length_b 5.167685
_cell_length_c 8.652971
_cell_angle_alpha 90.000000
_cell_angle_beta 90.000000
_cell_angle_gamma 90.000000
_cell_volume 1048.377891
_symmetry_space_group_name_H-M "I 2 2 2"
_symmetry_group_IT_number 23
_symmetry_cell_setting 'orthorhombic'
loop_
_space_group_symop_operation_xyz
x,y,z
-x,-y,z
x,-y,-z
-x,y,-z
1/2+x,1/2+y,1/2+z
1/2-x,1/2-y,1/2+z
1/2+x,1/2-y,1/2-z
1/2-x,1/2+y,1/2-z
loop_
_atom_site_type_symbol
_atom_site_label
_atom_site_fract_x
_atom_site_fract_y
_atom_site_fract_z
Si Si1 0.436567 0.248740 0.068125
Si Si2 0.230152 0.088906 0.832709
Si Si3 0.397807 0.260071 0.400612
O O1 0.438933 0.235574 0.253209
O O2 0.404110 0.500000 0.000000
O O3 0.500000 0.248925 0.000000
O O4 0.403264 0.000000 0.000000
O O5 0.266752 0.335662 0.776710
O O6 0.165339 0.183872 0.839635
O O7 0.252990 0.000000 0.000000
O O8 0.420934 0.500000 0.500000
O O9 0.399761 0.000000 0.500000
#
# Coordination Sequence:
#
# PCOD8164039 Si02
#       3
#     8   8   8
#     4  10  22  42  63  91 123 157 208 263 312 372
#     4  11  23  40  61  92 128 167 211 256 308 373
#     4  11  23  42  64  91 127 168 209 257 313 375
#
# _framework density 22.892507999999999
#
# number of rings (size 3 to 8) (size 9 to 14) (size 15 to 20)
#    0.000    1.333    0.000    7.000    0.000    4.000 
#    0.000   20.000    0.000    0.000    0.000    0.000 
#    0.000    0.000    0.000    0.000    0.000    0.000 
#
# Total GULP energy -148768.767672 kJ/mol
# GULP energy per Si atom -12397.397306 kJ/mol
# Density = 2.284040 g / cm^3
# Si number density = 22.892508 Si / 1000 Ang^3
#
#
#
# Elastic Constant Matrix: (Units=GPa)
#
#
# Indices 1 2 3 4 5 6 
#
# 1 50.7138 34.8052 64.7750 0.0000 0.0000 0.0000
# 2 34.8052 264.4924 114.0675 0.0000 0.0000 0.0000
# 3 64.7750 114.0675 213.5419 0.0000 0.0000 0.0000
# 4 0.0000 0.0000 0.0000 66.9526 0.0000 0.0000
# 5 0.0000 0.0000 0.0000 0.0000 33.8213 0.0000
# 6 0.0000 0.0000 0.0000 0.0000 0.0000 1.6060
#
#
#
# Elastic Compliance Matrix: (Units=1/GPa)
#
#
# Indices 1 2 3 4 5 6 
#
# 1 0.032191 -0.000032 -0.009747 0.000000 0.000000 0.000000
# 2 -0.000032 0.004913 -0.002614 0.000000 0.000000 0.000000
# 3 -0.009747 -0.002614 0.009036 0.000000 0.000000 0.000000
# 4 0.000000 0.000000 0.000000 0.014936 0.000000 0.000000
# 5 0.000000 0.000000 0.000000 0.000000 0.029567 0.000000
# 6 0.000000 0.000000 0.000000 0.000000 0.000000 0.622680
#
#
# Mechanical properties :
#
#
# Convention : Reuss Voigt Hill
#
# Bulk Modulus (GPa) = 46.83549 106.22707 76.53128
# Shear Modulus (GPa) = 6.70936 41.48268 24.09602
#
# Velocity S-wave (km/s) = 1.71382 4.26145 3.24786
# Velocity P-wave (km/s) = 4.94161 8.40931 6.89696
#
# Compressibility (1/GPa) = 0.02135133
#
# Stress axis : x y z
#
# Youngs Moduli (GPa) = 31.06504 203.55968 110.66696
#
# Poissons Ratio (x) = 0.00658 1.07870
# Poissons Ratio (y) = 0.00100 0.28932
# Poissons Ratio (z) = 0.30280 0.53217
#
# Static dielectric constant tensor:
#      x y z
#    x 3.586810 0.000000 0.000000 
#    y 0.000000 1.617820 0.000000 
#    z 0.000000 0.000000 4.345110 
# 
# 
# High freq. dielectric constant tensor:
#      x y z
#    x 1.865980 0.000000 0.000000 
#    y 0.000000 1.944660 0.000000 
#    z 0.000000 0.000000 1.917660 
# 
# From -- ./inp_files/4160.got.cif
#   From: 2010.03.12/outbox.cif.g09.slc.cpg/sg23_3_cif.got.tgz:4160.got - 2010.04.14 02:50:06.
