data_PCOD8164710
_publ_section_title
;
Structure prediction by ZEFSAII (Michael W. Deem and Ramdas Pophale) SiO2 
 PCOD8164710
Probable space group: I 21 21 21
;
_chemical_formula_sum "Si O2"
_cell_formula_units_Z 56
_cell_length_a 9.732769
_cell_length_b 13.452338
_cell_length_c 26.632188
_cell_angle_alpha 90.000000
_cell_angle_beta 90.000000
_cell_angle_gamma 90.000000
_cell_volume 3486.912380
_symmetry_space_group_name_H-M "I 21 21 21"
_symmetry_group_IT_number 24
_symmetry_cell_setting 'orthorhombic'
loop_
_space_group_symop_operation_xyz
x,y,z
-x,1/2-y,z
x,-y,1/2-z
1/2-x,y,-z
1/2+x,1/2+y,1/2+z
1/2-x,-y,1/2+z
1/2+x,1/2-y,-z
-x,1/2+y,1/2-z
loop_
_atom_site_type_symbol
_atom_site_label
_atom_site_fract_x
_atom_site_fract_y
_atom_site_fract_z
Si Si1 0.750000 0.931555 0.799214
Si Si2 0.250000 0.197016 0.710663
Si Si3 0.041557 0.056504 0.655315
Si Si4 0.092330 0.156089 0.443558
Si Si5 0.749999 0.571651 0.297666
Si Si6 0.958444 0.443496 0.344685
Si Si7 0.907670 0.343911 0.556441
O O1 0.749999 0.814452 0.790252
O O2 0.616380 0.956708 0.831302
O O3 0.883620 0.956706 0.831303
O O4 0.750003 0.000000 0.750000
O O5 0.114728 0.149731 0.683915
O O6 0.250000 0.179308 0.771579
O O7 0.385273 0.149731 0.683916
O O8 0.055649 0.069287 0.595424
O O9 0.114910 0.952280 0.669510
O O10 0.055648 0.069287 0.404576
O O11 0.062163 0.117425 0.500000
O O12 0.250000 0.189512 0.437634
O O13 0.000000 0.250000 0.429866
O O14 0.749997 0.500000 0.250000
O O15 0.885089 0.547719 0.330489
O O16 0.000000 0.250000 0.570134
#
# Coordination Sequence:
#
# PCOD8164710 Si02
#       7
#     8   8   8   8   8   8   8
#     4  12  22  30  45  70  94 118 157 192 229 280
#     4  10  18  32  48  61  90 124 154 185 232 274
#     4  10  19  31  46  66  91 124 154 189 224 270
#     4  10  19  30  45  67  94 124 159 192 227 275
#     4   8  16  32  46  61  85 120 155 187 226 266
#     4  10  19  31  46  66  91 124 154 189 224 270
#     4  10  19  30  45  67  94 124 159 192 227 275
#
# _framework density 16.060054000000001
#
# number of rings (size 3 to 8) (size 9 to 14) (size 15 to 20)
#    0.000    2.286    2.857    5.143    2.000    0.000 
#    0.000    0.000    0.000    0.000    0.000    0.000 
#    0.000    6.857    0.000    0.000    0.000    0.000 
#
# Total GULP energy -346967.472941 kJ/mol
# GULP energy per Si atom -12391.695462 kJ/mol
# Density = 1.602350 g / cm^3
# Si number density = 16.060054 Si / 1000 Ang^3
#
#
#
# Elastic Constant Matrix: (Units=GPa)
#
#
# Indices 1 2 3 4 5 6 
#
# 1 133.1185 14.5213 43.8977 0.0000 0.0000 0.0000
# 2 14.5213 25.0380 21.0624 0.0000 0.0000 0.0000
# 3 43.8977 21.0624 117.1502 0.0000 0.0000 0.0000
# 4 0.0000 0.0000 0.0000 22.4468 0.0000 0.0000
# 5 0.0000 0.0000 0.0000 0.0000 26.3654 0.0000
# 6 0.0000 0.0000 0.0000 0.0000 0.0000 11.8768
#
#
#
# Elastic Compliance Matrix: (Units=1/GPa)
#
#
# Indices 1 2 3 4 5 6 
#
# 1 0.008726 -0.002722 -0.002780 0.000000 0.000000 0.000000
# 2 -0.002722 0.047905 -0.007593 0.000000 0.000000 0.000000
# 3 -0.002780 -0.007593 0.010943 0.000000 0.000000 0.000000
# 4 0.000000 0.000000 0.000000 0.044550 0.000000 0.000000
# 5 0.000000 0.000000 0.000000 0.000000 0.037929 0.000000
# 6 0.000000 0.000000 0.000000 0.000000 0.000000 0.084198
#
#
# Mechanical properties :
#
#
# Convention : Reuss Voigt Hill
#
# Bulk Modulus (GPa) = 24.16406 48.25217 36.20812
# Shear Modulus (GPa) = 18.23253 25.19282 21.71267
#
# Velocity S-wave (km/s) = 3.37304 3.96493 3.68090
# Velocity P-wave (km/s) = 5.49987 7.14640 6.37650
#
# Compressibility (1/GPa) = 0.04138377
#
# Stress axis : x y z
#
# Youngs Moduli (GPa) = 114.60164 20.87457 91.38257
#
# Poissons Ratio (x) = 0.05682 0.25407
# Poissons Ratio (y) = 0.31193 0.69386
# Poissons Ratio (z) = 0.31863 0.15850
#
# Static dielectric constant tensor:
#      x y z
#    x 2.923210 0.000000 0.000000 
#    y 0.000000 3.091870 0.000000 
#    z 0.000000 0.000000 3.410080 
# 
# 
# High freq. dielectric constant tensor:
#      x y z
#    x 1.635260 0.000000 0.000000 
#    y 0.000000 1.563340 0.000000 
#    z 0.000000 0.000000 1.617580 
# 
# From -- ./inp_files/38451.got.cif
#   From: 2010.03.12/outbox.cif.g09.slc.cpg/sg24_20_cif.got.tgz:38451.got - 2010.04.14 03:06:53.
