data_PCOD8164210
_publ_section_title
;
Structure prediction by ZEFSAII (Michael W. Deem and Ramdas Pophale) SiO2 
 PCOD8164210
Probable space group: I 2 2 2
;
_chemical_formula_sum "Si O2"
_cell_formula_units_Z 40
_cell_length_a 8.214618
_cell_length_b 15.051098
_cell_length_c 14.450237
_cell_angle_alpha 90.000000
_cell_angle_beta 90.000000
_cell_angle_gamma 90.000000
_cell_volume 1786.613149
_symmetry_space_group_name_H-M "I 2 2 2"
_symmetry_group_IT_number 23
_symmetry_cell_setting 'orthorhombic'
loop_
_space_group_symop_operation_xyz
x,y,z
-x,-y,z
x,-y,-z
-x,y,-z
1/2+x,1/2+y,1/2+z
1/2-x,1/2-y,1/2+z
1/2+x,1/2-y,1/2-z
1/2-x,1/2+y,1/2-z
loop_
_atom_site_type_symbol
_atom_site_label
_atom_site_fract_x
_atom_site_fract_y
_atom_site_fract_z
Si Si1 0.832459 0.834160 0.844687
Si Si2 0.186397 0.991647 0.281155
Si Si3 0.196213 0.185063 0.219675
Si Si4 0.818770 0.413617 0.957586
Si Si5 0.182065 0.724680 0.475695
O O1 0.804353 0.936193 0.814500
O O2 0.715451 0.763426 0.793916
O O3 0.802933 0.828271 0.955041
O O4 0.014111 0.807795 0.817807
O O5 0.306183 0.934311 0.347980
O O6 0.248886 0.091768 0.266100
O O7 0.000000 0.000000 0.317443
O O8 0.306545 0.196141 0.130049
O O9 0.731243 0.500000 0.000000
O O10 0.715926 0.328958 0.986301
O O11 0.000000 0.403837 0.000000
O O12 0.000000 0.701376 0.500000
#
# Coordination Sequence:
#
# PCOD8164210 Si02
#       5
#     8   8   8   8   8
#     4  11  23  43  69 100 136 183 233 284 349 412
#     4  10  24  43  71 101 137 185 228 284 352 417
#     4  11  23  45  69  99 140 181 231 286 343 422
#     4  11  24  42  66 105 134 173 233 288 346 402
#     4  12  26  43  67 101 139 185 227 288 350 416
#
# _framework density 22.388729000000001
#
# number of rings (size 3 to 8) (size 9 to 14) (size 15 to 20)
#    0.000    1.000    2.000    4.200    5.600    2.400 
#    7.200    4.000    0.000    0.000    0.000    0.000 
#    0.000    0.000    0.000    0.000    0.000    0.000 
#
# Total GULP energy -247939.872269 kJ/mol
# GULP energy per Si atom -12396.993613 kJ/mol
# Density = 2.233777 g / cm^3
# Si number density = 22.388729 Si / 1000 Ang^3
#
#
#
# Elastic Constant Matrix: (Units=GPa)
#
#
# Indices 1 2 3 4 5 6 
#
# 1 61.1104 16.0335 3.6499 0.0000 0.0000 0.0000
# 2 16.0335 95.9173 5.5331 0.0000 0.0000 0.0000
# 3 3.6499 5.5331 77.0289 0.0000 0.0000 0.0000
# 4 0.0000 0.0000 0.0000 41.3837 0.0000 0.0000
# 5 0.0000 0.0000 0.0000 0.0000 40.0646 0.0000
# 6 0.0000 0.0000 0.0000 0.0000 0.0000 17.3072
#
#
#
# Elastic Compliance Matrix: (Units=1/GPa)
#
#
# Indices 1 2 3 4 5 6 
#
# 1 0.017143 -0.002830 -0.000609 0.000000 0.000000 0.000000
# 2 -0.002830 0.010936 -0.000651 0.000000 0.000000 0.000000
# 3 -0.000609 -0.000651 0.013058 0.000000 0.000000 0.000000
# 4 0.000000 0.000000 0.000000 0.024164 0.000000 0.000000
# 5 0.000000 0.000000 0.000000 0.000000 0.024960 0.000000
# 6 0.000000 0.000000 0.000000 0.000000 0.000000 0.057779
#
#
# Mechanical properties :
#
#
# Convention : Reuss Voigt Hill
#
# Bulk Modulus (GPa) = 30.34422 31.60996 30.97709
# Shear Modulus (GPa) = 29.90305 33.67378 31.78842
#
# Velocity S-wave (km/s) = 3.65859 3.88242 3.77216
# Velocity P-wave (km/s) = 5.60623 5.85208 5.73048
#
# Compressibility (1/GPa) = 0.03295520
#
# Stress axis : x y z
#
# Youngs Moduli (GPa) = 58.33344 91.43809 76.58259
#
# Poissons Ratio (x) = 0.25881 0.04664
# Poissons Ratio (y) = 0.16511 0.04989
# Poissons Ratio (z) = 0.03552 0.05957
#
# Static dielectric constant tensor:
#      x y z
#    x 3.893640 0.000000 0.000000 
#    y 0.000000 4.177100 0.000000 
#    z 0.000000 0.000000 4.338260 
# 
# 
# High freq. dielectric constant tensor:
#      x y z
#    x 1.875940 0.000000 0.000000 
#    y 0.000000 1.888640 0.000000 
#    z 0.000000 0.000000 1.886980 
# 
# From -- ./inp_files/9597.got.cif
#   From: 2010.03.12/outbox.cif.g09.slc.cpg/sg23_5_cif.got.tgz:9597.got - 2010.04.14 02:50:06.
