data_PCOD8164502
_publ_section_title
;
Structure prediction by ZEFSAII (Michael W. Deem and Ramdas Pophale) SiO2 
 PCOD8164502
Probable space group: I 2 2 2
;
_chemical_formula_sum "Si O2"
_cell_formula_units_Z 40
_cell_length_a 8.688491
_cell_length_b 14.088585
_cell_length_c 14.659882
_cell_angle_alpha 90.000000
_cell_angle_beta 90.000000
_cell_angle_gamma 90.000000
_cell_volume 1794.494810
_symmetry_space_group_name_H-M "I 2 2 2"
_symmetry_group_IT_number 23
_symmetry_cell_setting 'orthorhombic'
loop_
_space_group_symop_operation_xyz
x,y,z
-x,-y,z
x,-y,-z
-x,y,-z
1/2+x,1/2+y,1/2+z
1/2-x,1/2-y,1/2+z
1/2+x,1/2-y,1/2-z
1/2-x,1/2+y,1/2-z
loop_
_atom_site_type_symbol
_atom_site_label
_atom_site_fract_x
_atom_site_fract_y
_atom_site_fract_z
Si Si1 0.370582 0.656383 0.821425
Si Si2 0.500000 0.371762 0.500000
Si Si3 0.000000 0.244676 0.500000
Si Si4 0.147305 0.823874 0.816432
Si Si5 0.688751 0.917167 0.938429
Si Si6 0.831343 0.494966 0.749555
O O1 0.235152 0.727708 0.793770
O O2 0.499259 0.664668 0.745251
O O3 0.293660 0.550928 0.818842
O O4 0.444563 0.675605 0.919694
O O5 0.597221 0.315414 0.422820
O O6 0.374328 0.431656 0.443050
O O7 0.141095 0.312532 0.472062
O O8 0.267368 0.908370 0.794850
O O9 0.636167 0.924179 0.834591
O O10 0.612305 0.000000 0.000000
O O11 0.000000 0.500000 0.798413
#
# Coordination Sequence:
#
# PCOD8164502 Si02
#       6
#     8   4   4   8   8   8
#     4  12  26  44  69  98 142 180 231 279 337 410
#     4  12  23  38  66 104 147 168 214 283 362 404
#     4  12  25  44  61 100 134 186 230 274 326 404
#     4  12  25  45  71 105 138 179 224 285 349 413
#     4  12  21  38  68 101 140 171 213 284 358 410
#     4  12  25  44  70 102 138 176 225 286 350 408
#
# _framework density 22.290395
#
# number of rings (size 3 to 8) (size 9 to 14) (size 15 to 20)
#    0.000    0.000    6.000    6.000    0.000    0.000 
#    0.000    2.000    0.000    1.200    0.000    0.000 
#    0.000    0.000    0.000    0.000    0.000    0.000 
#
# Total GULP energy -247909.862063 kJ/mol
# GULP energy per Si atom -12395.493103 kJ/mol
# Density = 2.223966 g / cm^3
# Si number density = 22.290395 Si / 1000 Ang^3
#
#
#
# Elastic Constant Matrix: (Units=GPa)
#
#
# Indices 1 2 3 4 5 6 
#
# 1 139.7422 19.7854 24.6314 0.0000 0.0000 0.0000
# 2 19.7854 52.2356 31.8006 0.0000 0.0000 0.0000
# 3 24.6314 31.8006 91.8127 0.0000 0.0000 0.0000
# 4 0.0000 0.0000 0.0000 34.3572 0.0000 0.0000
# 5 0.0000 0.0000 0.0000 0.0000 27.0073 0.0000
# 6 0.0000 0.0000 0.0000 0.0000 0.0000 42.4774
#
#
#
# Elastic Compliance Matrix: (Units=1/GPa)
#
#
# Indices 1 2 3 4 5 6 
#
# 1 0.007689 -0.002099 -0.001336 0.000000 0.000000 0.000000
# 2 -0.002099 0.024833 -0.008038 0.000000 0.000000 0.000000
# 3 -0.001336 -0.008038 0.014034 0.000000 0.000000 0.000000
# 4 0.000000 0.000000 0.000000 0.029106 0.000000 0.000000
# 5 0.000000 0.000000 0.000000 0.000000 0.037027 0.000000
# 6 0.000000 0.000000 0.000000 0.000000 0.000000 0.023542
#
#
# Mechanical properties :
#
#
# Convention : Reuss Voigt Hill
#
# Bulk Modulus (GPa) = 42.35511 48.46948 45.41229
# Shear Modulus (GPa) = 29.93193 34.60658 32.26925
#
# Velocity S-wave (km/s) = 3.66842 3.94449 3.80896
# Velocity P-wave (km/s) = 6.08160 6.52205 6.30567
#
# Compressibility (1/GPa) = 0.02360990
#
# Stress axis : x y z
#
# Youngs Moduli (GPa) = 130.06156 40.26972 71.25493
#
# Poissons Ratio (x) = 0.08453 0.09517
# Poissons Ratio (y) = 0.27302 0.57274
# Poissons Ratio (z) = 0.17372 0.32369
#
# Static dielectric constant tensor:
#      x y z
#    x 4.292920 0.000000 0.000000 
#    y 0.000000 3.887710 0.000000 
#    z 0.000000 0.000000 3.856110 
# 
# 
# High freq. dielectric constant tensor:
#      x y z
#    x 1.915490 0.000000 0.000000 
#    y 0.000000 1.852950 0.000000 
#    z 0.000000 0.000000 1.860390 
# 
# From -- ./inp_files/9641.got.cif
#   From: 2010.03.12/outbox.cif.g09.slc.cpg/sg23_5_cif.got.tgz:9641.got - 2010.04.14 02:50:06.
