data_PCOD8164906
_publ_section_title
;
Structure prediction by ZEFSAII (Michael W. Deem and Ramdas Pophale) SiO2 
 PCOD8164906
Probable space group: I 21 21 21
;
_chemical_formula_sum "Si O2"
_cell_formula_units_Z 64
_cell_length_a 9.049830
_cell_length_b 18.863399
_cell_length_c 19.631229
_cell_angle_alpha 90.000000
_cell_angle_beta 90.000000
_cell_angle_gamma 90.000000
_cell_volume 3351.257982
_symmetry_space_group_name_H-M "I 21 21 21"
_symmetry_group_IT_number 24
_symmetry_cell_setting 'orthorhombic'
loop_
_space_group_symop_operation_xyz
x,y,z
-x,1/2-y,z
x,-y,1/2-z
1/2-x,y,-z
1/2+x,1/2+y,1/2+z
1/2-x,-y,1/2+z
1/2+x,1/2-y,-z
-x,1/2+y,1/2-z
loop_
_atom_site_type_symbol
_atom_site_label
_atom_site_fract_x
_atom_site_fract_y
_atom_site_fract_z
Si Si1 0.481463 0.558525 0.466143
Si Si2 0.113343 0.687265 0.194852
Si Si3 0.520106 0.536024 0.818222
Si Si4 0.669101 0.776305 0.663305
Si Si5 0.361705 0.199903 0.061118
Si Si6 0.814306 0.069373 0.104213
Si Si7 0.390745 0.930170 0.964604
Si Si8 0.880598 0.189318 0.450884
O O1 0.585272 0.619316 0.434928
O O2 0.414558 0.579860 0.538329
O O3 0.349409 0.540467 0.413580
O O4 0.587600 0.492741 0.480643
O O5 0.033334 0.612319 0.208798
O O6 0.215434 0.710630 0.257926
O O7 0.198591 0.682135 0.123087
O O8 0.000000 0.750000 0.182569
O O9 0.594049 0.500000 0.750000
O O10 0.384174 0.485623 0.841966
O O11 0.629533 0.545893 0.884384
O O12 0.500000 0.750000 0.657639
O O13 0.778030 0.717833 0.631653
O O14 0.697424 0.851011 0.629222
O O15 0.500000 0.250000 0.048410
O O16 0.250000 0.213895 0.000000
O O17 0.539115 0.884198 0.968026
O O18 0.250000 0.890565 0.000000
O O19 0.750000 0.207640 0.500000
O O20 0.000000 0.250000 0.455862
#
# Coordination Sequence:
#
# PCOD8164906 Si02
#       8
#     8   8   8   8   8   8   8   8
#     4  10  21  34  53  84 118 154 202 247 290 343
#     4   9  20  37  57  90 115 145 199 249 295 372
#     4  10  19  35  62  85 115 164 208 246 305 363
#     4  11  21  35  55  81 116 157 199 246 289 345
#     4  12  22  34  52  79 120 165 204 240 285 336
#     4  10  19  34  56  84 115 153 209 254 284 346
#     4  10  22  37  59  90 125 153 200 258 298 363
#     4  10  21  39  68  93 116 148 191 250 319 376
#
# _framework density 19.097307000000001
#
# number of rings (size 3 to 8) (size 9 to 14) (size 15 to 20)
#    0.000    1.750    2.500    2.625    5.250    1.000 
#    0.000    0.625    0.000    2.250    0.000    0.000 
#    0.000    0.000    0.000    0.000    0.000    0.000 
#
# Total GULP energy -396471.733552 kJ/mol
# GULP energy per Si atom -12389.741674 kJ/mol
# Density = 1.905384 g / cm^3
# Si number density = 19.097307 Si / 1000 Ang^3
#
#
#
# Elastic Constant Matrix: (Units=GPa)
#
#
# Indices 1 2 3 4 5 6 
#
# 1 73.9200 12.0407 46.1317 0.0000 0.0000 0.0000
# 2 12.0407 91.2510 29.0556 0.0000 0.0000 0.0000
# 3 46.1317 29.0556 116.5552 0.0000 0.0000 0.0000
# 4 0.0000 0.0000 0.0000 28.3625 0.0000 0.0000
# 5 0.0000 0.0000 0.0000 0.0000 -11.3536 0.0000
# 6 0.0000 0.0000 0.0000 0.0000 0.0000 23.7176
#
#
#
# Elastic Compliance Matrix: (Units=1/GPa)
#
#
# Indices 1 2 3 4 5 6 
#
# 1 0.017967 -0.000116 -0.007082 0.000000 0.000000 0.000000
# 2 -0.000116 0.011904 -0.002922 0.000000 0.000000 0.000000
# 3 -0.007082 -0.002922 0.012111 0.000000 0.000000 0.000000
# 4 0.000000 0.000000 0.000000 0.035258 0.000000 0.000000
# 5 0.000000 0.000000 0.000000 0.000000 -0.088078 0.000000
# 6 0.000000 0.000000 0.000000 0.000000 0.000000 0.042163
#
#
# Mechanical properties :
#
#
# Convention : Reuss Voigt Hill
#
# Bulk Modulus (GPa) = 45.99221 50.68690 48.33956
# Shear Modulus (GPa) = 85.01620 21.11186 53.06403
#
# Velocity S-wave (km/s) = 6.67937 3.32850 5.27697
# Velocity P-wave (km/s) = 9.14444 6.43202 7.90543
#
# Compressibility (1/GPa) = 0.02174281
#
# Stress axis : x y z
#
# Youngs Moduli (GPa) = 55.65796 84.00257 82.56870
#
# Poissons Ratio (x) = 0.00971 0.58478
# Poissons Ratio (y) = 0.00644 0.24125
# Poissons Ratio (z) = 0.39419 0.24544
#
# Static dielectric constant tensor:
#      x y z
#    x 3.316700 0.000000 0.000000 
#    y 0.000000 3.793090 0.000000 
#    z 0.000000 0.000000 3.932010 
# 
# 
# High freq. dielectric constant tensor:
#      x y z
#    x 1.707360 0.000000 0.000000 
#    y 0.000000 1.759240 0.000000 
#    z 0.000000 0.000000 1.749490 
# 
# From -- ./inp_files/32951.got.cif
#   From: 2010.03.12/outbox.cif.g09.slc.cpg/sg24_17_cif.got.tgz:32951.got - 2010.04.14 03:06:53.
