data_PCOD8164800
_publ_section_title
;
Structure prediction by ZEFSAII (Michael W. Deem and Ramdas Pophale) SiO2 
 PCOD8164800
Probable space group: I 21 21 21
;
_chemical_formula_sum "Si O2"
_cell_formula_units_Z 48
_cell_length_a 19.086306
_cell_length_b 14.325853
_cell_length_c 8.876354
_cell_angle_alpha 90.000000
_cell_angle_beta 90.000000
_cell_angle_gamma 90.000000
_cell_volume 2427.040296
_symmetry_space_group_name_H-M "I 21 21 21"
_symmetry_group_IT_number 24
_symmetry_cell_setting 'orthorhombic'
loop_
_space_group_symop_operation_xyz
x,y,z
-x,1/2-y,z
x,-y,1/2-z
1/2-x,y,-z
1/2+x,1/2+y,1/2+z
1/2-x,-y,1/2+z
1/2+x,1/2-y,-z
-x,1/2+y,1/2-z
loop_
_atom_site_type_symbol
_atom_site_label
_atom_site_fract_x
_atom_site_fract_y
_atom_site_fract_z
Si Si1 0.802481 0.072915 0.633917
Si Si2 0.796152 0.729600 0.781733
Si Si3 0.090038 0.559860 0.101788
Si Si4 0.928305 0.452540 0.403584
Si Si5 0.817167 0.555415 0.602986
Si Si6 0.852859 0.268606 0.392551
O O1 0.750000 0.106598 0.500000
O O2 0.820527 0.162590 0.737226
O O3 0.868292 0.026030 0.548139
O O4 0.768180 0.000000 0.750000
O O5 0.829925 0.664143 0.651655
O O6 0.711173 0.722704 0.773914
O O7 0.824296 0.701252 0.944479
O O8 0.110622 0.500000 0.250000
O O9 0.110717 0.667990 0.125074
O O10 0.010030 0.542954 0.057738
O O11 0.908129 0.500000 0.250000
O O12 0.886254 0.507777 0.533393
O O13 0.911938 0.345134 0.367396
O O14 0.794777 0.500000 0.750000
O O15 0.750000 0.546611 0.500000
#
# Coordination Sequence:
#
# PCOD8164800 Si02
#       6
#     8   8   8   8   8   8
#     4  11  22  40  66  90 119 159 207 266 320 382
#     4  10  20  36  60  90 117 153 208 253 309 370
#     4  10  22  41  65  91 121 167 213 260 315 381
#     4  11  23  39  61  91 128 169 210 253 317 385
#     4  12  23  37  61  93 128 164 204 262 314 377
#     4  10  18  38  63  87 119 161 208 251 306 381
#
# _framework density 19.777173999999999
#
# number of rings (size 3 to 8) (size 9 to 14) (size 15 to 20)
#    0.000    1.333    5.000    3.500    0.000    1.333 
#    3.000    0.000    0.000    0.000    0.000    0.000 
#    0.000    0.000    0.000    0.000    0.000    0.000 
#
# Total GULP energy -297380.398140 kJ/mol
# GULP energy per Si atom -12390.849922 kJ/mol
# Density = 1.973216 g / cm^3
# Si number density = 19.777174 Si / 1000 Ang^3
#
#
#
# Elastic Constant Matrix: (Units=GPa)
#
#
# Indices 1 2 3 4 5 6 
#
# 1 89.7712 44.2897 46.6141 0.0000 0.0000 0.0000
# 2 44.2897 127.5444 61.7932 0.0000 0.0000 0.0000
# 3 46.6141 61.7932 85.6832 0.0000 0.0000 0.0000
# 4 0.0000 0.0000 0.0000 43.9744 0.0000 0.0000
# 5 0.0000 0.0000 0.0000 0.0000 26.3738 0.0000
# 6 0.0000 0.0000 0.0000 0.0000 0.0000 35.0533
#
#
#
# Elastic Compliance Matrix: (Units=1/GPa)
#
#
# Indices 1 2 3 4 5 6 
#
# 1 0.015863 -0.002040 -0.007159 0.000000 0.000000 0.000000
# 2 -0.002040 0.012313 -0.007770 0.000000 0.000000 0.000000
# 3 -0.007159 -0.007770 0.021169 0.000000 0.000000 0.000000
# 4 0.000000 0.000000 0.000000 0.022741 0.000000 0.000000
# 5 0.000000 0.000000 0.000000 0.000000 0.037916 0.000000
# 6 0.000000 0.000000 0.000000 0.000000 0.000000 0.028528
#
#
# Mechanical properties :
#
#
# Convention : Reuss Voigt Hill
#
# Bulk Modulus (GPa) = 64.90352 67.59921 66.25136
# Shear Modulus (GPa) = 28.15238 31.10042 29.62640
#
# Velocity S-wave (km/s) = 3.77699 3.96983 3.87461
# Velocity P-wave (km/s) = 7.20483 7.43420 7.32041
#
# Compressibility (1/GPa) = 0.01540749
#
# Stress axis : x y z
#
# Youngs Moduli (GPa) = 63.03915 81.21195 47.23840
#
# Poissons Ratio (x) = 0.16569 0.33816
# Poissons Ratio (y) = 0.12861 0.36706
# Poissons Ratio (z) = 0.45127 0.63104
#
# Static dielectric constant tensor:
#      x y z
#    x 3.657170 0.000000 0.000000 
#    y 0.000000 3.475870 0.000000 
#    z 0.000000 0.000000 3.504770 
# 
# 
# High freq. dielectric constant tensor:
#      x y z
#    x 1.762300 0.000000 0.000000 
#    y 0.000000 1.787130 0.000000 
#    z 0.000000 0.000000 1.757320 
# 
# From -- ./inp_files/14169.got.cif
#   From: 2010.03.12/outbox.cif.g09.slc.cpg/sg24_8_cif.got.tgz:14169.got - 2010.04.14 03:06:53.
