data_PCOD8164605
_publ_section_title
;
Structure prediction by ZEFSAII (Michael W. Deem and Ramdas Pophale) SiO2 
 PCOD8164605
Probable space group: I 21 21 21
;
_chemical_formula_sum "Si O2"
_cell_formula_units_Z 56
_cell_length_a 21.368337
_cell_length_b 7.553256
_cell_length_c 22.748190
_cell_angle_alpha 90.000000
_cell_angle_beta 90.000000
_cell_angle_gamma 90.000000
_cell_volume 3671.569687
_symmetry_space_group_name_H-M "I 21 21 21"
_symmetry_group_IT_number 24
_symmetry_cell_setting 'orthorhombic'
loop_
_space_group_symop_operation_xyz
x,y,z
-x,1/2-y,z
x,-y,1/2-z
1/2-x,y,-z
1/2+x,1/2+y,1/2+z
1/2-x,-y,1/2+z
1/2+x,1/2-y,-z
-x,1/2+y,1/2-z
loop_
_atom_site_type_symbol
_atom_site_label
_atom_site_fract_x
_atom_site_fract_y
_atom_site_fract_z
Si Si1 0.572000 0.298348 0.986306
Si Si2 0.927627 0.706215 0.250000
Si Si3 0.140883 0.205428 0.134298
Si Si4 0.724736 1.000000 0.907764
Si Si5 0.653549 0.000000 0.470343
Si Si6 0.640883 0.705427 0.865702
Si Si7 0.072000 0.201652 0.486306
O O1 0.500000 0.250000 0.990605
O O2 0.610590 0.175321 0.031237
O O3 0.583977 0.500000 0.005416
O O4 0.593593 0.264527 0.919610
O O5 0.918230 0.500000 0.250000
O O6 0.894609 0.781189 0.308379
O O7 0.894609 0.781189 0.191621
O O8 0.000000 0.750000 0.249999
O O9 0.203382 0.322331 0.126287
O O10 0.160857 0.000000 0.139862
O O11 0.800203 0.000000 0.913971
O O12 0.703382 0.822330 0.873713
O O13 0.694594 0.000000 0.971536
O O14 0.610590 0.175321 0.468763
O O15 0.593593 0.735473 0.919610
O O16 0.000000 0.250000 0.490605
#
# Coordination Sequence:
#
# PCOD8164605 Si02
#       7
#     8   8   8   8   8   8   8
#     4  10  17  27  43  62  87 114 144 180 220 260
#     4  10  20  30  42  64  90 116 152 188 219 251
#     4   9  19  30  42  61  85 117 150 185 217 250
#     4   9  18  31  46  56  82 115 151 185 216 261
#     4   9  18  30  42  64  80 109 151 184 218 259
#     4   9  19  30  42  61  85 117 150 185 217 250
#     4  10  17  27  43  62  87 114 144 180 220 260
#
# _framework density 15.252331999999999
#
# number of rings (size 3 to 8) (size 9 to 14) (size 15 to 20)
#    0.000    2.571    1.429    0.857    2.000    1.143 
#    0.000    5.714    0.000    0.000    0.000    0.000 
#    0.000    0.000    0.000    5.143    0.000    0.571 
#
# Total GULP energy -347122.797373 kJ/mol
# GULP energy per Si atom -12397.242763 kJ/mol
# Density = 1.521762 g / cm^3
# Si number density = 15.252332 Si / 1000 Ang^3
#
#
#
# Elastic Constant Matrix: (Units=GPa)
#
#
# Indices 1 2 3 4 5 6 
#
# 1 121.3113 65.5347 55.3504 0.0000 0.0000 0.0000
# 2 65.5347 107.4664 34.7851 0.0000 0.0000 0.0000
# 3 55.3504 34.7851 51.2134 0.0000 0.0000 0.0000
# 4 0.0000 0.0000 0.0000 13.9001 0.0000 0.0000
# 5 0.0000 0.0000 0.0000 0.0000 26.8312 0.0000
# 6 0.0000 0.0000 0.0000 0.0000 0.0000 25.3861
#
#
#
# Elastic Compliance Matrix: (Units=1/GPa)
#
#
# Indices 1 2 3 4 5 6 
#
# 1 0.019165 -0.006387 -0.016375 0.000000 0.000000 0.000000
# 2 -0.006387 0.014056 -0.002644 0.000000 0.000000 0.000000
# 3 -0.016375 -0.002644 0.039020 0.000000 0.000000 0.000000
# 4 0.000000 0.000000 0.000000 0.071942 0.000000 0.000000
# 5 0.000000 0.000000 0.000000 0.000000 0.037270 0.000000
# 6 0.000000 0.000000 0.000000 0.000000 0.000000 0.039392
#
#
# Mechanical properties :
#
#
# Convention : Reuss Voigt Hill
#
# Bulk Modulus (GPa) = 46.66671 65.70351 56.18511
# Shear Modulus (GPa) = 17.93403 21.51154 19.72279
#
# Velocity S-wave (km/s) = 3.43275 3.75957 3.59987
# Velocity P-wave (km/s) = 6.80988 7.87509 7.36178
#
# Compressibility (1/GPa) = 0.02142855
#
# Stress axis : x y z
#
# Youngs Moduli (GPa) = 52.17873 71.14446 25.62781
#
# Poissons Ratio (x) = 0.45438 0.41966
# Poissons Ratio (y) = 0.33325 0.06777
# Poissons Ratio (z) = 0.85443 0.18814
#
# Static dielectric constant tensor:
#      x y z
#    x 2.947870 0.000000 0.000000 
#    y 0.000000 3.312880 0.000000 
#    z 0.000000 0.000000 2.874190 
# 
# 
# High freq. dielectric constant tensor:
#      x y z
#    x 1.569790 0.000000 0.000000 
#    y 0.000000 1.603270 0.000000 
#    z 0.000000 0.000000 1.537900 
# 
# From -- ./inp_files/14632.got.cif
#   From: 2010.03.12/outbox.cif.g09.slc.cpg/sg24_8_cif.got.tgz:14632.got - 2010.04.14 03:06:53.
