data_PCOD8164208
_publ_section_title
;
Structure prediction by ZEFSAII (Michael W. Deem and Ramdas Pophale) SiO2 
 PCOD8164208
Probable space group: I 2 2 2
;
_chemical_formula_sum "Si O2"
_cell_formula_units_Z 26
_cell_length_a 6.833239
_cell_length_b 11.590373
_cell_length_c 15.037162
_cell_angle_alpha 90.000000
_cell_angle_beta 90.000000
_cell_angle_gamma 90.000000
_cell_volume 1190.940055
_symmetry_space_group_name_H-M "I 2 2 2"
_symmetry_group_IT_number 23
_symmetry_cell_setting 'orthorhombic'
loop_
_space_group_symop_operation_xyz
x,y,z
-x,-y,z
x,-y,-z
-x,y,-z
1/2+x,1/2+y,1/2+z
1/2-x,1/2-y,1/2+z
1/2+x,1/2-y,1/2-z
1/2-x,1/2+y,1/2-z
loop_
_atom_site_type_symbol
_atom_site_label
_atom_site_fract_x
_atom_site_fract_y
_atom_site_fract_z
Si Si1 0.500000 0.000000 0.500000
Si Si2 0.219731 0.978555 0.174773
Si Si3 0.175699 0.075575 0.627210
Si Si4 0.514697 0.181041 0.895893
O O1 0.638866 0.919322 0.560768
O O2 0.242240 0.984673 0.281142
O O3 0.299640 0.853917 0.141140
O O4 0.340803 0.078433 0.127982
O O5 0.000000 0.000000 0.143324
O O6 0.094154 0.202629 0.649140
O O7 0.000000 0.000000 0.584708
O O8 0.500000 0.202589 0.000000
#
# Coordination Sequence:
#
# PCOD8164208 Si02
#       4
#     2   8   8   8
#     4  12  22  44  68  98 144 188 222 280 368 404
#     4  10  24  43  69  97 134 182 229 280 352 415
#     4  11  26  43  67 103 138 181 236 288 346 430
#     4  11  24  44  67 101 141 171 234 296 337 420
#
# _framework density 21.831492000000001
#
# number of rings (size 3 to 8) (size 9 to 14) (size 15 to 20)
#    0.000    1.231    0.000    6.000    8.615    7.385 
#    0.000    0.000    0.000    0.000    0.000    0.000 
#    0.000    0.000    0.000    0.000    0.000    0.000 
#
# Total GULP energy -161210.386672 kJ/mol
# GULP energy per Si atom -12400.798975 kJ/mol
# Density = 2.178180 g / cm^3
# Si number density = 21.831492 Si / 1000 Ang^3
#
#
#
# Elastic Constant Matrix: (Units=GPa)
#
#
# Indices 1 2 3 4 5 6 
#
# 1 145.0407 35.4597 20.3595 0.0000 0.0000 0.0000
# 2 35.4597 103.7593 -9.6497 0.0000 0.0000 0.0000
# 3 20.3595 -9.6497 63.3253 0.0000 0.0000 0.0000
# 4 0.0000 0.0000 0.0000 25.6033 0.0000 0.0000
# 5 0.0000 0.0000 0.0000 0.0000 47.3093 0.0000
# 6 0.0000 0.0000 0.0000 0.0000 0.0000 32.2984
#
#
#
# Elastic Compliance Matrix: (Units=1/GPa)
#
#
# Indices 1 2 3 4 5 6 
#
# 1 0.008067 -0.003041 -0.003057 0.000000 0.000000 0.000000
# 2 -0.003041 0.010923 0.002642 0.000000 0.000000 0.000000
# 3 -0.003057 0.002642 0.017177 0.000000 0.000000 0.000000
# 4 0.000000 0.000000 0.000000 0.039058 0.000000 0.000000
# 5 0.000000 0.000000 0.000000 0.000000 0.021138 0.000000
# 6 0.000000 0.000000 0.000000 0.000000 0.000000 0.030961
#
#
# Mechanical properties :
#
#
# Convention : Reuss Voigt Hill
#
# Bulk Modulus (GPa) = 34.18255 44.94047 39.56151
# Shear Modulus (GPa) = 34.72528 38.77258 36.74893
#
# Velocity S-wave (km/s) = 3.99257 4.21883 4.10725
# Velocity P-wave (km/s) = 6.07829 6.66042 6.37600
#
# Compressibility (1/GPa) = 0.02925470
#
# Stress axis : x y z
#
# Youngs Moduli (GPa) = 123.95738 91.55175 58.21740
#
# Poissons Ratio (x) = 0.27844 0.17798
# Poissons Ratio (y) = 0.37699 -0.15382
# Poissons Ratio (z) = 0.37895 -0.24190
#
# Static dielectric constant tensor:
#      x y z
#    x 4.357640 0.000000 0.000000 
#    y 0.000000 3.944500 0.000000 
#    z 0.000000 0.000000 3.875690 
# 
# 
# High freq. dielectric constant tensor:
#      x y z
#    x 1.871100 0.000000 0.000000 
#    y 0.000000 1.850760 0.000000 
#    z 0.000000 0.000000 1.866730 
# 
# From -- ./inp_files/22882.got.cif
#   From: 2010.03.12/outbox.cif.g09.slc.cpg/sg23_12_cif.got.tgz:22882.got - 2010.04.14 02:50:06.
