data_PCOD8164795
_publ_section_title
;
Structure prediction by ZEFSAII (Michael W. Deem and Ramdas Pophale) SiO2 
 PCOD8164795
Probable space group: I 21 21 21
;
_chemical_formula_sum "Si O2"
_cell_formula_units_Z 48
_cell_length_a 7.124103
_cell_length_b 14.445881
_cell_length_c 20.356371
_cell_angle_alpha 90.000000
_cell_angle_beta 90.000000
_cell_angle_gamma 90.000000
_cell_volume 2094.954429
_symmetry_space_group_name_H-M "I 21 21 21"
_symmetry_group_IT_number 24
_symmetry_cell_setting 'orthorhombic'
loop_
_space_group_symop_operation_xyz
x,y,z
-x,1/2-y,z
x,-y,1/2-z
1/2-x,y,-z
1/2+x,1/2+y,1/2+z
1/2-x,-y,1/2+z
1/2+x,1/2-y,-z
-x,1/2+y,1/2-z
loop_
_atom_site_type_symbol
_atom_site_label
_atom_site_fract_x
_atom_site_fract_y
_atom_site_fract_z
Si Si1 0.250000 0.615749 0.000000
Si Si2 0.990555 0.075333 0.799630
Si Si3 0.071910 0.520817 0.317800
Si Si4 0.000000 0.250000 0.722545
Si Si5 0.467480 0.357612 0.929128
Si Si6 0.338607 0.680775 0.865135
Si Si7 0.555942 0.943902 0.443788
O O1 0.183563 0.686797 0.056258
O O2 0.410314 0.549110 0.031714
O O3 0.763276 0.073993 0.796964
O O4 0.058483 0.056868 0.875121
O O5 0.072310 0.171487 0.772477
O O6 0.075551 0.000000 0.750000
O O7 0.958932 0.500000 0.250000
O O8 0.948625 0.586643 0.366057
O O9 0.115163 0.426382 0.354891
O O10 0.156058 0.291656 0.675051
O O11 0.500000 0.250000 0.917609
O O12 0.249278 0.387737 0.931572
O O13 0.559270 0.389739 0.998752
O O14 0.500000 0.750000 0.841479
#
# Coordination Sequence:
#
# PCOD8164795 Si02
#       7
#     4   8   8   4   8   8   8
#     4  10  18  42  66  96 130 188 226 278 354 410
#     4  10  18  37  65  89 124 176 216 268 345 404
#     4  10  18  40  63  84 133 182 208 276 354 398
#     4  12  24  42  70 100 136 178 228 292 350 420
#     4   9  17  30  57  89 119 162 219 270 327 407
#     4  12  25  42  69 105 134 181 238 282 344 422
#     4   9  17  34  62  87 121 176 220 264 352 401
#
# _framework density 22.912194
#
# number of rings (size 3 to 8) (size 9 to 14) (size 15 to 20)
#    0.000    2.000    8.333    0.000    2.333    0.667 
#    0.000    0.833    0.000    6.000    0.000    0.000 
#    0.000    0.000    0.000    0.000    0.000    0.000 
#
# Total GULP energy -297360.347940 kJ/mol
# GULP energy per Si atom -12390.014497 kJ/mol
# Density = 2.286004 g / cm^3
# Si number density = 22.912194 Si / 1000 Ang^3
#
#
#
# Elastic Constant Matrix: (Units=GPa)
#
#
# Indices 1 2 3 4 5 6 
#
# 1 24.3661 8.2168 -1.7382 0.0000 0.0000 0.0000
# 2 8.2168 128.6175 65.0264 0.0000 0.0000 0.0000
# 3 -1.7382 65.0264 244.7132 0.0000 0.0000 0.0000
# 4 0.0000 0.0000 0.0000 39.8231 0.0000 0.0000
# 5 0.0000 0.0000 0.0000 0.0000 -4.0675 0.0000
# 6 0.0000 0.0000 0.0000 0.0000 0.0000 19.1902
#
#
#
# Elastic Compliance Matrix: (Units=1/GPa)
#
#
# Indices 1 2 3 4 5 6 
#
# 1 0.042235 -0.003292 0.001175 0.000000 0.000000 0.000000
# 2 -0.003292 0.009238 -0.002478 0.000000 0.000000 0.000000
# 3 0.001175 -0.002478 0.004753 0.000000 0.000000 0.000000
# 4 0.000000 0.000000 0.000000 0.025111 0.000000 0.000000
# 5 0.000000 0.000000 0.000000 0.000000 -0.245851 0.000000
# 6 0.000000 0.000000 0.000000 0.000000 0.000000 0.052110
#
#
# Mechanical properties :
#
#
# Convention : Reuss Voigt Hill
#
# Bulk Modulus (GPa) = 21.26075 60.07853 40.66964
# Shear Modulus (GPa) = -57.12026 32.73529 -12.19249
#
# Velocity S-wave (km/s) = -4.99842 3.78395 -2.30932
# Velocity P-wave (km/s) = 4.90029 6.73567 3.26774
#
# Compressibility (1/GPa) = 0.04703502
#
# Stress axis : x y z
#
# Youngs Moduli (GPa) = 23.67727 108.24564 210.38087
#
# Poissons Ratio (x) = 0.35636 -0.24715
# Poissons Ratio (y) = 0.07795 0.52137
# Poissons Ratio (z) = -0.02782 0.26826
#
# Static dielectric constant tensor:
#      x y z
#    x 3.364720 0.000000 0.000000 
#    y 0.000000 4.030110 0.000000 
#    z 0.000000 0.000000 5.457560 
# 
# 
# High freq. dielectric constant tensor:
#      x y z
#    x 1.839490 0.000000 0.000000 
#    y 0.000000 1.900710 0.000000 
#    z 0.000000 0.000000 1.946560 
# 
# From -- ./inp_files/32737.got.cif
#   From: 2010.03.12/outbox.cif.g09.slc.cpg/sg24_17_cif.got.tgz:32737.got - 2010.04.14 03:06:53.
