data_PCOD8164454
_publ_section_title
;
Structure prediction by ZEFSAII (Michael W. Deem and Ramdas Pophale) SiO2 
 PCOD8164454
Probable space group: I 2 2 2
;
_chemical_formula_sum "Si O2"
_cell_formula_units_Z 58
_cell_length_a 19.954481
_cell_length_b 8.466897
_cell_length_c 15.371254
_cell_angle_alpha 90.000000
_cell_angle_beta 90.000000
_cell_angle_gamma 90.000000
_cell_volume 2597.012334
_symmetry_space_group_name_H-M "I 2 2 2"
_symmetry_group_IT_number 23
_symmetry_cell_setting 'orthorhombic'
loop_
_space_group_symop_operation_xyz
x,y,z
-x,-y,z
x,-y,-z
-x,y,-z
1/2+x,1/2+y,1/2+z
1/2-x,1/2-y,1/2+z
1/2+x,1/2-y,1/2-z
1/2-x,1/2+y,1/2-z
loop_
_atom_site_type_symbol
_atom_site_label
_atom_site_fract_x
_atom_site_fract_y
_atom_site_fract_z
Si Si1 0.032409 0.670368 0.413824
Si Si2 0.557958 0.605526 0.237169
Si Si3 0.390037 0.840902 0.619641
Si Si4 0.309434 0.933604 0.261690
Si Si5 0.315750 0.893727 0.920755
Si Si6 0.738712 0.172235 0.523223
Si Si7 0.180028 0.100215 0.315648
Si Si8 0.500000 0.000000 0.500000
O O1 0.020510 0.781629 0.331680
O O2 0.109825 0.663089 0.437205
O O3 0.000000 0.500000 0.392892
O O4 0.000000 0.745832 0.500000
O O5 0.500000 0.500000 0.280204
O O6 0.591038 0.705791 0.312690
O O7 0.610544 0.493737 0.186485
O O8 0.329174 0.757243 0.566162
O O9 0.452968 0.888966 0.559789
O O10 0.364572 0.995577 0.672281
O O11 0.321360 0.746218 0.252423
O O12 0.313901 0.021498 0.170196
O O13 0.235130 0.968337 0.294331
O O14 0.262514 0.749823 0.931759
O O15 0.290506 0.000000 0.000000
O O16 0.802341 0.173224 0.589563
O O17 0.713626 0.000000 0.500000
#
# Coordination Sequence:
#
# PCOD8164454 Si02
#       8
#     8   8   8   8   8   8   8   2
#     4  11  25  45  69 104 151 196 247 288 354 436
#     4  12  29  45  70 105 148 195 244 298 360 442
#     4  11  27  51  75 107 137 189 249 302 372 437
#     4  11  25  45  78 104 146 189 240 306 360 442
#     4  12  23  42  70 106 145 193 236 292 360 428
#     4  11  24  43  72 107 145 182 240 302 355 433
#     4  11  25  45  70 108 144 191 238 296 367 423
#     4  12  28  52  86  96 134 196 248 308 376 436
#
# _framework density 22.333355999999998
#
# number of rings (size 3 to 8) (size 9 to 14) (size 15 to 20)
#    0.000    0.690    4.828    2.483   10.621    0.276 
#    0.000    0.345    0.000    0.000    0.000    0.000 
#    0.000    0.000    0.000    0.000    0.000    0.000 
#
# Total GULP energy -359535.364959 kJ/mol
# GULP energy per Si atom -12397.771205 kJ/mol
# Density = 2.228252 g / cm^3
# Si number density = 22.333356 Si / 1000 Ang^3
#
#
#
# Elastic Constant Matrix: (Units=GPa)
#
#
# Indices 1 2 3 4 5 6 
#
# 1 108.2588 45.8924 36.3877 0.0000 0.0000 0.0000
# 2 45.8924 97.9550 28.0202 0.0000 0.0000 0.0000
# 3 36.3877 28.0202 90.2307 0.0000 0.0000 0.0000
# 4 0.0000 0.0000 0.0000 15.8580 0.0000 0.0000
# 5 0.0000 0.0000 0.0000 0.0000 33.5272 0.0000
# 6 0.0000 0.0000 0.0000 0.0000 0.0000 71.6441
#
#
#
# Elastic Compliance Matrix: (Units=1/GPa)
#
#
# Indices 1 2 3 4 5 6 
#
# 1 0.012472 -0.004834 -0.003529 0.000000 0.000000 0.000000
# 2 -0.004834 0.013078 -0.002112 0.000000 0.000000 0.000000
# 3 -0.003529 -0.002112 0.013161 0.000000 0.000000 0.000000
# 4 0.000000 0.000000 0.000000 0.063060 0.000000 0.000000
# 5 0.000000 0.000000 0.000000 0.000000 0.029827 0.000000
# 6 0.000000 0.000000 0.000000 0.000000 0.000000 0.013958
#
#
# Mechanical properties :
#
#
# Convention : Reuss Voigt Hill
#
# Bulk Modulus (GPa) = 56.29749 57.44949 56.87349
# Shear Modulus (GPa) = 28.99809 36.61547 32.80678
#
# Velocity S-wave (km/s) = 3.60727 4.05346 3.83686
# Velocity P-wave (km/s) = 6.52782 6.90557 6.71935
#
# Compressibility (1/GPa) = 0.01776278
#
# Stress axis : x y z
#
# Youngs Moduli (GPa) = 80.17735 76.46686 75.97939
#
# Poissons Ratio (x) = 0.36964 0.26810
# Poissons Ratio (y) = 0.38758 0.16044
# Poissons Ratio (z) = 0.28292 0.16147
#
# Static dielectric constant tensor:
#      x y z
#    x 4.083260 0.000000 0.000000 
#    y 0.000000 3.932590 0.000000 
#    z 0.000000 0.000000 4.354560 
# 
# 
# High freq. dielectric constant tensor:
#      x y z
#    x 1.883450 0.000000 0.000000 
#    y 0.000000 1.879320 0.000000 
#    z 0.000000 0.000000 1.887970 
# 
# From -- ./inp_files/25091.got.cif
#   From: 2010.03.12/outbox.cif.g09.slc.cpg/sg23_13_cif.got.tgz:25091.got - 2010.04.14 02:50:06.
