data_PCOD8164535
_publ_section_title
;
Structure prediction by ZEFSAII (Michael W. Deem and Ramdas Pophale) SiO2 
 PCOD8164535
Probable space group: I 2 2 2
;
_chemical_formula_sum "Si O2"
_cell_formula_units_Z 48
_cell_length_a 14.361932
_cell_length_b 5.207535
_cell_length_c 27.905023
_cell_angle_alpha 90.000000
_cell_angle_beta 90.000000
_cell_angle_gamma 90.000000
_cell_volume 2087.024025
_symmetry_space_group_name_H-M "I 2 2 2"
_symmetry_group_IT_number 23
_symmetry_cell_setting 'orthorhombic'
loop_
_space_group_symop_operation_xyz
x,y,z
-x,-y,z
x,-y,-z
-x,y,-z
1/2+x,1/2+y,1/2+z
1/2-x,1/2-y,1/2+z
1/2+x,1/2-y,1/2-z
1/2-x,1/2+y,1/2-z
loop_
_atom_site_type_symbol
_atom_site_label
_atom_site_fract_x
_atom_site_fract_y
_atom_site_fract_z
Si Si1 0.384605 0.631548 0.045013
Si Si2 0.500000 0.000000 0.726546
Si Si3 0.000000 0.500000 0.392596
Si Si4 0.852713 0.134098 0.360777
Si Si5 0.144936 0.484714 0.145414
Si Si6 0.896361 0.005591 0.913709
Si Si7 0.235548 0.000000 0.000000
Si Si8 0.000000 0.000000 0.290822
O O1 0.466994 0.777398 0.072089
O O2 0.341633 0.437920 0.083571
O O3 0.298785 0.782038 0.022426
O O4 0.434411 0.500000 0.000000
O O5 0.593114 0.028819 0.695333
O O6 0.496393 0.749438 0.758782
O O7 0.089027 0.594380 0.360634
O O8 0.748000 0.122625 0.341317
O O9 0.911980 0.949768 0.326113
O O10 0.139977 0.743946 0.112679
O O11 0.093832 0.243763 0.122093
O O12 0.828413 0.094978 0.956269
O O13 0.000000 0.000000 0.935440
#
# Coordination Sequence:
#
# PCOD8164535 Si02
#       8
#     8   4   4   8   8   8   4   4
#     4  12  25  44  66 105 151 204 255 307 366 472
#     4  12  27  52  81 113 147 200 259 338 401 494
#     4  12  25  47  69 106 154 216 257 318 385 457
#     4  12  27  47  76 110 158 202 256 325 398 469
#     4  12  26  49  82 111 152 205 262 324 406 473
#     4  12  24  47  75 113 157 207 257 325 383 467
#     4  12  27  41  70 114 156 202 270 305 381 470
#     4  12  28  50  79 112 156 191 262 332 408 474
#
# _framework density 22.999258000000001
#
# number of rings (size 3 to 8) (size 9 to 14) (size 15 to 20)
#    0.000    0.000    5.000    4.750    0.000    6.333 
#    0.000    1.667    0.000    0.000    0.000    0.000 
#    0.000    0.000    0.000    0.000    0.000    0.000 
#
# Total GULP energy -297381.521486 kJ/mol
# GULP energy per Si atom -12390.896729 kJ/mol
# Density = 2.294691 g / cm^3
# Si number density = 22.999258 Si / 1000 Ang^3
#
#
#
# Elastic Constant Matrix: (Units=GPa)
#
#
# Indices 1 2 3 4 5 6 
#
# 1 167.4947 24.9093 56.9351 0.0000 0.0000 0.0000
# 2 24.9093 121.9889 47.7779 0.0000 0.0000 0.0000
# 3 56.9351 47.7779 137.3684 0.0000 0.0000 0.0000
# 4 0.0000 0.0000 0.0000 44.0739 0.0000 0.0000
# 5 0.0000 0.0000 0.0000 0.0000 56.3658 0.0000
# 6 0.0000 0.0000 0.0000 0.0000 0.0000 51.7566
#
#
#
# Elastic Compliance Matrix: (Units=1/GPa)
#
#
# Indices 1 2 3 4 5 6 
#
# 1 0.006961 -0.000337 -0.002768 0.000000 0.000000 0.000000
# 2 -0.000337 0.009507 -0.003167 0.000000 0.000000 0.000000
# 3 -0.002768 -0.003167 0.009528 0.000000 0.000000 0.000000
# 4 0.000000 0.000000 0.000000 0.022689 0.000000 0.000000
# 5 0.000000 0.000000 0.000000 0.000000 0.017741 0.000000
# 6 0.000000 0.000000 0.000000 0.000000 0.000000 0.019321
#
#
# Mechanical properties :
#
#
# Convention : Reuss Voigt Hill
#
# Bulk Modulus (GPa) = 74.33635 76.23294 75.28464
# Shear Modulus (GPa) = 48.64949 50.25457 49.45203
#
# Velocity S-wave (km/s) = 4.60419 4.67952 4.64201
# Velocity P-wave (km/s) = 7.78820 7.90032 7.84446
#
# Compressibility (1/GPa) = 0.01345237
#
# Stress axis : x y z
#
# Youngs Moduli (GPa) = 143.64936 105.19016 104.95041
#
# Poissons Ratio (x) = 0.03549 0.29050
# Poissons Ratio (y) = 0.04846 0.33234
# Poissons Ratio (z) = 0.39761 0.33310
#
# Static dielectric constant tensor:
#      x y z
#    x 4.294590 0.000000 0.000000 
#    y 0.000000 4.105830 0.000000 
#    z 0.000000 0.000000 3.835700 
# 
# 
# High freq. dielectric constant tensor:
#      x y z
#    x 1.929830 0.000000 0.000000 
#    y 0.000000 1.912280 0.000000 
#    z 0.000000 0.000000 1.912090 
# 
# From -- ./inp_files/2632.got.cif
#   From: 2010.03.12/outbox.cif.g09.slc.cpg/sg23_2_cif.got.tgz:2632.got - 2010.04.14 02:50:06.
