data_PCOD8164323
_publ_section_title
;
Structure prediction by ZEFSAII (Michael W. Deem and Ramdas Pophale) SiO2 
 PCOD8164323
Probable space group: I 2 2 2
;
_chemical_formula_sum "Si O2"
_cell_formula_units_Z 64
_cell_length_a 9.366538
_cell_length_b 18.577970
_cell_length_c 17.875461
_cell_angle_alpha 90.000000
_cell_angle_beta 90.000000
_cell_angle_gamma 90.000000
_cell_volume 3110.531527
_symmetry_space_group_name_H-M "I 2 2 2"
_symmetry_group_IT_number 23
_symmetry_cell_setting 'orthorhombic'
loop_
_space_group_symop_operation_xyz
x,y,z
-x,-y,z
x,-y,-z
-x,y,-z
1/2+x,1/2+y,1/2+z
1/2-x,1/2-y,1/2+z
1/2+x,1/2-y,1/2-z
1/2-x,1/2+y,1/2-z
loop_
_atom_site_type_symbol
_atom_site_label
_atom_site_fract_x
_atom_site_fract_y
_atom_site_fract_z
Si Si1 0.181442 0.673414 0.054655
Si Si2 0.407833 0.671661 0.572901
Si Si3 0.005191 0.585084 0.846877
Si Si4 0.643336 0.342507 0.315446
Si Si5 0.085223 0.659829 0.575598
Si Si6 0.921652 0.425090 0.309986
Si Si7 0.760863 0.310867 0.882032
Si Si8 0.560494 0.308444 0.147455
O O1 0.112330 0.744270 0.092484
O O2 0.076978 0.609472 0.077855
O O3 0.336408 0.653690 0.087227
O O4 0.192126 0.691559 0.967979
O O5 0.500000 0.656470 0.500000
O O6 0.495880 0.637452 0.642070
O O7 0.249896 0.637525 0.560555
O O8 0.937120 0.616118 0.769608
O O9 0.000000 0.500000 0.852428
O O10 0.160791 0.621333 0.844546
O O11 0.753415 0.410157 0.327549
O O12 0.709731 0.268041 0.347545
O O13 0.605744 0.332076 0.229447
O O14 0.076702 0.723187 0.636264
O O15 0.000000 0.681142 0.500000
O O16 0.007840 0.594831 0.615842
O O17 0.000000 0.500000 0.290846
O O18 0.598014 0.332894 0.871418
#
# Coordination Sequence:
#
# PCOD8164323 Si02
#       8
#     8   8   8   8   8   8   8   8
#     4  11  21  41  60  96 132 172 214 275 337 401
#     4  11  21  37  62 100 132 164 211 280 335 388
#     4  11  24  43  66  93 132 181 222 265 335 421
#     4  12  23  39  65  99 132 171 230 282 346 402
#     4  11  23  39  66  98 133 173 217 271 345 404
#     4  11  25  46  65  89 130 177 224 275 338 418
#     4  12  23  38  65  98 135 165 222 284 335 403
#     4  11  24  36  63  97 131 167 217 282 336 394
#
# _framework density 20.575261999999999
#
# number of rings (size 3 to 8) (size 9 to 14) (size 15 to 20)
#    0.000    0.750    5.000    3.750    5.250    1.250 
#    0.000    1.250    0.000    2.250    0.000    0.000 
#    0.000    0.000    0.000    0.000    0.000    0.000 
#
# Total GULP energy -396444.616732 kJ/mol
# GULP energy per Si atom -12388.894273 kJ/mol
# Density = 2.052843 g / cm^3
# Si number density = 20.575262 Si / 1000 Ang^3
#
#
#
# Elastic Constant Matrix: (Units=GPa)
#
#
# Indices 1 2 3 4 5 6 
#
# 1 162.3381 29.7236 31.4879 0.0000 0.0000 0.0000
# 2 29.7236 48.1768 19.1224 0.0000 0.0000 0.0000
# 3 31.4879 19.1224 82.0658 0.0000 0.0000 0.0000
# 4 0.0000 0.0000 0.0000 17.5444 0.0000 0.0000
# 5 0.0000 0.0000 0.0000 0.0000 39.9598 0.0000
# 6 0.0000 0.0000 0.0000 0.0000 0.0000 30.5665
#
#
#
# Elastic Compliance Matrix: (Units=1/GPa)
#
#
# Indices 1 2 3 4 5 6 
#
# 1 0.007205 -0.003689 -0.001905 0.000000 0.000000 0.000000
# 2 -0.003689 0.024761 -0.004354 0.000000 0.000000 0.000000
# 3 -0.001905 -0.004354 0.013931 0.000000 0.000000 0.000000
# 4 0.000000 0.000000 0.000000 0.056998 0.000000 0.000000
# 5 0.000000 0.000000 0.000000 0.000000 0.025025 0.000000
# 6 0.000000 0.000000 0.000000 0.000000 0.000000 0.032716
#
#
# Mechanical properties :
#
#
# Convention : Reuss Voigt Hill
#
# Bulk Modulus (GPa) = 38.46065 50.36095 44.41080
# Shear Modulus (GPa) = 26.42716 31.76391 29.09554
#
# Velocity S-wave (km/s) = 3.58776 3.93337 3.76454
# Velocity P-wave (km/s) = 5.99132 6.71998 6.36609
#
# Compressibility (1/GPa) = 0.02600060
#
# Stress axis : x y z
#
# Youngs Moduli (GPa) = 138.79385 40.38566 71.78343
#
# Poissons Ratio (x) = 0.14899 0.13674
# Poissons Ratio (y) = 0.51203 0.31256
# Poissons Ratio (z) = 0.26438 0.17585
#
# Static dielectric constant tensor:
#      x y z
#    x 4.241850 0.000000 0.000000 
#    y 0.000000 3.338600 0.000000 
#    z 0.000000 0.000000 3.941950 
# 
# 
# High freq. dielectric constant tensor:
#      x y z
#    x 1.826990 0.000000 0.000000 
#    y 0.000000 1.753510 0.000000 
#    z 0.000000 0.000000 1.825800 
# 
# From -- ./inp_files/23983.got.cif
#   From: 2010.03.12/outbox.cif.g09.slc.cpg/sg23_12_cif.got.tgz:23983.got - 2010.04.14 02:50:06.
