data_PCOD8164510
_publ_section_title
;
Structure prediction by ZEFSAII (Michael W. Deem and Ramdas Pophale) SiO2 
 PCOD8164510
Probable space group: I 2 2 2
;
_chemical_formula_sum "Si O2"
_cell_formula_units_Z 24
_cell_length_a 4.857921
_cell_length_b 17.273252
_cell_length_c 13.298863
_cell_angle_alpha 90.000000
_cell_angle_beta 90.000000
_cell_angle_gamma 90.000000
_cell_volume 1115.935437
_symmetry_space_group_name_H-M "I 2 2 2"
_symmetry_group_IT_number 23
_symmetry_cell_setting 'orthorhombic'
loop_
_space_group_symop_operation_xyz
x,y,z
-x,-y,z
x,-y,-z
-x,y,-z
1/2+x,1/2+y,1/2+z
1/2-x,1/2-y,1/2+z
1/2+x,1/2-y,1/2-z
1/2-x,1/2+y,1/2-z
loop_
_atom_site_type_symbol
_atom_site_label
_atom_site_fract_x
_atom_site_fract_y
_atom_site_fract_z
Si Si1 0.727989 0.551140 0.801957
Si Si2 0.858944 0.789886 0.208125
Si Si3 0.000000 0.262989 0.000000
Si Si4 0.000000 0.874362 0.500000
O O1 0.500000 0.500000 0.743394
O O2 0.779766 0.628018 0.736530
O O3 0.591097 0.571596 0.908532
O O4 0.000000 0.500000 0.817136
O O5 0.601969 0.730087 0.212614
O O6 0.009449 0.791011 0.099113
O O7 0.749121 0.318227 0.975327
#
# Coordination Sequence:
#
# PCOD8164510 Si02
#       4
#     8   8   4   4
#     4  12  25  42  64 103 146 179 222 288 362 417
#     4  12  23  44  70  99 138 182 236 286 337 420
#     4  12  22  42  72 102 132 180 246 286 334 408
#     4  12  23  40  68 102 137 180 224 292 353 420
#
# _framework density 21.506618
#
# number of rings (size 3 to 8) (size 9 to 14) (size 15 to 20)
#    0.000    0.000    6.667    4.500    0.000    1.333 
#    0.000    0.833    0.000    2.000    0.000    0.000 
#    0.000    0.000    0.000    0.000    0.000    0.000 
#
# Total GULP energy -148719.525376 kJ/mol
# GULP energy per Si atom -12393.293781 kJ/mol
# Density = 2.145767 g / cm^3
# Si number density = 21.506618 Si / 1000 Ang^3
#
#
#
# Elastic Constant Matrix: (Units=GPa)
#
#
# Indices 1 2 3 4 5 6 
#
# 1 152.6687 58.6521 41.5403 0.0000 0.0000 0.0000
# 2 58.6521 131.6404 66.5335 0.0000 0.0000 0.0000
# 3 41.5403 66.5335 108.8258 -0.0002 0.0000 0.0000
# 4 0.0000 0.0000 -0.0002 20.8621 0.0000 0.0000
# 5 0.0000 0.0000 0.0000 0.0000 23.9071 0.0000
# 6 0.0000 0.0000 0.0000 0.0000 0.0000 54.3845
#
#
#
# Elastic Compliance Matrix: (Units=1/GPa)
#
#
# Indices 1 2 3 4 5 6 
#
# 1 0.008022 -0.002933 -0.001269 0.000000 0.000000 0.000000
# 2 -0.002933 0.012066 -0.006257 0.000000 0.000000 0.000000
# 3 -0.001269 -0.006257 0.013499 0.000000 0.000000 0.000000
# 4 0.000000 0.000000 0.000000 0.047934 0.000000 0.000000
# 5 0.000000 0.000000 0.000000 0.000000 0.041829 0.000000
# 6 0.000000 0.000000 0.000000 0.000000 0.000000 0.018388
#
#
# Mechanical properties :
#
#
# Convention : Reuss Voigt Hill
#
# Bulk Modulus (GPa) = 78.93564 80.73186 79.83375
# Shear Modulus (GPa) = 29.96205 34.92467 32.44336
#
# Velocity S-wave (km/s) = 3.73655 4.03414 3.88819
# Velocity P-wave (km/s) = 7.44301 7.70186 7.57354
#
# Compressibility (1/GPa) = 0.01266855
#
# Stress axis : x y z
#
# Youngs Moduli (GPa) = 124.65438 82.87994 74.08006
#
# Poissons Ratio (x) = 0.24307 0.09402
# Poissons Ratio (y) = 0.36559 0.46353
# Poissons Ratio (z) = 0.15820 0.51859
#
# Static dielectric constant tensor:
#      x y z
#    x 4.006660 0.000000 0.000000 
#    y 0.000000 4.070740 0.000000 
#    z 0.000000 0.000000 3.662790 
# 
# 
# High freq. dielectric constant tensor:
#      x y z
#    x 1.868100 0.000000 0.000000 
#    y 0.000000 1.846210 0.000000 
#    z 0.000000 0.000000 1.823290 
# 
# From -- ./inp_files/2862.got.cif
#   From: 2010.03.12/outbox.cif.g09.slc.cpg/sg23_2_cif.got.tgz:2862.got - 2010.04.14 02:50:06.
