data_PCOD8164814
_publ_section_title
;
Structure prediction by ZEFSAII (Michael W. Deem and Ramdas Pophale) SiO2 
 PCOD8164814
Probable space group: I 21 21 21
;
_chemical_formula_sum "Si O2"
_cell_formula_units_Z 48
_cell_length_a 9.415149
_cell_length_b 9.523182
_cell_length_c 25.602174
_cell_angle_alpha 90.000000
_cell_angle_beta 90.000000
_cell_angle_gamma 90.000000
_cell_volume 2295.546669
_symmetry_space_group_name_H-M "I 21 21 21"
_symmetry_group_IT_number 24
_symmetry_cell_setting 'orthorhombic'
loop_
_space_group_symop_operation_xyz
x,y,z
-x,1/2-y,z
x,-y,1/2-z
1/2-x,y,-z
1/2+x,1/2+y,1/2+z
1/2-x,-y,1/2+z
1/2+x,1/2-y,-z
-x,1/2+y,1/2-z
loop_
_atom_site_type_symbol
_atom_site_label
_atom_site_fract_x
_atom_site_fract_y
_atom_site_fract_z
Si Si1 0.000000 0.750000 0.480431
Si Si2 0.750000 0.079773 0.000000
Si Si3 0.369113 0.841287 0.235769
Si Si4 0.832334 0.976561 0.111553
Si Si5 0.856846 0.470331 0.097841
Si Si6 0.345446 0.792912 0.116999
Si Si7 0.833106 0.752403 0.320913
O O1 0.113107 0.672127 0.516847
O O2 0.092811 0.859322 0.446062
O O3 0.791949 0.992262 0.050527
O O4 0.500000 0.750000 0.255697
O O5 0.362969 0.854145 0.173942
O O6 0.234703 0.766755 0.263744
O O7 0.392195 0.000000 0.250000
O O8 0.749178 0.841494 0.129231
O O9 0.785574 0.106681 0.148245
O O10 0.000937 0.949585 0.116850
O O11 0.738831 0.589395 0.081624
O O12 0.786627 0.380644 0.144231
O O13 0.500000 0.750000 0.092033
O O14 0.000000 0.750000 0.312528
#
# Coordination Sequence:
#
# PCOD8164814 Si02
#       7
#     4   4   8   8   8   8   8
#     4  10  20  38  68  98 124 166 216 268 316 380
#     4  10  20  40  62  94 128 156 214 258 324 376
#     4  11  25  41  59  89 127 165 208 259 319 378
#     4  10  22  40  64  90 124 162 205 261 318 378
#     4  10  18  41  64  89 122 162 207 259 313 369
#     4  11  25  40  59  91 130 167 210 257 318 382
#     4  10  20  39  65  88 117 161 209 254 304 370
#
# _framework density 20.910052
#
# number of rings (size 3 to 8) (size 9 to 14) (size 15 to 20)
#    0.000    1.667    5.833    0.500    4.667    2.667 
#    1.500    4.167    0.000    0.000    0.000    0.000 
#    0.000    0.000    0.000    0.000    0.000    0.000 
#
# Total GULP energy -297342.685235 kJ/mol
# GULP energy per Si atom -12389.278551 kJ/mol
# Density = 2.086246 g / cm^3
# Si number density = 20.910052 Si / 1000 Ang^3
#
#
#
# Elastic Constant Matrix: (Units=GPa)
#
#
# Indices 1 2 3 4 5 6 
#
# 1 91.1420 63.6672 11.8173 0.0000 0.0000 0.0000
# 2 63.6672 126.4692 10.7287 0.0000 0.0000 0.0000
# 3 11.8173 10.7287 41.9906 0.0000 0.0000 0.0000
# 4 0.0000 0.0000 0.0000 24.6624 0.0000 0.0000
# 5 0.0000 0.0000 0.0000 0.0000 22.2140 0.0000
# 6 0.0000 0.0000 0.0000 0.0000 0.0000 39.7626
#
#
#
# Elastic Compliance Matrix: (Units=1/GPa)
#
#
# Indices 1 2 3 4 5 6 
#
# 1 0.017215 -0.008438 -0.002689 0.000000 0.000000 0.000000
# 2 -0.008438 0.012218 -0.000747 0.000000 0.000000 0.000000
# 3 -0.002689 -0.000747 0.024762 0.000000 0.000000 0.000000
# 4 0.000000 0.000000 0.000000 0.040547 0.000000 0.000000
# 5 0.000000 0.000000 0.000000 0.000000 0.045017 0.000000
# 6 0.000000 0.000000 0.000000 0.000000 0.000000 0.025149
#
#
# Mechanical properties :
#
#
# Convention : Reuss Voigt Hill
#
# Bulk Modulus (GPa) = 32.84329 48.00311 40.42320
# Shear Modulus (GPa) = 25.15002 28.88706 27.01854
#
# Velocity S-wave (km/s) = 3.47186 3.72087 3.59852
# Velocity P-wave (km/s) = 5.64028 6.43946 6.05308
#
# Compressibility (1/GPa) = 0.03044762
#
# Stress axis : x y z
#
# Youngs Moduli (GPa) = 58.08848 81.84328 40.38381
#
# Poissons Ratio (x) = 0.69062 0.10858
# Poissons Ratio (y) = 0.49017 0.03017
# Poissons Ratio (z) = 0.15619 0.06114
#
# Static dielectric constant tensor:
#      x y z
#    x 4.023080 0.000000 0.000000 
#    y 0.000000 3.903220 0.000000 
#    z 0.000000 0.000000 3.471370 
# 
# 
# High freq. dielectric constant tensor:
#      x y z
#    x 1.825870 0.000000 0.000000 
#    y 0.000000 1.829150 0.000000 
#    z 0.000000 0.000000 1.791810 
# 
# From -- ./inp_files/38310.got.cif
#   From: 2010.03.12/outbox.cif.g09.slc.cpg/sg24_20_cif.got.tgz:38310.got - 2010.04.14 03:06:53.
