data_PCOD8164307
_publ_section_title
;
Structure prediction by ZEFSAII (Michael W. Deem and Ramdas Pophale) SiO2 
 PCOD8164307
Probable space group: I 2 2 2
;
_chemical_formula_sum "Si O2"
_cell_formula_units_Z 64
_cell_length_a 11.295792
_cell_length_b 16.910057
_cell_length_c 14.659607
_cell_angle_alpha 90.000000
_cell_angle_beta 90.000000
_cell_angle_gamma 90.000000
_cell_volume 2800.167985
_symmetry_space_group_name_H-M "I 2 2 2"
_symmetry_group_IT_number 23
_symmetry_cell_setting 'orthorhombic'
loop_
_space_group_symop_operation_xyz
x,y,z
-x,-y,z
x,-y,-z
-x,y,-z
1/2+x,1/2+y,1/2+z
1/2-x,1/2-y,1/2+z
1/2+x,1/2-y,1/2-z
1/2-x,1/2+y,1/2-z
loop_
_atom_site_type_symbol
_atom_site_label
_atom_site_fract_x
_atom_site_fract_y
_atom_site_fract_z
Si Si1 0.300217 0.945042 0.224130
Si Si2 0.259379 0.445028 0.584219
Si Si3 0.507940 0.106880 0.895994
Si Si4 0.865629 0.785511 0.029615
Si Si5 0.776372 0.212761 0.304944
Si Si6 0.865597 0.473172 0.095699
Si Si7 0.485007 0.710165 0.102800
Si Si8 0.728473 0.807098 0.366135
O O1 0.424956 0.948829 0.167651
O O2 0.272602 0.853723 0.237537
O O3 0.201498 0.993684 0.164749
O O4 0.299223 0.984786 0.322466
O O5 0.225204 0.500000 0.500000
O O6 0.354805 0.378980 0.553850
O O7 0.146975 0.398704 0.628273
O O8 0.467153 0.196564 0.884812
O O9 0.500000 0.078323 0.000000
O O10 0.821240 0.735783 0.118096
O O11 0.784738 0.762326 0.942705
O O12 0.000000 0.766213 0.000000
O O13 0.809436 0.283644 0.236016
O O14 0.897888 0.180177 0.346675
O O15 0.855524 0.378890 0.103925
O O16 0.000000 0.500000 0.097962
O O17 0.807090 0.500000 0.000000
O O18 0.366815 0.668152 0.140585
O O19 0.500000 0.683892 0.000000
#
# Coordination Sequence:
#
# PCOD8164307 Si02
#       8
#     8   8   8   8   8   8   8   8
#     4  12  25  42  71 111 147 189 242 310 385 446
#     4  12  23  43  70 111 149 189 244 313 387 446
#     4  11  20  40  70 111 141 180 233 309 377 440
#     4  12  28  48  75 105 152 207 254 311 381 464
#     4  12  26  46  75 112 146 197 257 306 384 456
#     4  11  27  45  69 102 147 194 242 302 367 442
#     4  11  23  46  78 105 144 189 252 308 358 448
#     4  12  26  48  75 111 143 194 255 311 375 446
#
# _framework density 22.855772000000002
#
# number of rings (size 3 to 8) (size 9 to 14) (size 15 to 20)
#    0.000    0.375    5.000    4.125    7.000    0.250 
#    0.000    0.625    0.000    0.000    0.000    0.000 
#    0.000    0.000    0.000    0.000    0.000    0.000 
#
# Total GULP energy -396698.443802 kJ/mol
# GULP energy per Si atom -12396.826369 kJ/mol
# Density = 2.280375 g / cm^3
# Si number density = 22.855772 Si / 1000 Ang^3
#
#
#
# Elastic Constant Matrix: (Units=GPa)
#
#
# Indices 1 2 3 4 5 6 
#
# 1 112.0050 40.6073 43.6357 0.0000 0.0000 0.0000
# 2 40.6073 92.4207 47.9455 0.0000 0.0000 0.0000
# 3 43.6357 47.9455 172.0548 0.0001 0.0000 0.0000
# 4 0.0000 0.0000 0.0001 41.3369 0.0000 0.0000
# 5 0.0000 0.0000 0.0000 0.0000 28.7304 0.0000
# 6 0.0000 0.0000 0.0000 0.0000 0.0000 19.8431
#
#
#
# Elastic Compliance Matrix: (Units=1/GPa)
#
#
# Indices 1 2 3 4 5 6 
#
# 1 0.011025 -0.003967 -0.001691 0.000000 0.000000 0.000000
# 2 -0.003967 0.014076 -0.002916 0.000000 0.000000 0.000000
# 3 -0.001691 -0.002916 0.007054 0.000000 0.000000 0.000000
# 4 0.000000 0.000000 0.000000 0.024191 0.000000 0.000000
# 5 0.000000 0.000000 0.000000 0.000000 0.034806 0.000000
# 6 0.000000 0.000000 0.000000 0.000000 0.000000 0.050395
#
#
# Mechanical properties :
#
#
# Convention : Reuss Voigt Hill
#
# Bulk Modulus (GPa) = 66.63779 71.20640 68.92210
# Shear Modulus (GPa) = 30.54401 34.26820 32.40610
#
# Velocity S-wave (km/s) = 3.65962 3.87631 3.76952
# Velocity P-wave (km/s) = 6.86121 7.15938 7.01188
#
# Compressibility (1/GPa) = 0.01500650
#
# Stress axis : x y z
#
# Youngs Moduli (GPa) = 90.70220 71.04258 141.77221
#
# Poissons Ratio (x) = 0.28183 0.23969
# Poissons Ratio (y) = 0.35982 0.41346
# Poissons Ratio (z) = 0.15335 0.20719
#
# Static dielectric constant tensor:
#      x y z
#    x 3.888700 0.000000 0.000000 
#    y 0.000000 4.166790 0.000000 
#    z 0.000000 0.000000 4.515700 
# 
# 
# High freq. dielectric constant tensor:
#      x y z
#    x 1.874630 0.000000 0.000000 
#    y 0.000000 1.900950 0.000000 
#    z 0.000000 0.000000 1.924240 
# 
# From -- ./inp_files/21051.got.cif
#   From: 2010.03.12/outbox.cif.g09.slc.cpg/sg23_11_cif.got.tgz:21051.got - 2010.04.14 02:50:06.
