data_PCOD8164043
_publ_section_title
;
Structure prediction by ZEFSAII (Michael W. Deem and Ramdas Pophale) SiO2 
 PCOD8164043
Probable space group: I 2 2 2
;
_chemical_formula_sum "Si O2"
_cell_formula_units_Z 42
_cell_length_a 6.266549
_cell_length_b 17.725949
_cell_length_c 18.288089
_cell_angle_alpha 90.000000
_cell_angle_beta 90.000000
_cell_angle_gamma 90.000000
_cell_volume 2031.450582
_symmetry_space_group_name_H-M "I 2 2 2"
_symmetry_group_IT_number 23
_symmetry_cell_setting 'orthorhombic'
loop_
_space_group_symop_operation_xyz
x,y,z
-x,-y,z
x,-y,-z
-x,y,-z
1/2+x,1/2+y,1/2+z
1/2-x,1/2-y,1/2+z
1/2+x,1/2-y,1/2-z
1/2-x,1/2+y,1/2-z
loop_
_atom_site_type_symbol
_atom_site_label
_atom_site_fract_x
_atom_site_fract_y
_atom_site_fract_z
Si Si1 0.607213 0.917592 0.197104
Si Si2 0.772494 0.190901 0.178526
Si Si3 0.039371 0.916596 0.914024
Si Si4 0.500000 0.000000 0.500000
Si Si5 0.918282 0.157881 0.697308
Si Si6 0.381897 0.576719 0.930841
O O1 0.430456 0.854252 0.208187
O O2 0.772240 0.907672 0.265490
O O3 0.724375 0.899761 0.118700
O O4 0.500000 0.000000 0.198931
O O5 0.868045 0.145197 0.110579
O O6 0.716256 0.276775 0.156134
O O7 0.950658 0.199219 0.240072
O O8 0.000000 0.000000 0.880842
O O9 0.000000 0.918169 0.000000
O O10 0.636981 0.056360 0.448895
O O11 0.093560 0.126963 0.640698
O O12 0.500000 0.500000 0.913173
O O13 0.500000 0.616357 0.000000
#
# Coordination Sequence:
#
# PCOD8164043 Si02
#       6
#     8   8   8   2   8   8
#     4  11  23  41  66  96 123 168 215 256 318 377
#     4  11  23  42  62  92 131 166 214 258 321 380
#     4  10  22  42  66  95 128 164 217 265 304 380
#     4   8  18  44  64  94 120 164 218 276 304 382
#     4  11  24  42  64  95 131 167 207 270 314 378
#     4   9  21  41  64  95 126 158 218 262 315 387
#
# _framework density 20.674880000000002
#
# number of rings (size 3 to 8) (size 9 to 14) (size 15 to 20)
#    0.000    1.905    3.810    0.000    2.667    3.810 
#    5.143    0.000    2.095    0.000    0.000    0.000 
#    0.000    0.000    0.000    0.000    0.000    0.000 
#
# Total GULP energy -260221.919144 kJ/mol
# GULP energy per Si atom -12391.519959 kJ/mol
# Density = 2.062782 g / cm^3
# Si number density = 20.674880 Si / 1000 Ang^3
#
#
#
# Elastic Constant Matrix: (Units=GPa)
#
#
# Indices 1 2 3 4 5 6 
#
# 1 120.0622 45.8534 42.1897 0.0000 0.0000 0.0000
# 2 45.8534 100.5884 54.6930 0.0000 0.0000 0.0000
# 3 42.1897 54.6930 97.4414 0.0000 0.0000 0.0000
# 4 0.0000 0.0000 0.0000 19.1629 0.0000 0.0000
# 5 0.0000 0.0000 0.0000 0.0000 10.0091 0.0000
# 6 0.0000 0.0000 0.0000 0.0000 0.0000 35.9273
#
#
#
# Elastic Compliance Matrix: (Units=1/GPa)
#
#
# Indices 1 2 3 4 5 6 
#
# 1 0.010553 -0.003348 -0.002690 0.000000 0.000000 0.000000
# 2 -0.003348 0.015370 -0.007178 0.000000 0.000000 0.000000
# 3 -0.002690 -0.007178 0.015456 0.000000 0.000000 0.000000
# 4 0.000000 0.000000 0.000000 0.052184 0.000000 0.000000
# 5 0.000000 0.000000 0.000000 0.000000 0.099909 0.000000
# 6 0.000000 0.000000 0.000000 0.000000 0.000000 0.027834
#
#
# Mechanical properties :
#
#
# Convention : Reuss Voigt Hill
#
# Bulk Modulus (GPa) = 66.89801 67.06269 66.98035
# Shear Modulus (GPa) = 19.78470 24.71026 22.24748
#
# Velocity S-wave (km/s) = 3.09681 3.46089 3.28390
# Velocity P-wave (km/s) = 6.72416 6.96258 6.84441
#
# Compressibility (1/GPa) = 0.01494813
#
# Stress axis : x y z
#
# Youngs Moduli (GPa) = 94.76076 65.06004 64.69950
#
# Poissons Ratio (x) = 0.21782 0.17404
# Poissons Ratio (y) = 0.31725 0.46439
# Poissons Ratio (z) = 0.25490 0.46698
#
# Static dielectric constant tensor:
#      x y z
#    x 3.767550 0.000000 0.000000 
#    y 0.000000 3.758980 0.000000 
#    z 0.000000 0.000000 3.642000 
# 
# 
# High freq. dielectric constant tensor:
#      x y z
#    x 1.818530 0.000000 0.000000 
#    y 0.000000 1.805070 0.000000 
#    z 0.000000 0.000000 1.795080 
# 
# From -- ./inp_files/25667.got.cif
#   From: 2010.03.12/outbox.cif.g09.slc.cpg/sg23_13_cif.got.tgz:25667.got - 2010.04.14 02:50:06.
