data_PCOD8164964
_publ_section_title
;
Structure prediction by ZEFSAII (Michael W. Deem and Ramdas Pophale) SiO2 
 PCOD8164964
Probable space group: I 21 21 21
;
_chemical_formula_sum "Si O2"
_cell_formula_units_Z 48
_cell_length_a 17.477572
_cell_length_b 7.228477
_cell_length_c 22.336134
_cell_angle_alpha 90.000000
_cell_angle_beta 90.000000
_cell_angle_gamma 90.000000
_cell_volume 2821.862900
_symmetry_space_group_name_H-M "I 21 21 21"
_symmetry_group_IT_number 24
_symmetry_cell_setting 'orthorhombic'
loop_
_space_group_symop_operation_xyz
x,y,z
-x,1/2-y,z
x,-y,1/2-z
1/2-x,y,-z
1/2+x,1/2+y,1/2+z
1/2-x,-y,1/2+z
1/2+x,1/2-y,-z
-x,1/2+y,1/2-z
loop_
_atom_site_type_symbol
_atom_site_label
_atom_site_fract_x
_atom_site_fract_y
_atom_site_fract_z
Si Si1 0.500000 0.031850 0.996640
Si Si2 1.000000 0.534704 0.356903
Si Si3 0.662162 0.964438 0.682418
Si Si4 0.230252 0.750001 0.097643
Si Si5 0.337837 0.035563 0.817582
Si Si6 0.126188 0.750000 0.981300
O O1 0.500000 0.250000 0.011148
O O2 0.424669 0.935946 0.023972
O O3 0.575331 0.935946 0.023972
O O4 0.500000 0.986884 0.926518
O O5 0.923615 0.451879 0.326410
O O6 0.000000 0.750000 0.345092
O O7 0.076384 0.451879 0.326410
O O8 0.665725 0.750001 0.665014
O O9 0.688809 0.000000 0.750000
O O10 0.719457 0.067847 0.637891
O O11 0.316845 0.749999 0.074614
O O12 0.219458 0.932155 0.137891
O O13 0.171079 0.750001 0.043411
O O14 0.311190 0.000000 0.750000
#
# Coordination Sequence:
#
# PCOD8164964 Si02
#       6
#     8   8   8   8   8   8
#     4  10  19  36  57  79 107 142 187 231 274 323
#     4   9  18  30  48  77 109 149 187 216 254 313
#     4  11  21  34  51  77 113 152 189 222 264 321
#     4  11  22  36  52  80 116 149 188 224 272 325
#     4  11  21  34  51  77 113 152 189 222 264 321
#     4  10  22  36  56  80 110 152 186 226 273 329
#
# _framework density 17.010041000000001
#
# number of rings (size 3 to 8) (size 9 to 14) (size 15 to 20)
#    0.000    1.667    5.000    0.500    0.000    2.000 
#    0.000    3.333    0.000    0.000    0.000    4.667 
#    0.000    0.000    0.000    0.000    0.000    0.000 
#
# Total GULP energy -297617.854819 kJ/mol
# GULP energy per Si atom -12400.743951 kJ/mol
# Density = 1.697133 g / cm^3
# Si number density = 17.010041 Si / 1000 Ang^3
#
#
#
# Elastic Constant Matrix: (Units=GPa)
#
#
# Indices 1 2 3 4 5 6 
#
# 1 109.2329 51.6868 64.5900 0.0000 0.0000 0.0000
# 2 51.6868 124.4033 42.8582 0.0000 0.0000 0.0000
# 3 64.5900 42.8582 103.0552 0.0000 0.0000 0.0000
# 4 0.0000 0.0000 0.0000 26.3384 0.0000 0.0000
# 5 0.0000 0.0000 0.0000 0.0000 27.5552 0.0000
# 6 0.0000 0.0000 0.0000 0.0000 0.0000 59.9846
#
#
#
# Elastic Compliance Matrix: (Units=1/GPa)
#
#
# Indices 1 2 3 4 5 6 
#
# 1 0.015881 -0.003699 -0.008415 0.000000 0.000000 0.000000
# 2 -0.003699 0.010244 -0.001942 0.000000 0.000000 0.000000
# 3 -0.008415 -0.001942 0.015785 0.000000 0.000000 0.000000
# 4 0.000000 0.000000 0.000000 0.037967 0.000000 0.000000
# 5 0.000000 0.000000 0.000000 0.000000 0.036291 0.000000
# 6 0.000000 0.000000 0.000000 0.000000 0.000000 0.016671
#
#
# Mechanical properties :
#
#
# Convention : Reuss Voigt Hill
#
# Bulk Modulus (GPa) = 72.47240 72.77347 72.62294
# Shear Modulus (GPa) = 30.20213 34.61273 32.40743
#
# Velocity S-wave (km/s) = 4.21830 4.51582 4.36959
# Velocity P-wave (km/s) = 8.15006 8.37052 8.26103
#
# Compressibility (1/GPa) = 0.01379836
#
# Stress axis : x y z
#
# Youngs Moduli (GPa) = 62.96848 97.61539 63.35014
#
# Poissons Ratio (x) = 0.36109 0.53309
# Poissons Ratio (y) = 0.23293 0.12302
# Poissons Ratio (z) = 0.52988 0.18956
#
# Static dielectric constant tensor:
#      x y z
#    x 3.124920 0.000000 0.000000 
#    y 0.000000 3.211890 0.000000 
#    z 0.000000 0.000000 3.034730 
# 
# 
# High freq. dielectric constant tensor:
#      x y z
#    x 1.632480 0.000000 0.000000 
#    y 0.000000 1.669000 0.000000 
#    z 0.000000 0.000000 1.639540 
# 
# From -- ./inp_files/31094.got.cif
#   From: 2010.03.12/outbox.cif.g09.slc.cpg/sg24_16_cif.got.tgz:31094.got - 2010.04.14 03:06:53.
