data_PCOD8164000
_publ_section_title
;
Structure prediction by ZEFSAII (Michael W. Deem and Ramdas Pophale) SiO2 
 PCOD8164000
Probable space group: I 2 2 2
;
_chemical_formula_sum "Si O2"
_cell_formula_units_Z 64
_cell_length_a 15.351332
_cell_length_b 16.239377
_cell_length_c 12.314542
_cell_angle_alpha 90.000000
_cell_angle_beta 90.000000
_cell_angle_gamma 90.000000
_cell_volume 3069.966897
_symmetry_space_group_name_H-M "I 2 2 2"
_symmetry_group_IT_number 23
_symmetry_cell_setting 'orthorhombic'
loop_
_space_group_symop_operation_xyz
x,y,z
-x,-y,z
x,-y,-z
-x,y,-z
1/2+x,1/2+y,1/2+z
1/2-x,1/2-y,1/2+z
1/2+x,1/2-y,1/2-z
1/2-x,1/2+y,1/2-z
loop_
_atom_site_type_symbol
_atom_site_label
_atom_site_fract_x
_atom_site_fract_y
_atom_site_fract_z
Si Si1 0.403991 0.239206 0.473269
Si Si2 0.504487 0.403545 0.121001
Si Si3 0.851669 0.143713 0.226387
Si Si4 0.311939 0.365558 0.790187
Si Si5 0.230905 0.994528 0.877332
Si Si6 0.847606 0.430880 0.089562
Si Si7 0.408616 0.035278 0.784966
Si Si8 0.671492 0.196279 0.300715
O O1 0.500000 0.274098 0.500000
O O2 0.362437 0.291717 0.373929
O O3 0.411576 0.142995 0.442878
O O4 0.347784 0.240065 0.584052
O O5 0.500000 0.500000 0.110142
O O6 0.434065 0.356070 0.194598
O O7 0.593880 0.394651 0.181560
O O8 0.500000 0.363958 0.000000
O O9 0.767561 0.157256 0.303530
O O10 0.838518 0.052349 0.182190
O O11 0.279642 0.404004 0.674925
O O12 0.246682 0.393085 0.884994
O O13 0.318741 0.267383 0.788159
O O14 0.330840 0.026473 0.871837
O O15 0.200933 0.000000 0.000000
O O16 0.893600 0.471615 0.189867
O O17 0.834034 0.500000 0.000000
O O18 0.402719 0.129516 0.737567
O O19 0.500000 0.000000 0.835391
#
# Coordination Sequence:
#
# PCOD8164000 Si02
#       8
#     8   8   8   8   8   8   8   8
#     4  12  24  40  68  99 134 174 222 281 336 399
#     4  11  25  41  69  95 129 167 219 272 330 397
#     4  11  24  44  63 100 134 170 223 280 334 413
#     4  11  23  43  65  95 126 172 215 273 324 398
#     4  10  22  41  65  89 126 179 220 264 335 402
#     4  11  23  38  66  96 127 169 222 267 338 395
#     4  10  22  39  63  93 130 168 222 277 325 400
#     4  11  23  41  67  92 134 172 216 275 342 395
#
# _framework density 20.847128999999999
#
# number of rings (size 3 to 8) (size 9 to 14) (size 15 to 20)
#    0.000    1.125    3.750    2.250    3.500    0.250 
#    0.000    0.625    0.000    0.000    0.000    0.000 
#    0.000    0.000    0.000    0.000    0.000    0.000 
#
# Total GULP energy -396548.477359 kJ/mol
# GULP energy per Si atom -12392.139917 kJ/mol
# Density = 2.079968 g / cm^3
# Si number density = 20.847129 Si / 1000 Ang^3
#
#
#
# Elastic Constant Matrix: (Units=GPa)
#
#
# Indices 1 2 3 4 5 6 
#
# 1 108.1301 17.7586 32.7659 0.0000 0.0000 0.0000
# 2 17.7586 96.3491 9.5497 0.0000 0.0000 0.0000
# 3 32.7659 9.5497 83.4785 0.0000 0.0000 0.0000
# 4 0.0000 0.0000 0.0000 33.9893 0.0000 0.0000
# 5 0.0000 0.0000 0.0000 0.0000 25.1324 0.0000
# 6 0.0000 0.0000 0.0000 0.0000 0.0000 57.2346
#
#
#
# Elastic Compliance Matrix: (Units=1/GPa)
#
#
# Indices 1 2 3 4 5 6 
#
# 1 0.010729 -0.001578 -0.004031 0.000000 0.000000 0.000000
# 2 -0.001578 0.010730 -0.000608 0.000000 0.000000 0.000000
# 3 -0.004031 -0.000608 0.013631 0.000000 0.000000 0.000000
# 4 0.000000 0.000000 0.000000 0.029421 0.000000 0.000000
# 5 0.000000 0.000000 0.000000 0.000000 0.039789 0.000000
# 6 0.000000 0.000000 0.000000 0.000000 0.000000 0.017472
#
#
# Mechanical properties :
#
#
# Convention : Reuss Voigt Hill
#
# Bulk Modulus (GPa) = 44.13818 45.34512 44.74165
# Shear Modulus (GPa) = 35.27164 38.46348 36.86756
#
# Velocity S-wave (km/s) = 4.11776 4.30004 4.20988
# Velocity P-wave (km/s) = 6.62013 6.81559 6.71857
#
# Compressibility (1/GPa) = 0.02265612
#
# Stress axis : x y z
#
# Youngs Moduli (GPa) = 93.20869 93.19627 73.36374
#
# Poissons Ratio (x) = 0.14706 0.29570
# Poissons Ratio (y) = 0.14708 0.04461
# Poissons Ratio (z) = 0.37568 0.05668
#
# Static dielectric constant tensor:
#      x y z
#    x 3.983120 0.000000 0.000000 
#    y 0.000000 3.835200 0.000000 
#    z 0.000000 0.000000 3.820460 
# 
# 
# High freq. dielectric constant tensor:
#      x y z
#    x 1.820060 0.000000 0.000000 
#    y 0.000000 1.821690 0.000000 
#    z 0.000000 0.000000 1.810940 
# 
# From -- ./inp_files/16959.got.cif
#   From: 2010.03.12/outbox.cif.g09.slc.cpg/sg23_9_cif.got.tgz:16959.got - 2010.04.14 02:50:06.
