data_PCOD8164142
_publ_section_title
;
Structure prediction by ZEFSAII (Michael W. Deem and Ramdas Pophale) SiO2 
 PCOD8164142
Probable space group: I 2 2 2
;
_chemical_formula_sum "Si O2"
_cell_formula_units_Z 30
_cell_length_a 26.600956
_cell_length_b 4.877050
_cell_length_c 9.602231
_cell_angle_alpha 90.000000
_cell_angle_beta 90.000000
_cell_angle_gamma 90.000000
_cell_volume 1245.737685
_symmetry_space_group_name_H-M "I 2 2 2"
_symmetry_group_IT_number 23
_symmetry_cell_setting 'orthorhombic'
loop_
_space_group_symop_operation_xyz
x,y,z
-x,-y,z
x,-y,-z
-x,y,-z
1/2+x,1/2+y,1/2+z
1/2-x,1/2-y,1/2+z
1/2+x,1/2-y,1/2-z
1/2-x,1/2+y,1/2-z
loop_
_atom_site_type_symbol
_atom_site_label
_atom_site_fract_x
_atom_site_fract_y
_atom_site_fract_z
Si Si1 0.084039 0.823153 0.299838
Si Si2 0.112000 0.667632 0.859665
Si Si3 0.500000 0.500000 0.000000
Si Si4 0.830636 0.000000 0.500000
Si Si5 0.717539 0.164793 0.226857
O O1 0.084289 0.507788 0.257890
O O2 0.086490 0.030681 0.164101
O O3 0.035359 0.829462 0.396965
O O4 0.135309 0.861447 0.383320
O O5 0.171763 0.683042 0.836659
O O6 0.100279 0.500000 0.000000
O O7 0.796814 0.768073 0.427213
O O8 0.762982 0.353070 0.286052
#
# Coordination Sequence:
#
# PCOD8164142 Si02
#       5
#     8   8   2   4   8
#     4  10  23  43  72  96 129 172 210 280 334 391
#     4  11  24  45  63  94 138 181 210 263 349 392
#     4  10  24  46  78 110 124 162 236 272 324 412
#     4   9  22  43  60  88 132 162 222 277 336 371
#     4  11  24  40  62  93 124 178 233 281 319 380
#
# _framework density 24.08212
#
# number of rings (size 3 to 8) (size 9 to 14) (size 15 to 20)
#    0.000    1.600    0.000    4.000    1.867   17.067 
#    4.800    4.000    0.000    0.000    0.000    0.000 
#    0.000    0.000    0.000    0.000    0.000    0.000 
#
# Total GULP energy -185918.857568 kJ/mol
# GULP energy per Si atom -12394.590505 kJ/mol
# Density = 2.402731 g / cm^3
# Si number density = 24.082120 Si / 1000 Ang^3
#
#
#
# Elastic Constant Matrix: (Units=GPa)
#
#
# Indices 1 2 3 4 5 6 
#
# 1 110.2989 9.5899 17.9995 0.0000 0.0000 0.0000
# 2 9.5899 81.8854 -8.9950 0.0000 0.0000 0.0000
# 3 17.9995 -8.9950 76.6277 0.0000 0.0000 0.0000
# 4 0.0000 0.0000 0.0000 16.0234 0.0000 0.0000
# 5 0.0000 0.0000 0.0000 0.0000 12.6718 0.0000
# 6 0.0000 0.0000 0.0000 0.0000 0.0000 13.4719
#
#
#
# Elastic Compliance Matrix: (Units=1/GPa)
#
#
# Indices 1 2 3 4 5 6 
#
# 1 0.009581 -0.001387 -0.002413 0.000000 0.000000 0.000000
# 2 -0.001387 0.012573 0.001802 0.000000 0.000000 0.000000
# 3 -0.002413 0.001802 0.013828 0.000000 0.000000 0.000000
# 4 0.000000 0.000000 0.000000 0.062409 0.000000 0.000000
# 5 0.000000 0.000000 0.000000 0.000000 0.078916 0.000000
# 6 0.000000 0.000000 0.000000 0.000000 0.000000 0.074228
#
#
# Mechanical properties :
#
#
# Convention : Reuss Voigt Hill
#
# Bulk Modulus (GPa) = 31.26540 34.00007 32.63273
# Shear Modulus (GPa) = 18.78333 25.11459 21.94896
#
# Velocity S-wave (km/s) = 2.79582 3.23286 3.02225
# Velocity P-wave (km/s) = 4.84078 5.29945 5.07530
#
# Compressibility (1/GPa) = 0.03198424
#
# Stress axis : x y z
#
# Youngs Moduli (GPa) = 104.37650 79.53837 72.31454
#
# Poissons Ratio (x) = 0.11033 0.17452
# Poissons Ratio (y) = 0.14478 -0.13029
# Poissons Ratio (z) = 0.25189 -0.14330
#
# Static dielectric constant tensor:
#      x y z
#    x 4.200560 0.000000 0.000000 
#    y 0.000000 4.408790 0.000000 
#    z 0.000000 0.000000 4.273750 
# 
# 
# High freq. dielectric constant tensor:
#      x y z
#    x 1.943160 0.000000 0.000000 
#    y 0.000000 1.965080 0.000000 
#    z 0.000000 0.000000 1.955300 
# 
# From -- ./inp_files/13173.got.cif
#   From: 2010.03.12/outbox.cif.g09.slc.cpg/sg23_7_cif.got.tgz:13173.got - 2010.04.14 02:50:06.
