data_PCOD8164137
_publ_section_title
;
Structure prediction by ZEFSAII (Michael W. Deem and Ramdas Pophale) SiO2 
 PCOD8164137
Probable space group: I 2 2 2
;
_chemical_formula_sum "Si O2"
_cell_formula_units_Z 52
_cell_length_a 18.649848
_cell_length_b 9.336716
_cell_length_c 13.063350
_cell_angle_alpha 90.000000
_cell_angle_beta 90.000000
_cell_angle_gamma 90.000000
_cell_volume 2274.699375
_symmetry_space_group_name_H-M "I 2 2 2"
_symmetry_group_IT_number 23
_symmetry_cell_setting 'orthorhombic'
loop_
_space_group_symop_operation_xyz
x,y,z
-x,-y,z
x,-y,-z
-x,y,-z
1/2+x,1/2+y,1/2+z
1/2-x,1/2-y,1/2+z
1/2+x,1/2-y,1/2-z
1/2-x,1/2+y,1/2-z
loop_
_atom_site_type_symbol
_atom_site_label
_atom_site_fract_x
_atom_site_fract_y
_atom_site_fract_z
Si Si1 0.075429 0.639172 0.194343
Si Si2 0.698117 0.368983 0.702060
Si Si3 0.753919 0.868439 0.573735
Si Si4 0.630259 0.650674 0.622488
Si Si5 0.000000 0.242727 0.000000
Si Si6 0.323866 0.149088 0.947886
Si Si7 0.570499 0.842035 0.782213
O O1 0.144264 0.736417 0.212583
O O2 0.098020 0.473900 0.209700
O O3 0.015725 0.671727 0.282140
O O4 0.038028 0.656900 0.084238
O O5 0.723263 0.422784 0.813960
O O6 0.661368 0.492509 0.635208
O O7 0.768040 0.315837 0.642946
O O8 0.687932 0.757392 0.572510
O O9 0.821380 0.779727 0.528084
O O10 0.733101 0.000000 0.500000
O O11 0.560366 0.642055 0.550417
O O12 0.606396 0.700955 0.734888
O O13 0.403135 0.140268 0.898696
O O14 0.303994 0.000000 0.000000
#
# Coordination Sequence:
#
# PCOD8164137 Si02
#       7
#     8   8   8   8   4   8   8
#     4  10  24  42  68  99 141 189 230 303 348 427
#     4  12  26  45  69 103 149 180 238 297 369 423
#     4  12  27  42  70 105 139 189 239 298 359 436
#     4  11  24  42  66 101 142 183 219 297 358 431
#     4  10  24  40  68 102 138 178 242 272 374 432
#     4  12  24  43  71 103 140 187 241 293 360 430
#     4  10  23  43  66  97 140 184 231 286 354 411
#
# _framework density 22.860163
#
# number of rings (size 3 to 8) (size 9 to 14) (size 15 to 20)
#    0.000    0.923    3.077    2.769    4.308    7.385 
#    0.000    5.385    0.000    0.923    0.000    0.000 
#    0.000    0.000    0.000    0.000    0.000    0.000 
#
# Total GULP energy -322470.099200 kJ/mol
# GULP energy per Si atom -12402.696123 kJ/mol
# Density = 2.280813 g / cm^3
# Si number density = 22.860163 Si / 1000 Ang^3
#
#
#
# Elastic Constant Matrix: (Units=GPa)
#
#
# Indices 1 2 3 4 5 6 
#
# 1 96.1274 9.8778 40.6185 0.0000 0.0000 0.0000
# 2 9.8778 62.4051 7.0758 0.0000 0.0000 0.0000
# 3 40.6185 7.0758 105.1773 0.0000 0.0000 0.0000
# 4 0.0000 0.0000 0.0000 27.7367 0.0000 0.0000
# 5 0.0000 0.0000 0.0000 0.0000 40.4298 0.0000
# 6 0.0000 0.0000 0.0000 0.0000 0.0000 32.3740
#
#
#
# Elastic Compliance Matrix: (Units=1/GPa)
#
#
# Indices 1 2 3 4 5 6 
#
# 1 0.012560 -0.001449 -0.004753 0.000000 0.000000 0.000000
# 2 -0.001449 0.016315 -0.000538 0.000000 0.000000 0.000000
# 3 -0.004753 -0.000538 0.011380 0.000000 0.000000 0.000000
# 4 0.000000 0.000000 0.000000 0.036053 0.000000 0.000000
# 5 0.000000 0.000000 0.000000 0.000000 0.024734 0.000000
# 6 0.000000 0.000000 0.000000 0.000000 0.000000 0.030889
#
#
# Mechanical properties :
#
#
# Convention : Reuss Voigt Hill
#
# Bulk Modulus (GPa) = 37.34962 42.09489 39.72225
# Shear Modulus (GPa) = 32.39683 33.85062 33.12373
#
# Velocity S-wave (km/s) = 3.76862 3.85225 3.81067
# Velocity P-wave (km/s) = 5.94226 6.18389 6.06428
#
# Compressibility (1/GPa) = 0.02677403
#
# Stress axis : x y z
#
# Youngs Moduli (GPa) = 79.61658 61.29442 87.87687
#
# Poissons Ratio (x) = 0.08883 0.41769
# Poissons Ratio (y) = 0.11538 0.04727
# Poissons Ratio (z) = 0.37843 0.03297
#
# Static dielectric constant tensor:
#      x y z
#    x 4.204330 0.000000 0.000000 
#    y 0.000000 3.962260 0.000000 
#    z 0.000000 0.000000 4.140090 
# 
# 
# High freq. dielectric constant tensor:
#      x y z
#    x 1.904620 0.000000 0.000000 
#    y 0.000000 1.896850 0.000000 
#    z 0.000000 0.000000 1.901380 
# 
# From -- ./inp_files/22350.got.cif
#   From: 2010.03.12/outbox.cif.g09.slc.cpg/sg23_12_cif.got.tgz:22350.got - 2010.04.14 02:50:06.
