data_PCOD8164978
_publ_section_title
;
Structure prediction by ZEFSAII (Michael W. Deem and Ramdas Pophale) SiO2 
 PCOD8164978
Probable space group: I 21 21 21
;
_chemical_formula_sum "Si O2"
_cell_formula_units_Z 64
_cell_length_a 22.304813
_cell_length_b 15.753409
_cell_length_c 8.996840
_cell_angle_alpha 90.000000
_cell_angle_beta 90.000000
_cell_angle_gamma 90.000000
_cell_volume 3161.281226
_symmetry_space_group_name_H-M "I 21 21 21"
_symmetry_group_IT_number 24
_symmetry_cell_setting 'orthorhombic'
loop_
_space_group_symop_operation_xyz
x,y,z
-x,1/2-y,z
x,-y,1/2-z
1/2-x,y,-z
1/2+x,1/2+y,1/2+z
1/2-x,-y,1/2+z
1/2+x,1/2-y,-z
-x,1/2+y,1/2-z
loop_
_atom_site_type_symbol
_atom_site_label
_atom_site_fract_x
_atom_site_fract_y
_atom_site_fract_z
Si Si1 0.219327 0.925372 0.157901
Si Si2 0.614415 0.204677 0.643220
Si Si3 0.077583 0.090712 0.688795
Si Si4 0.372153 0.277238 0.305197
Si Si5 0.468184 0.582133 0.681664
Si Si6 0.046861 0.413163 0.832853
Si Si7 0.241435 0.742082 0.174627
Si Si8 0.085866 0.898614 0.144160
O O1 0.230206 0.835981 0.241591
O O2 0.148643 0.948547 0.147991
O O3 0.251085 0.000000 0.250000
O O4 0.250000 0.924694 0.000000
O O5 0.610264 0.185762 0.467258
O O6 0.563551 0.160956 0.740231
O O7 0.682222 0.183955 0.703345
O O8 0.602176 0.302081 0.665261
O O9 0.120245 0.174007 0.706482
O O10 0.057337 0.080755 0.517119
O O11 0.018213 0.113271 0.777966
O O12 0.104717 0.000000 0.750000
O O13 0.410297 0.332344 0.190843
O O14 0.302804 0.297389 0.261627
O O15 0.435852 0.500000 0.750000
O O16 0.457464 0.576450 0.508117
O O17 0.539153 0.578479 0.724287
O O18 0.068843 0.500000 0.750000
O O19 0.250000 0.754713 0.000000
#
# Coordination Sequence:
#
# PCOD8164978 Si02
#       8
#     8   8   8   8   8   8   8   8
#     4  10  20  35  54  81 115 153 193 231 275 331
#     4   9  19  37  60  83 111 149 190 231 287 349
#     4  10  20  35  57  87 121 154 193 234 285 346
#     4  10  19  36  61  84 114 154 193 238 289 344
#     4  12  23  38  59  82 112 147 190 244 297 351
#     4  11  24  39  56  84 117 149 192 245 299 349
#     4   8  17  35  57  79 107 147 191 230 277 345
#     4  10  21  37  58  84 117 155 192 233 283 343
#
# _framework density 20.244956999999999
#
# number of rings (size 3 to 8) (size 9 to 14) (size 15 to 20)
#    0.000    2.000    0.000    6.375    0.000    6.000 
#    0.000    5.000    0.000    0.000    0.000    0.000 
#    0.000    0.000    0.000    0.000    0.000    0.000 
#
# Total GULP energy -396447.376515 kJ/mol
# GULP energy per Si atom -12388.980516 kJ/mol
# Density = 2.019888 g / cm^3
# Si number density = 20.244957 Si / 1000 Ang^3
#
#
#
# Elastic Constant Matrix: (Units=GPa)
#
#
# Indices 1 2 3 4 5 6 
#
# 1 114.3757 31.3374 43.0675 0.0000 0.0000 0.0000
# 2 31.3374 62.0007 37.3863 0.0000 0.0000 0.0000
# 3 43.0675 37.3863 117.7443 0.0000 0.0000 0.0000
# 4 0.0000 0.0000 0.0000 31.5957 0.0000 0.0000
# 5 0.0000 0.0000 0.0000 0.0000 13.7488 0.0000
# 6 0.0000 0.0000 0.0000 0.0000 0.0000 35.4931
#
#
#
# Elastic Compliance Matrix: (Units=1/GPa)
#
#
# Indices 1 2 3 4 5 6 
#
# 1 0.010823 -0.003813 -0.002748 0.000000 0.000000 0.000000
# 2 -0.003813 0.021292 -0.005366 0.000000 0.000000 0.000000
# 3 -0.002748 -0.005366 0.011202 0.000000 0.000000 0.000000
# 4 0.000000 0.000000 0.000000 0.031650 0.000000 0.000000
# 5 0.000000 0.000000 0.000000 0.000000 0.072734 0.000000
# 6 0.000000 0.000000 0.000000 0.000000 0.000000 0.028175
#
#
# Mechanical properties :
#
#
# Convention : Reuss Voigt Hill
#
# Bulk Modulus (GPa) = 51.38095 57.52259 54.45177
# Shear Modulus (GPa) = 24.24651 28.32281 26.28466
#
# Velocity S-wave (km/s) = 3.46447 3.74439 3.60715
# Velocity P-wave (km/s) = 6.43725 6.86796 6.65609
#
# Compressibility (1/GPa) = 0.01946247
#
# Stress axis : x y z
#
# Youngs Moduli (GPa) = 92.39968 46.96650 89.27118
#
# Poissons Ratio (x) = 0.17909 0.24530
# Poissons Ratio (y) = 0.35234 0.47901
# Poissons Ratio (z) = 0.25390 0.25201
#
# Static dielectric constant tensor:
#      x y z
#    x 4.040430 0.000000 0.000000 
#    y 0.000000 3.719360 0.000000 
#    z 0.000000 0.000000 3.502470 
# 
# 
# High freq. dielectric constant tensor:
#      x y z
#    x 1.794530 0.000000 0.000000 
#    y 0.000000 1.786520 0.000000 
#    z 0.000000 0.000000 1.771140 
# 
# From -- ./inp_files/16043.got.cif
#   From: 2010.03.12/outbox.cif.g09.slc.cpg/sg24_9_cif.got.tgz:16043.got - 2010.04.14 03:06:53.
