data_PCOD8164678
_publ_section_title
;
Structure prediction by ZEFSAII (Michael W. Deem and Ramdas Pophale) SiO2 
 PCOD8164678
Probable space group: I 21 21 21
;
_chemical_formula_sum "Si O2"
_cell_formula_units_Z 40
_cell_length_a 12.740745
_cell_length_b 9.162801
_cell_length_c 18.154480
_cell_angle_alpha 90.000000
_cell_angle_beta 90.000000
_cell_angle_gamma 90.000000
_cell_volume 2119.370534
_symmetry_space_group_name_H-M "I 21 21 21"
_symmetry_group_IT_number 24
_symmetry_cell_setting 'orthorhombic'
loop_
_space_group_symop_operation_xyz
x,y,z
-x,1/2-y,z
x,-y,1/2-z
1/2-x,y,-z
1/2+x,1/2+y,1/2+z
1/2-x,-y,1/2+z
1/2+x,1/2-y,-z
-x,1/2+y,1/2-z
loop_
_atom_site_type_symbol
_atom_site_label
_atom_site_fract_x
_atom_site_fract_y
_atom_site_fract_z
Si Si1 0.457049 0.000000 0.750000
Si Si2 0.096872 0.654912 0.656926
Si Si3 0.500000 0.750000 0.648123
Si Si4 0.241808 0.084752 0.320140
Si Si5 0.099478 0.667523 0.829544
Si Si6 0.278890 0.179849 0.916104
O O1 0.525067 0.106164 0.801958
O O2 0.379970 0.108761 0.703140
O O3 0.082681 0.646621 0.743523
O O4 0.101220 0.487520 0.628130
O O5 0.208396 0.720928 0.636330
O O6 0.000000 0.750000 0.622642
O O7 0.399855 0.777886 0.596893
O O8 0.295018 0.237639 0.341258
O O9 0.298613 0.000000 0.250000
O O10 0.244701 0.986358 0.393479
O O11 0.000000 0.750000 0.864224
O O12 0.250000 0.206841 0.000000
#
# Coordination Sequence:
#
# PCOD8164678 Si02
#       6
#     4   8   4   8   8   8
#     4   8  18  32  60  78 114 144 198 264 284 344
#     4  10  20  33  54  86 115 146 186 237 288 347
#     4  10  20  38  58  90 112 150 204 246 308 348
#     4   9  17  36  53  78 111 149 200 245 291 343
#     4  10  18  29  56  84 113 145 187 238 284 340
#     4  11  23  37  56  83 118 157 190 245 305 370
#
# _framework density 18.873529000000001
#
# number of rings (size 3 to 8) (size 9 to 14) (size 15 to 20)
#    0.600    1.600    2.000    1.200    4.200    3.200 
#    0.000    1.000    0.000    0.000    0.000    0.000 
#    0.000    0.000    0.000    0.000    0.000    0.000 
#
# Total GULP energy -247807.595464 kJ/mol
# GULP energy per Si atom -12390.379773 kJ/mol
# Density = 1.883057 g / cm^3
# Si number density = 18.873529 Si / 1000 Ang^3
#
#
#
# Elastic Constant Matrix: (Units=GPa)
#
#
# Indices 1 2 3 4 5 6 
#
# 1 93.7427 58.6037 23.2643 0.0000 0.0000 0.0000
# 2 58.6037 136.9640 22.4405 0.0000 0.0000 0.0000
# 3 23.2643 22.4405 50.3301 0.0000 0.0000 0.0000
# 4 0.0000 0.0000 0.0000 12.3608 0.0000 0.0000
# 5 0.0000 0.0000 0.0000 0.0000 12.5735 0.0000
# 6 0.0000 0.0000 0.0000 0.0000 0.0000 28.4843
#
#
#
# Elastic Compliance Matrix: (Units=1/GPa)
#
#
# Indices 1 2 3 4 5 6 
#
# 1 0.015464 -0.005875 -0.004529 0.000000 0.000000 0.000000
# 2 -0.005875 0.010108 -0.001791 0.000000 0.000000 0.000000
# 3 -0.004529 -0.001791 0.022761 0.000000 0.000000 0.000000
# 4 0.000000 0.000000 0.000000 0.080901 0.000000 0.000000
# 5 0.000000 0.000000 0.000000 0.000000 0.079532 0.000000
# 6 0.000000 0.000000 0.000000 0.000000 0.000000 0.035107
#
#
# Mechanical properties :
#
#
# Convention : Reuss Voigt Hill
#
# Bulk Modulus (GPa) = 41.76492 54.40598 48.08545
# Shear Modulus (GPa) = 18.09993 22.46561 20.28277
#
# Velocity S-wave (km/s) = 3.10015 3.45385 3.28177
# Velocity P-wave (km/s) = 5.91536 6.69288 6.31609
#
# Compressibility (1/GPa) = 0.02394354
#
# Stress axis : x y z
#
# Youngs Moduli (GPa) = 64.66644 98.92808 43.93505
#
# Poissons Ratio (x) = 0.58117 0.19897
# Poissons Ratio (y) = 0.37990 0.07871
# Poissons Ratio (z) = 0.29285 0.17723
#
# Static dielectric constant tensor:
#      x y z
#    x 3.360740 0.000000 0.000000 
#    y 0.000000 3.690450 0.000000 
#    z 0.000000 0.000000 3.009580 
# 
# 
# High freq. dielectric constant tensor:
#      x y z
#    x 1.731440 0.000000 0.000000 
#    y 0.000000 1.737140 0.000000 
#    z 0.000000 0.000000 1.682060 
# 
# From -- ./inp_files/11068.got.cif
#   From: 2010.03.12/outbox.cif.g09.slc.cpg/sg24_6_cif.got.tgz:11068.got - 2010.04.14 03:06:53.
