data_PCOD8164570
_publ_section_title
;
Structure prediction by ZEFSAII (Michael W. Deem and Ramdas Pophale) SiO2 
 PCOD8164570
Probable space group: I 21 21 21
;
_chemical_formula_sum "Si O2"
_cell_formula_units_Z 48
_cell_length_a 17.065067
_cell_length_b 8.992216
_cell_length_c 16.169792
_cell_angle_alpha 90.000000
_cell_angle_beta 90.000000
_cell_angle_gamma 90.000000
_cell_volume 2481.299349
_symmetry_space_group_name_H-M "I 21 21 21"
_symmetry_group_IT_number 24
_symmetry_cell_setting 'orthorhombic'
loop_
_space_group_symop_operation_xyz
x,y,z
-x,1/2-y,z
x,-y,1/2-z
1/2-x,y,-z
1/2+x,1/2+y,1/2+z
1/2-x,-y,1/2+z
1/2+x,1/2-y,-z
-x,1/2+y,1/2-z
loop_
_atom_site_type_symbol
_atom_site_label
_atom_site_fract_x
_atom_site_fract_y
_atom_site_fract_z
Si Si1 0.215388 0.731684 0.297160
Si Si2 0.137804 0.511951 0.975351
Si Si3 0.726199 0.913630 0.867844
Si Si4 0.473135 0.918950 0.497081
Si Si5 0.055678 0.888640 0.321653
Si Si6 0.682492 0.317949 0.058195
O O1 0.197331 0.565868 0.326638
O O2 0.225292 0.723158 0.197269
O O3 0.145550 0.841849 0.317333
O O4 0.291233 0.796199 0.346243
O O5 0.182848 0.576890 0.895993
O O6 0.162032 0.339009 0.986680
O O7 0.043596 0.523245 0.962053
O O8 0.166828 0.607586 0.054975
O O9 0.500000 0.750000 0.496606
O O10 0.457066 0.970091 0.590840
O O11 0.393303 0.927888 0.442698
O O12 0.000000 0.750000 0.310163
O O13 0.032051 0.000000 0.250000
O O14 0.750000 0.389244 0.000000
#
# Coordination Sequence:
#
# PCOD8164570 Si02
#       6
#     8   8   8   8   8   8
#     4  10  18  29  49  76 108 142 176 227 275 325
#     4   9  15  27  45  76 109 135 176 219 279 330
#     4   9  16  27  51  77 109 138 173 228 274 331
#     4   9  17  28  49  75 105 139 175 228 268 317
#     4  11  23  33  48  80 115 145 177 222 279 338
#     4  10  14  28  45  74 104 137 181 222 269 320
#
# _framework density 19.344702999999999
#
# number of rings (size 3 to 8) (size 9 to 14) (size 15 to 20)
#    0.000    2.333    5.000    2.000    4.667    0.000 
#    0.000    0.000    0.000    4.000   21.667    0.000 
#    0.000    0.000    0.000    0.000    0.000    0.000 
#
# Total GULP energy -297398.402423 kJ/mol
# GULP energy per Si atom -12391.600101 kJ/mol
# Density = 1.930067 g / cm^3
# Si number density = 19.344703 Si / 1000 Ang^3
#
#
#
# Elastic Constant Matrix: (Units=GPa)
#
#
# Indices 1 2 3 4 5 6 
#
# 1 144.7041 17.9369 37.2300 0.0000 0.0000 0.0000
# 2 17.9369 13.9300 15.2654 0.0000 0.0000 0.0000
# 3 37.2300 15.2654 69.6763 0.0000 0.0000 0.0000
# 4 0.0000 0.0000 0.0000 16.9517 0.0000 0.0000
# 5 0.0000 0.0000 0.0000 0.0000 97.0547 0.0000
# 6 0.0000 0.0000 0.0000 0.0000 0.0000 1.5638
#
#
#
# Elastic Compliance Matrix: (Units=1/GPa)
#
#
# Indices 1 2 3 4 5 6 
#
# 1 0.008637 -0.007980 -0.002867 0.000000 0.000000 0.000000
# 2 -0.007980 0.101841 -0.018048 0.000000 0.000000 0.000000
# 3 -0.002867 -0.018048 0.019838 0.000000 0.000000 0.000000
# 4 0.000000 0.000000 0.000000 0.058991 0.000000 0.000000
# 5 0.000000 0.000000 0.000000 0.000000 0.010303 0.000000
# 6 0.000000 0.000000 0.000000 0.000000 0.000000 0.639477
#
#
# Mechanical properties :
#
#
# Convention : Reuss Voigt Hill
#
# Bulk Modulus (GPa) = 13.78814 41.01943 27.40379
# Shear Modulus (GPa) = 5.42856 33.63925 19.53391
#
# Velocity S-wave (km/s) = 1.67700 4.17458 3.18115
# Velocity P-wave (km/s) = 3.30043 6.66983 5.26211
#
# Compressibility (1/GPa) = 0.07252609
#
# Stress axis : x y z
#
# Youngs Moduli (GPa) = 115.77496 9.81920 50.40801
#
# Poissons Ratio (x) = 0.07836 0.14451
# Poissons Ratio (y) = 0.92391 0.90978
# Poissons Ratio (z) = 0.33191 0.17722
#
# Static dielectric constant tensor:
#      x y z
#    x 3.925380 0.000000 0.000000 
#    y 0.000000 2.616110 0.000000 
#    z 0.000000 0.000000 3.698090 
# 
# 
# High freq. dielectric constant tensor:
#      x y z
#    x 1.759510 0.000000 0.000000 
#    y 0.000000 1.685860 0.000000 
#    z 0.000000 0.000000 1.745080 
# 
# From -- ./inp_files/27116.got.cif
#   From: 2010.03.12/outbox.cif.g09.slc.cpg/sg24_14_cif.got.tgz:27116.got - 2010.04.14 03:06:53.
