data_PCOD8164539
_publ_section_title
;
Structure prediction by ZEFSAII (Michael W. Deem and Ramdas Pophale) SiO2 
 PCOD8164539
Probable space group: I 2 2 2
;
_chemical_formula_sum "Si O2"
_cell_formula_units_Z 34
_cell_length_a 5.074957
_cell_length_b 25.665762
_cell_length_c 11.064002
_cell_angle_alpha 90.000000
_cell_angle_beta 90.000000
_cell_angle_gamma 90.000000
_cell_volume 1441.115453
_symmetry_space_group_name_H-M "I 2 2 2"
_symmetry_group_IT_number 23
_symmetry_cell_setting 'orthorhombic'
loop_
_space_group_symop_operation_xyz
x,y,z
-x,-y,z
x,-y,-z
-x,y,-z
1/2+x,1/2+y,1/2+z
1/2-x,1/2-y,1/2+z
1/2+x,1/2-y,1/2-z
1/2-x,1/2+y,1/2-z
loop_
_atom_site_type_symbol
_atom_site_label
_atom_site_fract_x
_atom_site_fract_y
_atom_site_fract_z
Si Si1 0.000000 0.812652 0.500000
Si Si2 0.243225 0.262673 0.311646
Si Si3 0.500000 0.120482 0.500000
Si Si4 0.746835 0.377657 0.582342
Si Si5 0.635397 0.948317 0.694873
Si Si6 0.500000 0.500000 0.000000
O O1 0.932382 0.776957 0.387884
O O2 0.752133 0.846644 0.539845
O O3 0.535521 0.236780 0.301242
O O4 0.269597 0.318826 0.371091
O O5 0.575687 0.087095 0.621167
O O6 0.500000 0.391100 0.500000
O O7 0.736310 0.417442 0.694221
O O8 0.000000 0.386519 0.500000
O O9 0.837694 0.962249 0.588000
O O10 0.500000 0.000000 0.748752
#
# Coordination Sequence:
#
# PCOD8164539 Si02
#       6
#     4   8   4   8   8   2
#     4  12  25  42  71 108 151 186 252 295 380 444
#     4  12  25  46  74 109 152 206 254 310 366 455
#     4  12  25  46  76 118 144 196 253 326 384 450
#     4  12  29  51  77 114 167 207 257 313 393 481
#     4  12  27  49  79 112 155 201 260 336 393 451
#     4  12  24  52  82 110 156 186 280 338 388 450
#
# _framework density 23.592836999999999
#
# number of rings (size 3 to 8) (size 9 to 14) (size 15 to 20)
#    0.000    0.000    3.529    6.353    4.941    0.471 
#    0.000    0.000    0.000    0.000    0.000    0.000 
#    0.000    0.000    0.000    0.000    0.000    0.000 
#
# Total GULP energy -210752.439092 kJ/mol
# GULP energy per Si atom -12397.202300 kJ/mol
# Density = 2.353914 g / cm^3
# Si number density = 23.592837 Si / 1000 Ang^3
#
#
#
# Elastic Constant Matrix: (Units=GPa)
#
#
# Indices 1 2 3 4 5 6 
#
# 1 130.5573 41.6544 51.8486 0.0000 0.0000 0.0000
# 2 41.6544 147.1818 72.6786 -0.0002 0.0000 -0.0001
# 3 51.8486 72.6786 143.6315 -0.0008 0.0001 -0.0001
# 4 0.0000 -0.0002 -0.0008 69.2558 0.0001 -0.0001
# 5 0.0000 0.0000 0.0001 0.0001 48.1221 0.0000
# 6 0.0000 -0.0001 -0.0001 -0.0001 0.0000 23.7219
#
#
#
# Elastic Compliance Matrix: (Units=1/GPa)
#
#
# Indices 1 2 3 4 5 6 
#
# 1 0.009117 -0.001273 -0.002647 0.000000 0.000000 0.000000
# 2 -0.001273 0.009235 -0.004214 0.000000 0.000000 0.000000
# 3 -0.002647 -0.004214 0.010050 0.000000 0.000000 0.000000
# 4 0.000000 0.000000 0.000000 0.014439 0.000000 0.000000
# 5 0.000000 0.000000 0.000000 0.000000 0.020780 0.000000
# 6 0.000000 0.000000 0.000000 0.000000 0.000000 0.042155
#
#
# Mechanical properties :
#
#
# Convention : Reuss Voigt Hill
#
# Bulk Modulus (GPa) = 82.40696 83.74818 83.07757
# Shear Modulus (GPa) = 39.65464 45.23256 42.44360
#
# Velocity S-wave (km/s) = 4.10419 4.38335 4.24607
# Velocity P-wave (km/s) = 7.58049 7.82258 7.70249
#
# Compressibility (1/GPa) = 0.01213490
#
# Stress axis : x y z
#
# Youngs Moduli (GPa) = 109.68755 108.28020 99.50468
#
# Poissons Ratio (x) = 0.13786 0.26337
# Poissons Ratio (y) = 0.13965 0.41927
# Poissons Ratio (z) = 0.29032 0.45624
#
# Static dielectric constant tensor:
#      x y z
#    x 4.703980 0.000000 0.000000 
#    y 0.000000 4.663690 0.000000 
#    z 0.000000 0.000000 4.308780 
# 
# 
# High freq. dielectric constant tensor:
#      x y z
#    x 1.942770 0.000000 0.000000 
#    y 0.000000 1.953650 0.000000 
#    z 0.000000 0.000000 1.939690 
# 
# From -- ./inp_files/4272.got.cif
#   From: 2010.03.12/outbox.cif.g09.slc.cpg/sg23_3_cif.got.tgz:4272.got - 2010.04.14 02:50:06.
