data_PCOD8164643
_publ_section_title
;
Structure prediction by ZEFSAII (Michael W. Deem and Ramdas Pophale) SiO2 
 PCOD8164643
Probable space group: I 21 21 21
;
_chemical_formula_sum "Si O2"
_cell_formula_units_Z 32
_cell_length_a 17.007081
_cell_length_b 9.772698
_cell_length_c 9.981251
_cell_angle_alpha 90.000000
_cell_angle_beta 90.000000
_cell_angle_gamma 90.000000
_cell_volume 1658.934486
_symmetry_space_group_name_H-M "I 21 21 21"
_symmetry_group_IT_number 24
_symmetry_cell_setting 'orthorhombic'
loop_
_space_group_symop_operation_xyz
x,y,z
-x,1/2-y,z
x,-y,1/2-z
1/2-x,y,-z
1/2+x,1/2+y,1/2+z
1/2-x,-y,1/2+z
1/2+x,1/2-y,-z
-x,1/2+y,1/2-z
loop_
_atom_site_type_symbol
_atom_site_label
_atom_site_fract_x
_atom_site_fract_y
_atom_site_fract_z
Si Si1 0.234707 0.372552 0.152251
Si Si2 0.916431 0.697890 0.340938
Si Si3 0.134468 0.912980 0.079942
Si Si4 0.193449 0.863392 0.809803
O O1 0.242907 0.500000 0.250000
O O2 0.146012 0.319592 0.154775
O O3 0.299259 0.260808 0.203854
O O4 0.250000 0.418180 0.000000
O O5 0.926471 0.653487 0.184704
O O6 0.887735 0.573249 0.436074
O O7 0.000000 0.750000 0.395035
O O8 0.220131 0.905637 0.144262
O O9 0.137539 0.830676 0.938630
O O10 0.154190 0.000000 0.750000
#
# Coordination Sequence:
#
# PCOD8164643 Si02
#       4
#     8   8   8   8
#     4  11  24  37  58  90 124 154 194 250 307 351
#     4  10  20  35  57  85 121 153 200 246 289 359
#     4   9  18  32  56  86 106 155 203 238 288 340
#     4  10  17  34  61  79 111 145 211 252 277 338
#
# _framework density 19.289489
#
# number of rings (size 3 to 8) (size 9 to 14) (size 15 to 20)
#    0.000    2.000    5.000    1.500   10.500    0.000 
#    0.000    0.000    0.000   10.500    0.000    0.000 
#    0.000    0.000    0.000    0.000    0.000    0.000 
#
# Total GULP energy -198251.902603 kJ/mol
# GULP energy per Si atom -12390.743913 kJ/mol
# Density = 1.924559 g / cm^3
# Si number density = 19.289489 Si / 1000 Ang^3
#
#
#
# Elastic Constant Matrix: (Units=GPa)
#
#
# Indices 1 2 3 4 5 6 
#
# 1 40.5108 24.4806 19.6226 0.0000 0.0000 0.0000
# 2 24.4806 110.1105 49.0778 0.0000 0.0000 0.0000
# 3 19.6226 49.0778 133.1545 0.0000 0.0000 0.0000
# 4 0.0000 0.0000 0.0000 31.3753 0.0000 0.0000
# 5 0.0000 0.0000 0.0000 0.0000 18.1934 0.0000
# 6 0.0000 0.0000 0.0000 0.0000 0.0000 14.4534
#
#
#
# Elastic Compliance Matrix: (Units=1/GPa)
#
#
# Indices 1 2 3 4 5 6 
#
# 1 0.029081 -0.005451 -0.002277 0.000000 0.000000 0.000000
# 2 -0.005451 0.011889 -0.003579 0.000000 0.000000 0.000000
# 3 -0.002277 -0.003579 0.009165 0.000000 0.000000 0.000000
# 4 0.000000 0.000000 0.000000 0.031872 0.000000 0.000000
# 5 0.000000 0.000000 0.000000 0.000000 0.054965 0.000000
# 6 0.000000 0.000000 0.000000 0.000000 0.000000 0.069188
#
#
# Mechanical properties :
#
#
# Convention : Reuss Voigt Hill
#
# Bulk Modulus (GPa) = 36.33386 52.23753 44.28569
# Shear Modulus (GPa) = 21.01313 25.51073 23.26193
#
# Velocity S-wave (km/s) = 3.30412 3.64059 3.47643
# Velocity P-wave (km/s) = 5.78215 6.69414 6.25479
#
# Compressibility (1/GPa) = 0.02752253
#
# Stress axis : x y z
#
# Youngs Moduli (GPa) = 34.38615 84.11331 109.11593
#
# Poissons Ratio (x) = 0.45850 0.24841
# Poissons Ratio (y) = 0.18744 0.39049
# Poissons Ratio (z) = 0.07828 0.30101
#
# Static dielectric constant tensor:
#      x y z
#    x 3.128900 0.000000 0.000000 
#    y 0.000000 3.498290 0.000000 
#    z 0.000000 0.000000 3.831800 
# 
# 
# High freq. dielectric constant tensor:
#      x y z
#    x 1.700480 0.000000 0.000000 
#    y 0.000000 1.745230 0.000000 
#    z 0.000000 0.000000 1.755080 
# 
# From -- ./inp_files/10581.got.cif
#   From: 2010.03.12/outbox.cif.g09.slc.cpg/sg24_6_cif.got.tgz:10581.got - 2010.04.14 03:06:53.
