data_PCOD8164199
_publ_section_title
;
Structure prediction by ZEFSAII (Michael W. Deem and Ramdas Pophale) SiO2 
 PCOD8164199
Probable space group: I 2 2 2
;
_chemical_formula_sum "Si O2"
_cell_formula_units_Z 36
_cell_length_a 9.540495
_cell_length_b 8.098942
_cell_length_c 21.042694
_cell_angle_alpha 90.000000
_cell_angle_beta 90.000000
_cell_angle_gamma 90.000000
_cell_volume 1625.925105
_symmetry_space_group_name_H-M "I 2 2 2"
_symmetry_group_IT_number 23
_symmetry_cell_setting 'orthorhombic'
loop_
_space_group_symop_operation_xyz
x,y,z
-x,-y,z
x,-y,-z
-x,y,-z
1/2+x,1/2+y,1/2+z
1/2-x,1/2-y,1/2+z
1/2+x,1/2-y,1/2-z
1/2-x,1/2+y,1/2-z
loop_
_atom_site_type_symbol
_atom_site_label
_atom_site_fract_x
_atom_site_fract_y
_atom_site_fract_z
Si Si1 0.500000 0.500000 0.500000
Si Si2 0.656825 0.250043 0.583656
Si Si3 0.877132 0.881390 0.789144
Si Si4 0.500000 0.000000 0.500000
Si Si5 0.978458 0.192781 0.573931
Si Si6 0.624647 0.116133 0.816337
O O1 0.608670 0.403998 0.543022
O O2 0.581619 0.260488 0.652588
O O3 0.823028 0.244691 0.593990
O O4 0.605937 0.091345 0.546193
O O5 0.835836 0.767453 0.730089
O O6 0.757557 0.997390 0.819238
O O7 0.000000 0.000000 0.765386
O O8 0.000000 0.232462 0.500000
O O9 0.086289 0.304837 0.614957
O O10 0.000000 0.000000 0.589045
O O11 0.500000 0.000000 0.790033
#
# Coordination Sequence:
#
# PCOD8164199 Si02
#       6
#     2   8   8   2   8   8
#     4  10  24  46  70 106 152 178 248 294 368 450
#     4  11  24  45  69 106 140 191 238 297 369 432
#     4  12  27  46  71 103 141 192 244 300 364 440
#     4  10  24  42  74 102 152 186 234 304 360 450
#     4  11  26  46  76 107 146 190 243 306 374 445
#     4  12  27  48  72 104 143 192 245 309 368 438
#
# _framework density 22.141241999999998
#
# number of rings (size 3 to 8) (size 9 to 14) (size 15 to 20)
#    0.000    0.667    3.333    3.333    7.778    2.222 
#    0.000    0.000    0.000    0.000    0.000    0.000 
#    0.000    0.000    0.000    0.000    0.000    0.000 
#
# Total GULP energy -223169.317735 kJ/mol
# GULP energy per Si atom -12398.295430 kJ/mol
# Density = 2.209085 g / cm^3
# Si number density = 22.141242 Si / 1000 Ang^3
#
#
#
# Elastic Constant Matrix: (Units=GPa)
#
#
# Indices 1 2 3 4 5 6 
#
# 1 88.2233 43.2864 21.1535 0.0000 0.0000 0.0000
# 2 43.2864 126.5324 64.3922 0.0000 0.0000 0.0000
# 3 21.1535 64.3922 147.2637 0.0000 0.0000 0.0000
# 4 0.0000 0.0000 0.0000 43.4469 0.0000 0.0000
# 5 0.0000 0.0000 0.0000 0.0000 28.2058 0.0000
# 6 0.0000 0.0000 0.0000 0.0000 0.0000 79.6182
#
#
#
# Elastic Compliance Matrix: (Units=1/GPa)
#
#
# Indices 1 2 3 4 5 6 
#
# 1 0.013622 -0.004713 0.000104 0.000000 0.000000 0.000000
# 2 -0.004713 0.011796 -0.004481 0.000000 0.000000 0.000000
# 3 0.000104 -0.004481 0.008735 0.000000 0.000000 0.000000
# 4 0.000000 0.000000 0.000000 0.023017 0.000000 0.000000
# 5 0.000000 0.000000 0.000000 0.000000 0.035454 0.000000
# 6 0.000000 0.000000 0.000000 0.000000 0.000000 0.012560
#
#
# Mechanical properties :
#
#
# Convention : Reuss Voigt Hill
#
# Bulk Modulus (GPa) = 62.60441 68.85373 65.72907
# Shear Modulus (GPa) = 38.85385 45.79999 42.32692
#
# Velocity S-wave (km/s) = 4.19360 4.55305 4.37702
# Velocity P-wave (km/s) = 7.19616 7.66847 7.43607
#
# Compressibility (1/GPa) = 0.01597331
#
# Stress axis : x y z
#
# Youngs Moduli (GPa) = 73.40844 84.77643 114.48421
#
# Poissons Ratio (x) = 0.39957 -0.01192
# Poissons Ratio (y) = 0.34599 0.51298
# Poissons Ratio (z) = -0.00764 0.37986
#
# Static dielectric constant tensor:
#      x y z
#    x 3.986910 0.000000 0.000000 
#    y 0.000000 3.933600 0.000000 
#    z 0.000000 0.000000 4.037260 
# 
# 
# High freq. dielectric constant tensor:
#      x y z
#    x 1.869670 0.000000 0.000000 
#    y 0.000000 1.888530 0.000000 
#    z 0.000000 0.000000 1.885400 
# 
# From -- ./inp_files/6757.got.cif
#   From: 2010.03.12/outbox.cif.g09.slc.cpg/sg23_4_cif.got.tgz:6757.got - 2010.04.14 02:50:06.
