data_PCOD8164212
_publ_section_title
;
Structure prediction by ZEFSAII (Michael W. Deem and Ramdas Pophale) SiO2 
 PCOD8164212
Probable space group: I 2 2 2
;
_chemical_formula_sum "Si O2"
_cell_formula_units_Z 40
_cell_length_a 23.507822
_cell_length_b 7.954279
_cell_length_c 10.226175
_cell_angle_alpha 90.000000
_cell_angle_beta 90.000000
_cell_angle_gamma 90.000000
_cell_volume 1912.169709
_symmetry_space_group_name_H-M "I 2 2 2"
_symmetry_group_IT_number 23
_symmetry_cell_setting 'orthorhombic'
loop_
_space_group_symop_operation_xyz
x,y,z
-x,-y,z
x,-y,-z
-x,y,-z
1/2+x,1/2+y,1/2+z
1/2-x,1/2-y,1/2+z
1/2+x,1/2-y,1/2-z
1/2-x,1/2+y,1/2-z
loop_
_atom_site_type_symbol
_atom_site_label
_atom_site_fract_x
_atom_site_fract_y
_atom_site_fract_z
Si Si1 0.405653 0.500000 0.000000
Si Si2 0.227471 0.344503 0.100818
Si Si3 0.115053 0.503694 0.846232
Si Si4 0.341637 0.349895 0.245193
Si Si5 0.500000 0.000000 0.786764
Si Si6 0.000000 0.247342 0.500000
Si Si7 0.809467 0.000000 0.000000
O O1 0.368482 0.563716 0.880641
O O2 0.446667 0.644392 0.055361
O O3 0.167771 0.369232 0.180001
O O4 0.275060 0.329955 0.211953
O O5 0.236882 0.500000 0.000000
O O6 0.227927 0.169219 0.020232
O O7 0.129485 0.325772 0.780640
O O8 0.053957 0.567069 0.794999
O O9 0.107723 0.500000 0.000000
O O10 0.348283 0.470642 0.371516
O O11 0.523696 0.147520 0.878334
#
# Coordination Sequence:
#
# PCOD8164212 Si02
#       7
#     4   8   8   8   4   4   4
#     4  11  24  44  72 100 142 185 236 292 362 423
#     4  11  24  46  67 104 144 182 241 291 355 442
#     4  11  23  46  68  99 143 183 236 297 350 431
#     4  12  24  46  71 103 145 190 232 303 363 429
#     4  11  23  44  68  98 131 191 236 286 364 403
#     4  10  24  44  66 100 136 176 242 300 332 436
#     4  12  26  42  70  99 144 191 230 296 360 422
#
# _framework density 20.918642999999999
#
# number of rings (size 3 to 8) (size 9 to 14) (size 15 to 20)
#    0.000    0.800    7.000    1.500    2.800    0.000 
#    3.600    0.000    0.000    1.200    0.000    0.000 
#    0.000    0.000    0.000    0.000    0.000    0.000 
#
# Total GULP energy -247877.380018 kJ/mol
# GULP energy per Si atom -12393.869001 kJ/mol
# Density = 2.087103 g / cm^3
# Si number density = 20.918643 Si / 1000 Ang^3
#
#
#
# Elastic Constant Matrix: (Units=GPa)
#
#
# Indices 1 2 3 4 5 6 
#
# 1 136.6850 32.0701 60.5035 0.0000 0.0000 0.0000
# 2 32.0701 124.0498 48.0095 0.0000 0.0000 0.0000
# 3 60.5035 48.0095 133.5764 0.0000 0.0000 0.0000
# 4 0.0000 0.0000 0.0000 31.9679 0.0000 0.0000
# 5 0.0000 0.0000 0.0000 0.0000 63.0735 0.0000
# 6 0.0000 0.0000 0.0000 0.0000 0.0000 12.7384
#
#
#
# Elastic Compliance Matrix: (Units=1/GPa)
#
#
# Indices 1 2 3 4 5 6 
#
# 1 0.009235 -0.000893 -0.003862 0.000000 0.000000 0.000000
# 2 -0.000893 0.009450 -0.002992 0.000000 0.000000 0.000000
# 3 -0.003862 -0.002992 0.010311 0.000000 0.000000 0.000000
# 4 0.000000 0.000000 0.000000 0.031281 0.000000 0.000000
# 5 0.000000 0.000000 0.000000 0.000000 0.015855 0.000000
# 6 0.000000 0.000000 0.000000 0.000000 0.000000 0.078503
#
#
# Mechanical properties :
#
#
# Convention : Reuss Voigt Hill
#
# Bulk Modulus (GPa) = 74.06204 75.05305 74.55754
# Shear Modulus (GPa) = 28.63193 38.47116 33.55155
#
# Velocity S-wave (km/s) = 3.70365 4.29311 4.00922
# Velocity P-wave (km/s) = 7.33287 7.78015 7.55982
#
# Compressibility (1/GPa) = 0.01350219
#
# Stress axis : x y z
#
# Youngs Moduli (GPa) = 108.28181 105.81909 96.98244
#
# Poissons Ratio (x) = 0.09447 0.37456
# Poissons Ratio (y) = 0.09667 0.29018
# Poissons Ratio (z) = 0.41820 0.31662
#
# Static dielectric constant tensor:
#      x y z
#    x 3.936010 0.000000 0.000000 
#    y 0.000000 3.822490 0.000000 
#    z 0.000000 0.000000 3.827960 
# 
# 
# High freq. dielectric constant tensor:
#      x y z
#    x 1.815850 0.000000 0.000000 
#    y 0.000000 1.823290 0.000000 
#    z 0.000000 0.000000 1.824640 
# 
# From -- ./inp_files/12461.got.cif
#   From: 2010.03.12/outbox.cif.g09.slc.cpg/sg23_7_cif.got.tgz:12461.got - 2010.04.14 02:50:06.
