data_PCOD8164557
_publ_section_title
;
Structure prediction by ZEFSAII (Michael W. Deem and Ramdas Pophale) SiO2 
 PCOD8164557
Probable space group: I 2 2 2
;
_chemical_formula_sum "Si O2"
_cell_formula_units_Z 48
_cell_length_a 12.931520
_cell_length_b 18.576268
_cell_length_c 13.830491
_cell_angle_alpha 90.000000
_cell_angle_beta 90.000000
_cell_angle_gamma 90.000000
_cell_volume 3322.351989
_symmetry_space_group_name_H-M "I 2 2 2"
_symmetry_group_IT_number 23
_symmetry_cell_setting 'orthorhombic'
loop_
_space_group_symop_operation_xyz
x,y,z
-x,-y,z
x,-y,-z
-x,y,-z
1/2+x,1/2+y,1/2+z
1/2-x,1/2-y,1/2+z
1/2+x,1/2-y,1/2-z
1/2-x,1/2+y,1/2-z
loop_
_atom_site_type_symbol
_atom_site_label
_atom_site_fract_x
_atom_site_fract_y
_atom_site_fract_z
Si Si1 0.298179 0.584659 0.888999
Si Si2 0.386916 0.081034 0.254542
Si Si3 0.500000 0.169895 0.114042
Si Si4 0.886916 0.418966 0.754542
Si Si5 0.500000 0.335637 0.885873
Si Si6 0.298179 0.415341 0.888999
O O1 0.198955 0.610577 0.827986
O O2 0.397616 0.625480 0.845017
O O3 0.317818 0.500000 0.879547
O O4 0.277717 0.606505 1.000000
O O5 0.396919 0.132000 0.159239
O O6 0.500000 0.081393 0.307289
O O7 0.301045 0.110577 0.327986
O O8 0.358590 0.000000 0.220903
O O9 0.603081 0.131999 0.159239
O O10 0.500000 0.252871 0.145355
O O11 0.500000 0.159337 0.000000
O O12 0.397616 0.374520 0.845017
O O13 0.500000 0.345462 0.000000
#
# Coordination Sequence:
#
# PCOD8164557 Si02
#       6
#     8   8   8   8   8   8
#     4   9  16  27  43  62  86 109 130 163 198 239
#     4   8  16  28  41  62  83 103 138 166 199 245
#     4   9  17  29  42  59  83 107 135 175 203 228
#     4   8  16  28  41  62  83 103 138 166 199 245
#     4   9  17  27  41  62  83 110 140 158 194 244
#     4   9  16  27  43  62  86 109 130 163 198 239
#
# _framework density 14.447597
#
# number of rings (size 3 to 8) (size 9 to 14) (size 15 to 20)
#    1.000    2.333    0.000    0.500    0.000    5.333 
#    0.000    3.333    0.000    0.000    0.000    1.167 
#    0.000    5.333    0.000    0.000    0.000    0.000 
#
# Total GULP energy -297329.101530 kJ/mol
# GULP energy per Si atom -12388.712564 kJ/mol
# Density = 1.441471 g / cm^3
# Si number density = 14.447597 Si / 1000 Ang^3
#
#
#
# Elastic Constant Matrix: (Units=GPa)
#
#
# Indices 1 2 3 4 5 6 
#
# 1 108.3818 49.0741 51.6972 0.0000 0.0000 0.0000
# 2 49.0741 67.9262 42.7161 0.0000 0.0000 0.0000
# 3 51.6972 42.7161 69.6696 0.0002 0.0000 0.0000
# 4 0.0000 0.0000 0.0002 18.0065 0.0000 0.0000
# 5 0.0000 0.0000 0.0000 0.0000 14.6103 0.0000
# 6 0.0000 0.0000 0.0000 0.0000 0.0000 15.8044
#
#
#
# Elastic Compliance Matrix: (Units=1/GPa)
#
#
# Indices 1 2 3 4 5 6 
#
# 1 0.015927 -0.006632 -0.007753 0.000000 0.000000 0.000000
# 2 -0.006632 0.026721 -0.011463 0.000000 0.000000 0.000000
# 3 -0.007753 -0.011463 0.027134 0.000000 0.000000 0.000000
# 4 0.000000 0.000000 0.000000 0.055535 0.000000 0.000000
# 5 0.000000 0.000000 0.000000 0.000000 0.068445 0.000000
# 6 0.000000 0.000000 0.000000 0.000000 0.000000 0.063274
#
#
# Mechanical properties :
#
#
# Convention : Reuss Voigt Hill
#
# Bulk Modulus (GPa) = 55.28176 59.21697 57.24936
# Shear Modulus (GPa) = 15.88512 16.51692 16.20102
#
# Velocity S-wave (km/s) = 3.31947 3.38484 3.35231
# Velocity P-wave (km/s) = 7.28275 7.50683 7.39564
#
# Compressibility (1/GPa) = 0.01808915
#
# Stress axis : x y z
#
# Youngs Moduli (GPa) = 62.78545 37.42333 36.85383
#
# Poissons Ratio (x) = 0.24817 0.28571
# Poissons Ratio (y) = 0.41636 0.42244
# Poissons Ratio (z) = 0.48675 0.42897
#
# Static dielectric constant tensor:
#      x y z
#    x 2.844550 0.000000 0.000000 
#    y 0.000000 2.804560 0.000000 
#    z 0.000000 0.000000 2.526940 
# 
# 
# High freq. dielectric constant tensor:
#      x y z
#    x 1.547510 0.000000 0.000000 
#    y 0.000000 1.552670 0.000000 
#    z 0.000000 0.000000 1.516480 
# 
# From -- ./inp_files/16997.got.cif
#   From: 2010.03.12/outbox.cif.g09.slc.cpg/sg23_9_cif.got.tgz:16997.got - 2010.04.14 02:50:06.
