data_PCOD8164582
_publ_section_title
;
Structure prediction by ZEFSAII (Michael W. Deem and Ramdas Pophale) SiO2 
 PCOD8164582
Probable space group: I 21 21 21
;
_chemical_formula_sum "Si O2"
_cell_formula_units_Z 64
_cell_length_a 27.351753
_cell_length_b 20.923169
_cell_length_c 7.942313
_cell_angle_alpha 90.000000
_cell_angle_beta 90.000000
_cell_angle_gamma 90.000000
_cell_volume 4545.269379
_symmetry_space_group_name_H-M "I 21 21 21"
_symmetry_group_IT_number 24
_symmetry_cell_setting 'orthorhombic'
loop_
_space_group_symop_operation_xyz
x,y,z
-x,1/2-y,z
x,-y,1/2-z
1/2-x,y,-z
1/2+x,1/2+y,1/2+z
1/2-x,-y,1/2+z
1/2+x,1/2-y,-z
-x,1/2+y,1/2-z
loop_
_atom_site_type_symbol
_atom_site_label
_atom_site_fract_x
_atom_site_fract_y
_atom_site_fract_z
Si Si1 0.442483 0.260759 0.431416
Si Si2 0.401402 0.876772 0.440794
Si Si3 0.803057 0.426317 0.447064
Si Si4 0.458493 0.071527 0.750000
Si Si5 0.466999 0.685432 0.750000
Si Si6 0.598598 0.376772 0.440793
Si Si7 0.057517 0.260759 0.931416
Si Si8 0.196943 0.926317 0.447064
O O1 0.500000 0.250000 0.414737
O O2 0.433395 0.312178 0.581199
O O3 0.415222 0.195869 0.482183
O O4 0.422803 0.286115 0.250000
O O5 0.426597 0.921468 0.580326
O O6 0.418524 0.894511 0.250000
O O7 0.415222 0.804131 0.482183
O O8 0.343117 0.884924 0.453804
O O9 0.750000 0.400111 0.500000
O O10 0.843117 0.384924 0.546196
O O11 0.808317 0.500000 0.502796
O O12 0.811274 0.417785 0.250000
O O13 0.502805 0.120779 0.750000
O O14 0.479996 0.000000 0.750000
O O15 0.426597 0.921468 0.919675
O O16 0.500000 0.750000 0.750000
O O17 0.433395 0.687822 0.581199
O O18 0.000000 0.250000 0.914737
O O19 0.250000 0.900111 0.500000
#
# Coordination Sequence:
#
# PCOD8164582 Si02
#       8
#     8   8   8   8   8   8   8   8
#     4   9  16  27  45  63  77 100 136 175 208 254
#     4  11  20  31  46  62  81 107 142 185 219 249
#     4  10  20  32  43  56  79 110 143 179 216 251
#     4  12  22  30  42  66  88 108 142 182 213 248
#     4  10  16  30  46  58  82 110 132 172 210 254
#     4  11  20  31  46  62  81 107 142 185 219 249
#     4   9  16  27  45  63  77 100 136 175 208 254
#     4  10  20  32  43  56  79 110 143 179 216 251
#
# _framework density 14.080572999999999
#
# number of rings (size 3 to 8) (size 9 to 14) (size 15 to 20)
#    0.000    1.750    6.250    1.500    0.000    3.000 
#    0.000    0.000    0.000    0.000    0.000    0.000 
#    0.000    0.000    0.000    0.000    0.000    1.250 
#
# Total GULP energy -396564.549772 kJ/mol
# GULP energy per Si atom -12392.642180 kJ/mol
# Density = 1.404852 g / cm^3
# Si number density = 14.080573 Si / 1000 Ang^3
#
#
#
# Elastic Constant Matrix: (Units=GPa)
#
#
# Indices 1 2 3 4 5 6 
#
# 1 59.6695 46.1209 21.4159 0.0000 0.0000 0.0000
# 2 46.1209 71.0741 38.8102 0.0000 0.0000 0.0000
# 3 21.4159 38.8102 115.6483 0.0000 0.0000 0.0000
# 4 0.0000 0.0000 0.0000 11.5976 0.0000 0.0000
# 5 0.0000 0.0000 0.0000 0.0000 16.2519 0.0000
# 6 0.0000 0.0000 0.0000 0.0000 0.0000 23.4123
#
#
#
# Elastic Compliance Matrix: (Units=1/GPa)
#
#
# Indices 1 2 3 4 5 6 
#
# 1 0.033794 -0.022666 0.001348 0.000000 0.000000 0.000000
# 2 -0.022666 0.032429 -0.006685 0.000000 0.000000 0.000000
# 3 0.001348 -0.006685 0.010641 0.000000 0.000000 0.000000
# 4 0.000000 0.000000 0.000000 0.086225 0.000000 0.000000
# 5 0.000000 0.000000 0.000000 0.000000 0.061531 0.000000
# 6 0.000000 0.000000 0.000000 0.000000 0.000000 0.042713
#
#
# Mechanical properties :
#
#
# Convention : Reuss Voigt Hill
#
# Bulk Modulus (GPa) = 47.94347 51.00951 49.47649
# Shear Modulus (GPa) = 15.13818 19.58869 17.36343
#
# Velocity S-wave (km/s) = 3.28245 3.73391 3.51543
# Velocity P-wave (km/s) = 6.96342 7.40911 7.18972
#
# Compressibility (1/GPa) = 0.02085790
#
# Stress axis : x y z
#
# Youngs Moduli (GPa) = 29.59074 30.83707 93.97841
#
# Poissons Ratio (x) = 0.69895 -0.12671
# Poissons Ratio (y) = 0.67070 0.62828
# Poissons Ratio (z) = -0.03990 0.20616
#
# Static dielectric constant tensor:
#      x y z
#    x 2.602370 0.000000 0.000000 
#    y 0.000000 3.117580 0.000000 
#    z 0.000000 0.000000 4.026860 
# 
# 
# High freq. dielectric constant tensor:
#      x y z
#    x 1.499980 0.000000 0.000000 
#    y 0.000000 1.496240 0.000000 
#    z 0.000000 0.000000 1.574390 
# 
# From -- ./inp_files/16512.got.cif
#   From: 2010.03.12/outbox.cif.g09.slc.cpg/sg24_9_cif.got.tgz:16512.got - 2010.04.14 03:06:53.
