data_PCOD8164283
_publ_section_title
;
Structure prediction by ZEFSAII (Michael W. Deem and Ramdas Pophale) SiO2 
 PCOD8164283
Probable space group: I 2 2 2
;
_chemical_formula_sum "Si O2"
_cell_formula_units_Z 40
_cell_length_a 14.843894
_cell_length_b 14.113796
_cell_length_c 8.766258
_cell_angle_alpha 90.000000
_cell_angle_beta 90.000000
_cell_angle_gamma 90.000000
_cell_volume 1836.563414
_symmetry_space_group_name_H-M "I 2 2 2"
_symmetry_group_IT_number 23
_symmetry_cell_setting 'orthorhombic'
loop_
_space_group_symop_operation_xyz
x,y,z
-x,-y,z
x,-y,-z
-x,y,-z
1/2+x,1/2+y,1/2+z
1/2-x,1/2-y,1/2+z
1/2+x,1/2-y,1/2-z
1/2-x,1/2+y,1/2-z
loop_
_atom_site_type_symbol
_atom_site_label
_atom_site_fract_x
_atom_site_fract_y
_atom_site_fract_z
Si Si1 0.200722 0.344876 0.406804
Si Si2 0.635407 0.800748 0.395308
Si Si3 0.556452 0.237419 0.294707
Si Si4 0.721161 0.046053 0.780455
Si Si5 0.415712 0.548353 0.335313
O O1 0.290591 0.283326 0.370390
O O2 0.111032 0.283323 0.363088
O O3 0.187199 0.440215 0.307933
O O4 0.204917 0.378827 0.581048
O O5 0.549744 0.785568 0.282057
O O6 0.605737 0.817656 0.568753
O O7 0.674665 0.904762 0.361959
O O8 0.561648 0.343303 0.355834
O O9 0.826129 0.035758 0.738336
O O10 0.500000 0.500000 0.249218
O O11 0.399722 0.500000 0.500000
#
# Coordination Sequence:
#
# PCOD8164283 Si02
#       5
#     8   8   8   8   8
#     4  11  21  41  60  93 126 161 214 254 318 364
#     4  11  21  40  60  93 124 163 211 255 317 365
#     4  11  23  37  63  90 126 163 203 268 302 373
#     4  11  22  37  64  88 125 168 202 262 310 373
#     4  11  18  34  64  97 115 153 212 258 302 361
#
# _framework density 21.779809
#
# number of rings (size 3 to 8) (size 9 to 14) (size 15 to 20)
#    0.000    1.000    6.000    3.600    0.000    2.400 
#    0.000    4.000    0.000    0.000    0.000    2.800 
#    0.000    0.000    0.000    0.000    0.000    0.000 
#
# Total GULP energy -247805.159243 kJ/mol
# GULP energy per Si atom -12390.257962 kJ/mol
# Density = 2.173024 g / cm^3
# Si number density = 21.779809 Si / 1000 Ang^3
#
#
#
# Elastic Constant Matrix: (Units=GPa)
#
#
# Indices 1 2 3 4 5 6 
#
# 1 132.7117 25.4284 18.5719 0.0000 0.0000 0.0000
# 2 25.4284 99.5626 17.7862 0.0000 0.0000 0.0000
# 3 18.5719 17.7862 34.2411 0.0000 0.0000 0.0000
# 4 0.0000 0.0000 0.0000 35.2022 0.0000 0.0000
# 5 0.0000 0.0000 0.0000 0.0000 22.5952 0.0000
# 6 0.0000 0.0000 0.0000 0.0000 0.0000 19.3397
#
#
#
# Elastic Compliance Matrix: (Units=1/GPa)
#
#
# Indices 1 2 3 4 5 6 
#
# 1 0.008342 -0.001457 -0.003767 0.000000 0.000000 0.000000
# 2 -0.001457 0.011326 -0.005093 0.000000 0.000000 0.000000
# 3 -0.003767 -0.005093 0.033893 0.000000 0.000000 0.000000
# 4 0.000000 0.000000 0.000000 0.028407 0.000000 0.000000
# 5 0.000000 0.000000 0.000000 0.000000 0.044257 0.000000
# 6 0.000000 0.000000 0.000000 0.000000 0.000000 0.051707
#
#
# Mechanical properties :
#
#
# Convention : Reuss Voigt Hill
#
# Bulk Modulus (GPa) = 30.37111 43.34316 36.85714
# Shear Modulus (GPa) = 23.86150 29.07602 26.46876
#
# Velocity S-wave (km/s) = 3.31354 3.65773 3.48988
# Velocity P-wave (km/s) = 5.34924 6.14674 5.76180
#
# Compressibility (1/GPa) = 0.03292603
#
# Stress axis : x y z
#
# Youngs Moduli (GPa) = 119.88127 88.29291 29.50436
#
# Poissons Ratio (x) = 0.12868 0.11115
# Poissons Ratio (y) = 0.17472 0.15026
# Poissons Ratio (z) = 0.45163 0.44965
#
# Static dielectric constant tensor:
#      x y z
#    x 4.435930 0.000000 0.000000 
#    y 0.000000 4.046110 0.000000 
#    z 0.000000 0.000000 3.482990 
# 
# 
# High freq. dielectric constant tensor:
#      x y z
#    x 1.871910 0.000000 0.000000 
#    y 0.000000 1.868670 0.000000 
#    z 0.000000 0.000000 1.810940 
# 
# From -- ./inp_files/9587.got.cif
#   From: 2010.03.12/outbox.cif.g09.slc.cpg/sg23_5_cif.got.tgz:9587.got - 2010.04.14 02:50:06.
