data_PCOD8164145
_publ_section_title
;
Structure prediction by ZEFSAII (Michael W. Deem and Ramdas Pophale) SiO2 
 PCOD8164145
Probable space group: I 2 2 2
;
_chemical_formula_sum "Si O2"
_cell_formula_units_Z 58
_cell_length_a 8.158620
_cell_length_b 26.820105
_cell_length_c 11.262166
_cell_angle_alpha 90.000000
_cell_angle_beta 90.000000
_cell_angle_gamma 90.000000
_cell_volume 2464.331361
_symmetry_space_group_name_H-M "I 2 2 2"
_symmetry_group_IT_number 23
_symmetry_cell_setting 'orthorhombic'
loop_
_space_group_symop_operation_xyz
x,y,z
-x,-y,z
x,-y,-z
-x,y,-z
1/2+x,1/2+y,1/2+z
1/2-x,1/2-y,1/2+z
1/2+x,1/2-y,1/2-z
1/2-x,1/2+y,1/2-z
loop_
_atom_site_type_symbol
_atom_site_label
_atom_site_fract_x
_atom_site_fract_y
_atom_site_fract_z
Si Si1 0.748694 0.959161 0.321199
Si Si2 0.385268 0.934144 0.298640
Si Si3 0.500000 0.500000 0.000000
Si Si4 0.769749 0.343827 0.927659
Si Si5 0.312372 0.371825 0.656662
Si Si6 0.884038 0.803768 0.782914
Si Si7 0.349837 0.868022 0.077908
Si Si8 0.384221 0.812266 0.667574
O O1 0.568734 0.936983 0.356607
O O2 0.837965 0.924561 0.223182
O O3 0.708286 0.014383 0.275449
O O4 0.880123 0.963130 0.426840
O O5 0.273114 0.902461 0.391103
O O6 0.399050 0.912909 0.165139
O O7 0.623420 0.315452 0.858400
O O8 0.937344 0.322003 0.878453
O O9 0.753311 0.332357 0.067886
O O10 0.461079 0.332851 0.665164
O O11 0.287081 0.384903 0.518440
O O12 0.154012 0.343222 0.713233
O O13 0.717463 0.823134 0.843012
O O14 0.879396 0.745928 0.808642
O O15 0.500000 0.848568 0.000000
#
# Coordination Sequence:
#
# PCOD8164145 Si02
#       8
#     8   8   2   8   8   8   8   8
#     4  11  26  47  73 106 141 188 237 296 366 436
#     4  10  23  49  74 102 138 198 242 290 354 450
#     4  12  32  42  76 110 156 178 232 308 382 418
#     4  10  23  44  66 100 140 190 250 287 356 446
#     4  12  25  45  71 108 145 181 244 304 368 433
#     4  11  26  42  69 103 148 188 235 309 377 425
#     4  11  23  46  73 101 139 188 245 297 354 441
#     4  11  24  42  70  99 142 196 246 296 358 450
#
# _framework density 23.535795
#
# number of rings (size 3 to 8) (size 9 to 14) (size 15 to 20)
#    0.000    1.103    2.759    2.069   11.586    2.207 
#    0.000    0.000    0.000    0.000    0.000    0.000 
#    0.000    0.000    0.000    0.000    0.000    0.000 
#
# Total GULP energy -359422.710869 kJ/mol
# GULP energy per Si atom -12393.886582 kJ/mol
# Density = 2.348223 g / cm^3
# Si number density = 23.535795 Si / 1000 Ang^3
#
#
#
# Elastic Constant Matrix: (Units=GPa)
#
#
# Indices 1 2 3 4 5 6 
#
# 1 58.9142 20.8384 26.7418 -0.0021 -0.0008 -0.0017
# 2 20.8384 155.7422 43.4187 -0.0012 -0.0005 0.0010
# 3 26.7418 43.4187 110.7589 -0.0019 -0.0024 0.0021
# 4 -0.0021 -0.0012 -0.0019 24.5374 -0.0011 -0.0010
# 5 -0.0008 -0.0005 -0.0024 -0.0011 36.2845 0.0012
# 6 -0.0017 0.0010 0.0021 -0.0010 0.0012 -320.2125
#
#
#
# Elastic Compliance Matrix: (Units=1/GPa)
#
#
# Indices 1 2 3 4 5 6 
#
# 1 0.019348 -0.001444 -0.004105 0.000001 0.000000 0.000000
# 2 -0.001444 0.007316 -0.002519 0.000000 0.000000 0.000000
# 3 -0.004105 -0.002519 0.011007 0.000000 0.000001 0.000000
# 4 0.000001 0.000000 0.000000 0.040754 0.000001 0.000000
# 5 0.000000 0.000000 0.000001 0.000001 0.027560 0.000000
# 6 0.000000 0.000000 0.000000 0.000000 0.000000 -0.003123
#
#
# Mechanical properties :
#
#
# Convention : Reuss Voigt Hill
#
# Bulk Modulus (GPa) = 46.43804 56.37924 51.40864
# Shear Modulus (GPa) = 39.62618 -36.25036 1.68791
#
# Velocity S-wave (km/s) = 4.10769 -3.92882 0.84778
# Velocity P-wave (km/s) = 6.50162 1.85089 4.78001
#
# Compressibility (1/GPa) = 0.02153407
#
# Stress axis : x y z
#
# Youngs Moduli (GPa) = 51.68463 136.67744 90.84754
#
# Poissons Ratio (x) = 0.19740 0.37295
# Poissons Ratio (y) = 0.07465 0.22888
# Poissons Ratio (z) = 0.21218 0.34435
#
# Static dielectric constant tensor:
#      x y z
#    x 4.386070 0.000000 -0.000010 
#    y 0.000000 4.339930 0.000000 
#    z -0.000010 0.000000 5.196130 
# 
# 
# High freq. dielectric constant tensor:
#      x y z
#    x 1.933180 0.000000 0.000000 
#    y 0.000000 1.932390 0.000000 
#    z 0.000000 0.000000 1.937770 
# 
# From -- ./inp_files/14896.got.cif
#   From: 2010.03.12/outbox.cif.g09.slc.cpg/sg23_8_cif.got.tgz:14896.got - 2010.04.14 02:50:06.
