data_PCOD8164928
_publ_section_title
;
Structure prediction by ZEFSAII (Michael W. Deem and Ramdas Pophale) SiO2 
 PCOD8164928
Probable space group: I 21 21 21
;
_chemical_formula_sum "Si O2"
_cell_formula_units_Z 64
_cell_length_a 18.190034
_cell_length_b 11.301307
_cell_length_c 15.175291
_cell_angle_alpha 90.000000
_cell_angle_beta 90.000000
_cell_angle_gamma 90.000000
_cell_volume 3119.602153
_symmetry_space_group_name_H-M "I 21 21 21"
_symmetry_group_IT_number 24
_symmetry_cell_setting 'orthorhombic'
loop_
_space_group_symop_operation_xyz
x,y,z
-x,1/2-y,z
x,-y,1/2-z
1/2-x,y,-z
1/2+x,1/2+y,1/2+z
1/2-x,-y,1/2+z
1/2+x,1/2-y,-z
-x,1/2+y,1/2-z
loop_
_atom_site_type_symbol
_atom_site_label
_atom_site_fract_x
_atom_site_fract_y
_atom_site_fract_z
Si Si1 0.700819 0.300196 0.583130
Si Si2 0.569335 0.030986 0.003937
Si Si3 0.835360 0.945139 0.153325
Si Si4 0.091800 0.013868 0.496517
Si Si5 0.699087 0.502624 0.152258
Si Si6 0.181754 0.544004 0.653743
Si Si7 0.422364 0.760978 0.587184
Si Si8 0.761960 0.738928 0.395837
O O1 0.750000 0.254619 0.500000
O O2 0.669224 0.197764 0.646645
O O3 0.630484 0.377155 0.552573
O O4 0.754650 0.378243 0.642359
O O5 0.618204 0.002251 0.088442
O O6 0.493435 0.959818 0.016236
O O7 0.559664 0.173509 0.995775
O O8 0.601621 0.986862 0.911817
O O9 0.851247 0.000000 0.250000
O O10 0.756337 0.986184 0.118295
O O11 0.129672 0.992515 0.589580
O O12 0.096696 0.894096 0.440017
O O13 0.667139 0.500000 0.250000
O O14 0.754728 0.396520 0.131096
O O15 0.158666 0.500000 0.750000
O O16 0.199575 0.684691 0.654771
O O17 0.500000 0.750000 0.644169
O O18 0.345332 0.717216 0.631988
O O19 0.750000 0.756623 0.500000
#
# Coordination Sequence:
#
# PCOD8164928 Si02
#       8
#     8   8   8   8   8   8   8   8
#     4  10  21  41  63  90 124 165 209 260 325 391
#     4  11  21  39  66  88 125 174 206 257 324 379
#     4  11  24  40  63  88 121 158 216 269 318 379
#     4  10  21  40  63  89 125 170 210 252 322 394
#     4  11  23  35  62  99 128 160 209 269 317 378
#     4  11  23  36  61  97 126 161 215 267 312 377
#     4  10  19  34  65  94 116 159 217 256 312 385
#     4  12  18  39  66  88 121 167 214 260 313 380
#
# _framework density 20.515436999999999
#
# number of rings (size 3 to 8) (size 9 to 14) (size 15 to 20)
#    0.000    1.250    5.000    1.500    3.500    1.000 
#    0.000    0.625    5.500    0.750    0.000    0.000 
#    0.000    0.000    0.000    0.000    0.000    0.000 
#
# Total GULP energy -396559.784988 kJ/mol
# GULP energy per Si atom -12392.493281 kJ/mol
# Density = 2.046874 g / cm^3
# Si number density = 20.515437 Si / 1000 Ang^3
#
#
#
# Elastic Constant Matrix: (Units=GPa)
#
#
# Indices 1 2 3 4 5 6 
#
# 1 156.6815 29.8199 48.4008 0.0000 0.0000 0.0000
# 2 29.8199 107.3197 44.2892 0.0000 0.0000 0.0000
# 3 48.4008 44.2892 96.8842 0.0000 0.0000 0.0000
# 4 0.0000 0.0000 0.0000 27.5808 0.0000 0.0000
# 5 0.0000 0.0000 0.0000 0.0000 9.0259 0.0000
# 6 0.0000 0.0000 0.0000 0.0000 0.0000 22.2602
#
#
#
# Elastic Compliance Matrix: (Units=1/GPa)
#
#
# Indices 1 2 3 4 5 6 
#
# 1 0.007586 -0.000670 -0.003483 0.000000 0.000000 0.000000
# 2 -0.000670 0.011544 -0.004942 0.000000 0.000000 0.000000
# 3 -0.003483 -0.004942 0.014321 0.000000 0.000000 0.000000
# 4 0.000000 0.000000 0.000000 0.036257 0.000000 0.000000
# 5 0.000000 0.000000 0.000000 0.000000 0.110792 0.000000
# 6 0.000000 0.000000 0.000000 0.000000 0.000000 0.044923
#
#
# Mechanical properties :
#
#
# Convention : Reuss Voigt Hill
#
# Bulk Modulus (GPa) = 65.53466 67.32280 66.42873
# Shear Modulus (GPa) = 20.10447 27.66508 23.88477
#
# Velocity S-wave (km/s) = 3.13384 3.67618 3.41579
# Velocity P-wave (km/s) = 6.71625 7.13484 6.92871
#
# Compressibility (1/GPa) = 0.01525910
#
# Stress axis : x y z
#
# Youngs Moduli (GPa) = 131.82181 86.62674 69.82740
#
# Poissons Ratio (x) = 0.05807 0.24323
# Poissons Ratio (y) = 0.08836 0.34510
# Poissons Ratio (z) = 0.45918 0.42813
#
# Static dielectric constant tensor:
#      x y z
#    x 4.056560 0.000000 0.000000 
#    y 0.000000 3.928230 0.000000 
#    z 0.000000 0.000000 3.439890 
# 
# 
# High freq. dielectric constant tensor:
#      x y z
#    x 1.805480 0.000000 0.000000 
#    y 0.000000 1.813190 0.000000 
#    z 0.000000 0.000000 1.773800 
# 
# From -- ./inp_files/27205.got.cif
#   From: 2010.03.12/outbox.cif.g09.slc.cpg/sg24_14_cif.got.tgz:27205.got - 2010.04.14 03:06:53.
