data_PCOD8164310
_publ_section_title
;
Structure prediction by ZEFSAII (Michael W. Deem and Ramdas Pophale) SiO2 
 PCOD8164310
Probable space group: I 2 2 2
;
_chemical_formula_sum "Si O2"
_cell_formula_units_Z 64
_cell_length_a 9.732609
_cell_length_b 15.043992
_cell_length_c 21.225395
_cell_angle_alpha 90.000000
_cell_angle_beta 90.000000
_cell_angle_gamma 90.000000
_cell_volume 3107.764856
_symmetry_space_group_name_H-M "I 2 2 2"
_symmetry_group_IT_number 23
_symmetry_cell_setting 'orthorhombic'
loop_
_space_group_symop_operation_xyz
x,y,z
-x,-y,z
x,-y,-z
-x,y,-z
1/2+x,1/2+y,1/2+z
1/2-x,1/2-y,1/2+z
1/2+x,1/2-y,1/2-z
1/2-x,1/2+y,1/2-z
loop_
_atom_site_type_symbol
_atom_site_label
_atom_site_fract_x
_atom_site_fract_y
_atom_site_fract_z
Si Si1 0.842751 0.724120 0.513189
Si Si2 0.536534 0.750436 0.678192
Si Si3 0.154916 0.968387 0.658441
Si Si4 0.997337 0.273141 0.683299
Si Si5 0.619616 0.069275 0.894119
Si Si6 0.743515 0.781040 0.382185
Si Si7 0.637279 0.553703 0.694053
Si Si8 0.785893 0.154727 0.375379
O O1 0.829315 0.625129 0.544369
O O2 0.765839 0.728986 0.447326
O O3 0.774931 0.801092 0.555867
O O4 0.000000 0.747613 0.500000
O O5 0.466875 0.774670 0.743964
O O6 0.417714 0.767800 0.627765
O O7 0.599916 0.653414 0.676950
O O8 0.662841 0.814305 0.668168
O O9 0.206489 0.883583 0.618497
O O10 0.186524 0.956114 0.733262
O O11 0.236801 0.049333 0.626105
O O12 0.000000 0.000000 0.647634
O O13 0.833904 0.268591 0.671201
O O14 0.057677 0.361471 0.654592
O O15 0.067124 0.184535 0.654048
O O16 0.744813 0.022160 0.855906
O O17 0.500000 0.000000 0.914073
O O18 0.500000 0.500000 0.680720
#
# Coordination Sequence:
#
# PCOD8164310 Si02
#       8
#     8   8   8   8   8   8   8   8
#     4  11  22  46  67  91 132 179 236 265 324 404
#     4  12  24  41  65 100 142 171 218 276 351 410
#     4  11  21  41  67 103 134 166 230 277 330 402
#     4  11  20  42  65  96 130 177 222 268 344 396
#     4  11  25  42  66  99 129 175 231 284 324 384
#     4  12  24  39  71  99 126 187 221 265 341 403
#     4  11  23  41  65  99 139 171 215 282 346 399
#     4  11  23  42  66  94 139 175 211 288 328 399
#
# _framework density 20.593578999999998
#
# number of rings (size 3 to 8) (size 9 to 14) (size 15 to 20)
#    0.000    0.750    7.500    2.250    3.500    1.750 
#    0.000    1.250    0.000    1.500    0.000    0.000 
#    0.000    0.000    0.000    0.000    0.000    0.000 
#
# Total GULP energy -396662.330081 kJ/mol
# GULP energy per Si atom -12395.697815 kJ/mol
# Density = 2.054671 g / cm^3
# Si number density = 20.593579 Si / 1000 Ang^3
#
#
#
# Elastic Constant Matrix: (Units=GPa)
#
#
# Indices 1 2 3 4 5 6 
#
# 1 62.7474 32.8689 18.7094 0.0000 0.0000 0.0000
# 2 32.8689 83.6320 41.4904 0.0000 0.0000 0.0000
# 3 18.7094 41.4904 94.9195 0.0000 0.0000 0.0000
# 4 0.0000 0.0000 0.0000 3.1786 0.0000 0.0000
# 5 0.0000 0.0000 0.0000 0.0000 -1.3296 0.0000
# 6 0.0000 0.0000 0.0000 0.0000 0.0000 22.8687
#
#
#
# Elastic Compliance Matrix: (Units=1/GPa)
#
#
# Indices 1 2 3 4 5 6 
#
# 1 0.020100 -0.007577 -0.000650 0.000000 0.000000 0.000000
# 2 -0.007577 0.018125 -0.006429 0.000000 0.000000 0.000000
# 3 -0.000650 -0.006429 0.013473 0.000000 0.000000 0.000000
# 4 0.000000 0.000000 0.000000 0.314600 -0.000001 0.000000
# 5 0.000000 0.000000 0.000000 -0.000001 -0.752097 0.000000
# 6 0.000000 0.000000 0.000000 0.000000 0.000000 0.043728
#
#
# Mechanical properties :
#
#
# Convention : Reuss Voigt Hill
#
# Bulk Modulus (GPa) = 44.67069 47.49293 46.08181
# Shear Modulus (GPa) = -16.37749 14.82555 -0.77597
#
# Velocity S-wave (km/s) = -2.82312 2.68603 -0.61451
# Velocity P-wave (km/s) = 3.33347 5.72116 4.68208
#
# Compressibility (1/GPa) = 0.02238604
#
# Stress axis : x y z
#
# Youngs Moduli (GPa) = 49.75162 55.17363 74.21996
#
# Poissons Ratio (x) = 0.41807 0.04822
# Poissons Ratio (y) = 0.37698 0.47715
# Poissons Ratio (z) = 0.03233 0.35471
#
# Static dielectric constant tensor:
#      x y z
#    x 4.011890 0.000000 0.000000 
#    y 0.000000 3.995500 0.000000 
#    z 0.000000 0.000000 3.805870 
# 
# 
# High freq. dielectric constant tensor:
#      x y z
#    x 1.802880 0.000000 0.000000 
#    y 0.000000 1.808130 0.000000 
#    z 0.000000 0.000000 1.797700 
# 
# From -- ./inp_files/28108.got.cif
#   From: 2010.03.12/outbox.cif.g09.slc.cpg/sg23_15_cif.got.tgz:28108.got - 2010.04.14 02:50:06.
