data_PCOD8164042
_publ_section_title
;
Structure prediction by ZEFSAII (Michael W. Deem and Ramdas Pophale) SiO2 
 PCOD8164042
Probable space group: I 2 2 2
;
_chemical_formula_sum "Si O2"
_cell_formula_units_Z 40
_cell_length_a 6.402720
_cell_length_b 15.491292
_cell_length_c 19.899291
_cell_angle_alpha 90.000000
_cell_angle_beta 90.000000
_cell_angle_gamma 90.000000
_cell_volume 1973.739139
_symmetry_space_group_name_H-M "I 2 2 2"
_symmetry_group_IT_number 23
_symmetry_cell_setting 'orthorhombic'
loop_
_space_group_symop_operation_xyz
x,y,z
-x,-y,z
x,-y,-z
-x,y,-z
1/2+x,1/2+y,1/2+z
1/2-x,1/2-y,1/2+z
1/2+x,1/2-y,1/2-z
1/2-x,1/2+y,1/2-z
loop_
_atom_site_type_symbol
_atom_site_label
_atom_site_fract_x
_atom_site_fract_y
_atom_site_fract_z
Si Si1 0.233431 0.151857 0.708270
Si Si2 0.500000 0.000000 0.702126
Si Si3 0.881322 0.915045 0.935505
Si Si4 0.500000 0.000000 0.000000
Si Si5 0.500000 0.500000 0.000000
Si Si6 0.344264 0.397101 0.877385
Si Si7 0.594066 0.259374 0.660375
O O1 0.373467 0.209593 0.657580
O O2 0.142806 0.218595 0.762100
O O3 0.060406 0.101700 0.664327
O O4 0.380797 0.076687 0.743189
O O5 0.327610 0.955524 0.656776
O O6 0.907608 0.850064 0.875483
O O7 0.641808 0.938241 0.953138
O O8 0.000000 0.000000 0.910782
O O9 0.000000 0.875798 0.000000
O O10 0.368523 0.564883 0.047536
O O11 0.269178 0.297826 0.876929
#
# Coordination Sequence:
#
# PCOD8164042 Si02
#       7
#     8   4   8   2   2   8   8
#     4  11  22  43  62  94 134 170 228 271 328 398
#     4  10  22  42  66  92 129 175 220 276 328 402
#     4   9  21  41  61  95 125 160 213 268 329 402
#     4   8  18  40  64  86 126 154 210 266 310 410
#     4  12  24  44  68  96 138 186 226 286 342 416
#     4  11  24  43  64  95 132 175 228 275 335 407
#     4  11  24  40  65  94 132 177 215 281 331 397
#
# _framework density 20.266103999999999
#
# number of rings (size 3 to 8) (size 9 to 14) (size 15 to 20)
#    0.000    1.800    4.000    0.000    0.000    8.400 
#    0.000    0.000    0.000    0.000    0.000    0.000 
#    0.000    0.000    0.000    0.000    0.000    0.000 
#
# Total GULP energy -247836.941135 kJ/mol
# GULP energy per Si atom -12391.847057 kJ/mol
# Density = 2.021998 g / cm^3
# Si number density = 20.266104 Si / 1000 Ang^3
#
#
#
# Elastic Constant Matrix: (Units=GPa)
#
#
# Indices 1 2 3 4 5 6 
#
# 1 133.4041 50.8878 33.0304 0.0000 0.0000 0.0000
# 2 50.8878 102.5553 40.5007 0.0000 0.0000 0.0000
# 3 33.0304 40.5007 74.0866 0.0000 0.0000 0.0000
# 4 0.0000 0.0000 0.0000 42.6187 0.0000 0.0000
# 5 0.0000 0.0000 0.0000 0.0000 13.5746 0.0000
# 6 0.0000 0.0000 0.0000 0.0000 0.0000 39.1202
#
#
#
# Elastic Compliance Matrix: (Units=1/GPa)
#
#
# Indices 1 2 3 4 5 6 
#
# 1 0.009499 -0.003878 -0.002115 0.000000 0.000000 0.000000
# 2 -0.003878 0.014019 -0.005935 0.000000 0.000000 0.000000
# 3 -0.002115 -0.005935 0.017685 0.000000 0.000000 0.000000
# 4 0.000000 0.000000 0.000000 0.023464 0.000000 0.000000
# 5 0.000000 0.000000 0.000000 0.000000 0.073667 0.000000
# 6 0.000000 0.000000 0.000000 0.000000 0.000000 0.025562
#
#
# Mechanical properties :
#
#
# Convention : Reuss Voigt Hill
#
# Bulk Modulus (GPa) = 57.64581 62.09820 59.87200
# Shear Modulus (GPa) = 25.83532 31.43786 28.63659
#
# Velocity S-wave (km/s) = 3.57431 3.94287 3.76311
# Velocity P-wave (km/s) = 6.74837 7.17190 6.96336
#
# Compressibility (1/GPa) = 0.01734732
#
# Stress axis : x y z
#
# Youngs Moduli (GPa) = 105.27398 71.33241 56.54550
#
# Poissons Ratio (x) = 0.27664 0.11959
# Poissons Ratio (y) = 0.40827 0.33558
# Poissons Ratio (z) = 0.22265 0.42333
#
# Static dielectric constant tensor:
#      x y z
#    x 4.051130 0.000000 0.000000 
#    y 0.000000 3.980700 0.000000 
#    z 0.000000 0.000000 3.332270 
# 
# 
# High freq. dielectric constant tensor:
#      x y z
#    x 1.807800 0.000000 0.000000 
#    y 0.000000 1.813380 0.000000 
#    z 0.000000 0.000000 1.755660 
# 
# From -- ./inp_files/19143.got.cif
#   From: 2010.03.12/outbox.cif.g09.slc.cpg/sg23_10_cif.got.tgz:19143.got - 2010.04.14 02:50:06.
