data_PCOD8164181
_publ_section_title
;
Structure prediction by ZEFSAII (Michael W. Deem and Ramdas Pophale) SiO2 
 PCOD8164181
Probable space group: I 2 2 2
;
_chemical_formula_sum "Si O2"
_cell_formula_units_Z 30
_cell_length_a 10.693003
_cell_length_b 7.798805
_cell_length_c 18.395885
_cell_angle_alpha 90.000000
_cell_angle_beta 90.000000
_cell_angle_gamma 90.000000
_cell_volume 1534.081512
_symmetry_space_group_name_H-M "I 2 2 2"
_symmetry_group_IT_number 23
_symmetry_cell_setting 'orthorhombic'
loop_
_space_group_symop_operation_xyz
x,y,z
-x,-y,z
x,-y,-z
-x,y,-z
1/2+x,1/2+y,1/2+z
1/2-x,1/2-y,1/2+z
1/2+x,1/2-y,1/2-z
1/2-x,1/2+y,1/2-z
loop_
_atom_site_type_symbol
_atom_site_label
_atom_site_fract_x
_atom_site_fract_y
_atom_site_fract_z
Si Si1 0.333392 0.243141 0.592256
Si Si2 0.000000 0.500000 0.380209
Si Si3 0.910280 0.148065 0.324130
Si Si4 0.194300 0.500000 0.500000
Si Si5 0.500000 0.500000 0.314097
Si Si6 0.000000 0.500000 0.000000
O O1 0.227772 0.148901 0.641061
O O2 0.275794 0.338435 0.522898
O O3 0.415303 0.375572 0.638355
O O4 0.418764 0.102902 0.556851
O O5 0.031023 0.662983 0.330967
O O6 0.114037 0.440965 0.430890
O O7 0.904505 0.108592 0.237547
O O8 0.000000 0.000000 0.360818
#
# Coordination Sequence:
#
# PCOD8164181 Si02
#       6
#     8   4   8   4   4   2
#     4  11  23  42  62  92 133 166 214 265 321 391
#     4   9  18  39  66  97 120 157 212 256 334 363
#     4   9  23  42  66  98 121 171 215 272 314 379
#     4   9  20  37  64  88 124 165 193 274 310 376
#     4  10  24  41  60  95 126 172 214 264 324 378
#     4  12  28  36  62  98 120 182 200 264 334 384
#
# _framework density 19.555675000000001
#
# number of rings (size 3 to 8) (size 9 to 14) (size 15 to 20)
#    0.800    1.333    0.000    1.600    3.733    7.467 
#    0.000    0.000    0.000    0.000    0.000    0.000 
#    0.000    0.000    0.000    0.000    0.000    0.000 
#
# Total GULP energy -185890.430297 kJ/mol
# GULP energy per Si atom -12392.695353 kJ/mol
# Density = 1.951117 g / cm^3
# Si number density = 19.555675 Si / 1000 Ang^3
#
#
#
# Elastic Constant Matrix: (Units=GPa)
#
#
# Indices 1 2 3 4 5 6 
#
# 1 144.3459 87.8285 66.6231 0.0000 0.0000 0.0000
# 2 87.8285 146.8561 81.6728 0.0000 0.0000 0.0000
# 3 66.6231 81.6728 116.1802 0.0000 0.0000 0.0000
# 4 0.0000 0.0000 0.0000 44.1460 0.0000 0.0000
# 5 0.0000 0.0000 0.0000 0.0000 -339.3393 0.0000
# 6 0.0000 0.0000 0.0000 0.0000 0.0000 74.3685
#
#
#
# Elastic Compliance Matrix: (Units=1/GPa)
#
#
# Indices 1 2 3 4 5 6 
#
# 1 0.011448 -0.005247 -0.002876 0.000000 0.000000 0.000000
# 2 -0.005247 0.013585 -0.006541 0.000000 0.000000 0.000000
# 3 -0.002876 -0.006541 0.014855 0.000000 0.000000 0.000000
# 4 0.000000 0.000000 0.000000 0.022652 0.000000 0.000000
# 5 0.000000 0.000000 0.000000 0.000000 -0.002947 0.000000
# 6 0.000000 0.000000 0.000000 0.000000 0.000000 0.013447
#
#
# Mechanical properties :
#
#
# Convention : Reuss Voigt Hill
#
# Bulk Modulus (GPa) = 94.70394 97.73676 96.22035
# Shear Modulus (GPa) = 47.21925 -32.74776 7.23574
#
# Velocity S-wave (km/s) = 4.91919 -4.09662 1.92564
# Velocity P-wave (km/s) = 8.98875 5.26411 7.36575
#
# Compressibility (1/GPa) = 0.01055922
#
# Stress axis : x y z
#
# Youngs Moduli (GPa) = 87.35263 73.60900 67.31635
#
# Poissons Ratio (x) = 0.38622 0.19362
# Poissons Ratio (y) = 0.45833 0.44035
# Poissons Ratio (z) = 0.25125 0.48151
#
# Static dielectric constant tensor:
#      x y z
#    x 3.780580 0.000000 0.000000 
#    y 0.000000 3.930960 0.000000 
#    z 0.000000 0.000000 3.510300 
# 
# 
# High freq. dielectric constant tensor:
#      x y z
#    x 1.769520 0.000000 0.000000 
#    y 0.000000 1.765910 0.000000 
#    z 0.000000 0.000000 1.761040 
# 
# From -- ./inp_files/3687.got.cif
#   From: 2010.03.12/outbox.cif.g09.slc.cpg/sg23_2_cif.got.tgz:3687.got - 2010.04.14 02:50:06.
