data_PCOD8164074
_publ_section_title
;
Structure prediction by ZEFSAII (Michael W. Deem and Ramdas Pophale) SiO2 
 PCOD8164074
Probable space group: I 2 2 2
;
_chemical_formula_sum "Si O2"
_cell_formula_units_Z 48
_cell_length_a 13.876793
_cell_length_b 14.242940
_cell_length_c 11.508395
_cell_angle_alpha 90.000000
_cell_angle_beta 90.000000
_cell_angle_gamma 90.000000
_cell_volume 2274.592037
_symmetry_space_group_name_H-M "I 2 2 2"
_symmetry_group_IT_number 23
_symmetry_cell_setting 'orthorhombic'
loop_
_space_group_symop_operation_xyz
x,y,z
-x,-y,z
x,-y,-z
-x,y,-z
1/2+x,1/2+y,1/2+z
1/2-x,1/2-y,1/2+z
1/2+x,1/2-y,1/2-z
1/2-x,1/2+y,1/2-z
loop_
_atom_site_type_symbol
_atom_site_label
_atom_site_fract_x
_atom_site_fract_y
_atom_site_fract_z
Si Si1 0.641339 0.649616 0.110401
Si Si2 0.842873 0.579160 0.088310
Si Si3 0.608352 0.985571 0.826662
Si Si4 0.500000 0.500000 0.500000
Si Si5 0.500000 0.500000 0.000000
Si Si6 0.500000 0.793845 0.500000
Si Si7 0.165633 0.350898 0.514848
Si Si8 0.868425 0.149566 0.115314
O O1 0.742099 0.623906 0.049308
O O2 0.563284 0.569676 0.079808
O O3 0.655935 0.653861 0.248691
O O4 0.618547 0.752187 0.055501
O O5 0.826691 0.539204 0.216798
O O6 0.874226 0.500000 0.000000
O O7 0.930908 0.651024 0.087626
O O8 0.500000 0.000000 0.784060
O O9 0.600557 0.897649 0.914849
O O10 0.662526 0.076535 0.877814
O O11 0.430247 0.557991 0.584532
O O12 0.435228 0.737546 0.589796
O O13 0.273994 0.343477 0.465500
#
# Coordination Sequence:
#
# PCOD8164074 Si02
#       8
#     8   8   8   2   2   4   8   8
#     4  12  27  47  73 103 143 185 233 297 351 430
#     4  12  25  46  70 102 144 180 229 293 351 413
#     4  11  25  44  71 107 138 188 237 291 350 411
#     4  10  22  44  74  94 140 180 236 292 336 436
#     4  12  30  52  72 102 136 188 238 292 370 420
#     4  11  25  45  67 106 134 186 237 277 349 421
#     4  11  24  44  71 101 143 180 236 289 346 415
#     4  11  24  45  69 102 138 185 235 282 352 412
#
# _framework density 21.102685000000001
#
# number of rings (size 3 to 8) (size 9 to 14) (size 15 to 20)
#    0.000    0.667    4.167    3.750    7.000    0.000 
#    0.000    0.000    0.000    0.000    0.000    0.000 
#    0.000    0.000    0.000    0.000    0.000    0.000 
#
# Total GULP energy -297563.380208 kJ/mol
# GULP energy per Si atom -12398.474175 kJ/mol
# Density = 2.105465 g / cm^3
# Si number density = 21.102685 Si / 1000 Ang^3
#
#
#
# Elastic Constant Matrix: (Units=GPa)
#
#
# Indices 1 2 3 4 5 6 
#
# 1 109.7168 50.1747 17.9852 0.0000 0.0000 0.0000
# 2 50.1747 154.7489 60.2732 0.0000 0.0000 0.0000
# 3 17.9852 60.2732 100.1246 0.0000 0.0000 0.0000
# 4 0.0000 0.0000 0.0000 9.3439 0.0000 0.0000
# 5 0.0000 0.0000 0.0000 0.0000 -63.4956 0.0000
# 6 0.0000 0.0000 0.0000 0.0000 0.0000 7.3601
#
#
#
# Elastic Compliance Matrix: (Units=1/GPa)
#
#
# Indices 1 2 3 4 5 6 
#
# 1 0.010705 -0.003556 0.000218 0.000000 0.000000 0.000000
# 2 -0.003556 0.009622 -0.005154 0.000000 0.000000 0.000000
# 3 0.000218 -0.005154 0.013051 0.000000 0.000000 0.000000
# 4 0.000000 0.000000 0.000000 0.107021 0.000000 0.000000
# 5 0.000000 0.000000 0.000000 0.000000 -0.015749 0.000000
# 6 0.000000 0.000000 0.000000 0.000000 0.000000 0.135867
#
#
# Mechanical properties :
#
#
# Convention : Reuss Voigt Hill
#
# Bulk Modulus (GPa) = 60.99666 69.05072 65.02369
# Shear Modulus (GPa) = 17.66998 6.38550 12.02774
#
# Velocity S-wave (km/s) = 2.89681 1.74140 2.38998
# Velocity P-wave (km/s) = 6.33689 6.06924 6.20451
#
# Compressibility (1/GPa) = 0.01639434
#
# Stress axis : x y z
#
# Youngs Moduli (GPa) = 93.41690 103.92598 76.62286
#
# Poissons Ratio (x) = 0.36951 -0.01667
# Poissons Ratio (y) = 0.33215 0.39489
# Poissons Ratio (z) = -0.02032 0.53561
#
# Static dielectric constant tensor:
#      x y z
#    x 3.855000 0.000000 0.000000 
#    y 0.000000 7.907590 0.000000 
#    z 0.000000 0.000000 4.211190 
# 
# 
# High freq. dielectric constant tensor:
#      x y z
#    x 1.841500 0.000000 0.000000 
#    y 0.000000 1.838490 0.000000 
#    z 0.000000 0.000000 1.825580 
# 
# From -- ./inp_files/16754.got.cif
#   From: 2010.03.12/outbox.cif.g09.slc.cpg/sg23_9_cif.got.tgz:16754.got - 2010.04.14 02:50:06.
