data_PCOD8164345
_publ_section_title
;
Structure prediction by ZEFSAII (Michael W. Deem and Ramdas Pophale) SiO2 
 PCOD8164345
Probable space group: I 2 2 2
;
_chemical_formula_sum "Si O2"
_cell_formula_units_Z 34
_cell_length_a 9.199003
_cell_length_b 8.967288
_cell_length_c 20.441174
_cell_angle_alpha 90.000000
_cell_angle_beta 90.000000
_cell_angle_gamma 90.000000
_cell_volume 1686.194676
_symmetry_space_group_name_H-M "I 2 2 2"
_symmetry_group_IT_number 23
_symmetry_cell_setting 'orthorhombic'
loop_
_space_group_symop_operation_xyz
x,y,z
-x,-y,z
x,-y,-z
-x,y,-z
1/2+x,1/2+y,1/2+z
1/2-x,1/2-y,1/2+z
1/2+x,1/2-y,1/2-z
1/2-x,1/2+y,1/2-z
loop_
_atom_site_type_symbol
_atom_site_label
_atom_site_fract_x
_atom_site_fract_y
_atom_site_fract_z
Si Si1 0.658764 0.503072 0.201001
Si Si2 0.173635 0.992107 0.072368
Si Si3 0.330087 0.287248 0.679021
Si Si4 0.000000 0.500000 0.000000
Si Si5 0.876034 0.318308 0.116273
O O1 0.500000 0.500000 0.167486
O O2 0.640636 0.418976 0.269722
O O3 0.713362 0.673607 0.210248
O O4 0.772812 0.428829 0.153797
O O5 0.212324 0.834884 0.105845
O O6 0.235271 0.130623 0.114596
O O7 0.000000 0.000000 0.069345
O O8 0.242162 0.000000 0.000000
O O9 0.478144 0.202362 0.659300
O O10 0.094360 0.609240 0.045478
#
# Coordination Sequence:
#
# PCOD8164345 Si02
#       5
#     8   8   8   2   8
#     4  12  24  38  61  93 131 166 214 272 333 388
#     4   9  18  34  62  89 115 156 215 273 313 367
#     4  11  21  41  61  93 125 172 216 267 330 390
#     4  12  20  40  72  96 128 168 242 268 312 392
#     4  11  22  39  66  95 124 172 220 271 321 387
#
# _framework density 20.163746
#
# number of rings (size 3 to 8) (size 9 to 14) (size 15 to 20)
#    0.000    1.176    2.353    7.765    0.000    0.000 
#    0.000    4.118    0.000    1.412    0.000    0.000 
#    0.000    0.000    0.000    0.000    0.000    0.000 
#
# Total GULP energy -210782.059305 kJ/mol
# GULP energy per Si atom -12398.944665 kJ/mol
# Density = 2.011785 g / cm^3
# Si number density = 20.163746 Si / 1000 Ang^3
#
#
#
# Elastic Constant Matrix: (Units=GPa)
#
#
# Indices 1 2 3 4 5 6 
#
# 1 73.0072 49.5049 41.8625 0.0000 0.0000 0.0000
# 2 49.5049 131.2860 45.0338 0.0000 0.0000 0.0000
# 3 41.8625 45.0338 119.4766 0.0000 0.0000 0.0000
# 4 0.0000 0.0000 0.0000 53.1599 0.0000 0.0000
# 5 0.0000 0.0000 0.0000 0.0000 10.2573 0.0000
# 6 0.0000 0.0000 0.0000 0.0000 0.0000 17.8992
#
#
#
# Elastic Compliance Matrix: (Units=1/GPa)
#
#
# Indices 1 2 3 4 5 6 
#
# 1 0.020666 -0.006097 -0.004943 0.000000 0.000000 0.000000
# 2 -0.006097 0.010547 -0.001839 0.000000 0.000000 0.000000
# 3 -0.004943 -0.001839 0.010795 0.000000 0.000000 0.000000
# 4 0.000000 0.000000 0.000000 0.018811 0.000000 0.000000
# 5 0.000000 0.000000 0.000000 0.000000 0.097491 0.000000
# 6 0.000000 0.000000 0.000000 0.000000 0.000000 0.055868
#
#
# Mechanical properties :
#
#
# Convention : Reuss Voigt Hill
#
# Bulk Modulus (GPa) = 61.53971 66.28579 63.91275
# Shear Modulus (GPa) = 20.37881 28.75454 24.56667
#
# Velocity S-wave (km/s) = 3.18255 3.78041 3.49429
# Velocity P-wave (km/s) = 6.64011 7.21113 6.93150
#
# Compressibility (1/GPa) = 0.01624967
#
# Stress axis : x y z
#
# Youngs Moduli (GPa) = 48.38903 94.81478 92.63644
#
# Poissons Ratio (x) = 0.57810 0.45788
# Poissons Ratio (y) = 0.29503 0.17036
# Poissons Ratio (z) = 0.23918 0.17437
#
# Static dielectric constant tensor:
#      x y z
#    x 3.284570 0.000000 0.000000 
#    y 0.000000 4.176750 0.000000 
#    z 0.000000 0.000000 3.846120 
# 
# 
# High freq. dielectric constant tensor:
#      x y z
#    x 1.735020 0.000000 0.000000 
#    y 0.000000 1.817720 0.000000 
#    z 0.000000 0.000000 1.795640 
# 
# From -- ./inp_files/6700.got.cif
#   From: 2010.03.12/outbox.cif.g09.slc.cpg/sg23_4_cif.got.tgz:6700.got - 2010.04.14 02:50:06.
