data_PCOD8164197
_publ_section_title
;
Structure prediction by ZEFSAII (Michael W. Deem and Ramdas Pophale) SiO2 
 PCOD8164197
Probable space group: I 2 2 2
;
_chemical_formula_sum "Si O2"
_cell_formula_units_Z 40
_cell_length_a 12.757024
_cell_length_b 9.461088
_cell_length_c 16.744658
_cell_angle_alpha 90.000000
_cell_angle_beta 90.000000
_cell_angle_gamma 90.000000
_cell_volume 2021.001967
_symmetry_space_group_name_H-M "I 2 2 2"
_symmetry_group_IT_number 23
_symmetry_cell_setting 'orthorhombic'
loop_
_space_group_symop_operation_xyz
x,y,z
-x,-y,z
x,-y,-z
-x,y,-z
1/2+x,1/2+y,1/2+z
1/2-x,1/2-y,1/2+z
1/2+x,1/2-y,1/2-z
1/2-x,1/2+y,1/2-z
loop_
_atom_site_type_symbol
_atom_site_label
_atom_site_fract_x
_atom_site_fract_y
_atom_site_fract_z
Si Si1 0.764006 0.000000 0.500000
Si Si2 0.000000 0.500000 0.745186
Si Si3 0.325080 0.968626 0.874785
Si Si4 0.396083 0.430827 0.585834
Si Si5 0.120405 0.280628 0.480941
Si Si6 0.584796 0.891979 0.602231
O O1 0.834770 0.125940 0.533618
O O2 0.697433 0.046764 0.422748
O O3 0.907936 0.576414 0.693697
O O4 0.936359 0.389074 0.801625
O O5 0.200732 0.963302 0.852539
O O6 0.361339 0.124576 0.902252
O O7 0.324089 0.853822 0.944717
O O8 0.500000 0.500000 0.623925
O O9 0.369637 0.500000 0.500000
O O10 0.422431 0.266794 0.570258
O O11 0.000000 0.269602 0.500000
O O12 0.500000 0.000000 0.562918
#
# Coordination Sequence:
#
# PCOD8164197 Si02
#       6
#     4   4   8   8   8   8
#     4  12  22  40  62  96 130 158 214 276 320 360
#     4  10  24  42  68  86 134 182 202 254 328 400
#     4  11  19  42  66  92 127 171 218 254 315 386
#     4  11  23  39  67 101 121 157 222 273 312 368
#     4  11  21  37  68  98 122 167 218 273 306 369
#     4  10  25  42  60  95 125 170 205 261 325 376
#
# _framework density 19.792164
#
# number of rings (size 3 to 8) (size 9 to 14) (size 15 to 20)
#    0.600    0.600    6.000    1.200    8.400    0.000 
#    7.200    0.000    0.000    0.000    0.000    0.000 
#    0.000    0.000    0.000    0.000    0.000    0.000 
#
# Total GULP energy -247809.022156 kJ/mol
# GULP energy per Si atom -12390.451108 kJ/mol
# Density = 1.974712 g / cm^3
# Si number density = 19.792164 Si / 1000 Ang^3
#
#
#
# Elastic Constant Matrix: (Units=GPa)
#
#
# Indices 1 2 3 4 5 6 
#
# 1 160.9777 48.0216 20.4814 0.0000 0.0000 0.0000
# 2 48.0216 159.7819 18.0176 0.0000 0.0000 0.0000
# 3 20.4814 18.0176 66.1788 0.0000 0.0000 0.0000
# 4 0.0000 0.0000 0.0000 8.5713 0.0000 0.0000
# 5 0.0000 0.0000 0.0000 0.0000 25.1233 0.0000
# 6 0.0000 0.0000 0.0000 0.0000 0.0000 37.7546
#
#
#
# Elastic Compliance Matrix: (Units=1/GPa)
#
#
# Indices 1 2 3 4 5 6 
#
# 1 0.006993 -0.001916 -0.001642 0.000000 0.000000 0.000000
# 2 -0.001916 0.006982 -0.001308 0.000000 0.000000 0.000000
# 3 -0.001642 -0.001308 0.015975 0.000000 0.000000 0.000000
# 4 0.000000 0.000000 0.000000 0.116668 0.000000 0.000000
# 5 0.000000 0.000000 0.000000 0.000000 0.039804 0.000000
# 6 0.000000 0.000000 0.000000 0.000000 0.000000 0.026487
#
#
# Mechanical properties :
#
#
# Convention : Reuss Voigt Hill
#
# Bulk Modulus (GPa) = 49.46469 62.21993 55.84231
# Shear Modulus (GPa) = 21.79789 34.31770 28.05780
#
# Velocity S-wave (km/s) = 3.32224 4.16853 3.76922
# Velocity P-wave (km/s) = 6.30577 7.39417 6.87155
#
# Compressibility (1/GPa) = 0.02021644
#
# Stress axis : x y z
#
# Youngs Moduli (GPa) = 143.00645 143.22604 62.59809
#
# Poissons Ratio (x) = 0.27448 0.10281
# Poissons Ratio (y) = 0.27406 0.08186
# Poissons Ratio (z) = 0.23487 0.18731
#
# Static dielectric constant tensor:
#      x y z
#    x 4.087330 0.000000 0.000000 
#    y 0.000000 3.405630 0.000000 
#    z 0.000000 0.000000 3.299170 
# 
# 
# High freq. dielectric constant tensor:
#      x y z
#    x 1.796840 0.000000 0.000000 
#    y 0.000000 1.765640 0.000000 
#    z 0.000000 0.000000 1.730070 
# 
# From -- ./inp_files/26596.got.cif
#   From: 2010.03.12/outbox.cif.g09.slc.cpg/sg23_14_cif.got.tgz:26596.got - 2010.04.14 02:50:06.
