data_PCOD8164783
_publ_section_title
;
Structure prediction by ZEFSAII (Michael W. Deem and Ramdas Pophale) SiO2 
 PCOD8164783
Probable space group: I 21 21 21
;
_chemical_formula_sum "Si O2"
_cell_formula_units_Z 60
_cell_length_a 18.885331
_cell_length_b 8.907994
_cell_length_c 17.018303
_cell_angle_alpha 90.000000
_cell_angle_beta 90.000000
_cell_angle_gamma 90.000000
_cell_volume 2862.996180
_symmetry_space_group_name_H-M "I 21 21 21"
_symmetry_group_IT_number 24
_symmetry_cell_setting 'orthorhombic'
loop_
_space_group_symop_operation_xyz
x,y,z
-x,1/2-y,z
x,-y,1/2-z
1/2-x,y,-z
1/2+x,1/2+y,1/2+z
1/2-x,-y,1/2+z
1/2+x,1/2-y,-z
-x,1/2+y,1/2-z
loop_
_atom_site_type_symbol
_atom_site_label
_atom_site_fract_x
_atom_site_fract_y
_atom_site_fract_z
Si Si1 0.053641 0.126115 0.686789
Si Si2 0.310258 0.590212 0.828844
Si Si3 0.096432 0.540470 0.033320
Si Si4 0.669889 0.786775 0.093540
Si Si5 0.120143 0.100146 0.323367
Si Si6 0.173786 0.000888 0.012549
Si Si7 0.000000 0.750000 0.114296
Si Si8 0.473767 0.093931 0.051576
O O1 0.122993 0.218143 0.663266
O O2 0.000000 0.250000 0.721602
O O3 0.074503 0.000000 0.750000
O O4 0.017850 0.043169 0.612348
O O5 0.293035 0.500000 0.750000
O O6 0.351832 0.488803 0.895048
O O7 0.239609 0.651563 0.867116
O O8 0.357165 0.730831 0.803253
O O9 0.064551 0.701467 0.058478
O O10 0.136431 0.569456 0.951218
O O11 0.029573 0.429666 0.020237
O O12 0.684100 0.657806 0.030418
O O13 0.161591 0.026764 0.395815
O O14 0.034369 0.112222 0.336123
O O15 0.138957 0.000000 0.250000
O O16 0.250000 0.086364 0.000000
O O17 0.108080 0.099012 0.978001
O O18 0.500000 0.250000 0.090909
#
# Coordination Sequence:
#
# PCOD8164783 Si02
#       8
#     8   8   8   8   8   8   4   8
#     4  11  23  41  70  99 137 181 231 295 355 411
#     4  11  25  42  64 101 140 176 232 290 356 416
#     4  11  19  40  70  92 125 185 233 271 336 419
#     4  11  20  41  73  93 127 188 240 279 333 428
#     4  11  23  39  65  98 136 178 226 286 350 415
#     4  11  20  42  72  94 123 187 240 272 332 423
#     4  10  18  36  64  96 124 168 238 268 334 412
#     4  11  24  42  66 102 139 176 236 293 337 410
#
# _framework density 20.957066000000001
#
# number of rings (size 3 to 8) (size 9 to 14) (size 15 to 20)
#    0.000    1.067    6.667    1.600    0.000    4.267 
#    3.600    1.333    0.000    0.000    0.000    0.000 
#    0.000    0.000    0.000    0.000    0.000    0.000 
#
# Total GULP energy -371804.675429 kJ/mol
# GULP energy per Si atom -12393.489181 kJ/mol
# Density = 2.090937 g / cm^3
# Si number density = 20.957066 Si / 1000 Ang^3
#
#
#
# Elastic Constant Matrix: (Units=GPa)
#
#
# Indices 1 2 3 4 5 6 
#
# 1 143.3356 33.1260 53.5708 0.0000 0.0000 0.0000
# 2 33.1260 49.6948 23.4845 0.0000 0.0000 0.0000
# 3 53.5708 23.4845 116.9396 0.0000 0.0000 0.0000
# 4 0.0000 0.0000 0.0000 34.3673 0.0000 0.0000
# 5 0.0000 0.0000 0.0000 0.0000 25.3791 0.0000
# 6 0.0000 0.0000 0.0000 0.0000 0.0000 28.4876
#
#
#
# Elastic Compliance Matrix: (Units=1/GPa)
#
#
# Indices 1 2 3 4 5 6 
#
# 1 0.009288 -0.004619 -0.003327 0.000000 0.000000 0.000000
# 2 -0.004619 0.024530 -0.002810 0.000000 0.000000 0.000000
# 3 -0.003327 -0.002810 0.010640 0.000000 0.000000 0.000000
# 4 0.000000 0.000000 0.000000 0.029097 0.000000 0.000000
# 5 0.000000 0.000000 0.000000 0.000000 0.039402 0.000000
# 6 0.000000 0.000000 0.000000 0.000000 0.000000 0.035103
#
#
# Mechanical properties :
#
#
# Convention : Reuss Voigt Hill
#
# Bulk Modulus (GPa) = 43.58266 58.92585 51.25425
# Shear Modulus (GPa) = 28.21341 30.96604 29.58973
#
# Velocity S-wave (km/s) = 3.67311 3.84812 3.76163
# Velocity P-wave (km/s) = 6.23139 6.92261 6.58607
#
# Compressibility (1/GPa) = 0.02294491
#
# Stress axis : x y z
#
# Youngs Moduli (GPa) = 107.67113 40.76700 93.98490
#
# Poissons Ratio (x) = 0.18829 0.31270
# Poissons Ratio (y) = 0.49729 0.26413
# Poissons Ratio (z) = 0.35824 0.11457
#
# Static dielectric constant tensor:
#      x y z
#    x 4.122170 0.000000 0.000000 
#    y 0.000000 3.519930 0.000000 
#    z 0.000000 0.000000 3.764640 
# 
# 
# High freq. dielectric constant tensor:
#      x y z
#    x 1.838470 0.000000 0.000000 
#    y 0.000000 1.788270 0.000000 
#    z 0.000000 0.000000 1.814570 
# 
# From -- ./inp_files/31194.got.cif
#   From: 2010.03.12/outbox.cif.g09.slc.cpg/sg24_16_cif.got.tgz:31194.got - 2010.04.14 03:06:53.
