data_PCOD8164204
_publ_section_title
;
Structure prediction by ZEFSAII (Michael W. Deem and Ramdas Pophale) SiO2 
 PCOD8164204
Probable space group: I 2 2 2
;
_chemical_formula_sum "Si O2"
_cell_formula_units_Z 60
_cell_length_a 6.348157
_cell_length_b 25.035261
_cell_length_c 18.578880
_cell_angle_alpha 90.000000
_cell_angle_beta 90.000000
_cell_angle_gamma 90.000000
_cell_volume 2952.699919
_symmetry_space_group_name_H-M "I 2 2 2"
_symmetry_group_IT_number 23
_symmetry_cell_setting 'orthorhombic'
loop_
_space_group_symop_operation_xyz
x,y,z
-x,-y,z
x,-y,-z
-x,y,-z
1/2+x,1/2+y,1/2+z
1/2-x,1/2-y,1/2+z
1/2+x,1/2-y,1/2-z
1/2-x,1/2+y,1/2-z
loop_
_atom_site_type_symbol
_atom_site_label
_atom_site_fract_x
_atom_site_fract_y
_atom_site_fract_z
Si Si1 0.321046 0.363432 0.310770
Si Si2 0.500000 0.000000 0.384920
Si Si3 0.348966 0.807907 0.563459
Si Si4 0.434587 0.796996 0.079481
Si Si5 0.132584 0.949479 0.300205
Si Si6 0.644874 0.420269 0.065934
Si Si7 0.944678 0.305376 0.793367
Si Si8 0.786842 0.194864 0.815637
O O1 0.167447 0.347601 0.377455
O O2 0.315047 0.422433 0.277337
O O3 0.270323 0.328836 0.238658
O O4 0.557783 0.352749 0.338505
O O5 0.642865 0.037852 0.335412
O O6 0.345979 0.039249 0.431095
O O7 0.500000 0.789811 0.500000
O O8 0.207738 0.756124 0.582724
O O9 0.211516 0.859835 0.545775
O O10 0.509057 0.824631 0.626573
O O11 0.654521 0.782380 0.117392
O O12 0.500000 0.815448 0.000000
O O13 0.987231 0.918563 0.359366
O O14 0.000000 0.000000 0.276089
O O15 0.500000 0.441005 0.000000
O O16 0.937814 0.241659 0.786993
O O17 0.137692 0.327688 0.746302
#
# Coordination Sequence:
#
# PCOD8164204 Si02
#       8
#     8   4   8   8   8   8   8   8
#     4  11  23  38  66  90 122 166 209 262 326 381
#     4  10  24  49  66  88 127 164 222 280 329 368
#     4  12  25  41  59  88 137 180 214 266 314 371
#     4  11  25  40  59  92 131 170 212 252 316 397
#     4  10  24  43  67  94 123 157 218 279 325 387
#     4  11  26  41  63  91 123 178 220 274 320 378
#     4  11  20  34  56  87 119 167 210 251 302 369
#     4  11  20  36  60  88 122 162 209 256 303 380
#
# _framework density 20.320384000000001
#
# number of rings (size 3 to 8) (size 9 to 14) (size 15 to 20)
#    0.000    1.067    2.667    3.600    5.600    6.133 
#    0.000    0.000    0.000    0.000    0.000    7.000 
#    0.000    0.000    0.000    0.000    0.000    0.000 
#
# Total GULP energy -371757.694871 kJ/mol
# GULP energy per Si atom -12391.923162 kJ/mol
# Density = 2.027413 g / cm^3
# Si number density = 20.320384 Si / 1000 Ang^3
#
#
#
# Elastic Constant Matrix: (Units=GPa)
#
#
# Indices 1 2 3 4 5 6 
#
# 1 117.7723 41.1439 49.3810 0.0000 0.0000 0.0000
# 2 41.1439 89.8923 41.4581 0.0000 0.0000 0.0000
# 3 49.3810 41.4581 124.4393 0.0001 0.0000 0.0000
# 4 0.0000 0.0000 0.0001 28.9088 0.0000 0.0000
# 5 0.0000 0.0000 0.0000 0.0000 35.5242 0.0000
# 6 0.0000 0.0000 0.0000 0.0000 0.0000 29.4709
#
#
#
# Elastic Compliance Matrix: (Units=1/GPa)
#
#
# Indices 1 2 3 4 5 6 
#
# 1 0.011091 -0.003600 -0.003202 0.000000 0.000000 0.000000
# 2 -0.003600 0.014312 -0.003340 0.000000 0.000000 0.000000
# 3 -0.003202 -0.003340 0.010419 0.000000 0.000000 0.000000
# 4 0.000000 0.000000 0.000000 0.034592 0.000000 0.000000
# 5 0.000000 0.000000 0.000000 0.000000 0.028150 0.000000
# 6 0.000000 0.000000 0.000000 0.000000 0.000000 0.033932
#
#
# Mechanical properties :
#
#
# Convention : Reuss Voigt Hill
#
# Bulk Modulus (GPa) = 64.35086 66.22999 65.29043
# Shear Modulus (GPa) = 31.65381 32.12217 31.88799
#
# Velocity S-wave (km/s) = 3.95110 3.98022 3.96569
# Velocity P-wave (km/s) = 7.24926 7.33393 7.29172
#
# Compressibility (1/GPa) = 0.01553981
#
# Stress axis : x y z
#
# Youngs Moduli (GPa) = 90.16252 69.86980 95.97493
#
# Poissons Ratio (x) = 0.25151 0.30731
# Poissons Ratio (y) = 0.32456 0.32054
# Poissons Ratio (z) = 0.28870 0.23335
#
# Static dielectric constant tensor:
#      x y z
#    x 4.098030 0.000000 0.000000 
#    y 0.000000 3.484960 0.000000 
#    z 0.000000 0.000000 3.706200 
# 
# 
# High freq. dielectric constant tensor:
#      x y z
#    x 1.818610 0.000000 0.000000 
#    y 0.000000 1.763140 0.000000 
#    z 0.000000 0.000000 1.780430 
# 
# From -- ./inp_files/25808.got.cif
#   From: 2010.03.12/outbox.cif.g09.slc.cpg/sg23_13_cif.got.tgz:25808.got - 2010.04.14 02:50:06.
