data_PCOD8164843
_publ_section_title
;
Structure prediction by ZEFSAII (Michael W. Deem and Ramdas Pophale) SiO2 
 PCOD8164843
Probable space group: I 21 21 21
;
_chemical_formula_sum "Si O2"
_cell_formula_units_Z 48
_cell_length_a 18.199404
_cell_length_b 27.550554
_cell_length_c 5.030238
_cell_angle_alpha 90.000000
_cell_angle_beta 90.000000
_cell_angle_gamma 90.000000
_cell_volume 2522.179757
_symmetry_space_group_name_H-M "I 21 21 21"
_symmetry_group_IT_number 24
_symmetry_cell_setting 'orthorhombic'
loop_
_space_group_symop_operation_xyz
x,y,z
-x,1/2-y,z
x,-y,1/2-z
1/2-x,y,-z
1/2+x,1/2+y,1/2+z
1/2-x,-y,1/2+z
1/2+x,1/2-y,-z
-x,1/2+y,1/2-z
loop_
_atom_site_type_symbol
_atom_site_label
_atom_site_fract_x
_atom_site_fract_y
_atom_site_fract_z
Si Si1 0.790442 0.000000 0.750000
Si Si2 0.933129 0.212952 0.043029
Si Si3 0.465935 0.394562 0.899600
Si Si4 0.622469 0.909487 0.097487
Si Si5 0.250000 0.966814 0.500000
Si Si6 0.334756 0.302517 0.468969
Si Si7 0.592271 0.534423 0.501576
O O1 0.750000 0.973797 0.500000
O O2 0.832409 0.041019 0.578524
O O3 0.977229 0.162866 0.082281
O O4 0.882986 0.222552 0.300682
O O5 0.000000 0.250000 0.003437
O O6 0.875033 0.213861 0.801048
O O7 0.446829 0.412945 0.602964
O O8 0.399858 0.407699 0.095740
O O9 0.538442 0.420410 0.004147
O O10 0.667131 0.861269 0.011336
O O11 0.239128 0.000000 0.750000
O O12 0.327426 0.938492 0.519496
O O13 0.250000 0.284580 0.500000
O O14 0.580605 0.500000 0.250000
O O15 0.578364 0.500000 0.750000
#
# Coordination Sequence:
#
# PCOD8164843 Si02
#       7
#     4   8   8   8   4   8   8
#     4  12  24  36  50  72 112 158 182 226 272 306
#     4  10  21  38  60  86 111 145 184 238 286 338
#     4  10  21  35  53  81 106 145 181 227 277 325
#     4  10  22  35  52  78 111 144 192 223 265 321
#     4   8  16  30  46  70  96 132 176 208 254 318
#     4  10  20  37  61  84 111 147 191 230 274 340
#     4  10  19  31  52  76 105 142 179 220 264 320
#
# _framework density 19.031154999999998
#
# number of rings (size 3 to 8) (size 9 to 14) (size 15 to 20)
#    0.000    2.000    0.000    3.500    3.500    2.667 
#    0.000    0.000    3.667    0.000    4.333    0.000 
#    0.000    0.000    0.000    0.000    0.000    0.000 
#
# Total GULP energy -297324.067485 kJ/mol
# GULP energy per Si atom -12388.502812 kJ/mol
# Density = 1.898784 g / cm^3
# Si number density = 19.031155 Si / 1000 Ang^3
#
#
#
# Elastic Constant Matrix: (Units=GPa)
#
#
# Indices 1 2 3 4 5 6 
#
# 1 122.9608 56.1622 26.1119 0.0000 0.0000 0.0000
# 2 56.1622 74.1576 30.6242 0.0000 0.0000 0.0000
# 3 26.1119 30.6242 114.4828 0.0000 -0.0001 0.0000
# 4 0.0000 0.0000 0.0000 20.7349 0.0000 0.0000
# 5 0.0000 0.0000 -0.0001 0.0000 24.5609 0.0000
# 6 0.0000 0.0000 0.0000 0.0000 0.0000 23.9263
#
#
#
# Elastic Compliance Matrix: (Units=1/GPa)
#
#
# Indices 1 2 3 4 5 6 
#
# 1 0.012447 -0.009279 -0.000357 0.000000 0.000000 0.000000
# 2 -0.009279 0.022077 -0.003789 0.000000 0.000000 0.000000
# 3 -0.000357 -0.003789 0.009830 0.000000 0.000000 0.000000
# 4 0.000000 0.000000 0.000000 0.048228 0.000000 0.000000
# 5 0.000000 0.000000 0.000000 0.000000 0.040715 0.000000
# 6 0.000000 0.000000 0.000000 0.000000 0.000000 0.041795
#
#
# Mechanical properties :
#
#
# Convention : Reuss Voigt Hill
#
# Bulk Modulus (GPa) = 57.13105 59.71085 58.42095
# Shear Modulus (GPa) = 24.06443 27.09127 25.57785
#
# Velocity S-wave (km/s) = 3.55980 3.77705 3.67004
# Velocity P-wave (km/s) = 6.85428 7.10387 6.98019
#
# Compressibility (1/GPa) = 0.01750362
#
# Stress axis : x y z
#
# Youngs Moduli (GPa) = 80.34354 45.29643 101.73023
#
# Poissons Ratio (x) = 0.42030 0.03630
# Poissons Ratio (y) = 0.74550 0.38547
# Poissons Ratio (z) = 0.02867 0.17164
#
# Static dielectric constant tensor:
#      x y z
#    x 3.611160 0.000000 0.000000 
#    y 0.000000 3.181220 0.000000 
#    z 0.000000 0.000000 3.697940 
# 
# 
# High freq. dielectric constant tensor:
#      x y z
#    x 1.743130 0.000000 0.000000 
#    y 0.000000 1.698850 0.000000 
#    z 0.000000 0.000000 1.768150 
# 
# From -- ./inp_files/3799.got.cif
#   From: 2010.03.12/outbox.cif.g09.slc.cpg/sg24_2_cif.got.tgz:3799.got - 2010.04.14 03:06:53.
