data_PCOD8164279
_publ_section_title
;
Structure prediction by ZEFSAII (Michael W. Deem and Ramdas Pophale) SiO2 
 PCOD8164279
Probable space group: I 2 2 2
;
_chemical_formula_sum "Si O2"
_cell_formula_units_Z 38
_cell_length_a 8.332000
_cell_length_b 20.261667
_cell_length_c 9.617708
_cell_angle_alpha 90.000000
_cell_angle_beta 90.000000
_cell_angle_gamma 90.000000
_cell_volume 1623.663479
_symmetry_space_group_name_H-M "I 2 2 2"
_symmetry_group_IT_number 23
_symmetry_cell_setting 'orthorhombic'
loop_
_space_group_symop_operation_xyz
x,y,z
-x,-y,z
x,-y,-z
-x,y,-z
1/2+x,1/2+y,1/2+z
1/2-x,1/2-y,1/2+z
1/2+x,1/2-y,1/2-z
1/2-x,1/2+y,1/2-z
loop_
_atom_site_type_symbol
_atom_site_label
_atom_site_fract_x
_atom_site_fract_y
_atom_site_fract_z
Si Si1 0.500000 0.000000 0.000000
Si Si2 0.495061 0.784077 0.151011
Si Si3 0.660207 0.912599 0.765212
Si Si4 0.500000 0.896770 0.500000
Si Si5 0.266861 0.668297 0.182948
Si Si6 0.006374 0.922346 0.843981
O O1 0.612735 0.044873 0.098392
O O2 0.399768 0.837408 0.241000
O O3 0.419088 0.711395 0.136540
O O4 0.673752 0.781717 0.213591
O O5 0.500000 0.816344 0.000000
O O6 0.577967 0.941914 0.623751
O O7 0.850324 0.903955 0.754740
O O8 0.349311 0.853159 0.557532
O O9 0.334007 0.603768 0.265487
O O10 0.000000 0.000000 0.853558
O O11 0.000000 0.891623 0.000000
#
# Coordination Sequence:
#
# PCOD8164279 Si02
#       6
#     2   8   8   4   8   8
#     4  12  24  46  82 104 148 190 276 308 380 464
#     4  11  24  42  72  99 140 189 244 303 362 456
#     4  11  25  47  73 108 143 196 246 313 374 457
#     4  10  28  47  72 108 152 193 246 314 392 454
#     4  11  26  45  70 109 147 194 249 310 391 446
#     4  11  25  45  75 107 146 196 256 319 374 458
#
# _framework density 23.403866000000001
#
# number of rings (size 3 to 8) (size 9 to 14) (size 15 to 20)
#    0.000    1.053    1.053    3.789   17.684    0.421 
#    3.789    1.053    0.000    0.000    0.000    0.000 
#    0.000    0.000    0.000    0.000    0.000    0.000 
#
# Total GULP energy -235440.389655 kJ/mol
# GULP energy per Si atom -12391.599456 kJ/mol
# Density = 2.335060 g / cm^3
# Si number density = 23.403866 Si / 1000 Ang^3
#
#
#
# Elastic Constant Matrix: (Units=GPa)
#
#
# Indices 1 2 3 4 5 6 
#
# 1 142.5391 35.9481 62.2200 0.0016 0.0005 0.0003
# 2 35.9481 78.0531 29.4523 0.0007 0.0000 -0.0001
# 3 62.2200 29.4523 151.8028 0.0320 0.0000 0.0024
# 4 0.0016 0.0007 0.0320 22.7218 -0.0004 0.0025
# 5 0.0005 0.0000 0.0000 -0.0004 44.6411 0.0014
# 6 0.0003 -0.0001 0.0024 0.0025 0.0014 28.2396
#
#
#
# Elastic Compliance Matrix: (Units=1/GPa)
#
#
# Indices 1 2 3 4 5 6 
#
# 1 0.009161 -0.003024 -0.003168 0.000004 0.000000 0.000000
# 2 -0.003024 0.014822 -0.001636 0.000002 0.000000 0.000000
# 3 -0.003168 -0.001636 0.008204 -0.000011 0.000000 -0.000001
# 4 0.000004 0.000002 -0.000011 0.044011 0.000000 -0.000004
# 5 0.000000 0.000000 0.000000 0.000000 0.022401 -0.000001
# 6 0.000000 0.000000 -0.000001 -0.000004 -0.000001 0.035411
#
#
# Mechanical properties :
#
#
# Convention : Reuss Voigt Hill
#
# Bulk Modulus (GPa) = 60.49646 69.73728 65.11687
# Shear Modulus (GPa) = 32.22145 35.43881 33.83013
#
# Velocity S-wave (km/s) = 3.71449 3.89553 3.80609
# Velocity P-wave (km/s) = 6.65595 7.07782 6.87012
#
# Compressibility (1/GPa) = 0.01652989
#
# Stress axis : x y z
#
# Youngs Moduli (GPa) = 109.15607 67.46788 121.89824
#
# Poissons Ratio (x) = 0.20401 0.38621
# Poissons Ratio (y) = 0.33006 0.19947
# Poissons Ratio (z) = 0.34584 0.11040
#
# Static dielectric constant tensor:
#      x y z
#    x 3.015400 0.000040 -0.000290 
#    y 0.000040 3.873480 0.000010 
#    z -0.000290 0.000010 4.854010 
# 
# 
# High freq. dielectric constant tensor:
#      x y z
#    x 1.939020 0.000000 0.000000 
#    y 0.000000 1.910630 0.000000 
#    z 0.000000 0.000000 1.932560 
# 
# From -- ./inp_files/6951.got.cif
#   From: 2010.03.12/outbox.cif.g09.slc.cpg/sg23_4_cif.got.tgz:6951.got - 2010.04.14 02:50:06.
