data_PCOD8164402
_publ_section_title
;
Structure prediction by ZEFSAII (Michael W. Deem and Ramdas Pophale) SiO2 
 PCOD8164402
Probable space group: I 2 2 2
;
_chemical_formula_sum "Si O2"
_cell_formula_units_Z 40
_cell_length_a 11.410383
_cell_length_b 8.661994
_cell_length_c 17.930157
_cell_angle_alpha 90.000000
_cell_angle_beta 90.000000
_cell_angle_gamma 90.000000
_cell_volume 1772.156994
_symmetry_space_group_name_H-M "I 2 2 2"
_symmetry_group_IT_number 23
_symmetry_cell_setting 'orthorhombic'
loop_
_space_group_symop_operation_xyz
x,y,z
-x,-y,z
x,-y,-z
-x,y,-z
1/2+x,1/2+y,1/2+z
1/2-x,1/2-y,1/2+z
1/2+x,1/2-y,1/2-z
1/2-x,1/2+y,1/2-z
loop_
_atom_site_type_symbol
_atom_site_label
_atom_site_fract_x
_atom_site_fract_y
_atom_site_fract_z
Si Si1 0.565350 0.788482 0.358006
Si Si2 0.458362 0.824933 0.078737
Si Si3 0.319242 0.110580 0.616811
Si Si4 0.915188 0.859717 0.705840
Si Si5 0.712251 0.327117 0.525182
O O1 0.425648 0.794343 0.345539
O O2 0.618218 0.739280 0.278779
O O3 0.594026 0.669544 0.425013
O O4 0.627326 0.940359 0.393259
O O5 0.514720 0.740218 0.147449
O O6 0.500000 0.000000 0.084352
O O7 0.500000 0.753272 0.000000
O O8 0.319493 0.795089 0.082140
O O9 0.208638 0.092333 0.670747
O O10 0.286111 0.198806 0.540403
O O11 0.000000 0.000000 0.729170
O O12 0.735059 0.500000 0.500000
#
# Coordination Sequence:
#
# PCOD8164402 Si02
#       5
#     8   8   8   8   8
#     4  11  29  46  70 103 149 192 235 302 380 442
#     4  11  22  46  71 112 147 190 242 304 375 424
#     4  11  26  50  69 101 146 195 237 301 371 441
#     4  12  28  45  74 111 142 190 252 304 368 446
#     4  12  24  45  78 107 146 193 249 305 357 447
#
# _framework density 22.571363999999999
#
# number of rings (size 3 to 8) (size 9 to 14) (size 15 to 20)
#    0.000    0.600    4.000    2.400   11.200    2.800 
#    0.000    0.000    0.000    0.000    0.000    0.000 
#    0.000    0.000    0.000    0.000    0.000    0.000 
#
# Total GULP energy -247877.325952 kJ/mol
# GULP energy per Si atom -12393.866298 kJ/mol
# Density = 2.251999 g / cm^3
# Si number density = 22.571364 Si / 1000 Ang^3
#
#
#
# Elastic Constant Matrix: (Units=GPa)
#
#
# Indices 1 2 3 4 5 6 
#
# 1 146.6106 36.8376 27.6320 0.0000 0.0000 0.0000
# 2 36.8376 81.3517 45.1660 0.0000 0.0000 0.0000
# 3 27.6320 45.1660 110.7272 0.0000 0.0000 0.0000
# 4 0.0000 0.0000 0.0000 39.0424 0.0000 0.0000
# 5 0.0000 0.0000 0.0000 0.0000 42.1607 0.0000
# 6 0.0000 0.0000 0.0000 0.0000 0.0000 33.9393
#
#
#
# Elastic Compliance Matrix: (Units=1/GPa)
#
#
# Indices 1 2 3 4 5 6 
#
# 1 0.007732 -0.003141 -0.000648 0.000000 0.000000 0.000000
# 2 -0.003141 0.017167 -0.006219 0.000000 0.000000 0.000000
# 3 -0.000648 -0.006219 0.011730 0.000000 0.000000 0.000000
# 4 0.000000 0.000000 0.000000 0.025613 0.000000 0.000000
# 5 0.000000 0.000000 0.000000 0.000000 0.023719 0.000000
# 6 0.000000 0.000000 0.000000 0.000000 0.000000 0.029464
#
#
# Mechanical properties :
#
#
# Convention : Reuss Voigt Hill
#
# Bulk Modulus (GPa) = 60.19523 61.99562 61.09543
# Shear Modulus (GPa) = 35.46609 38.29874 36.88242
#
# Velocity S-wave (km/s) = 3.96825 4.12367 4.04671
# Velocity P-wave (km/s) = 6.90816 7.08513 6.99720
#
# Compressibility (1/GPa) = 0.01661261
#
# Stress axis : x y z
#
# Youngs Moduli (GPa) = 129.32799 58.24997 85.25455
#
# Poissons Ratio (x) = 0.18299 0.05526
# Poissons Ratio (y) = 0.40628 0.53017
# Poissons Ratio (z) = 0.08383 0.36224
#
# Static dielectric constant tensor:
#      x y z
#    x 4.410930 0.000000 0.000000 
#    y 0.000000 3.861070 0.000000 
#    z 0.000000 0.000000 4.022190 
# 
# 
# High freq. dielectric constant tensor:
#      x y z
#    x 1.912310 0.000000 0.000000 
#    y 0.000000 1.889820 0.000000 
#    z 0.000000 0.000000 1.890240 
# 
# From -- ./inp_files/10732.got.cif
#   From: 2010.03.12/outbox.cif.g09.slc.cpg/sg23_6_cif.got.tgz:10732.got - 2010.04.14 02:50:06.
