data_PCOD8164160
_publ_section_title
;
Structure prediction by ZEFSAII (Michael W. Deem and Ramdas Pophale) SiO2 
 PCOD8164160
Probable space group: I 2 2 2
;
_chemical_formula_sum "Si O2"
_cell_formula_units_Z 40
_cell_length_a 13.996099
_cell_length_b 8.151996
_cell_length_c 13.648575
_cell_angle_alpha 90.000000
_cell_angle_beta 90.000000
_cell_angle_gamma 90.000000
_cell_volume 1557.249766
_symmetry_space_group_name_H-M "I 2 2 2"
_symmetry_group_IT_number 23
_symmetry_cell_setting 'orthorhombic'
loop_
_space_group_symop_operation_xyz
x,y,z
-x,-y,z
x,-y,-z
-x,y,-z
1/2+x,1/2+y,1/2+z
1/2-x,1/2-y,1/2+z
1/2+x,1/2-y,1/2-z
1/2-x,1/2+y,1/2-z
loop_
_atom_site_type_symbol
_atom_site_label
_atom_site_fract_x
_atom_site_fract_y
_atom_site_fract_z
Si Si1 0.000000 0.000000 0.000000
Si Si2 0.500000 0.000000 0.500000
Si Si3 0.646735 0.186187 0.142643
Si Si4 0.857581 0.072335 0.363236
Si Si5 0.149549 0.933517 0.143018
Si Si6 0.850590 0.676460 0.136740
Si Si7 0.500000 0.228337 0.000000
O O1 0.065177 0.880095 0.068371
O O2 0.565546 0.887228 0.568463
O O3 0.626766 0.379144 0.135768
O O4 0.752140 0.142671 0.103315
O O5 0.633339 0.113230 0.251517
O O6 0.566890 0.112028 0.068829
O O7 0.872602 0.135773 0.251311
O O8 0.751175 0.111016 0.401026
O O9 0.933087 0.157903 0.432503
O O10 0.153350 0.128578 0.138922
#
# Coordination Sequence:
#
# PCOD8164160 Si02
#       7
#     2   2   8   8   8   8   4
#     4  12  26  40  68  94 142 188 232 294 374 412
#     4  12  26  48  84 106 138 196 250 292 366 444
#     4  10  23  47  72 107 148 189 240 300 359 425
#     4  10  23  45  74 104 144 192 245 296 353 434
#     4  10  25  46  69 104 148 187 237 307 361 425
#     4  10  25  48  72 106 144 186 244 300 360 432
#     4  12  25  44  81 108 143 201 248 289 364 435
#
# _framework density 25.686309999999999
#
# number of rings (size 3 to 8) (size 9 to 14) (size 15 to 20)
#    0.000    1.600    0.000    2.400   11.200    1.600 
#   10.800    1.000    0.000    0.000    0.000    0.000 
#    0.000    0.000    0.000    0.000    0.000    0.000 
#
# Total GULP energy -248003.145596 kJ/mol
# GULP energy per Si atom -12400.157280 kJ/mol
# Density = 2.562785 g / cm^3
# Si number density = 25.686310 Si / 1000 Ang^3
#
#
#
# Elastic Constant Matrix: (Units=GPa)
#
#
# Indices 1 2 3 4 5 6 
#
# 1 223.3964 9.9160 127.8799 0.0000 0.0000 0.0000
# 2 9.9160 17.3936 20.7121 0.0000 0.0000 0.0000
# 3 127.8799 20.7121 169.5921 0.0000 0.0000 0.0000
# 4 0.0000 0.0000 0.0000 23.5216 0.0000 0.0000
# 5 0.0000 0.0000 0.0000 0.0000 67.9736 0.0000
# 6 0.0000 0.0000 0.0000 0.0000 0.0000 42.4143
#
#
#
# Elastic Compliance Matrix: (Units=1/GPa)
#
#
# Indices 1 2 3 4 5 6 
#
# 1 0.008014 0.003074 -0.006418 0.000000 0.000000 0.000000
# 2 0.003074 0.068456 -0.010678 0.000000 0.000000 0.000000
# 3 -0.006418 -0.010678 0.012040 0.000000 0.000000 0.000000
# 4 0.000000 0.000000 0.000000 0.042514 0.000000 0.000000
# 5 0.000000 0.000000 0.000000 0.000000 0.014712 0.000000
# 6 0.000000 0.000000 0.000000 0.000000 0.000000 0.023577
#
#
# Mechanical properties :
#
#
# Convention : Reuss Voigt Hill
#
# Bulk Modulus (GPa) = 16.53858 80.82201 48.68030
# Shear Modulus (GPa) = 22.98714 43.57349 33.28031
#
# Velocity S-wave (km/s) = 2.99476 4.12317 3.60341
# Velocity P-wave (km/s) = 4.29078 7.36211 6.02542
#
# Compressibility (1/GPa) = 0.06046468
#
# Stress axis : x y z
#
# Youngs Moduli (GPa) = 124.78214 14.60800 83.05401
#
# Poissons Ratio (x) = -0.04491 0.53307
# Poissons Ratio (y) = -0.38360 0.88689
# Poissons Ratio (z) = 0.80089 0.15599
#
# Static dielectric constant tensor:
#      x y z
#    x 5.144130 0.000000 0.000000 
#    y 0.000000 4.169760 0.000000 
#    z 0.000000 0.000000 5.730420 
# 
# 
# High freq. dielectric constant tensor:
#      x y z
#    x 2.047190 0.000000 0.000000 
#    y 0.000000 2.002560 0.000000 
#    z 0.000000 0.000000 2.053880 
# 
# From -- ./inp_files/21407.got.cif
#   From: 2010.03.12/outbox.cif.g09.slc.cpg/sg23_11_cif.got.tgz:21407.got - 2010.04.14 02:50:06.
