data_PCOD8164227
_publ_section_title
;
Structure prediction by ZEFSAII (Michael W. Deem and Ramdas Pophale) SiO2 
 PCOD8164227
Probable space group: I 2 2 2
;
_chemical_formula_sum "Si O2"
_cell_formula_units_Z 34
_cell_length_a 6.580059
_cell_length_b 11.781234
_cell_length_c 19.353718
_cell_angle_alpha 90.000000
_cell_angle_beta 90.000000
_cell_angle_gamma 90.000000
_cell_volume 1500.323731
_symmetry_space_group_name_H-M "I 2 2 2"
_symmetry_group_IT_number 23
_symmetry_cell_setting 'orthorhombic'
loop_
_space_group_symop_operation_xyz
x,y,z
-x,-y,z
x,-y,-z
-x,y,-z
1/2+x,1/2+y,1/2+z
1/2-x,1/2-y,1/2+z
1/2+x,1/2-y,1/2-z
1/2-x,1/2+y,1/2-z
loop_
_atom_site_type_symbol
_atom_site_label
_atom_site_fract_x
_atom_site_fract_y
_atom_site_fract_z
Si Si1 0.758462 0.160369 0.895334
Si Si2 0.000254 0.878652 0.231160
Si Si3 0.147550 0.729304 0.649404
Si Si4 0.500000 0.500000 0.500000
Si Si5 0.480918 0.126484 0.419015
O O1 0.512120 0.164694 0.901160
O O2 0.807751 0.112261 0.819798
O O3 0.840510 0.290018 0.894824
O O4 0.856583 0.082279 0.954925
O O5 0.195771 0.859329 0.182219
O O6 0.983071 0.782885 0.288577
O O7 0.000000 0.000000 0.269338
O O8 0.263710 0.823236 0.604023
O O9 0.500000 0.116009 0.500000
O O10 0.500000 0.000000 0.385890
#
# Coordination Sequence:
#
# PCOD8164227 Si02
#       5
#     8   8   8   2   8
#     4  11  24  47  70 104 146 190 245 293 368 439
#     4  11  24  44  67 104 142 179 243 299 364 436
#     4  11  25  44  72 105 138 190 236 305 368 437
#     4  12  24  52  72 104 158 200 244 310 356 464
#     4  10  24  46  68 101 142 180 240 301 357 437
#
# _framework density 22.661777000000001
#
# number of rings (size 3 to 8) (size 9 to 14) (size 15 to 20)
#    0.000    1.176    4.706    0.000    3.294    1.882 
#    0.000    9.412    0.000    0.000    0.000    0.000 
#    0.000    0.000    0.000    0.000    0.000    0.000 
#
# Total GULP energy -210739.758420 kJ/mol
# GULP energy per Si atom -12396.456378 kJ/mol
# Density = 2.261020 g / cm^3
# Si number density = 22.661777 Si / 1000 Ang^3
#
#
#
# Elastic Constant Matrix: (Units=GPa)
#
#
# Indices 1 2 3 4 5 6 
#
# 1 163.5493 53.4464 39.9807 0.0000 0.0000 0.0000
# 2 53.4464 141.3125 27.7868 0.0000 0.0000 0.0000
# 3 39.9807 27.7868 84.3205 0.0000 0.0000 0.0000
# 4 0.0000 0.0000 0.0000 28.1859 0.0000 0.0000
# 5 0.0000 0.0000 0.0000 0.0000 31.6902 0.0000
# 6 0.0000 0.0000 0.0000 0.0000 0.0000 16.6954
#
#
#
# Elastic Compliance Matrix: (Units=1/GPa)
#
#
# Indices 1 2 3 4 5 6 
#
# 1 0.007557 -0.002303 -0.002824 0.000000 0.000000 0.000000
# 2 -0.002303 0.008269 -0.001633 0.000000 0.000000 0.000000
# 3 -0.002824 -0.001633 0.013737 0.000000 0.000000 0.000000
# 4 0.000000 0.000000 0.000000 0.035479 0.000000 0.000000
# 5 0.000000 0.000000 0.000000 0.000000 0.031556 0.000000
# 6 0.000000 0.000000 0.000000 0.000000 0.000000 0.059897
#
#
# Mechanical properties :
#
#
# Convention : Reuss Voigt Hill
#
# Bulk Modulus (GPa) = 62.33520 70.17891 66.25705
# Shear Modulus (GPa) = 28.51252 33.17886 30.84569
#
# Velocity S-wave (km/s) = 3.55093 3.83049 3.69336
# Velocity P-wave (km/s) = 6.66172 7.11328 6.89120
#
# Compressibility (1/GPa) = 0.01604230
#
# Stress axis : x y z
#
# Youngs Moduli (GPa) = 132.32062 120.93953 72.79700
#
# Poissons Ratio (x) = 0.27852 0.20561
# Poissons Ratio (y) = 0.30473 0.11887
# Poissons Ratio (z) = 0.37373 0.19748
#
# Static dielectric constant tensor:
#      x y z
#    x 4.066370 0.000000 0.000000 
#    y 0.000000 4.550750 0.000000 
#    z 0.000000 0.000000 3.977190 
# 
# 
# High freq. dielectric constant tensor:
#      x y z
#    x 1.891570 0.000000 0.000000 
#    y 0.000000 1.903830 0.000000 
#    z 0.000000 0.000000 1.889050 
# 
# From -- ./inp_files/1570.got.cif
#   From: 2010.03.12/outbox.cif.g09.slc.cpg/sg23_1_cif.got.tgz:1570.got - 2010.04.14 02:50:06.
