data_PCOD8164830
_publ_section_title
;
Structure prediction by ZEFSAII (Michael W. Deem and Ramdas Pophale) SiO2 
 PCOD8164830
Probable space group: I 21 21 21
;
_chemical_formula_sum "Si O2"
_cell_formula_units_Z 44
_cell_length_a 17.093054
_cell_length_b 15.001467
_cell_length_c 7.929786
_cell_angle_alpha 90.000000
_cell_angle_beta 90.000000
_cell_angle_gamma 90.000000
_cell_volume 2033.362748
_symmetry_space_group_name_H-M "I 21 21 21"
_symmetry_group_IT_number 24
_symmetry_cell_setting 'orthorhombic'
loop_
_space_group_symop_operation_xyz
x,y,z
-x,1/2-y,z
x,-y,1/2-z
1/2-x,y,-z
1/2+x,1/2+y,1/2+z
1/2-x,-y,1/2+z
1/2+x,1/2-y,-z
-x,1/2+y,1/2-z
loop_
_atom_site_type_symbol
_atom_site_label
_atom_site_fract_x
_atom_site_fract_y
_atom_site_fract_z
Si Si1 0.400504 0.888292 0.035754
Si Si2 0.798600 0.500000 0.750000
Si Si3 0.859479 0.776829 0.791754
Si Si4 0.294160 0.176755 0.757756
Si Si5 0.086400 0.285537 0.058540
Si Si6 0.448812 0.340554 0.592274
O O1 0.407033 0.818065 0.192153
O O2 0.354491 0.976935 0.091045
O O3 0.347030 0.832605 0.906921
O O4 0.485356 0.915068 0.957522
O O5 0.745546 0.416931 0.805097
O O6 0.767373 0.755439 0.781585
O O7 0.887031 0.827680 0.620041
O O8 0.880684 0.840247 0.951216
O O9 0.351005 0.205700 0.909915
O O10 0.088092 0.353915 0.220050
O O11 0.000000 0.250000 0.036570
O O12 0.500000 0.250000 0.591118
#
# Coordination Sequence:
#
# PCOD8164830 Si02
#       6
#     8   4   8   8   8   8
#     4  10  19  36  50  70 113 155 193 235 287 343
#     4  10  22  30  54  76 112 166 190 220 278 366
#     4  10  19  30  51  75 100 139 186 241 290 338
#     4  11  21  36  50  77 119 152 194 240 288 350
#     4  11  19  31  52  74 100 147 192 240 286 333
#     4   9  17  33  51  70  98 141 187 246 280 324
#
# _framework density 21.639030999999999
#
# number of rings (size 3 to 8) (size 9 to 14) (size 15 to 20)
#    0.000    1.818    5.455    4.364    0.000    5.818 
#    0.000    0.000    0.000    0.000    0.000    0.000 
#    0.000    1.455   18.909    0.000    2.182    0.000 
#
# Total GULP energy -272544.673336 kJ/mol
# GULP energy per Si atom -12388.394243 kJ/mol
# Density = 2.158978 g / cm^3
# Si number density = 21.639031 Si / 1000 Ang^3
#
#
#
# Elastic Constant Matrix: (Units=GPa)
#
#
# Indices 1 2 3 4 5 6 
#
# 1 130.9624 30.7362 50.8654 0.0000 0.0000 0.0000
# 2 30.7362 18.7555 10.1276 0.0000 0.0000 0.0000
# 3 50.8654 10.1276 156.7567 0.0000 0.0000 0.0000
# 4 0.0000 0.0000 0.0000 15.8427 0.0000 0.0000
# 5 0.0000 0.0000 0.0000 0.0000 238.2340 0.0000
# 6 0.0000 0.0000 0.0000 0.0000 0.0000 18.4198
#
#
#
# Elastic Compliance Matrix: (Units=1/GPa)
#
#
# Indices 1 2 3 4 5 6 
#
# 1 0.013731 -0.020822 -0.003110 0.000000 0.000000 0.000000
# 2 -0.020822 0.086821 0.001147 0.000000 0.000000 0.000000
# 3 -0.003110 0.001147 0.007314 0.000000 0.000000 0.000000
# 4 0.000000 0.000000 0.000000 0.063120 0.000000 0.000000
# 5 0.000000 0.000000 0.000000 0.000000 0.004198 0.000000
# 6 0.000000 0.000000 0.000000 0.000000 0.000000 0.054289
#
#
# Mechanical properties :
#
#
# Convention : Reuss Voigt Hill
#
# Bulk Modulus (GPa) = 16.05231 54.43699 35.24465
# Shear Modulus (GPa) = 16.90278 68.81565 42.85921
#
# Velocity S-wave (km/s) = 2.79789 5.64541 4.45527
# Velocity P-wave (km/s) = 4.22752 8.22835 6.54132
#
# Compressibility (1/GPa) = 0.06229633
#
# Stress axis : x y z
#
# Youngs Moduli (GPa) = 72.83000 11.51789 136.71679
#
# Poissons Ratio (x) = 0.23983 0.42521
# Poissons Ratio (y) = 1.51648 -0.15685
# Poissons Ratio (z) = 0.22651 -0.01321
#
# Static dielectric constant tensor:
#      x y z
#    x 4.379820 0.000000 0.000000 
#    y 0.000000 2.916460 0.000000 
#    z 0.000000 0.000000 4.337210 
# 
# 
# High freq. dielectric constant tensor:
#      x y z
#    x 1.864110 0.000000 0.000000 
#    y 0.000000 1.746760 0.000000 
#    z 0.000000 0.000000 1.870930 
# 
# From -- ./inp_files/12655.got.cif
#   From: 2010.03.12/outbox.cif.g09.slc.cpg/sg24_7_cif.got.tgz:12655.got - 2010.04.14 03:06:53.
