data_PCOD8164576
_publ_section_title
;
Structure prediction by ZEFSAII (Michael W. Deem and Ramdas Pophale) SiO2 
 PCOD8164576
Probable space group: I 21 21 21
;
_chemical_formula_sum "Si O2"
_cell_formula_units_Z 52
_cell_length_a 11.797569
_cell_length_b 10.344965
_cell_length_c 27.488002
_cell_angle_alpha 90.000000
_cell_angle_beta 90.000000
_cell_angle_gamma 90.000000
_cell_volume 3354.785255
_symmetry_space_group_name_H-M "I 21 21 21"
_symmetry_group_IT_number 24
_symmetry_cell_setting 'orthorhombic'
loop_
_space_group_symop_operation_xyz
x,y,z
-x,1/2-y,z
x,-y,1/2-z
1/2-x,y,-z
1/2+x,1/2+y,1/2+z
1/2-x,-y,1/2+z
1/2+x,1/2-y,-z
-x,1/2+y,1/2-z
loop_
_atom_site_type_symbol
_atom_site_label
_atom_site_fract_x
_atom_site_fract_y
_atom_site_fract_z
Si Si1 0.229513 0.131707 0.054321
Si Si2 0.109354 0.503582 0.635422
Si Si3 0.344016 0.392336 0.036276
Si Si4 0.840353 0.509678 0.643831
Si Si5 0.500000 0.250000 0.970741
Si Si6 0.865165 0.754987 0.808786
Si Si7 0.365741 0.740743 0.299901
O O1 0.310777 0.255170 0.060305
O O2 0.266473 0.025809 0.094409
O O3 0.100168 0.184464 0.061397
O O4 0.250000 0.073709 0.000000
O O5 0.141498 0.504912 0.578839
O O6 0.165713 0.374747 0.656839
O O7 0.165599 0.620569 0.665690
O O8 0.974136 0.509368 0.635163
O O9 0.250000 0.448225 0.000000
O O10 0.456652 0.367529 0.004812
O O11 0.808185 0.374348 0.669301
O O12 0.809988 0.628479 0.679312
O O13 0.816906 0.779088 0.754513
O O14 0.000000 0.750000 0.806142
O O15 0.500000 0.750000 0.297145
#
# Coordination Sequence:
#
# PCOD8164576 Si02
#       7
#     8   8   8   8   4   8   8
#     4   9  16  26  42  64  85 109 144 179 215 253
#     4  10  16  26  42  60  88 120 140 167 212 254
#     4   9  16  26  42  63  84 105 138 177 211 251
#     4  10  17  26  42  61  89 116 142 170 211 254
#     4   8  16  26  42  64  92 102 140 188 218 242
#     4   9  18  27  36  60  92 119 140 169 207 256
#     4   9  16  25  41  59  85 116 144 169 202 248
#
# _framework density 15.500247
#
# number of rings (size 3 to 8) (size 9 to 14) (size 15 to 20)
#    0.000    3.077    1.538    2.769    1.077    3.692 
#    0.000    0.769    0.000    0.000    0.000    3.231 
#   18.462    0.000    0.000    0.000    0.000    0.000 
#
# Total GULP energy -322176.271658 kJ/mol
# GULP energy per Si atom -12391.395064 kJ/mol
# Density = 1.546497 g / cm^3
# Si number density = 15.500247 Si / 1000 Ang^3
#
#
#
# Elastic Constant Matrix: (Units=GPa)
#
#
# Indices 1 2 3 4 5 6 
#
# 1 38.9665 15.2649 18.8332 0.0000 0.0000 0.0000
# 2 15.2649 98.5254 51.7832 0.0000 0.0000 0.0000
# 3 18.8332 51.7832 114.8605 0.0000 0.0000 0.0000
# 4 0.0000 0.0000 0.0000 21.2970 0.0000 0.0000
# 5 0.0000 0.0000 0.0000 0.0000 18.6813 0.0000
# 6 0.0000 0.0000 0.0000 0.0000 0.0000 9.6987
#
#
#
# Elastic Compliance Matrix: (Units=1/GPa)
#
#
# Indices 1 2 3 4 5 6 
#
# 1 0.028354 -0.002555 -0.003497 0.000000 0.000000 0.000000
# 2 -0.002555 0.013532 -0.005682 0.000000 0.000000 0.000000
# 3 -0.003497 -0.005682 0.011841 0.000000 0.000000 0.000000
# 4 0.000000 0.000000 0.000000 0.046955 0.000000 0.000000
# 5 0.000000 0.000000 0.000000 0.000000 0.053529 0.000000
# 6 0.000000 0.000000 0.000000 0.000000 0.000000 0.103107
#
#
# Mechanical properties :
#
#
# Convention : Reuss Voigt Hill
#
# Bulk Modulus (GPa) = 33.04761 47.12389 40.08575
# Shear Modulus (GPa) = 17.18964 21.03346 19.11155
#
# Velocity S-wave (km/s) = 3.33377 3.68771 3.51520
# Velocity P-wave (km/s) = 6.01545 6.97139 6.51099
#
# Compressibility (1/GPa) = 0.03025937
#
# Stress axis : x y z
#
# Youngs Moduli (GPa) = 35.26810 73.90061 84.45141
#
# Poissons Ratio (x) = 0.18881 0.29535
# Poissons Ratio (y) = 0.09011 0.47982
# Poissons Ratio (z) = 0.12334 0.41988
#
# Static dielectric constant tensor:
#      x y z
#    x 2.632810 0.000000 0.000000 
#    y 0.000000 2.894740 0.000000 
#    z 0.000000 0.000000 3.078810 
# 
# 
# High freq. dielectric constant tensor:
#      x y z
#    x 1.541960 0.000000 0.000000 
#    y 0.000000 1.575450 0.000000 
#    z 0.000000 0.000000 1.604020 
# 
# From -- ./inp_files/11579.got.cif
#   From: 2010.03.12/outbox.cif.g09.slc.cpg/sg24_6_cif.got.tgz:11579.got - 2010.04.14 03:06:53.
