data_PCOD8164474
_publ_section_title
;
Structure prediction by ZEFSAII (Michael W. Deem and Ramdas Pophale) SiO2 
 PCOD8164474
Probable space group: I 2 2 2
;
_chemical_formula_sum "Si O2"
_cell_formula_units_Z 40
_cell_length_a 7.885427
_cell_length_b 9.096178
_cell_length_c 23.565109
_cell_angle_alpha 90.000000
_cell_angle_beta 90.000000
_cell_angle_gamma 90.000000
_cell_volume 1690.260408
_symmetry_space_group_name_H-M "I 2 2 2"
_symmetry_group_IT_number 23
_symmetry_cell_setting 'orthorhombic'
loop_
_space_group_symop_operation_xyz
x,y,z
-x,-y,z
x,-y,-z
-x,y,-z
1/2+x,1/2+y,1/2+z
1/2-x,1/2-y,1/2+z
1/2+x,1/2-y,1/2-z
1/2-x,1/2+y,1/2-z
loop_
_atom_site_type_symbol
_atom_site_label
_atom_site_fract_x
_atom_site_fract_y
_atom_site_fract_z
Si Si1 0.315035 0.839120 0.884921
Si Si2 0.803891 0.666853 0.011449
Si Si3 0.299090 0.168699 0.906009
Si Si4 0.384914 0.136436 0.315872
Si Si5 0.114715 0.865289 0.773804
O O1 0.515681 0.817512 0.879059
O O2 0.248100 0.821451 0.821817
O O3 0.253896 0.996551 0.909258
O O4 0.238156 0.710435 0.924065
O O5 0.695718 0.770366 0.969779
O O6 0.748427 0.500000 0.000000
O O7 0.000000 0.692328 0.000000
O O8 0.160815 0.261023 0.869661
O O9 0.210506 0.090760 0.284433
O O10 0.492084 0.224492 0.268121
O O11 0.500000 0.000000 0.337271
O O12 0.000000 0.000000 0.793668
#
# Coordination Sequence:
#
# PCOD8164474 Si02
#       5
#     8   8   8   8   8
#     4  11  25  46  74 101 144 192 246 297 361 443
#     4  11  26  45  71 106 145 186 238 300 369 437
#     4  11  25  46  72 105 142 193 245 297 364 440
#     4  12  27  44  73 107 150 190 248 307 365 436
#     4  12  25  47  72 105 144 197 244 300 369 438
#
# _framework density 23.664992999999999
#
# number of rings (size 3 to 8) (size 9 to 14) (size 15 to 20)
#    0.000    0.600    2.000    4.800    8.400    4.000 
#    0.000    0.000    0.000    0.000    0.000    0.000 
#    0.000    0.000    0.000    0.000    0.000    0.000 
#
# Total GULP energy -248079.789763 kJ/mol
# GULP energy per Si atom -12403.989488 kJ/mol
# Density = 2.361113 g / cm^3
# Si number density = 23.664993 Si / 1000 Ang^3
#
#
#
# Elastic Constant Matrix: (Units=GPa)
#
#
# Indices 1 2 3 4 5 6 
#
# 1 82.8768 40.6500 8.5012 0.0000 0.0000 0.0000
# 2 40.6500 138.0642 19.3660 0.0000 0.0000 0.0000
# 3 8.5012 19.3660 69.4257 0.0000 0.0000 0.0000
# 4 0.0000 0.0000 0.0000 34.1130 0.0000 0.0000
# 5 0.0000 0.0000 0.0000 0.0000 30.2067 0.0000
# 6 0.0000 0.0000 0.0000 0.0000 0.0000 40.9512
#
#
#
# Elastic Compliance Matrix: (Units=1/GPa)
#
#
# Indices 1 2 3 4 5 6 
#
# 1 0.014126 -0.004076 -0.000593 0.000000 0.000000 0.000000
# 2 -0.004076 0.008714 -0.001932 0.000000 0.000000 0.000000
# 3 -0.000593 -0.001932 0.015015 0.000000 0.000000 0.000000
# 4 0.000000 0.000000 0.000000 0.029314 0.000000 0.000000
# 5 0.000000 0.000000 0.000000 0.000000 0.033105 0.000000
# 6 0.000000 0.000000 0.000000 0.000000 0.000000 0.024419
#
#
# Mechanical properties :
#
#
# Convention : Reuss Voigt Hill
#
# Bulk Modulus (GPa) = 40.56024 47.48899 44.02462
# Shear Modulus (GPa) = 34.22000 35.84414 35.03207
#
# Velocity S-wave (km/s) = 3.80678 3.89607 3.85168
# Velocity P-wave (km/s) = 6.04141 6.35216 6.19873
#
# Compressibility (1/GPa) = 0.02465468
#
# Stress axis : x y z
#
# Youngs Moduli (GPa) = 70.79081 114.75744 66.59882
#
# Poissons Ratio (x) = 0.46775 0.03948
# Poissons Ratio (y) = 0.28854 0.12864
# Poissons Ratio (z) = 0.04196 0.22167
#
# Static dielectric constant tensor:
#      x y z
#    x 4.361690 0.000000 0.000000 
#    y 0.000000 4.335080 0.000000 
#    z 0.000000 0.000000 3.962850 
# 
# 
# High freq. dielectric constant tensor:
#      x y z
#    x 1.951890 0.000000 0.000000 
#    y 0.000000 1.941000 0.000000 
#    z 0.000000 0.000000 1.931570 
# 
# From -- ./inp_files/12898.got.cif
#   From: 2010.03.12/outbox.cif.g09.slc.cpg/sg23_7_cif.got.tgz:12898.got - 2010.04.14 02:50:06.
