data_PCOD8164366
_publ_section_title
;
Structure prediction by ZEFSAII (Michael W. Deem and Ramdas Pophale) SiO2 
 PCOD8164366
Probable space group: I 2 2 2
;
_chemical_formula_sum "Si O2"
_cell_formula_units_Z 64
_cell_length_a 8.877910
_cell_length_b 27.206982
_cell_length_c 12.470349
_cell_angle_alpha 90.000000
_cell_angle_beta 90.000000
_cell_angle_gamma 90.000000
_cell_volume 3012.102283
_symmetry_space_group_name_H-M "I 2 2 2"
_symmetry_group_IT_number 23
_symmetry_cell_setting 'orthorhombic'
loop_
_space_group_symop_operation_xyz
x,y,z
-x,-y,z
x,-y,-z
-x,y,-z
1/2+x,1/2+y,1/2+z
1/2-x,1/2-y,1/2+z
1/2+x,1/2-y,1/2-z
1/2-x,1/2+y,1/2-z
loop_
_atom_site_type_symbol
_atom_site_label
_atom_site_fract_x
_atom_site_fract_y
_atom_site_fract_z
Si Si1 0.063259 0.945306 0.215074
Si Si2 0.567801 0.866930 0.609610
Si Si3 0.159877 0.701940 0.230233
Si Si4 0.316112 0.053662 0.954425
Si Si5 0.035883 0.774792 0.627422
Si Si6 0.093342 0.126263 0.604329
Si Si7 0.279741 0.608564 0.347535
Si Si8 0.520030 0.054578 0.769683
O O1 0.217951 0.943623 0.152617
O O2 0.095804 0.924808 0.332748
O O3 0.952914 0.906600 0.156347
O O4 0.000000 0.000000 0.220452
O O5 0.500000 0.888457 0.500000
O O6 0.463307 0.822259 0.650779
O O7 0.739389 0.851728 0.583303
O O8 0.579277 0.909281 0.698524
O O9 0.067496 0.738105 0.306093
O O10 0.286163 0.730842 0.158955
O O11 0.242519 0.663689 0.310465
O O12 0.482837 0.057752 0.899715
O O13 0.276381 0.099347 0.030801
O O14 0.282097 0.000000 0.000000
O O15 0.995217 0.830061 0.664695
O O16 0.000000 0.768038 0.500000
O O17 0.000000 0.112826 0.500000
O O18 0.193609 0.571352 0.265158
O O19 0.500000 0.000000 0.724413
#
# Coordination Sequence:
#
# PCOD8164366 Si02
#       8
#     8   8   8   8   8   8   8   8
#     4  12  23  41  64  99 138 184 231 276 337 413
#     4  11  24  43  68  96 129 180 231 287 354 409
#     4  11  25  47  72 104 140 177 233 301 351 433
#     4  12  22  39  63  95 139 187 229 275 343 412
#     4  11  24  47  75 102 139 182 230 296 366 427
#     4  11  24  45  70  95 135 183 230 284 350 412
#     4  11  24  38  63  95 141 178 226 280 341 407
#     4  11  22  38  60  94 131 179 231 282 331 411
#
# _framework density 21.247620000000001
#
# number of rings (size 3 to 8) (size 9 to 14) (size 15 to 20)
#    0.000    0.750    5.000    3.000    1.750    2.500 
#    2.250    1.250    0.000    0.000    0.000    0.000 
#    0.000    0.000    0.000    0.000    0.000    0.000 
#
# Total GULP energy -396654.635526 kJ/mol
# GULP energy per Si atom -12395.457360 kJ/mol
# Density = 2.119926 g / cm^3
# Si number density = 21.247620 Si / 1000 Ang^3
#
#
#
# Elastic Constant Matrix: (Units=GPa)
#
#
# Indices 1 2 3 4 5 6 
#
# 1 98.9804 15.9829 34.5337 0.0002 -0.0001 0.0000
# 2 15.9829 72.7933 45.2563 0.0006 0.0000 0.0000
# 3 34.5337 45.2563 112.8871 0.0015 -0.0002 0.0002
# 4 0.0002 0.0006 0.0015 30.4354 -0.0001 0.0001
# 5 -0.0001 0.0000 -0.0002 -0.0001 36.6356 0.0002
# 6 0.0000 0.0000 0.0002 0.0001 0.0002 25.0857
#
#
#
# Elastic Compliance Matrix: (Units=1/GPa)
#
#
# Indices 1 2 3 4 5 6 
#
# 1 0.011321 -0.000443 -0.003286 0.000000 0.000000 0.000000
# 2 -0.000443 0.018316 -0.007207 0.000000 0.000000 0.000000
# 3 -0.003286 -0.007207 0.012753 0.000000 0.000000 0.000000
# 4 0.000000 0.000000 0.000000 0.032857 0.000000 0.000000
# 5 0.000000 0.000000 0.000000 0.000000 0.027296 0.000000
# 6 0.000000 0.000000 0.000000 0.000000 0.000000 0.039863
#
#
# Mechanical properties :
#
#
# Convention : Reuss Voigt Hill
#
# Bulk Modulus (GPa) = 48.73822 52.91183 50.82502
# Shear Modulus (GPa) = 29.21998 31.02386 30.12192
#
# Velocity S-wave (km/s) = 3.71241 3.82528 3.76927
# Velocity P-wave (km/s) = 6.43148 6.66835 6.55099
#
# Compressibility (1/GPa) = 0.02051778
#
# Stress axis : x y z
#
# Youngs Moduli (GPa) = 88.33239 54.59842 78.41368
#
# Poissons Ratio (x) = 0.02418 0.25764
# Poissons Ratio (y) = 0.03913 0.56514
# Poissons Ratio (z) = 0.29023 0.39350
#
# Static dielectric constant tensor:
#      x y z
#    x 4.170600 0.000000 0.000000 
#    y 0.000000 3.700460 0.000000 
#    z 0.000000 0.000000 3.847550 
# 
# 
# High freq. dielectric constant tensor:
#      x y z
#    x 1.861280 0.000000 0.000000 
#    y 0.000000 1.815220 0.000000 
#    z 0.000000 0.000000 1.832920 
# 
# From -- ./inp_files/14982.got.cif
#   From: 2010.03.12/outbox.cif.g09.slc.cpg/sg23_8_cif.got.tgz:14982.got - 2010.04.14 02:50:06.
