data_PCOD8164634
_publ_section_title
;
Structure prediction by ZEFSAII (Michael W. Deem and Ramdas Pophale) SiO2 
 PCOD8164634
Probable space group: I 21 21 21
;
_chemical_formula_sum "Si O2"
_cell_formula_units_Z 48
_cell_length_a 13.491317
_cell_length_b 20.074456
_cell_length_c 9.566606
_cell_angle_alpha 90.000000
_cell_angle_beta 90.000000
_cell_angle_gamma 90.000000
_cell_volume 2590.932030
_symmetry_space_group_name_H-M "I 21 21 21"
_symmetry_group_IT_number 24
_symmetry_cell_setting 'orthorhombic'
loop_
_space_group_symop_operation_xyz
x,y,z
-x,1/2-y,z
x,-y,1/2-z
1/2-x,y,-z
1/2+x,1/2+y,1/2+z
1/2-x,-y,1/2+z
1/2+x,1/2-y,-z
-x,1/2+y,1/2-z
loop_
_atom_site_type_symbol
_atom_site_label
_atom_site_fract_x
_atom_site_fract_y
_atom_site_fract_z
Si Si1 0.497289 0.325460 0.711769
Si Si2 0.955134 0.341483 0.970516
Si Si3 0.343918 0.709332 0.398740
Si Si4 0.805723 0.442141 0.859828
Si Si5 0.194076 0.856266 0.138191
Si Si6 0.215414 0.301675 0.350701
O O1 0.500000 0.250000 0.656915
O O2 0.574750 0.370817 0.621097
O O3 0.381551 0.345134 0.697231
O O4 0.546940 0.330473 0.864129
O O5 0.893743 0.282161 0.897507
O O6 0.907470 0.409691 0.915130
O O7 0.071346 0.343805 0.934746
O O8 0.250000 0.708154 0.500000
O O9 0.307628 0.684563 0.249003
O O10 0.831237 0.500000 0.750000
O O11 0.737180 0.389190 0.778484
O O12 0.750000 0.468544 0.000000
O O13 0.199230 0.777205 0.155300
O O14 0.250000 0.882364 0.000000
O O15 0.250000 0.327869 0.500000
#
# Coordination Sequence:
#
# PCOD8164634 Si02
#       6
#     8   8   8   8   8   8
#     4  10  17  32  54  81 115 160 184 220 286 344
#     4  11  20  32  58  83 114 151 195 238 274 353
#     4  11  18  32  57  87 114 149 191 229 285 351
#     4  12  24  39  57  79 112 153 201 246 290 332
#     4  10  20  34  53  78 116 156 189 231 277 342
#     4  10  20  32  50  84 126 152 181 225 285 353
#
# _framework density 18.526150999999999
#
# number of rings (size 3 to 8) (size 9 to 14) (size 15 to 20)
#    0.000    1.333    6.667    2.000    0.000    1.333 
#    6.000    0.000    0.000    0.000    0.000    8.167 
#    0.000    0.000    0.000    0.000    0.000    0.000 
#
# Total GULP energy -297315.884028 kJ/mol
# GULP energy per Si atom -12388.161835 kJ/mol
# Density = 1.848398 g / cm^3
# Si number density = 18.526151 Si / 1000 Ang^3
#
#
#
# Elastic Constant Matrix: (Units=GPa)
#
#
# Indices 1 2 3 4 5 6 
#
# 1 152.6989 31.9500 46.2142 0.0000 0.0000 0.0000
# 2 31.9500 40.6779 14.5608 0.0000 0.0000 0.0000
# 3 46.2142 14.5608 99.8906 0.0001 -0.0001 0.0000
# 4 0.0000 0.0000 0.0001 20.2543 0.0000 0.0000
# 5 0.0000 0.0000 -0.0001 0.0000 39.5195 0.0000
# 6 0.0000 0.0000 0.0000 0.0000 0.0000 13.7945
#
#
#
# Elastic Compliance Matrix: (Units=1/GPa)
#
#
# Indices 1 2 3 4 5 6 
#
# 1 0.008709 -0.005695 -0.003199 0.000000 0.000000 0.000000
# 2 -0.005695 0.029661 -0.001689 0.000000 0.000000 0.000000
# 3 -0.003199 -0.001689 0.011737 0.000000 0.000000 0.000000
# 4 0.000000 0.000000 0.000000 0.049372 0.000000 0.000000
# 5 0.000000 0.000000 0.000000 0.000000 0.025304 0.000000
# 6 0.000000 0.000000 0.000000 0.000000 0.000000 0.072492
#
#
# Mechanical properties :
#
#
# Convention : Reuss Voigt Hill
#
# Bulk Modulus (GPa) = 34.55279 53.19082 43.87180
# Shear Modulus (GPa) = 21.92139 28.08316 25.00228
#
# Velocity S-wave (km/s) = 3.44360 3.89764 3.67763
# Velocity P-wave (km/s) = 5.87388 7.00207 6.46264
#
# Compressibility (1/GPa) = 0.02894123
#
# Stress axis : x y z
#
# Youngs Moduli (GPa) = 114.82951 33.71434 85.20011
#
# Poissons Ratio (x) = 0.19200 0.27254
# Poissons Ratio (y) = 0.65395 0.14389
# Poissons Ratio (z) = 0.36732 0.05694
#
# Static dielectric constant tensor:
#      x y z
#    x 3.973350 0.000000 0.000000 
#    y 0.000000 2.914440 0.000000 
#    z 0.000000 0.000000 3.604780 
# 
# 
# High freq. dielectric constant tensor:
#      x y z
#    x 1.738930 0.000000 0.000000 
#    y 0.000000 1.649540 0.000000 
#    z 0.000000 0.000000 1.727030 
# 
# From -- ./inp_files/12975.got.cif
#   From: 2010.03.12/outbox.cif.g09.slc.cpg/sg24_7_cif.got.tgz:12975.got - 2010.04.14 03:06:53.
