data_PCOD8164644
_publ_section_title
;
Structure prediction by ZEFSAII (Michael W. Deem and Ramdas Pophale) SiO2 
 PCOD8164644
Probable space group: I 21 21 21
;
_chemical_formula_sum "Si O2"
_cell_formula_units_Z 64
_cell_length_a 9.391313
_cell_length_b 30.548373
_cell_length_c 11.098699
_cell_angle_alpha 90.000000
_cell_angle_beta 90.000000
_cell_angle_gamma 90.000000
_cell_volume 3184.098348
_symmetry_space_group_name_H-M "I 21 21 21"
_symmetry_group_IT_number 24
_symmetry_cell_setting 'orthorhombic'
loop_
_space_group_symop_operation_xyz
x,y,z
-x,1/2-y,z
x,-y,1/2-z
1/2-x,y,-z
1/2+x,1/2+y,1/2+z
1/2-x,-y,1/2+z
1/2+x,1/2-y,-z
-x,1/2+y,1/2-z
loop_
_atom_site_type_symbol
_atom_site_label
_atom_site_fract_x
_atom_site_fract_y
_atom_site_fract_z
Si Si1 0.031001 0.136338 0.870170
Si Si2 0.954870 0.891991 0.194602
Si Si3 0.651034 0.016074 0.617564
Si Si4 0.002092 0.800559 0.418576
Si Si5 0.413146 0.426831 0.954874
Si Si6 0.665358 0.253058 0.386362
Si Si7 0.748196 0.826651 0.265861
Si Si8 0.210959 0.837369 0.224344
O O1 0.170150 0.133004 0.788433
O O2 0.890033 0.144644 0.793163
O O3 0.054649 0.176266 0.960881
O O4 0.015519 0.090030 0.939016
O O5 0.931068 0.938194 0.129497
O O6 0.942336 0.896267 0.339837
O O7 0.834342 0.855325 0.165003
O O8 0.108725 0.872454 0.155914
O O9 0.750000 0.021855 0.500000
O O10 0.718825 0.000000 0.750000
O O11 0.544749 0.976669 0.580179
O O12 0.844982 0.817882 0.383578
O O13 0.000000 0.750000 0.449960
O O14 0.113332 0.808857 0.312241
O O15 0.250000 0.424032 0.000000
O O16 0.500000 0.250000 0.416093
O O17 0.750000 0.234915 0.500000
O O18 0.703393 0.221384 0.276955
O O19 0.710804 0.303289 0.363225
#
# Coordination Sequence:
#
# PCOD8164644 Si02
#       8
#     8   8   8   8   8   8   8   8
#     4  12  21  35  57  99 129 167 204 254 325 395
#     4  10  21  37  60  95 124 167 209 261 329 385
#     4   9  20  38  66 103 130 163 217 281 341 408
#     4  11  22  32  57  87 130 167 197 253 313 385
#     4  10  17  34  62  97 130 162 202 263 326 396
#     4  12  28  46  62  83 118 174 226 277 320 370
#     4  11  22  38  60  89 124 162 214 262 312 382
#     4  11  24  39  58  91 128 167 214 260 317 390
#
# _framework density 20.099882000000001
#
# number of rings (size 3 to 8) (size 9 to 14) (size 15 to 20)
#    0.000    1.250    6.250    0.750    5.250    1.500 
#    0.000    0.000    0.000    0.000   39.000    0.000 
#    0.000    0.000    0.000    0.000    0.000    0.000 
#
# Total GULP energy -396564.591293 kJ/mol
# GULP energy per Si atom -12392.643478 kJ/mol
# Density = 2.005413 g / cm^3
# Si number density = 20.099882 Si / 1000 Ang^3
#
#
#
# Elastic Constant Matrix: (Units=GPa)
#
#
# Indices 1 2 3 4 5 6 
#
# 1 105.3185 41.5930 34.3170 -0.0035 0.0042 0.0006
# 2 41.5930 140.9292 32.8326 -0.0024 -0.0018 -0.0003
# 3 34.3170 32.8326 66.5783 -0.0234 -0.0011 0.0030
# 4 -0.0035 -0.0024 -0.0234 25.0431 -0.0012 -0.0001
# 5 0.0042 -0.0018 -0.0011 -0.0012 15.9710 0.0016
# 6 0.0006 -0.0003 0.0030 -0.0001 0.0016 26.0909
#
#
#
# Elastic Compliance Matrix: (Units=1/GPa)
#
#
# Indices 1 2 3 4 5 6 
#
# 1 0.012084 -0.002390 -0.005050 -0.000003 -0.000004 0.000000
# 2 -0.002390 0.008489 -0.002955 -0.000002 0.000001 0.000001
# 3 -0.005050 -0.002955 0.019080 0.000017 0.000002 -0.000002
# 4 -0.000003 -0.000002 0.000017 0.039931 0.000003 0.000000
# 5 -0.000004 0.000001 0.000002 0.000003 0.062613 -0.000004
# 6 0.000000 0.000001 -0.000002 0.000000 -0.000004 0.038328
#
#
# Mechanical properties :
#
#
# Convention : Reuss Voigt Hill
#
# Bulk Modulus (GPa) = 53.01005 58.92346 55.96675
# Shear Modulus (GPa) = 24.08435 27.02657 25.55546
#
# Velocity S-wave (km/s) = 3.46531 3.67087 3.56957
# Velocity P-wave (km/s) = 6.51473 6.88085 6.70029
#
# Compressibility (1/GPa) = 0.01886435
#
# Stress axis : x y z
#
# Youngs Moduli (GPa) = 82.75117 117.79299 52.41082
#
# Poissons Ratio (x) = 0.28152 0.26468
# Poissons Ratio (y) = 0.19777 0.15485
# Poissons Ratio (z) = 0.41791 0.34804
#
# Static dielectric constant tensor:
#      x y z
#    x 3.594680 0.000010 0.000000 
#    y 0.000010 3.907550 0.000000 
#    z 0.000000 0.000000 3.557940 
# 
# 
# High freq. dielectric constant tensor:
#      x y z
#    x 1.769190 0.000000 0.000000 
#    y 0.000000 1.794730 0.000000 
#    z 0.000000 0.000000 1.765060 
# 
# From -- ./inp_files/18916.got.cif
#   From: 2010.03.12/outbox.cif.g09.slc.cpg/sg24_10_cif.got.tgz:18916.got - 2010.04.14 03:06:53.
