data_PCOD8164404
_publ_section_title
;
Structure prediction by ZEFSAII (Michael W. Deem and Ramdas Pophale) SiO2 
 PCOD8164404
Probable space group: I 2 2 2
;
_chemical_formula_sum "Si O2"
_cell_formula_units_Z 38
_cell_length_a 9.289063
_cell_length_b 24.087390
_cell_length_c 7.382426
_cell_angle_alpha 90.000000
_cell_angle_beta 90.000000
_cell_angle_gamma 90.000000
_cell_volume 1651.812526
_symmetry_space_group_name_H-M "I 2 2 2"
_symmetry_group_IT_number 23
_symmetry_cell_setting 'orthorhombic'
loop_
_space_group_symop_operation_xyz
x,y,z
-x,-y,z
x,-y,-z
-x,y,-z
1/2+x,1/2+y,1/2+z
1/2-x,1/2-y,1/2+z
1/2+x,1/2-y,1/2-z
1/2-x,1/2+y,1/2-z
loop_
_atom_site_type_symbol
_atom_site_label
_atom_site_fract_x
_atom_site_fract_y
_atom_site_fract_z
Si Si1 0.512222 0.819384 0.802802
Si Si2 0.231973 0.253699 0.846358
Si Si3 0.500000 0.000000 0.000000
Si Si4 0.410211 0.071514 0.333678
Si Si5 0.500000 0.321905 0.500000
Si Si6 0.120365 0.133656 0.362551
O O1 0.658131 0.788346 0.750004
O O2 0.380945 0.775291 0.803044
O O3 0.497658 0.870675 0.670340
O O4 0.500000 0.845668 0.000000
O O5 0.139856 0.218092 0.990105
O O6 0.314544 0.307133 0.929373
O O7 0.409800 0.962124 0.857570
O O8 0.500000 0.041540 0.500000
O O9 0.242198 0.085521 0.365615
O O10 0.462049 0.361002 0.669785
O O11 0.000000 0.112905 0.500000
#
# Coordination Sequence:
#
# PCOD8164404 Si02
#       6
#     8   8   2   8   4   8
#     4  11  23  39  61  98 143 192 235 288 348 429
#     4  11  23  36  57 100 148 200 245 274 341 437
#     4  12  26  56  80 108 136 180 250 334 372 440
#     4  11  27  46  80 109 138 183 248 312 380 436
#     4  12  26  38  64  95 156 213 244 280 356 424
#     4  11  27  43  67 108 152 197 244 301 360 446
#
# _framework density 23.005030000000001
#
# number of rings (size 3 to 8) (size 9 to 14) (size 15 to 20)
#    0.000    0.842    3.158    3.474   11.789    0.000 
#    0.000    0.000    0.000    9.474    0.000    0.000 
#    0.000    0.000    0.000    0.000    0.000    0.000 
#
# Total GULP energy -235384.362531 kJ/mol
# GULP energy per Si atom -12388.650660 kJ/mol
# Density = 2.295267 g / cm^3
# Si number density = 23.005030 Si / 1000 Ang^3
#
#
#
# Elastic Constant Matrix: (Units=GPa)
#
#
# Indices 1 2 3 4 5 6 
#
# 1 177.5370 63.3240 58.5201 -0.0005 0.0006 -0.0002
# 2 63.3240 85.5302 35.5860 -0.0008 0.0000 -0.0006
# 3 58.5201 35.5860 152.5424 -0.0132 0.0002 -0.0044
# 4 -0.0005 -0.0008 -0.0132 20.1220 -0.0016 -0.0023
# 5 0.0006 0.0000 0.0002 -0.0016 40.7730 -0.0008
# 6 -0.0002 -0.0006 -0.0044 -0.0023 -0.0008 -7.9426
#
#
#
# Elastic Compliance Matrix: (Units=1/GPa)
#
#
# Indices 1 2 3 4 5 6 
#
# 1 0.008121 -0.005223 -0.001897 -0.000001 0.000000 0.000001
# 2 -0.005223 0.016308 -0.001801 -0.000001 0.000000 0.000000
# 3 -0.001897 -0.001801 0.007703 0.000005 0.000000 -0.000004
# 4 -0.000001 -0.000001 0.000005 0.049697 0.000002 -0.000015
# 5 0.000000 0.000000 0.000000 0.000002 0.024526 -0.000002
# 6 0.000001 0.000000 -0.000004 -0.000015 -0.000002 -0.125903
#
#
# Mechanical properties :
#
#
# Convention : Reuss Voigt Hill
#
# Bulk Modulus (GPa) = 69.97552 81.16330 75.56941
# Shear Modulus (GPa) = 1635.34626 27.80244 831.57435
#
# Velocity S-wave (km/s) = 26.69097 3.48017 19.03312
# Velocity P-wave (km/s) = 31.31071 7.17677 22.71417
#
# Compressibility (1/GPa) = 0.01429071
#
# Stress axis : x y z
#
# Youngs Moduli (GPa) = 123.13859 61.31927 129.81377
#
# Poissons Ratio (x) = 0.32029 0.24625
# Poissons Ratio (y) = 0.64318 0.23375
# Poissons Ratio (z) = 0.23359 0.11041
#
# Static dielectric constant tensor:
#      x y z
#    x 4.323160 0.000000 0.000010 
#    y 0.000000 3.836830 0.000000 
#    z 0.000010 0.000000 4.055490 
# 
# 
# High freq. dielectric constant tensor:
#      x y z
#    x 1.915810 0.000000 0.000000 
#    y 0.000000 1.877310 0.000000 
#    z 0.000000 0.000000 1.927190 
# 
# From -- ./inp_files/6954.got.cif
#   From: 2010.03.12/outbox.cif.g09.slc.cpg/sg23_4_cif.got.tgz:6954.got - 2010.04.14 02:50:06.
