data_PCOD8164685
_publ_section_title
;
Structure prediction by ZEFSAII (Michael W. Deem and Ramdas Pophale) SiO2 
 PCOD8164685
Probable space group: I 21 21 21
;
_chemical_formula_sum "Si O2"
_cell_formula_units_Z 36
_cell_length_a 13.405947
_cell_length_b 10.470960
_cell_length_c 12.370744
_cell_angle_alpha 90.000000
_cell_angle_beta 90.000000
_cell_angle_gamma 90.000000
_cell_volume 1736.520115
_symmetry_space_group_name_H-M "I 21 21 21"
_symmetry_group_IT_number 24
_symmetry_cell_setting 'orthorhombic'
loop_
_space_group_symop_operation_xyz
x,y,z
-x,1/2-y,z
x,-y,1/2-z
1/2-x,y,-z
1/2+x,1/2+y,1/2+z
1/2-x,-y,1/2+z
1/2+x,1/2-y,-z
-x,1/2+y,1/2-z
loop_
_atom_site_type_symbol
_atom_site_label
_atom_site_fract_x
_atom_site_fract_y
_atom_site_fract_z
Si Si1 0.680984 0.099038 0.838061
Si Si2 0.779264 0.639689 0.232729
Si Si3 0.607337 0.601063 0.389033
Si Si4 0.109593 0.614366 0.567023
Si Si5 0.750000 0.589641 0.000000
O O1 0.666571 0.245930 0.796629
O O2 0.797352 0.069899 0.860955
O O3 0.641524 0.000000 0.750000
O O4 0.616724 0.065718 0.943879
O O5 0.832941 0.500000 0.250000
O O6 0.664794 0.618888 0.274692
O O7 0.777935 0.675282 0.104730
O O8 0.490669 0.564477 0.373368
O O9 0.612537 0.734234 0.450978
O O10 0.657270 0.498384 0.467350
#
# Coordination Sequence:
#
# PCOD8164685 Si02
#       5
#     8   8   8   8   4
#     4  10  20  34  53  78 108 141 173 212 263 312
#     4   9  18  33  55  79 103 134 173 214 259 305
#     4   9  17  33  55  77  99 138 183 215 248 305
#     4   9  18  34  54  74 104 143 183 211 245 313
#     4  10  18  30  54  82 108 126 164 228 274 298
#
# _framework density 20.731116
#
# number of rings (size 3 to 8) (size 9 to 14) (size 15 to 20)
#    0.000    2.667    0.000    4.000    0.000    4.444 
#    0.000    7.778    0.000    5.333    0.000    0.000 
#    0.000    0.000    0.000    0.000    0.000    0.000 
#
# Total GULP energy -223017.362963 kJ/mol
# GULP energy per Si atom -12389.853498 kJ/mol
# Density = 2.068393 g / cm^3
# Si number density = 20.731116 Si / 1000 Ang^3
#
#
#
# Elastic Constant Matrix: (Units=GPa)
#
#
# Indices 1 2 3 4 5 6 
#
# 1 43.2822 -3.1259 1.5215 0.0000 0.0000 0.0000
# 2 -3.1259 66.4086 14.6897 0.0000 0.0000 0.0000
# 3 1.5215 14.6897 126.3808 0.0000 0.0000 0.0000
# 4 0.0000 0.0000 0.0000 36.1896 0.0000 0.0000
# 5 0.0000 0.0000 0.0000 0.0000 18.3121 0.0000
# 6 0.0000 0.0000 0.0000 0.0000 0.0000 15.4453
#
#
#
# Elastic Compliance Matrix: (Units=1/GPa)
#
#
# Indices 1 2 3 4 5 6 
#
# 1 0.023204 0.001184 -0.000417 0.000000 0.000000 0.000000
# 2 0.001184 0.015516 -0.001818 0.000000 0.000000 0.000000
# 3 -0.000417 -0.001818 0.008129 0.000000 0.000000 0.000000
# 4 0.000000 0.000000 0.000000 0.027632 0.000000 0.000000
# 5 0.000000 0.000000 0.000000 0.000000 0.054609 0.000000
# 6 0.000000 0.000000 0.000000 0.000000 0.000000 0.064745
#
#
# Mechanical properties :
#
#
# Convention : Reuss Voigt Hill
#
# Bulk Modulus (GPa) = 22.34697 29.13802 25.74249
# Shear Modulus (GPa) = 23.71333 28.85515 26.28424
#
# Velocity S-wave (km/s) = 3.38576 3.73483 3.56457
# Velocity P-wave (km/s) = 5.10757 5.71702 5.42087
#
# Compressibility (1/GPa) = 0.04474880
#
# Stress axis : x y z
#
# Youngs Moduli (GPa) = 43.09533 64.44907 123.01793
#
# Poissons Ratio (x) = -0.07634 0.05130
# Poissons Ratio (y) = -0.05105 0.22362
# Poissons Ratio (z) = 0.01797 0.11715
#
# Static dielectric constant tensor:
#      x y z
#    x 3.683020 0.000000 0.000000 
#    y 0.000000 3.621020 0.000000 
#    z 0.000000 0.000000 3.892870 
# 
# 
# High freq. dielectric constant tensor:
#      x y z
#    x 1.777690 0.000000 0.000000 
#    y 0.000000 1.789730 0.000000 
#    z 0.000000 0.000000 1.820120 
# 
# From -- ./inp_files/19361.got.cif
#   From: 2010.03.12/outbox.cif.g09.slc.cpg/sg24_10_cif.got.tgz:19361.got - 2010.04.14 03:06:53.
