data_PCOD8164044
_publ_section_title
;
Structure prediction by ZEFSAII (Michael W. Deem and Ramdas Pophale) SiO2 
 PCOD8164044
Probable space group: I 2 2 2
;
_chemical_formula_sum "Si O2"
_cell_formula_units_Z 38
_cell_length_a 29.698693
_cell_length_b 6.962210
_cell_length_c 10.021864
_cell_angle_alpha 90.000000
_cell_angle_beta 90.000000
_cell_angle_gamma 90.000000
_cell_volume 2072.206161
_symmetry_space_group_name_H-M "I 2 2 2"
_symmetry_group_IT_number 23
_symmetry_cell_setting 'orthorhombic'
loop_
_space_group_symop_operation_xyz
x,y,z
-x,-y,z
x,-y,-z
-x,y,-z
1/2+x,1/2+y,1/2+z
1/2-x,1/2-y,1/2+z
1/2+x,1/2-y,1/2-z
1/2-x,1/2+y,1/2-z
loop_
_atom_site_type_symbol
_atom_site_label
_atom_site_fract_x
_atom_site_fract_y
_atom_site_fract_z
Si Si1 0.714083 0.617299 0.127168
Si Si2 0.352994 0.033228 0.151311
Si Si3 0.372234 0.500000 0.500000
Si Si4 0.194466 0.212400 0.183699
Si Si5 0.000000 0.500000 0.000000
Si Si6 0.414004 0.858169 0.612928
O O1 0.680505 0.788606 0.159762
O O2 0.765015 0.688279 0.102569
O O3 0.714907 0.479912 0.254253
O O4 0.696742 0.500000 0.000000
O O5 0.396783 0.073260 0.242291
O O6 0.326215 0.846751 0.201685
O O7 0.369519 0.000000 0.000000
O O8 0.343512 0.345061 0.579935
O O9 0.402480 0.633069 0.595509
O O10 0.031619 0.373190 0.901242
O O11 0.391972 0.000000 0.500000
#
# Coordination Sequence:
#
# PCOD8164044 Si02
#       6
#     8   8   4   8   2   8
#     4  12  26  37  54  83 126 178 226 266 304 358
#     4  12  24  41  59  90 131 170 210 263 324 380
#     4  12  24  37  66  92 124 168 212 261 318 374
#     4  12  25  37  55  86 123 176 223 265 305 353
#     4   8  20  46  74  96 122 148 210 270 328 380
#     4  10  22  42  66  96 123 152 206 264 321 393
#
# _framework density 18.337944
#
# number of rings (size 3 to 8) (size 9 to 14) (size 15 to 20)
#    0.632    0.000    8.421    0.000    7.368    0.421 
#    0.000    0.526    0.000    0.000    0.000    0.000 
#    0.000    0.000    0.000    0.000    0.000    0.000 
#
# Total GULP energy -235571.421244 kJ/mol
# GULP energy per Si atom -12398.495855 kJ/mol
# Density = 1.829621 g / cm^3
# Si number density = 18.337944 Si / 1000 Ang^3
#
#
#
# Elastic Constant Matrix: (Units=GPa)
#
#
# Indices 1 2 3 4 5 6 
#
# 1 122.7645 46.6418 45.0778 0.0000 0.0000 0.0000
# 2 46.6418 107.0360 38.1121 0.0000 0.0000 0.0000
# 3 45.0778 38.1121 101.3446 0.0000 0.0000 0.0000
# 4 0.0000 0.0000 0.0000 38.1652 0.0000 0.0000
# 5 0.0000 0.0000 0.0000 0.0000 26.2136 0.0000
# 6 0.0000 0.0000 0.0000 0.0000 0.0000 -52.1308
#
#
#
# Elastic Compliance Matrix: (Units=1/GPa)
#
#
# Indices 1 2 3 4 5 6 
#
# 1 0.010729 -0.003436 -0.003480 0.000000 0.000000 0.000000
# 2 -0.003436 0.011888 -0.002942 0.000000 0.000000 0.000000
# 3 -0.003480 -0.002942 0.012522 0.000000 0.000000 0.000000
# 4 0.000000 0.000000 0.000000 0.026202 0.000000 0.000000
# 5 0.000000 0.000000 0.000000 0.000000 0.038148 0.000000
# 6 0.000000 0.000000 0.000000 0.000000 0.000000 -0.019183
#
#
# Mechanical properties :
#
#
# Convention : Reuss Voigt Hill
#
# Bulk Modulus (GPa) = 64.84374 65.64540 65.24457
# Shear Modulus (GPa) = 47.54535 15.87050 31.70792
#
# Velocity S-wave (km/s) = 5.09741 2.94504 4.16274
# Velocity P-wave (km/s) = 8.37150 6.88764 7.66556
#
# Compressibility (1/GPa) = 0.01542169
#
# Stress axis : x y z
#
# Youngs Moduli (GPa) = 93.20546 84.12153 79.86165
#
# Poissons Ratio (x) = 0.28905 0.27792
# Poissons Ratio (y) = 0.32027 0.23496
# Poissons Ratio (z) = 0.32436 0.24750
#
# Static dielectric constant tensor:
#      x y z
#    x 3.098750 0.000000 0.000000 
#    y 0.000000 3.545020 0.000000 
#    z 0.000000 0.000000 3.285750 
# 
# 
# High freq. dielectric constant tensor:
#      x y z
#    x 1.683480 0.000000 0.000000 
#    y 0.000000 1.731430 0.000000 
#    z 0.000000 0.000000 1.704320 
# 
# From -- ./inp_files/13900.got.cif
#   From: 2010.03.12/outbox.cif.g09.slc.cpg/sg23_7_cif.got.tgz:13900.got - 2010.04.14 02:50:06.
