data_PCOD8164625
_publ_section_title
;
Structure prediction by ZEFSAII (Michael W. Deem and Ramdas Pophale) SiO2 
 PCOD8164625
Probable space group: I 21 21 21
;
_chemical_formula_sum "Si O2"
_cell_formula_units_Z 48
_cell_length_a 7.897584
_cell_length_b 22.880069
_cell_length_c 14.694136
_cell_angle_alpha 90.000000
_cell_angle_beta 90.000000
_cell_angle_gamma 90.000000
_cell_volume 2655.190214
_symmetry_space_group_name_H-M "I 21 21 21"
_symmetry_group_IT_number 24
_symmetry_cell_setting 'orthorhombic'
loop_
_space_group_symop_operation_xyz
x,y,z
-x,1/2-y,z
x,-y,1/2-z
1/2-x,y,-z
1/2+x,1/2+y,1/2+z
1/2-x,-y,1/2+z
1/2+x,1/2-y,-z
-x,1/2+y,1/2-z
loop_
_atom_site_type_symbol
_atom_site_label
_atom_site_fract_x
_atom_site_fract_y
_atom_site_fract_z
Si Si1 0.671814 0.402970 0.205764
Si Si2 0.607456 0.503837 0.441632
Si Si3 0.580871 0.096815 0.953764
Si Si4 0.029423 0.431674 0.248541
Si Si5 0.906589 0.306601 0.940931
Si Si6 0.627239 0.055528 0.315132
O O1 0.673942 0.464375 0.150165
O O2 0.660752 0.347605 0.139828
O O3 0.509528 0.400145 0.271753
O O4 0.846774 0.400306 0.265040
O O5 0.750000 0.467742 0.500000
O O6 0.565158 0.552905 0.515958
O O7 0.447788 0.463047 0.413860
O O8 0.602158 0.093739 0.846085
O O9 0.750000 0.073685 0.000000
O O10 0.536545 0.160868 0.991164
O O11 0.992301 0.500000 0.250000
O O12 0.181778 0.416534 0.321398
O O13 0.000000 0.250000 0.899138
O O14 0.750000 0.284389 0.000000
O O15 0.653894 0.000000 0.250000
#
# Coordination Sequence:
#
# PCOD8164625 Si02
#       6
#     8   8   8   8   8   8
#     4  10  18  33  48  64  95 132 172 218 265 314
#     4  10  17  31  44  68  98 131 171 211 263 319
#     4  11  19  30  48  69 100 131 177 224 258 317
#     4  11  18  29  47  69  95 133 178 210 266 318
#     4  11  21  35  48  69  95 136 186 230 273 311
#     4   9  19  29  44  68  95 127 173 208 260 316
#
# _framework density 18.0778
#
# number of rings (size 3 to 8) (size 9 to 14) (size 15 to 20)
#    0.000    1.667    3.333    7.000    0.000    0.000 
#    0.000    0.000    0.000    0.000    0.000    0.000 
#    0.000    0.000    0.000   22.500    0.000    1.000 
#
# Total GULP energy -297324.503264 kJ/mol
# GULP energy per Si atom -12388.520969 kJ/mol
# Density = 1.803665 g / cm^3
# Si number density = 18.077800 Si / 1000 Ang^3
#
#
#
# Elastic Constant Matrix: (Units=GPa)
#
#
# Indices 1 2 3 4 5 6 
#
# 1 139.5919 36.2583 22.9142 0.0000 0.0000 0.0000
# 2 36.2583 54.7239 22.8245 0.0000 0.0000 0.0000
# 3 22.9142 22.8245 33.9942 -0.0001 0.0000 0.0001
# 4 0.0000 0.0000 -0.0001 12.5239 0.0000 0.0000
# 5 0.0000 0.0000 0.0000 0.0000 38.6480 0.0000
# 6 0.0000 0.0000 0.0001 0.0000 0.0000 16.1077
#
#
#
# Elastic Compliance Matrix: (Units=1/GPa)
#
#
# Indices 1 2 3 4 5 6 
#
# 1 0.008843 -0.004685 -0.002815 0.000000 0.000000 0.000000
# 2 -0.004685 0.027863 -0.015550 0.000000 0.000000 0.000000
# 3 -0.002815 -0.015550 0.041755 0.000000 0.000000 0.000000
# 4 0.000000 0.000000 0.000000 0.079847 0.000000 0.000000
# 5 0.000000 0.000000 0.000000 0.000000 0.025875 0.000000
# 6 0.000000 0.000000 0.000000 0.000000 0.000000 0.062082
#
#
# Mechanical properties :
#
#
# Convention : Reuss Voigt Hill
#
# Bulk Modulus (GPa) = 30.90143 43.58932 37.24537
# Shear Modulus (GPa) = 16.49335 23.21011 19.85173
#
# Velocity S-wave (km/s) = 3.02380 3.58704 3.31740
# Velocity P-wave (km/s) = 5.41496 6.42808 5.94315
#
# Compressibility (1/GPa) = 0.03236097
#
# Stress axis : x y z
#
# Youngs Moduli (GPa) = 113.08795 35.88946 23.94913
#
# Poissons Ratio (x) = 0.16813 0.06742
# Poissons Ratio (y) = 0.52979 0.37242
# Poissons Ratio (z) = 0.31835 0.55809
#
# Static dielectric constant tensor:
#      x y z
#    x 4.111050 0.000000 0.000000 
#    y 0.000000 2.864770 0.000000 
#    z 0.000000 0.000000 3.202180 
# 
# 
# High freq. dielectric constant tensor:
#      x y z
#    x 1.738260 0.000000 0.000000 
#    y 0.000000 1.626010 0.000000 
#    z 0.000000 0.000000 1.665570 
# 
# From -- ./inp_files/14330.got.cif
#   From: 2010.03.12/outbox.cif.g09.slc.cpg/sg24_8_cif.got.tgz:14330.got - 2010.04.14 03:06:53.
