data_PCOD8164578
_publ_section_title
;
Structure prediction by ZEFSAII (Michael W. Deem and Ramdas Pophale) SiO2 
 PCOD8164578
Probable space group: I 21 21 21
;
_chemical_formula_sum "Si O2"
_cell_formula_units_Z 44
_cell_length_a 12.603271
_cell_length_b 18.998663
_cell_length_c 10.554194
_cell_angle_alpha 90.000000
_cell_angle_beta 90.000000
_cell_angle_gamma 90.000000
_cell_volume 2527.152132
_symmetry_space_group_name_H-M "I 21 21 21"
_symmetry_group_IT_number 24
_symmetry_cell_setting 'orthorhombic'
loop_
_space_group_symop_operation_xyz
x,y,z
-x,1/2-y,z
x,-y,1/2-z
1/2-x,y,-z
1/2+x,1/2+y,1/2+z
1/2-x,-y,1/2+z
1/2+x,1/2-y,-z
-x,1/2+y,1/2-z
loop_
_atom_site_type_symbol
_atom_site_label
_atom_site_fract_x
_atom_site_fract_y
_atom_site_fract_z
Si Si1 0.665221 0.284817 0.397303
Si Si2 0.047301 0.353744 0.627494
Si Si3 0.500000 0.750000 0.593729
Si Si4 0.265935 0.764673 0.637796
Si Si5 0.664415 0.006224 0.396829
Si Si6 0.599839 0.148075 0.096026
O O1 0.750000 0.307206 0.500000
O O2 0.565306 0.333569 0.431377
O O3 0.637144 0.202236 0.415076
O O4 0.707856 0.301970 0.255218
O O5 0.075830 0.433349 0.591728
O O6 0.031662 0.346950 0.777349
O O7 0.391865 0.761724 0.674454
O O8 0.524186 0.817820 0.508384
O O9 0.250000 0.803936 0.500000
O O10 0.213469 0.687170 0.616037
O O11 0.750000 0.029853 0.500000
O O12 0.618278 0.932320 0.443356
O O13 0.706330 0.000000 0.250000
#
# Coordination Sequence:
#
# PCOD8164578 Si02
#       6
#     8   8   4   8   8   8
#     4  10  19  32  49  70  96 126 161 196 231 279
#     4   9  18  32  50  68  95 132 159 185 237 295
#     4  10  16  26  48  76  98 118 154 202 240 270
#     4   9  17  29  47  72  98 121 154 197 237 279
#     4  10  19  32  51  74  97 123 156 196 239 283
#     4   9  17  31  50  72  97 127 157 190 239 294
#
# _framework density 17.410902
#
# number of rings (size 3 to 8) (size 9 to 14) (size 15 to 20)
#    0.000    2.545    0.000    5.455    0.000    1.455 
#    0.000    1.818    0.000    9.818    0.000    0.000 
#    0.000    0.000    0.000    0.000    0.000    0.000 
#
# Total GULP energy -272556.824877 kJ/mol
# GULP energy per Si atom -12388.946585 kJ/mol
# Density = 1.737127 g / cm^3
# Si number density = 17.410902 Si / 1000 Ang^3
#
#
#
# Elastic Constant Matrix: (Units=GPa)
#
#
# Indices 1 2 3 4 5 6 
#
# 1 110.3899 32.4630 34.0428 0.0000 0.0000 0.0000
# 2 32.4630 83.9982 27.8614 0.0001 0.0000 0.0000
# 3 34.0428 27.8614 82.0057 0.0006 0.0000 0.0000
# 4 0.0000 0.0001 0.0006 17.7550 0.0000 0.0000
# 5 0.0000 0.0000 0.0000 0.0000 29.6376 0.0000
# 6 0.0000 0.0000 0.0000 0.0000 0.0000 15.6415
#
#
#
# Elastic Compliance Matrix: (Units=1/GPa)
#
#
# Indices 1 2 3 4 5 6 
#
# 1 0.011062 -0.003102 -0.003538 0.000000 0.000000 0.000000
# 2 -0.003102 0.014287 -0.003566 0.000000 0.000000 0.000000
# 3 -0.003538 -0.003566 0.014875 0.000000 0.000000 0.000000
# 4 0.000000 0.000000 0.000000 0.056322 0.000000 0.000000
# 5 0.000000 0.000000 0.000000 0.000000 0.033741 0.000000
# 6 0.000000 0.000000 0.000000 0.000000 0.000000 0.063932
#
#
# Mechanical properties :
#
#
# Convention : Reuss Voigt Hill
#
# Bulk Modulus (GPa) = 50.47721 51.68092 51.07906
# Shear Modulus (GPa) = 22.60037 24.74191 23.67114
#
# Velocity S-wave (km/s) = 3.60677 3.77378 3.69122
# Velocity P-wave (km/s) = 6.81173 6.98112 6.89695
#
# Compressibility (1/GPa) = 0.01981092
#
# Stress axis : x y z
#
# Youngs Moduli (GPa) = 90.39875 69.99566 67.22761
#
# Poissons Ratio (x) = 0.21709 0.23788
# Poissons Ratio (y) = 0.28038 0.23976
# Poissons Ratio (z) = 0.31987 0.24963
#
# Static dielectric constant tensor:
#      x y z
#    x 3.289730 0.000000 0.000000 
#    y 0.000000 3.115640 0.000000 
#    z 0.000000 0.000000 3.263370 
# 
# 
# High freq. dielectric constant tensor:
#      x y z
#    x 1.669560 0.000000 0.000000 
#    y 0.000000 1.643390 0.000000 
#    z 0.000000 0.000000 1.667380 
# 
# From -- ./inp_files/19619.got.cif
#   From: 2010.03.12/outbox.cif.g09.slc.cpg/sg24_10_cif.got.tgz:19619.got - 2010.04.14 03:06:53.
