data_PCOD8164048
_publ_section_title
;
Structure prediction by ZEFSAII (Michael W. Deem and Ramdas Pophale) SiO2 
 PCOD8164048
Probable space group: I 2 2 2
;
_chemical_formula_sum "Si O2"
_cell_formula_units_Z 52
_cell_length_a 14.622279
_cell_length_b 19.268328
_cell_length_c 8.239262
_cell_angle_alpha 90.000000
_cell_angle_beta 90.000000
_cell_angle_gamma 90.000000
_cell_volume 2321.386262
_symmetry_space_group_name_H-M "I 2 2 2"
_symmetry_group_IT_number 23
_symmetry_cell_setting 'orthorhombic'
loop_
_space_group_symop_operation_xyz
x,y,z
-x,-y,z
x,-y,-z
-x,y,-z
1/2+x,1/2+y,1/2+z
1/2-x,1/2-y,1/2+z
1/2+x,1/2-y,1/2-z
1/2-x,1/2+y,1/2-z
loop_
_atom_site_type_symbol
_atom_site_label
_atom_site_fract_x
_atom_site_fract_y
_atom_site_fract_z
Si Si1 0.479185 0.076473 0.691725
Si Si2 0.627350 0.666725 0.112787
Si Si3 0.224198 0.424897 0.288807
Si Si4 0.232948 0.920485 0.835030
Si Si5 0.437041 0.647219 0.233884
Si Si6 0.500000 0.249040 0.500000
Si Si7 0.621249 0.817627 0.261363
O O1 0.500000 0.081036 0.500000
O O2 0.375721 0.096289 0.731265
O O3 0.542639 0.128506 0.798514
O O4 0.500000 0.000000 0.758199
O O5 0.711947 0.624534 0.182263
O O6 0.538347 0.624529 0.179073
O O7 0.629178 0.747805 0.157392
O O8 0.624851 0.669031 0.919034
O O9 0.242270 0.506157 0.253563
O O10 0.237382 0.412053 0.479152
O O11 0.122397 0.912175 0.824072
O O12 0.282885 0.858830 0.734991
O O13 0.451835 0.709700 0.356881
O O14 0.413836 0.203488 0.440654
#
# Coordination Sequence:
#
# PCOD8164048 Si02
#       7
#     8   8   8   8   8   4   8
#     4  11  24  43  71 100 140 182 226 281 342 408
#     4  10  25  43  71 102 138 179 237 284 350 412
#     4  11  26  47  68 102 140 185 230 290 345 423
#     4  11  25  43  70 101 139 185 234 281 353 411
#     4  10  23  44  68 101 138 182 228 292 348 413
#     4  10  22  42  67  99 144 174 232 288 350 404
#     4  11  23  43  67 104 131 188 226 283 344 414
#
# _framework density 22.400409
#
# number of rings (size 3 to 8) (size 9 to 14) (size 15 to 20)
#    0.000    1.385    2.308    1.846    2.154   11.692 
#    0.000    3.077    0.000    0.000    0.000    0.000 
#    0.000    0.000    0.000    0.000    0.000    0.000 
#
# Total GULP energy -322184.148471 kJ/mol
# GULP energy per Si atom -12391.698018 kJ/mol
# Density = 2.234942 g / cm^3
# Si number density = 22.400409 Si / 1000 Ang^3
#
#
#
# Elastic Constant Matrix: (Units=GPa)
#
#
# Indices 1 2 3 4 5 6 
#
# 1 156.7606 64.6168 41.6748 0.0000 0.0000 0.0000
# 2 64.6168 112.4688 44.3147 0.0000 0.0000 0.0000
# 3 41.6748 44.3147 103.9394 0.0000 0.0000 0.0000
# 4 0.0000 0.0000 0.0000 16.7267 0.0000 0.0000
# 5 0.0000 0.0000 0.0000 0.0000 37.7078 0.0000
# 6 0.0000 0.0000 0.0000 0.0000 0.0000 41.6863
#
#
#
# Elastic Compliance Matrix: (Units=1/GPa)
#
#
# Indices 1 2 3 4 5 6 
#
# 1 0.008577 -0.004294 -0.001608 0.000000 0.000000 0.000000
# 2 -0.004294 0.012836 -0.003751 0.000000 0.000000 0.000000
# 3 -0.001608 -0.003751 0.011865 0.000000 0.000000 0.000000
# 4 0.000000 0.000000 0.000000 0.059785 0.000000 0.000000
# 5 0.000000 0.000000 0.000000 0.000000 0.026520 0.000000
# 6 0.000000 0.000000 0.000000 0.000000 0.000000 0.023989
#
#
# Mechanical properties :
#
#
# Convention : Reuss Voigt Hill
#
# Bulk Modulus (GPa) = 71.57311 74.93128 73.25219
# Shear Modulus (GPa) = 29.84458 34.06167 31.95312
#
# Velocity S-wave (km/s) = 3.65406 3.90369 3.78094
# Velocity P-wave (km/s) = 7.05861 7.33771 7.19951
#
# Compressibility (1/GPa) = 0.01397173
#
# Stress axis : x y z
#
# Youngs Moduli (GPa) = 116.59606 77.90372 84.28097
#
# Poissons Ratio (x) = 0.33451 0.13553
# Poissons Ratio (y) = 0.50065 0.31615
# Poissons Ratio (z) = 0.18750 0.29223
#
# Static dielectric constant tensor:
#      x y z
#    x 4.207960 0.000000 0.000000 
#    y 0.000000 4.205860 0.000000 
#    z 0.000000 0.000000 4.015680 
# 
# 
# High freq. dielectric constant tensor:
#      x y z
#    x 1.895230 0.000000 0.000000 
#    y 0.000000 1.883310 0.000000 
#    z 0.000000 0.000000 1.880680 
# 
# From -- ./inp_files/10163.got.cif
#   From: 2010.03.12/outbox.cif.g09.slc.cpg/sg23_6_cif.got.tgz:10163.got - 2010.04.14 02:50:06.
