data_PCOD8164552
_publ_section_title
;
Structure prediction by ZEFSAII (Michael W. Deem and Ramdas Pophale) SiO2 
 PCOD8164552
Probable space group: I 2 2 2
;
_chemical_formula_sum "Si O2"
_cell_formula_units_Z 26
_cell_length_a 7.699925
_cell_length_b 5.657190
_cell_length_c 22.110780
_cell_angle_alpha 90.000000
_cell_angle_beta 90.000000
_cell_angle_gamma 90.000000
_cell_volume 963.144222
_symmetry_space_group_name_H-M "I 2 2 2"
_symmetry_group_IT_number 23
_symmetry_cell_setting 'orthorhombic'
loop_
_space_group_symop_operation_xyz
x,y,z
-x,-y,z
x,-y,-z
-x,y,-z
1/2+x,1/2+y,1/2+z
1/2-x,1/2-y,1/2+z
1/2+x,1/2-y,1/2-z
1/2-x,1/2+y,1/2-z
loop_
_atom_site_type_symbol
_atom_site_label
_atom_site_fract_x
_atom_site_fract_y
_atom_site_fract_z
Si Si1 0.500000 0.500000 0.761753
Si Si2 0.758823 0.148630 0.941107
Si Si3 0.000000 0.000000 0.500000
Si Si4 0.226295 0.323713 0.328887
Si Si5 0.500000 0.000000 0.383054
O O1 0.329079 0.525037 0.720825
O O2 0.540576 0.730751 0.803302
O O3 0.937839 0.278722 0.923415
O O4 0.690720 0.977706 0.888301
O O5 0.612253 0.341687 0.954762
O O6 0.800562 0.000000 0.000000
O O7 0.340356 0.089226 0.342668
#
# Coordination Sequence:
#
# PCOD8164552 Si02
#       5
#     4   8   2   8   4
#     4  12  28  57  83 125 172 225 298 356 438 510
#     4  12  29  54  83 123 171 224 287 363 445 517
#     4  12  30  52  80 126 176 228 282 356 442 528
#     4  12  28  55  85 121 170 226 286 366 430 518
#     4  12  26  53  82 122 158 224 281 358 444 508
#
# _framework density 26.994917000000001
#
# number of rings (size 3 to 8) (size 9 to 14) (size 15 to 20)
#    0.000    0.000    3.077    4.154    0.000   16.615 
#    5.538    0.000    0.000    0.000    0.000    0.000 
#    0.000    0.000    0.000    0.000    0.000    0.000 
#
# Total GULP energy -161341.408549 kJ/mol
# GULP energy per Si atom -12410.877581 kJ/mol
# Density = 2.693348 g / cm^3
# Si number density = 26.994917 Si / 1000 Ang^3
#
#
#
# Elastic Constant Matrix: (Units=GPa)
#
#
# Indices 1 2 3 4 5 6 
#
# 1 76.0783 9.1257 33.0373 0.0000 0.0000 0.0000
# 2 9.1257 120.0432 70.7709 0.0000 0.0000 0.0000
# 3 33.0373 70.7709 180.8270 0.0000 0.0000 0.0000
# 4 0.0000 0.0000 0.0000 46.7701 0.0000 0.0000
# 5 0.0000 0.0000 0.0000 0.0000 19.2358 0.0000
# 6 0.0000 0.0000 0.0000 0.0000 0.0000 58.9686
#
#
#
# Elastic Compliance Matrix: (Units=1/GPa)
#
#
# Indices 1 2 3 4 5 6 
#
# 1 0.014309 0.000589 -0.002845 0.000000 0.000000 0.000000
# 2 0.000589 0.010853 -0.004355 0.000000 0.000000 0.000000
# 3 -0.002845 -0.004355 0.007754 0.000000 0.000000 0.000000
# 4 0.000000 0.000000 0.000000 0.021381 0.000000 0.000000
# 5 0.000000 0.000000 0.000000 0.000000 0.051986 0.000000
# 6 0.000000 0.000000 0.000000 0.000000 0.000000 0.016958
#
#
# Mechanical properties :
#
#
# Convention : Reuss Voigt Hill
#
# Bulk Modulus (GPa) = 50.77420 66.97959 58.87690
# Shear Modulus (GPa) = 34.95789 42.59589 38.77689
#
# Velocity S-wave (km/s) = 3.60249 3.97662 3.79417
# Velocity P-wave (km/s) = 6.01278 6.77868 6.40718
#
# Compressibility (1/GPa) = 0.01969504
#
# Stress axis : x y z
#
# Youngs Moduli (GPa) = 69.88567 92.13877 128.95745
#
# Poissons Ratio (x) = -0.05431 0.36688
# Poissons Ratio (y) = -0.04120 0.56165
# Poissons Ratio (z) = 0.19882 0.40130
#
# Static dielectric constant tensor:
#      x y z
#    x 4.835400 0.000000 0.000000 
#    y 0.000000 5.112750 0.000000 
#    z 0.000000 0.000000 5.092020 
# 
# 
# High freq. dielectric constant tensor:
#      x y z
#    x 2.088430 0.000000 0.000000 
#    y 0.000000 2.102500 0.000000 
#    z 0.000000 0.000000 2.100840 
# 
# From -- ./inp_files/27465.got.cif
#   From: 2010.03.12/outbox.cif.g09.slc.cpg/sg23_14_cif.got.tgz:27465.got - 2010.04.14 02:50:06.
