data_PCOD8164763
_publ_section_title
;
Structure prediction by ZEFSAII (Michael W. Deem and Ramdas Pophale) SiO2 
 PCOD8164763
Probable space group: I 21 21 21
;
_chemical_formula_sum "Si O2"
_cell_formula_units_Z 40
_cell_length_a 15.319564
_cell_length_b 8.183423
_cell_length_c 15.172470
_cell_angle_alpha 90.000000
_cell_angle_beta 90.000000
_cell_angle_gamma 90.000000
_cell_volume 1902.119041
_symmetry_space_group_name_H-M "I 21 21 21"
_symmetry_group_IT_number 24
_symmetry_cell_setting 'orthorhombic'
loop_
_space_group_symop_operation_xyz
x,y,z
-x,1/2-y,z
x,-y,1/2-z
1/2-x,y,-z
1/2+x,1/2+y,1/2+z
1/2-x,-y,1/2+z
1/2+x,1/2-y,-z
-x,1/2+y,1/2-z
loop_
_atom_site_type_symbol
_atom_site_label
_atom_site_fract_x
_atom_site_fract_y
_atom_site_fract_z
Si Si1 0.995417 0.066102 0.481149
Si Si2 0.247922 0.727280 0.393750
Si Si3 0.429464 0.367691 0.819740
Si Si4 0.676956 0.547000 0.074562
Si Si5 0.181162 0.404024 0.578951
O O1 0.914950 0.050072 0.547316
O O2 0.000000 0.250000 0.444432
O O3 0.082885 0.015265 0.531807
O O4 0.981730 0.947490 0.399910
O O5 0.250000 0.719758 0.500000
O O6 0.151049 0.738816 0.355258
O O7 0.289896 0.555489 0.358328
O O8 0.300640 0.890809 0.362620
O O9 0.500000 0.250000 0.772543
O O10 0.395180 0.500000 0.750000
O O11 0.679151 0.723485 0.125640
O O12 0.750000 0.551477 0.000000
O O13 0.250000 0.389676 0.500000
#
# Coordination Sequence:
#
# PCOD8164763 Si02
#       5
#     8   8   8   8   8
#     4  10  19  33  56  81 120 152 188 246 303 356
#     4  10  18  35  55  75 108 150 200 244 283 339
#     4  12  24  38  53  81 123 167 198 237 301 375
#     4   9  18  29  49  82 107 144 192 239 290 338
#     4   9  16  30  51  80 109 142 184 247 290 335
#
# _framework density 21.029178999999999
#
# number of rings (size 3 to 8) (size 9 to 14) (size 15 to 20)
#    0.000    2.000    4.000    3.000    0.000    0.000 
#    3.600    0.000    0.000    0.000    0.000    0.000 
#   18.000    0.000    0.000    0.000    0.000    0.000 
#
# Total GULP energy -247769.482796 kJ/mol
# GULP energy per Si atom -12388.474140 kJ/mol
# Density = 2.098132 g / cm^3
# Si number density = 21.029179 Si / 1000 Ang^3
#
#
#
# Elastic Constant Matrix: (Units=GPa)
#
#
# Indices 1 2 3 4 5 6 
#
# 1 167.9369 52.7253 23.0954 0.0000 0.0000 0.0000
# 2 52.7253 185.4915 23.7475 0.0000 0.0000 0.0000
# 3 23.0954 23.7475 17.7182 0.0000 0.0000 0.0000
# 4 0.0000 0.0000 0.0000 16.5025 0.0000 0.0000
# 5 0.0000 0.0000 0.0000 0.0000 9.4891 0.0000
# 6 0.0000 0.0000 0.0000 0.0000 0.0000 41.5703
#
#
#
# Elastic Compliance Matrix: (Units=1/GPa)
#
#
# Indices 1 2 3 4 5 6 
#
# 1 0.007421 -0.001051 -0.008264 0.000000 0.000000 0.000000
# 2 -0.001051 0.006657 -0.007551 0.000000 0.000000 0.000000
# 3 -0.008264 -0.007551 0.077332 0.000000 0.000000 0.000000
# 4 0.000000 0.000000 0.000000 0.060597 0.000000 0.000000
# 5 0.000000 0.000000 0.000000 0.000000 0.105384 0.000000
# 6 0.000000 0.000000 0.000000 0.000000 0.000000 0.024056
#
#
# Mechanical properties :
#
#
# Convention : Reuss Voigt Hill
#
# Bulk Modulus (GPa) = 17.33817 63.36477 40.35147
# Shear Modulus (GPa) = 14.95188 31.61762 23.28475
#
# Velocity S-wave (km/s) = 2.66936 3.88172 3.33116
# Velocity P-wave (km/s) = 4.21466 7.09137 5.83314
#
# Compressibility (1/GPa) = 0.05767621
#
# Stress axis : x y z
#
# Youngs Moduli (GPa) = 134.74806 150.22421 12.93119
#
# Poissons Ratio (x) = 0.15795 0.10687
# Poissons Ratio (y) = 0.14168 0.09765
# Poissons Ratio (z) = 1.11359 1.13440
#
# Static dielectric constant tensor:
#      x y z
#    x 3.877030 0.000000 0.000000 
#    y 0.000000 5.644690 0.000000 
#    z 0.000000 0.000000 2.983940 
# 
# 
# High freq. dielectric constant tensor:
#      x y z
#    x 1.838530 0.000000 0.000000 
#    y 0.000000 1.862410 0.000000 
#    z 0.000000 0.000000 1.733090 
# 
# From -- ./inp_files/12301.got.cif
#   From: 2010.03.12/outbox.cif.g09.slc.cpg/sg24_7_cif.got.tgz:12301.got - 2010.04.14 03:06:53.
