data_PCOD8164765
_publ_section_title
;
Structure prediction by ZEFSAII (Michael W. Deem and Ramdas Pophale) SiO2 
 PCOD8164765
Probable space group: I 21 21 21
;
_chemical_formula_sum "Si O2"
_cell_formula_units_Z 52
_cell_length_a 20.151465
_cell_length_b 16.059326
_cell_length_c 9.351999
_cell_angle_alpha 90.000000
_cell_angle_beta 90.000000
_cell_angle_gamma 90.000000
_cell_volume 3026.484058
_symmetry_space_group_name_H-M "I 21 21 21"
_symmetry_group_IT_number 24
_symmetry_cell_setting 'orthorhombic'
loop_
_space_group_symop_operation_xyz
x,y,z
-x,1/2-y,z
x,-y,1/2-z
1/2-x,y,-z
1/2+x,1/2+y,1/2+z
1/2-x,-y,1/2+z
1/2+x,1/2-y,-z
-x,1/2+y,1/2-z
loop_
_atom_site_type_symbol
_atom_site_label
_atom_site_fract_x
_atom_site_fract_y
_atom_site_fract_z
Si Si1 0.129660 0.753178 0.750023
Si Si2 0.247144 0.845445 0.835674
Si Si3 0.570979 0.385202 0.061597
Si Si4 0.661110 0.500000 0.250000
Si Si5 0.460579 0.830299 0.014054
Si Si6 0.113453 0.095727 0.252028
Si Si7 0.550723 0.906749 0.250783
O O1 0.208569 0.770570 0.753447
O O2 0.097334 0.795485 0.611650
O O3 0.113518 0.655344 0.744993
O O4 0.100438 0.798780 0.890429
O O5 0.207111 0.931635 0.823769
O O6 0.319319 0.850710 0.764036
O O7 0.250000 0.820444 0.000000
O O8 0.615206 0.460215 0.126854
O O9 0.494808 0.395059 0.109243
O O10 0.574013 0.383114 0.891433
O O11 0.500000 0.750000 0.955765
O O12 0.435364 0.885206 0.883016
O O13 0.507263 0.889346 0.109538
O O14 0.134374 0.000000 0.250000
O O15 0.579537 0.000000 0.250000
#
# Coordination Sequence:
#
# PCOD8164765 Si02
#       7
#     8   8   8   4   8   8   8
#     4   9  20  34  52  73 102 142 180 206 263 314
#     4  11  20  32  50  74 111 142 172 206 251 314
#     4  10  20  32  50  75 110 137 172 210 258 305
#     4  10  20  30  46  72 112 146 168 198 250 314
#     4   9  19  35  51  74 107 139 173 214 261 318
#     4  12  22  31  51  84 109 141 177 207 259 318
#     4  10  18  35  57  76  99 135 180 225 260 307
#
# _framework density 17.181653000000001
#
# number of rings (size 3 to 8) (size 9 to 14) (size 15 to 20)
#    0.000    1.846    3.077    3.231    2.154    3.077 
#    0.000    0.000    0.000    0.000    4.000    1.077 
#    0.000    0.000    0.000    0.000    0.000    0.000 
#
# Total GULP energy -322411.809771 kJ/mol
# GULP energy per Si atom -12400.454222 kJ/mol
# Density = 1.714255 g / cm^3
# Si number density = 17.181653 Si / 1000 Ang^3
#
#
#
# Elastic Constant Matrix: (Units=GPa)
#
#
# Indices 1 2 3 4 5 6 
#
# 1 72.5313 43.5343 25.2322 0.0000 0.0000 0.0000
# 2 43.5343 114.4479 33.5575 0.0000 0.0000 0.0000
# 3 25.2322 33.5575 94.2711 0.0000 0.0000 0.0000
# 4 0.0000 0.0000 0.0000 20.0554 0.0000 0.0000
# 5 0.0000 0.0000 0.0000 0.0000 8.3497 0.0000
# 6 0.0000 0.0000 0.0000 0.0000 0.0000 18.6369
#
#
#
# Elastic Compliance Matrix: (Units=1/GPa)
#
#
# Indices 1 2 3 4 5 6 
#
# 1 0.018474 -0.006227 -0.002728 0.000000 0.000000 0.000000
# 2 -0.006227 0.011855 -0.002553 0.000000 0.000000 0.000000
# 3 -0.002728 -0.002553 0.012247 0.000000 0.000000 0.000000
# 4 0.000000 0.000000 0.000000 0.049862 0.000000 0.000000
# 5 0.000000 0.000000 0.000000 0.000000 0.119764 0.000000
# 6 0.000000 0.000000 0.000000 0.000000 0.000000 0.053657
#
#
# Mechanical properties :
#
#
# Convention : Reuss Voigt Hill
#
# Bulk Modulus (GPa) = 51.12821 53.98869 52.55845
# Shear Modulus (GPa) = 16.92648 21.33683 19.13165
#
# Velocity S-wave (km/s) = 3.14211 3.52779 3.34052
# Velocity P-wave (km/s) = 6.55636 6.93428 6.74797
#
# Compressibility (1/GPa) = 0.01955868
#
# Stress axis : x y z
#
# Youngs Moduli (GPa) = 54.13050 84.35237 81.65460
#
# Poissons Ratio (x) = 0.52529 0.22275
# Poissons Ratio (y) = 0.33709 0.20848
# Poissons Ratio (z) = 0.14766 0.21537
#
# Static dielectric constant tensor:
#      x y z
#    x 3.136180 0.000000 0.000000 
#    y 0.000000 3.201940 0.000000 
#    z 0.000000 0.000000 3.114140 
# 
# 
# High freq. dielectric constant tensor:
#      x y z
#    x 1.643810 0.000000 0.000000 
#    y 0.000000 1.650490 0.000000 
#    z 0.000000 0.000000 1.656420 
# 
# From -- ./inp_files/13288.got.cif
#   From: 2010.03.12/outbox.cif.g09.slc.cpg/sg24_7_cif.got.tgz:13288.got - 2010.04.14 03:06:53.
