data_PCOD8164526
_publ_section_title
;
Structure prediction by ZEFSAII (Michael W. Deem and Ramdas Pophale) SiO2 
 PCOD8164526
Probable space group: I 2 2 2
;
_chemical_formula_sum "Si O2"
_cell_formula_units_Z 34
_cell_length_a 20.735066
_cell_length_b 4.944482
_cell_length_c 14.396380
_cell_angle_alpha 90.000000
_cell_angle_beta 90.000000
_cell_angle_gamma 90.000000
_cell_volume 1475.976775
_symmetry_space_group_name_H-M "I 2 2 2"
_symmetry_group_IT_number 23
_symmetry_cell_setting 'orthorhombic'
loop_
_space_group_symop_operation_xyz
x,y,z
-x,-y,z
x,-y,-z
-x,y,-z
1/2+x,1/2+y,1/2+z
1/2-x,1/2-y,1/2+z
1/2+x,1/2-y,1/2-z
1/2-x,1/2+y,1/2-z
loop_
_atom_site_type_symbol
_atom_site_label
_atom_site_fract_x
_atom_site_fract_y
_atom_site_fract_z
Si Si1 0.000000 0.000000 0.000000
Si Si2 0.912943 0.117385 0.160395
Si Si3 0.841823 0.262480 0.562520
Si Si4 0.767594 0.064596 0.190201
Si Si5 0.563976 0.129384 0.223062
O O1 0.049443 0.821377 0.063576
O O2 0.839539 0.010490 0.151917
O O3 0.903478 0.389215 0.219318
O O4 0.954267 0.873536 0.207797
O O5 0.870278 0.500000 0.500000
O O6 0.771436 0.333544 0.600603
O O7 0.889825 0.229083 0.648683
O O8 0.838576 0.000000 0.500000
O O9 0.762501 0.282151 0.273707
O O10 0.500000 0.000000 0.176426
#
# Coordination Sequence:
#
# PCOD8164526 Si02
#       5
#     2   8   8   8   8
#     4  12  28  46  72 114 150 186 250 302 372 462
#     4  12  25  45  71 107 146 196 242 301 373 455
#     4  12  26  44  71 108 145 185 253 313 362 441
#     4  12  23  46  74 102 142 195 239 293 375 443
#     4  12  24  48  72  98 145 198 240 297 377 443
#
# _framework density 23.035591
#
# number of rings (size 3 to 8) (size 9 to 14) (size 15 to 20)
#    0.000    0.000    7.059    2.824    1.647    2.353 
#    0.000    1.176    0.000    0.000    0.000    0.000 
#    0.000    0.000    0.000    0.000    0.000    0.000 
#
# Total GULP energy -210768.281535 kJ/mol
# GULP energy per Si atom -12398.134208 kJ/mol
# Density = 2.298316 g / cm^3
# Si number density = 23.035591 Si / 1000 Ang^3
#
#
#
# Elastic Constant Matrix: (Units=GPa)
#
#
# Indices 1 2 3 4 5 6 
#
# 1 131.5344 9.2206 41.4267 0.0000 0.0000 0.0000
# 2 9.2206 104.7562 25.0509 0.0000 0.0000 0.0000
# 3 41.4267 25.0509 105.6809 0.0000 0.0000 0.0000
# 4 0.0000 0.0000 0.0000 19.8808 0.0000 0.0000
# 5 0.0000 0.0000 0.0000 0.0000 28.0535 0.0000
# 6 0.0000 0.0000 0.0000 0.0000 0.0000 33.9839
#
#
#
# Elastic Compliance Matrix: (Units=1/GPa)
#
#
# Indices 1 2 3 4 5 6 
#
# 1 0.008674 0.000053 -0.003413 0.000000 0.000000 0.000000
# 2 0.000053 0.010120 -0.002419 0.000000 0.000000 0.000000
# 3 -0.003413 -0.002419 0.011374 0.000000 0.000000 0.000000
# 4 0.000000 0.000000 0.000000 0.050300 0.000000 0.000000
# 5 0.000000 0.000000 0.000000 0.000000 0.035646 0.000000
# 6 0.000000 0.000000 0.000000 0.000000 0.000000 0.029426
#
#
# Mechanical properties :
#
#
# Convention : Reuss Voigt Hill
#
# Bulk Modulus (GPa) = 53.73899 54.81865 54.27882
# Shear Modulus (GPa) = 30.61840 34.13520 32.37680
#
# Velocity S-wave (km/s) = 3.64974 3.85365 3.75308
# Velocity P-wave (km/s) = 6.41406 6.60681 6.51115
#
# Compressibility (1/GPa) = 0.01860846
#
# Stress axis : x y z
#
# Youngs Moduli (GPa) = 115.29156 98.81494 87.92237
#
# Poissons Ratio (x) = -0.00520 0.30004
# Poissons Ratio (y) = -0.00606 0.21273
# Poissons Ratio (z) = 0.39344 0.23908
#
# Static dielectric constant tensor:
#      x y z
#    x 4.236020 0.000000 0.000000 
#    y 0.000000 4.077060 0.000000 
#    z 0.000000 0.000000 4.094990 
# 
# 
# High freq. dielectric constant tensor:
#      x y z
#    x 1.931490 0.000000 0.000000 
#    y 0.000000 1.917070 0.000000 
#    z 0.000000 0.000000 1.896880 
# 
# From -- ./inp_files/22249.got.cif
#   From: 2010.03.12/outbox.cif.g09.slc.cpg/sg23_12_cif.got.tgz:22249.got - 2010.04.14 02:50:06.
