data_PCOD8164257
_publ_section_title
;
Structure prediction by ZEFSAII (Michael W. Deem and Ramdas Pophale) SiO2 
 PCOD8164257
Probable space group: I 2 2 2
;
_chemical_formula_sum "Si O2"
_cell_formula_units_Z 64
_cell_length_a 28.460408
_cell_length_b 11.331156
_cell_length_c 9.207566
_cell_angle_alpha 90.000000
_cell_angle_beta 90.000000
_cell_angle_gamma 90.000000
_cell_volume 2969.341725
_symmetry_space_group_name_H-M "I 2 2 2"
_symmetry_group_IT_number 23
_symmetry_cell_setting 'orthorhombic'
loop_
_space_group_symop_operation_xyz
x,y,z
-x,-y,z
x,-y,-z
-x,y,-z
1/2+x,1/2+y,1/2+z
1/2-x,1/2-y,1/2+z
1/2+x,1/2-y,1/2-z
1/2-x,1/2+y,1/2-z
loop_
_atom_site_type_symbol
_atom_site_label
_atom_site_fract_x
_atom_site_fract_y
_atom_site_fract_z
Si Si1 0.155685 0.369970 0.555113
Si Si2 0.721625 0.081809 0.690764
Si Si3 0.083783 0.763998 0.248092
Si Si4 0.414106 0.518573 0.163998
Si Si5 0.177070 0.824798 0.677227
Si Si6 0.078518 0.375582 0.043314
Si Si7 0.320745 0.853496 0.404273
Si Si8 0.515949 0.316498 0.337234
O O1 0.142090 0.500000 0.500000
O O2 0.202085 0.372802 0.656250
O O3 0.108727 0.317636 0.631275
O O4 0.172587 0.289315 0.423657
O O5 0.775961 0.101415 0.653868
O O6 0.690789 0.153035 0.573762
O O7 0.715049 0.941063 0.677296
O O8 0.027349 0.781035 0.267878
O O9 0.103325 0.897302 0.261288
O O10 0.092219 0.708822 0.090687
O O11 0.367934 0.596310 0.153407
O O12 0.454353 0.578784 0.262987
O O13 0.433528 0.500000 0.000000
O O14 0.181005 0.778219 0.842113
O O15 0.127146 0.407198 0.123216
O O16 0.045198 0.304910 0.152472
O O17 0.053987 0.500000 0.000000
O O18 0.500000 0.356484 0.500000
#
# Coordination Sequence:
#
# PCOD8164257 Si02
#       8
#     8   8   8   8   8   8   8   8
#     4  12  24  47  70 103 148 187 230 295 367 424
#     4  11  24  42  70  99 141 184 236 280 354 421
#     4  11  25  43  70 103 137 189 231 292 359 420
#     4  12  26  46  70 102 150 188 232 299 364 426
#     4  12  26  44  71 106 139 188 241 290 351 431
#     4  11  21  44  73 104 141 183 235 293 359 413
#     4  11  21  42  69  98 134 186 229 292 343 412
#     4  10  25  46  75 105 140 188 245 293 356 432
#
# _framework density 21.553599999999999
#
# number of rings (size 3 to 8) (size 9 to 14) (size 15 to 20)
#    0.000    0.750    6.250    1.125    1.750    7.750 
#    0.000    0.000    0.000    0.000    0.000    0.000 
#    0.000    0.000    0.000    0.000    0.000    0.000 
#
# Total GULP energy -396709.228365 kJ/mol
# GULP energy per Si atom -12397.163386 kJ/mol
# Density = 2.150454 g / cm^3
# Si number density = 21.553600 Si / 1000 Ang^3
#
#
#
# Elastic Constant Matrix: (Units=GPa)
#
#
# Indices 1 2 3 4 5 6 
#
# 1 131.9238 45.5067 36.7144 0.0000 0.0000 0.0000
# 2 45.5067 134.3700 45.4016 0.0000 0.0000 0.0000
# 3 36.7144 45.4016 78.8926 0.0000 0.0000 0.0000
# 4 0.0000 0.0000 0.0000 41.2442 0.0000 0.0000
# 5 0.0000 0.0000 0.0000 0.0000 27.7668 0.0000
# 6 0.0000 0.0000 0.0000 0.0000 0.0000 11.8681
#
#
#
# Elastic Compliance Matrix: (Units=1/GPa)
#
#
# Indices 1 2 3 4 5 6 
#
# 1 0.009145 -0.002060 -0.003071 0.000000 0.000000 0.000000
# 2 -0.002060 0.009702 -0.004625 0.000000 0.000000 0.000000
# 3 -0.003071 -0.004625 0.016766 0.000000 0.000000 0.000000
# 4 0.000000 0.000000 0.000000 0.024246 0.000000 0.000000
# 5 0.000000 0.000000 0.000000 0.000000 0.036014 0.000000
# 6 0.000000 0.000000 0.000000 0.000000 0.000000 0.084260
#
#
# Mechanical properties :
#
#
# Convention : Reuss Voigt Hill
#
# Bulk Modulus (GPa) = 62.10033 66.71467 64.40750
# Shear Modulus (GPa) = 24.38883 30.68007 27.53445
#
# Velocity S-wave (km/s) = 3.36749 3.77693 3.57807
# Velocity P-wave (km/s) = 6.63284 7.07392 6.85693
#
# Compressibility (1/GPa) = 0.01610297
#
# Stress axis : x y z
#
# Youngs Moduli (GPa) = 109.34759 103.06696 59.64416
#
# Poissons Ratio (x) = 0.21228 0.18314
# Poissons Ratio (y) = 0.22522 0.27586
# Poissons Ratio (z) = 0.33576 0.47670
#
# Static dielectric constant tensor:
#      x y z
#    x 4.027840 0.000000 0.000000 
#    y 0.000000 3.976280 0.000000 
#    z 0.000000 0.000000 3.981480 
# 
# 
# High freq. dielectric constant tensor:
#      x y z
#    x 1.851640 0.000000 0.000000 
#    y 0.000000 1.854110 0.000000 
#    z 0.000000 0.000000 1.840780 
# 
# From -- ./inp_files/13514.got.cif
#   From: 2010.03.12/outbox.cif.g09.slc.cpg/sg23_7_cif.got.tgz:13514.got - 2010.04.14 02:50:06.
