data_PCOD8164362
_publ_section_title
;
Structure prediction by ZEFSAII (Michael W. Deem and Ramdas Pophale) SiO2 
 PCOD8164362
Probable space group: I 2 2 2
;
_chemical_formula_sum "Si O2"
_cell_formula_units_Z 56
_cell_length_a 21.995717
_cell_length_b 13.525362
_cell_length_c 9.905093
_cell_angle_alpha 90.000000
_cell_angle_beta 90.000000
_cell_angle_gamma 90.000000
_cell_volume 2946.765513
_symmetry_space_group_name_H-M "I 2 2 2"
_symmetry_group_IT_number 23
_symmetry_cell_setting 'orthorhombic'
loop_
_space_group_symop_operation_xyz
x,y,z
-x,-y,z
x,-y,-z
-x,y,-z
1/2+x,1/2+y,1/2+z
1/2-x,1/2-y,1/2+z
1/2+x,1/2-y,1/2-z
1/2-x,1/2+y,1/2-z
loop_
_atom_site_type_symbol
_atom_site_label
_atom_site_fract_x
_atom_site_fract_y
_atom_site_fract_z
Si Si1 0.880573 0.290655 0.260271
Si Si2 0.689111 0.880930 0.491818
Si Si3 0.496650 0.705604 0.343918
Si Si4 0.878258 0.317745 0.747715
Si Si5 0.826700 0.813780 0.487400
Si Si6 0.000000 0.000000 0.726949
Si Si7 0.934889 0.489522 0.345898
Si Si8 0.093108 0.000000 0.500000
O O1 0.841955 0.332741 0.137429
O O2 0.936699 0.223149 0.215649
O O3 0.838247 0.230454 0.363871
O O4 0.908056 0.381983 0.337375
O O5 0.661260 0.820904 0.617180
O O6 0.759170 0.854781 0.482262
O O7 0.678556 0.000000 0.500000
O O8 0.500000 0.734459 0.500000
O O9 0.444171 0.767979 0.269556
O O10 0.480989 0.590473 0.323083
O O11 0.839652 0.265316 0.630231
O O12 0.887182 0.431243 0.707575
O O13 0.868473 0.906570 0.454631
O O14 0.945351 0.966843 0.629782
O O15 0.949142 0.500000 0.500000
O O16 0.000000 0.500000 0.267483
#
# Coordination Sequence:
#
# PCOD8164362 Si02
#       8
#     8   8   8   8   8   4   8   4
#     4  12  24  41  68  96 129 171 211 265 329 388
#     4  12  26  44  67  91 130 177 220 268 315 381
#     4  12  24  40  65  95 135 166 206 269 336 384
#     4  12  24  41  68  96 129 171 211 265 329 388
#     4  12  25  45  66  93 130 173 223 265 316 381
#     4  11  23  40  64  98 127 169 212 268 326 376
#     4  11  22  36  63 103 132 160 205 262 327 394
#     4  11  22  38  70  98 118 163 234 264 304 383
#
# _framework density 19.003888
#
# number of rings (size 3 to 8) (size 9 to 14) (size 15 to 20)
#    0.000    0.286    9.286    1.071    0.000    0.571 
#    0.000    2.143    0.000    0.000    0.000    0.000 
#    0.000    0.000    0.000    0.000    0.000    0.000 
#
# Total GULP energy -347182.225508 kJ/mol
# GULP energy per Si atom -12399.365197 kJ/mol
# Density = 1.896063 g / cm^3
# Si number density = 19.003888 Si / 1000 Ang^3
#
#
#
# Elastic Constant Matrix: (Units=GPa)
#
#
# Indices 1 2 3 4 5 6 
#
# 1 97.3794 15.7656 29.7191 0.0000 0.0000 0.0000
# 2 15.7656 81.7709 19.1609 0.0000 0.0000 0.0000
# 3 29.7191 19.1609 104.5741 0.0000 0.0000 0.0000
# 4 0.0000 0.0000 0.0000 107.0224 0.0000 0.0000
# 5 0.0000 0.0000 0.0000 0.0000 144.9997 0.0000
# 6 0.0000 0.0000 0.0000 0.0000 0.0000 33.5919
#
#
#
# Elastic Compliance Matrix: (Units=1/GPa)
#
#
# Indices 1 2 3 4 5 6 
#
# 1 0.011419 -0.001506 -0.002969 0.000000 0.000000 0.000000
# 2 -0.001506 0.012976 -0.001950 0.000000 0.000000 0.000000
# 3 -0.002969 -0.001950 0.010764 0.000000 0.000000 0.000000
# 4 0.000000 0.000000 0.000000 0.009344 0.000000 0.000000
# 5 0.000000 0.000000 0.000000 0.000000 0.006897 0.000000
# 6 0.000000 0.000000 0.000000 0.000000 0.000000 0.029769
#
#
# Mechanical properties :
#
#
# Convention : Reuss Voigt Hill
#
# Bulk Modulus (GPa) = 44.82382 45.89063 45.35723
# Shear Modulus (GPa) = 49.28291 71.72805 60.50548
#
# Velocity S-wave (km/s) = 5.09798 6.15027 5.64868
# Velocity P-wave (km/s) = 7.63481 8.63915 8.15246
#
# Compressibility (1/GPa) = 0.02230956
#
# Stress axis : x y z
#
# Youngs Moduli (GPa) = 87.57253 77.06243 92.90492
#
# Poissons Ratio (x) = 0.11604 0.27586
# Poissons Ratio (y) = 0.13187 0.18114
# Poissons Ratio (z) = 0.26003 0.15025
#
# Static dielectric constant tensor:
#      x y z
#    x 3.092180 0.000000 0.000000 
#    y 0.000000 3.512560 0.000000 
#    z 0.000000 0.000000 3.395080 
# 
# 
# High freq. dielectric constant tensor:
#      x y z
#    x 1.742620 0.000000 0.000000 
#    y 0.000000 1.751870 0.000000 
#    z 0.000000 0.000000 1.745010 
# 
# From -- ./inp_files/12103.got.cif
#   From: 2010.03.12/outbox.cif.g09.slc.cpg/sg23_7_cif.got.tgz:12103.got - 2010.04.14 02:50:06.
