data_PCOD8164127
_publ_section_title
;
Structure prediction by ZEFSAII (Michael W. Deem and Ramdas Pophale) SiO2 
 PCOD8164127
Probable space group: I 2 2 2
;
_chemical_formula_sum "Si O2"
_cell_formula_units_Z 34
_cell_length_a 8.862666
_cell_length_b 8.932851
_cell_length_c 20.378286
_cell_angle_alpha 90.000000
_cell_angle_beta 90.000000
_cell_angle_gamma 90.000000
_cell_volume 1613.325974
_symmetry_space_group_name_H-M "I 2 2 2"
_symmetry_group_IT_number 23
_symmetry_cell_setting 'orthorhombic'
loop_
_space_group_symop_operation_xyz
x,y,z
-x,-y,z
x,-y,-z
-x,y,-z
1/2+x,1/2+y,1/2+z
1/2-x,1/2-y,1/2+z
1/2+x,1/2-y,1/2-z
1/2-x,1/2+y,1/2-z
loop_
_atom_site_type_symbol
_atom_site_label
_atom_site_fract_x
_atom_site_fract_y
_atom_site_fract_z
Si Si1 0.838105 0.434517 0.810104
Si Si2 0.214622 0.101084 0.557326
Si Si3 0.160262 0.566673 0.431766
Si Si4 0.500000 0.000000 0.500000
Si Si5 0.842036 0.080002 0.804444
O O1 0.715318 0.466458 0.868597
O O2 0.855355 0.257827 0.796551
O O3 0.780804 0.519395 0.746199
O O4 0.000000 0.500000 0.829918
O O5 0.131177 0.258059 0.557210
O O6 0.394540 0.113289 0.541799
O O7 0.136552 0.000000 0.500000
O O8 0.220230 0.500000 0.500000
O O9 0.285061 0.535222 0.376854
O O10 0.000000 0.500000 0.410170
O O11 0.000000 0.000000 0.791031
#
# Coordination Sequence:
#
# PCOD8164127 Si02
#       5
#     8   8   8   2   8
#     4  11  21  41  64  90 128 161 208 263 313 379
#     4   9  19  38  66  95 122 166 211 259 309 373
#     4  10  23  42  62  91 132 163 204 259 318 374
#     4   8  16  36  66  98 120 152 220 254 300 364
#     4  11  25  40  63  94 121 170 211 258 317 373
#
# _framework density 21.074477000000002
#
# number of rings (size 3 to 8) (size 9 to 14) (size 15 to 20)
#    0.706    1.176    1.176    2.118    0.000    9.882 
#    0.000    7.059    0.000    0.000    0.000    0.000 
#    0.000    0.000    0.000    0.000    0.000    0.000 
#
# Total GULP energy -210686.377170 kJ/mol
# GULP energy per Si atom -12393.316304 kJ/mol
# Density = 2.102651 g / cm^3
# Si number density = 21.074477 Si / 1000 Ang^3
#
#
#
# Elastic Constant Matrix: (Units=GPa)
#
#
# Indices 1 2 3 4 5 6 
#
# 1 69.5002 48.8364 11.0447 0.0000 0.0000 0.0000
# 2 48.8364 134.2995 59.6355 0.0000 0.0000 0.0000
# 3 11.0447 59.6355 129.3428 0.0000 0.0000 0.0000
# 4 0.0000 0.0000 0.0000 32.1780 0.0000 0.0000
# 5 0.0000 0.0000 0.0000 0.0000 -22.5514 0.0000
# 6 0.0000 0.0000 0.0000 0.0000 0.0000 36.8795
#
#
#
# Elastic Compliance Matrix: (Units=1/GPa)
#
#
# Indices 1 2 3 4 5 6 
#
# 1 0.019747 -0.008088 0.002043 0.000000 0.000000 0.000000
# 2 -0.008088 0.012676 -0.005154 0.000000 0.000000 0.000000
# 3 0.002043 -0.005154 0.009933 0.000000 0.000000 0.000000
# 4 0.000000 0.000000 0.000000 0.031077 0.000000 0.000000
# 5 0.000000 0.000000 0.000000 0.000000 -0.044343 0.000000
# 6 0.000000 0.000000 0.000000 0.000000 0.000000 0.027115
#
#
# Mechanical properties :
#
#
# Convention : Reuss Voigt Hill
#
# Bulk Modulus (GPa) = 50.10442 63.57507 56.83975
# Shear Modulus (GPa) = 58.64747 23.54295 41.09521
#
# Velocity S-wave (km/s) = 5.28101 3.34598 4.42067
# Velocity P-wave (km/s) = 7.81102 6.72010 7.28601
#
# Compressibility (1/GPa) = 0.01995832
#
# Stress axis : x y z
#
# Youngs Moduli (GPa) = 50.64057 78.89188 100.67330
#
# Poissons Ratio (x) = 0.63807 -0.20566
# Poissons Ratio (y) = 0.40957 0.51883
# Poissons Ratio (z) = -0.10345 0.40658
#
# Static dielectric constant tensor:
#      x y z
#    x 3.556020 0.000000 0.000000 
#    y 0.000000 3.747860 0.000000 
#    z 0.000000 0.000000 4.112800 
# 
# 
# High freq. dielectric constant tensor:
#      x y z
#    x 1.818380 0.000000 0.000000 
#    y 0.000000 1.820310 0.000000 
#    z 0.000000 0.000000 1.845840 
# 
# From -- ./inp_files/6698.got.cif
#   From: 2010.03.12/outbox.cif.g09.slc.cpg/sg23_4_cif.got.tgz:6698.got - 2010.04.14 02:50:06.
