data_PCOD8164431
_publ_section_title
;
Structure prediction by ZEFSAII (Michael W. Deem and Ramdas Pophale) SiO2 
 PCOD8164431
Probable space group: I 2 2 2
;
_chemical_formula_sum "Si O2"
_cell_formula_units_Z 40
_cell_length_a 22.025245
_cell_length_b 8.360920
_cell_length_c 9.027311
_cell_angle_alpha 90.000000
_cell_angle_beta 90.000000
_cell_angle_gamma 90.000000
_cell_volume 1662.391159
_symmetry_space_group_name_H-M "I 2 2 2"
_symmetry_group_IT_number 23
_symmetry_cell_setting 'orthorhombic'
loop_
_space_group_symop_operation_xyz
x,y,z
-x,-y,z
x,-y,-z
-x,y,-z
1/2+x,1/2+y,1/2+z
1/2-x,1/2-y,1/2+z
1/2+x,1/2-y,1/2-z
1/2-x,1/2+y,1/2-z
loop_
_atom_site_type_symbol
_atom_site_label
_atom_site_fract_x
_atom_site_fract_y
_atom_site_fract_z
Si Si1 0.498124 0.685532 0.322833
Si Si2 0.605392 0.904499 0.357508
Si Si3 0.107252 0.098978 0.359550
Si Si4 0.317787 0.390948 0.358221
Si Si5 0.816588 0.391080 0.641164
O O1 0.500000 0.500000 0.272483
O O2 0.500000 0.696782 0.500000
O O3 0.551159 0.807670 0.272279
O O4 0.437280 0.724180 0.230012
O O5 0.657099 0.780820 0.410115
O O6 0.578915 0.000000 0.500000
O O7 0.635636 0.032475 0.251666
O O8 0.161586 0.215388 0.411187
O O9 0.079674 0.000000 0.500000
O O10 0.133095 0.963004 0.252565
O O11 0.314388 0.500000 0.500000
O O12 0.250716 0.372373 0.286373
O O13 0.810342 0.500000 0.500000
#
# Coordination Sequence:
#
# PCOD8164431 Si02
#       5
#     8   8   8   8   8
#     4  11  24  46  75 101 139 190 243 298 365 441
#     4  12  25  44  75 108 140 187 251 310 357 427
#     4  12  26  46  74 105 143 193 244 294 366 440
#     4  11  23  45  72 102 147 197 241 293 369 444
#     4  11  26  44  66 106 151 189 239 306 363 427
#
# _framework density 24.061724999999999
#
# number of rings (size 3 to 8) (size 9 to 14) (size 15 to 20)
#    0.000    0.600    2.000    6.000    0.000    9.600 
#    0.000    1.000    0.000    0.000    0.000    0.000 
#    0.000    0.000    0.000    0.000    0.000    0.000 
#
# Total GULP energy -247818.683844 kJ/mol
# GULP energy per Si atom -12390.934192 kJ/mol
# Density = 2.400696 g / cm^3
# Si number density = 24.061725 Si / 1000 Ang^3
#
#
#
# Elastic Constant Matrix: (Units=GPa)
#
#
# Indices 1 2 3 4 5 6 
#
# 1 156.8020 57.1678 55.2770 0.0000 0.0000 0.0000
# 2 57.1678 127.9608 22.8269 0.0000 0.0000 0.0000
# 3 55.2770 22.8269 96.9842 0.0000 0.0000 0.0000
# 4 0.0000 0.0000 0.0000 35.3210 0.0000 0.0000
# 5 0.0000 0.0000 0.0000 0.0000 26.6361 0.0000
# 6 0.0000 0.0000 0.0000 0.0000 0.0000 -89.5591
#
#
#
# Elastic Compliance Matrix: (Units=1/GPa)
#
#
# Indices 1 2 3 4 5 6 
#
# 1 0.009142 -0.003293 -0.004435 0.000000 0.000000 0.000000
# 2 -0.003293 0.009344 -0.000322 0.000000 0.000000 0.000000
# 3 -0.004435 -0.000322 0.012915 0.000000 0.000000 0.000000
# 4 0.000000 0.000000 0.000000 0.028312 0.000000 0.000000
# 5 0.000000 0.000000 0.000000 0.000000 0.037543 0.000000
# 6 0.000000 0.000000 0.000000 0.000000 0.000000 -0.011166
#
#
# Mechanical properties :
#
#
# Convention : Reuss Voigt Hill
#
# Bulk Modulus (GPa) = 65.36452 72.47672 68.92062
# Shear Modulus (GPa) = 46.60289 10.91129 28.75709
#
# Velocity S-wave (km/s) = 4.40569 2.13180 3.46083
# Velocity P-wave (km/s) = 7.28728 6.02046 6.68395
#
# Compressibility (1/GPa) = 0.01529882
#
# Stress axis : x y z
#
# Youngs Moduli (GPa) = 109.39046 107.02593 77.43079
#
# Poissons Ratio (x) = 0.35242 0.34343
# Poissons Ratio (y) = 0.36021 0.02496
# Poissons Ratio (z) = 0.48518 0.03450
#
# Static dielectric constant tensor:
#      x y z
#    x 4.936480 0.000000 0.000000 
#    y 0.000000 4.550450 0.000000 
#    z 0.000000 0.000000 13.752240 
# 
# 
# High freq. dielectric constant tensor:
#      x y z
#    x 1.966250 0.000000 0.000000 
#    y 0.000000 1.977320 0.000000 
#    z 0.000000 0.000000 1.930940 
# 
# From -- ./inp_files/12425.got.cif
#   From: 2010.03.12/outbox.cif.g09.slc.cpg/sg23_7_cif.got.tgz:12425.got - 2010.04.14 02:50:06.
