data_PCOD8164494
_publ_section_title
;
Structure prediction by ZEFSAII (Michael W. Deem and Ramdas Pophale) SiO2 
 PCOD8164494
Probable space group: I 2 2 2
;
_chemical_formula_sum "Si O2"
_cell_formula_units_Z 28
_cell_length_a 7.533853
_cell_length_b 5.180702
_cell_length_c 28.233969
_cell_angle_alpha 90.000000
_cell_angle_beta 90.000000
_cell_angle_gamma 90.000000
_cell_volume 1101.990086
_symmetry_space_group_name_H-M "I 2 2 2"
_symmetry_group_IT_number 23
_symmetry_cell_setting 'orthorhombic'
loop_
_space_group_symop_operation_xyz
x,y,z
-x,-y,z
x,-y,-z
-x,y,-z
1/2+x,1/2+y,1/2+z
1/2-x,1/2-y,1/2+z
1/2+x,1/2-y,1/2-z
1/2-x,1/2+y,1/2-z
loop_
_atom_site_type_symbol
_atom_site_label
_atom_site_fract_x
_atom_site_fract_y
_atom_site_fract_z
Si Si1 0.697242 0.041166 0.608862
Si Si2 0.791968 0.535739 0.552926
Si Si3 0.500000 0.500000 0.273328
Si Si4 0.859631 0.303287 0.688604
O O1 0.697786 0.321839 0.584715
O O2 0.830601 0.054305 0.654328
O O3 0.500000 0.000000 0.628498
O O4 0.753091 0.822437 0.571975
O O5 0.715746 0.500000 0.500000
O O6 0.000000 0.500000 0.552923
O O7 0.665589 0.568598 0.306439
O O8 0.439270 0.734344 0.239664
O O9 0.000000 0.500000 0.664111
#
# Coordination Sequence:
#
# PCOD8164494 Si02
#       4
#     8   8   4   8
#     4  12  29  46  78 116 155 203 260 325 393 474
#     4  11  26  51  79 112 153 203 257 320 403 479
#     4  12  28  50  76 108 152 216 268 328 398 470
#     4  12  29  49  76 112 160 210 272 330 398 469
#
# _framework density 25.408576
#
# number of rings (size 3 to 8) (size 9 to 14) (size 15 to 20)
#    0.000    0.286    2.857    3.429   16.000    5.714 
#    0.000    0.000    0.000    0.000    0.000    0.000 
#    0.000    0.000    0.000    0.000    0.000    0.000 
#
# Total GULP energy -173666.312267 kJ/mol
# GULP energy per Si atom -12404.736590 kJ/mol
# Density = 2.535075 g / cm^3
# Si number density = 25.408576 Si / 1000 Ang^3
#
#
#
# Elastic Constant Matrix: (Units=GPa)
#
#
# Indices 1 2 3 4 5 6 
#
# 1 172.4119 48.1669 39.7892 0.0000 0.0000 0.0000
# 2 48.1669 138.9840 44.8716 0.0000 0.0000 0.0000
# 3 39.7892 44.8716 122.7285 0.0000 0.0000 0.0000
# 4 0.0000 0.0000 0.0000 71.4007 0.0000 0.0000
# 5 0.0000 0.0000 0.0000 0.0000 29.3310 0.0000
# 6 0.0000 0.0000 0.0000 0.0000 0.0000 45.8831
#
#
#
# Elastic Compliance Matrix: (Units=1/GPa)
#
#
# Indices 1 2 3 4 5 6 
#
# 1 0.006654 -0.001825 -0.001490 0.000000 0.000000 0.000000
# 2 -0.001825 0.008659 -0.002574 0.000000 0.000000 0.000000
# 3 -0.001490 -0.002574 0.009572 0.000000 0.000000 0.000000
# 4 0.000000 0.000000 0.000000 0.014005 0.000000 0.000000
# 5 0.000000 0.000000 0.000000 0.000000 0.034094 0.000000
# 6 0.000000 0.000000 0.000000 0.000000 0.000000 0.021795
#
#
# Mechanical properties :
#
#
# Convention : Reuss Voigt Hill
#
# Bulk Modulus (GPa) = 76.29705 77.75334 77.02520
# Shear Modulus (GPa) = 45.07553 49.40940 47.24247
#
# Velocity S-wave (km/s) = 4.21649 4.41454 4.31665
# Velocity P-wave (km/s) = 7.33473 7.52674 7.43136
#
# Compressibility (1/GPa) = 0.01310667
#
# Stress axis : x y z
#
# Youngs Moduli (GPa) = 150.29128 115.49245 104.46868
#
# Poissons Ratio (x) = 0.21076 0.15565
# Poissons Ratio (y) = 0.27427 0.26891
# Poissons Ratio (z) = 0.22393 0.29729
#
# Static dielectric constant tensor:
#      x y z
#    x 4.469940 0.000000 0.000000 
#    y 0.000000 5.013520 0.000000 
#    z 0.000000 0.000000 4.783660 
# 
# 
# High freq. dielectric constant tensor:
#      x y z
#    x 2.035930 0.000000 0.000000 
#    y 0.000000 2.018930 0.000000 
#    z 0.000000 0.000000 2.018260 
# 
# From -- ./inp_files/5701.got.cif
#   From: 2010.03.12/outbox.cif.g09.slc.cpg/sg23_3_cif.got.tgz:5701.got - 2010.04.14 02:50:06.
