data_PCOD8164726
_publ_section_title
;
Structure prediction by ZEFSAII (Michael W. Deem and Ramdas Pophale) SiO2 
 PCOD8164726
Probable space group: I 21 21 21
;
_chemical_formula_sum "Si O2"
_cell_formula_units_Z 60
_cell_length_a 11.905369
_cell_length_b 31.787588
_cell_length_c 8.424135
_cell_angle_alpha 90.000000
_cell_angle_beta 90.000000
_cell_angle_gamma 90.000000
_cell_volume 3188.054625
_symmetry_space_group_name_H-M "I 21 21 21"
_symmetry_group_IT_number 24
_symmetry_cell_setting 'orthorhombic'
loop_
_space_group_symop_operation_xyz
x,y,z
-x,1/2-y,z
x,-y,1/2-z
1/2-x,y,-z
1/2+x,1/2+y,1/2+z
1/2-x,-y,1/2+z
1/2+x,1/2-y,-z
-x,1/2+y,1/2-z
loop_
_atom_site_type_symbol
_atom_site_label
_atom_site_fract_x
_atom_site_fract_y
_atom_site_fract_z
Si Si1 0.398366 0.121697 0.179052
Si Si2 0.590525 0.281237 0.672366
Si Si3 0.766683 0.046317 0.188007
Si Si4 0.142434 0.133298 0.185401
Si Si5 0.958416 0.911455 0.124493
Si Si6 0.545093 0.830836 0.078484
Si Si7 0.250000 0.723456 0.000000
Si Si8 0.972184 0.046694 0.688314
O O1 0.271330 0.128269 0.236845
O O2 0.485662 0.155333 0.255996
O O3 0.433639 0.075119 0.230698
O O4 0.395896 0.123156 0.990986
O O5 0.500000 0.250000 0.751017
O O6 0.615009 0.317627 0.796890
O O7 0.545121 0.301814 0.510165
O O8 0.698660 0.253170 0.635189
O O9 0.866447 0.077358 0.241853
O O10 0.651740 0.062821 0.264825
O O11 0.796276 0.000000 0.250000
O O12 0.750000 0.046418 0.000000
O O13 0.075551 0.100957 0.295575
O O14 0.918351 0.871633 0.021978
O O15 0.979614 0.950567 0.003969
O O16 0.659423 0.804361 0.097787
O O17 0.993347 0.000000 0.750000
#
# Coordination Sequence:
#
# PCOD8164726 Si02
#       8
#     8   8   8   8   8   8   4   8
#     4  10  21  38  58  81 114 154 194 237 285 349
#     4   9  18  35  55  79 111 145 186 235 289 342
#     4  11  21  35  56  84 117 152 189 235 286 335
#     4  10  21  39  57  81 114 154 192 234 291 347
#     4  10  21  36  58  82 114 149 190 235 284 339
#     4   9  20  33  57  84 110 148 190 238 284 347
#     4  10  18  32  58  86 110 140 192 242 288 340
#     4  10  21  37  57  83 115 148 190 237 285 338
#
# _framework density 18.820253999999998
#
# number of rings (size 3 to 8) (size 9 to 14) (size 15 to 20)
#    0.000    2.133    0.000    3.600    3.733    4.267 
#    0.000    8.000    0.000    0.000    0.000    0.000 
#    0.000    0.000    0.000    0.000    0.000    0.000 
#
# Total GULP energy -371894.382571 kJ/mol
# GULP energy per Si atom -12396.479419 kJ/mol
# Density = 1.877742 g / cm^3
# Si number density = 18.820254 Si / 1000 Ang^3
#
#
#
# Elastic Constant Matrix: (Units=GPa)
#
#
# Indices 1 2 3 4 5 6 
#
# 1 117.4242 58.0210 57.3138 0.0043 -0.0021 0.0005
# 2 58.0210 100.9857 47.8014 0.0106 -0.0010 -0.0032
# 3 57.3138 47.8014 107.6398 0.0030 0.0015 0.0013
# 4 0.0043 0.0106 0.0030 28.4868 -0.0002 -0.0112
# 5 -0.0021 -0.0010 0.0015 -0.0002 28.6598 -0.0007
# 6 0.0005 -0.0032 0.0013 -0.0112 -0.0007 32.9461
#
#
#
# Elastic Compliance Matrix: (Units=1/GPa)
#
#
# Indices 1 2 3 4 5 6 
#
# 1 0.013586 -0.005548 -0.004770 0.000001 0.000001 -0.000001
# 2 -0.005548 0.014803 -0.003620 -0.000004 0.000000 0.000002
# 3 -0.004770 -0.003620 0.013438 0.000001 -0.000001 -0.000001
# 4 0.000001 -0.000004 0.000001 0.035104 0.000000 0.000012
# 5 0.000001 0.000000 -0.000001 0.000000 0.034892 0.000001
# 6 -0.000001 0.000002 -0.000001 0.000012 0.000001 0.030353
#
#
# Mechanical properties :
#
#
# Convention : Reuss Voigt Hill
#
# Bulk Modulus (GPa) = 71.67944 72.48023 72.07983
# Shear Modulus (GPa) = 28.62029 28.87944 28.74986
#
# Velocity S-wave (km/s) = 3.90387 3.92150 3.91270
# Velocity P-wave (km/s) = 7.64783 7.68763 7.66775
#
# Compressibility (1/GPa) = 0.01395100
#
# Stress axis : x y z
#
# Youngs Moduli (GPa) = 73.60776 67.55251 74.41705
#
# Poissons Ratio (x) = 0.37475 0.35498
# Poissons Ratio (y) = 0.40834 0.26940
# Poissons Ratio (z) = 0.35112 0.24455
#
# Static dielectric constant tensor:
#      x y z
#    x 3.564920 0.000010 0.000000 
#    y 0.000010 3.585560 -0.000010 
#    z 0.000000 -0.000010 3.362230 
# 
# 
# High freq. dielectric constant tensor:
#      x y z
#    x 1.738540 0.000000 0.000000 
#    y 0.000000 1.737570 0.000000 
#    z 0.000000 0.000000 1.719040 
# 
# From -- ./inp_files/11608.got.cif
#   From: 2010.03.12/outbox.cif.g09.slc.cpg/sg24_6_cif.got.tgz:11608.got - 2010.04.14 03:06:53.
