data_PCOD8164415
_publ_section_title
;
Structure prediction by ZEFSAII (Michael W. Deem and Ramdas Pophale) SiO2 
 PCOD8164415
Probable space group: I 2 2 2
;
_chemical_formula_sum "Si O2"
_cell_formula_units_Z 40
_cell_length_a 10.189378
_cell_length_b 22.669408
_cell_length_c 8.264048
_cell_angle_alpha 90.000000
_cell_angle_beta 90.000000
_cell_angle_gamma 90.000000
_cell_volume 1908.889037
_symmetry_space_group_name_H-M "I 2 2 2"
_symmetry_group_IT_number 23
_symmetry_cell_setting 'orthorhombic'
loop_
_space_group_symop_operation_xyz
x,y,z
-x,-y,z
x,-y,-z
-x,y,-z
1/2+x,1/2+y,1/2+z
1/2-x,1/2-y,1/2+z
1/2+x,1/2-y,1/2-z
1/2-x,1/2+y,1/2-z
loop_
_atom_site_type_symbol
_atom_site_label
_atom_site_fract_x
_atom_site_fract_y
_atom_site_fract_z
Si Si1 0.231138 0.375808 0.187133
Si Si2 0.999996 0.700361 0.316589
Si Si3 0.348012 0.000000 0.808726
Si Si4 0.500003 0.326607 0.313099
Si Si5 0.268869 0.124191 0.312867
O O1 0.128170 0.339085 0.291942
O O2 0.224293 0.443988 0.234016
O O3 0.375218 0.352657 0.222847
O O4 0.196538 0.367140 0.000001
O O5 0.000000 0.723819 0.500000
O O6 0.000003 0.755819 0.197175
O O7 0.128148 0.660908 0.291938
O O8 0.275705 0.943990 0.734011
O O9 0.500000 0.000000 0.757229
O O10 0.331458 0.000000 0.000000
O O11 0.500000 0.345512 0.500000
O O12 0.624797 0.352651 0.222859
#
# Coordination Sequence:
#
# PCOD8164415 Si02
#       5
#     8   8   8   8   8
#     4  12  25  43  68  99 132 171 218 269 324 383
#     4  12  24  43  68  97 132 174 220 266 320 386
#     4  11  23  42  69  98 130 169 217 267 320 384
#     4  12  26  45  66  95 134 174 216 268 328 386
#     4  12  25  43  68  99 132 171 218 269 324 383
#
# _framework density 20.954595000000001
#
# number of rings (size 3 to 8) (size 9 to 14) (size 15 to 20)
#    0.000    0.200    2.000    9.000    0.000    1.600 
#    0.000    4.000    0.000    0.000    0.000    0.000 
#    0.000    0.000    0.000    0.000    0.000    0.000 
#
# Total GULP energy -248213.153803 kJ/mol
# GULP energy per Si atom -12410.657690 kJ/mol
# Density = 2.090690 g / cm^3
# Si number density = 20.954595 Si / 1000 Ang^3
#
#
#
# Elastic Constant Matrix: (Units=GPa)
#
#
# Indices 1 2 3 4 5 6 
#
# 1 145.3955 53.0251 14.1877 -0.0001 0.0000 0.0003
# 2 53.0251 144.6034 10.6143 0.0005 -0.0001 -0.0008
# 3 14.1877 10.6143 107.4412 0.0018 -0.0010 -0.0025
# 4 -0.0001 0.0005 0.0018 33.2241 -0.0002 -0.0010
# 5 0.0000 -0.0001 -0.0010 -0.0002 35.0098 -0.0002
# 6 0.0003 -0.0008 -0.0025 -0.0010 -0.0002 -57.7548
#
#
#
# Elastic Compliance Matrix: (Units=1/GPa)
#
#
# Indices 1 2 3 4 5 6 
#
# 1 0.008003 -0.002878 -0.000772 0.000000 0.000000 0.000000
# 2 -0.002878 0.008001 -0.000410 0.000000 0.000000 0.000000
# 3 -0.000772 -0.000410 0.009450 -0.000001 0.000000 0.000000
# 4 0.000000 0.000000 -0.000001 0.030099 0.000000 -0.000001
# 5 0.000000 0.000000 0.000000 0.000000 0.028563 0.000000
# 6 0.000000 0.000000 0.000000 -0.000001 0.000000 -0.017315
#
#
# Mechanical properties :
#
#
# Convention : Reuss Voigt Hill
#
# Bulk Modulus (GPa) = 57.69622 61.45492 59.57557
# Shear Modulus (GPa) = 61.95798 23.40334 42.68066
#
# Velocity S-wave (km/s) = 5.44352 3.34557 4.51801
# Velocity P-wave (km/s) = 8.19164 6.65696 7.46385
#
# Compressibility (1/GPa) = 0.01733216
#
# Stress axis : x y z
#
# Youngs Moduli (GPa) = 124.95779 124.98634 105.82049
#
# Poissons Ratio (x) = 0.35969 0.08174
# Poissons Ratio (y) = 0.35961 0.04343
# Poissons Ratio (z) = 0.09652 0.05129
#
# Static dielectric constant tensor:
#      x y z
#    x 3.785990 0.000000 0.000000 
#    y 0.000000 3.836980 0.000000 
#    z 0.000000 0.000000 3.856910 
# 
# 
# High freq. dielectric constant tensor:
#      x y z
#    x 1.828260 0.000000 0.000000 
#    y 0.000000 1.834840 0.000000 
#    z 0.000000 0.000000 1.839290 
# 
# From -- ./inp_files/6888.got.cif
#   From: 2010.03.12/outbox.cif.g09.slc.cpg/sg23_4_cif.got.tgz:6888.got - 2010.04.14 02:50:06.
