data_PCOD8164694
_publ_section_title
;
Structure prediction by ZEFSAII (Michael W. Deem and Ramdas Pophale) SiO2 
 PCOD8164694
Probable space group: I 21 21 21
;
_chemical_formula_sum "Si O2"
_cell_formula_units_Z 44
_cell_length_a 11.160144
_cell_length_b 23.587898
_cell_length_c 8.382133
_cell_angle_alpha 90.000000
_cell_angle_beta 90.000000
_cell_angle_gamma 90.000000
_cell_volume 2206.549055
_symmetry_space_group_name_H-M "I 21 21 21"
_symmetry_group_IT_number 24
_symmetry_cell_setting 'orthorhombic'
loop_
_space_group_symop_operation_xyz
x,y,z
-x,1/2-y,z
x,-y,1/2-z
1/2-x,y,-z
1/2+x,1/2+y,1/2+z
1/2-x,-y,1/2+z
1/2+x,1/2-y,-z
-x,1/2+y,1/2-z
loop_
_atom_site_type_symbol
_atom_site_label
_atom_site_fract_x
_atom_site_fract_y
_atom_site_fract_z
Si Si1 0.367342 0.669843 0.904978
Si Si2 0.714478 0.385553 0.821800
Si Si3 0.748987 0.741197 0.316899
Si Si4 0.011140 0.441184 0.319448
Si Si5 0.500000 0.750000 0.133389
Si Si6 0.141846 0.958054 0.890543
O O1 0.335472 0.717064 0.775963
O O2 0.401468 0.612513 0.811335
O O3 0.250000 0.652815 0.000000
O O4 0.470165 0.695252 0.022183
O O5 0.685349 0.319460 0.802652
O O6 0.603116 0.426380 0.787766
O O7 0.818387 0.399287 0.693362
O O8 0.750000 0.400604 0.000000
O O9 0.750000 0.761127 0.500000
O O10 0.614629 0.737383 0.245373
O O11 0.067656 0.500000 0.250000
O O12 0.976238 0.448411 0.504833
O O13 0.107382 0.000000 0.750000
O O14 0.250000 0.982394 0.000000
#
# Coordination Sequence:
#
# PCOD8164694 Si02
#       6
#     8   8   8   8   4   8
#     4  10  22  41  60  81 112 150 194 236 279 342
#     4  10  19  32  54  87 119 145 176 224 283 341
#     4  10  22  37  60  91 119 147 187 237 286 339
#     4  11  22  36  56  79 109 152 191 231 281 327
#     4  10  20  38  62  88 116 154 186 224 292 352
#     4  10  18  31  51  80 115 146 181 228 277 334
#
# _framework density 19.940639999999998
#
# number of rings (size 3 to 8) (size 9 to 14) (size 15 to 20)
#    0.000    1.818    0.000    6.000    0.000    8.727 
#    0.000    5.455    0.000    0.000    0.000    0.000 
#    0.000    0.000    0.000    0.000    0.000    0.000 
#
# Total GULP energy -272738.119387 kJ/mol
# GULP energy per Si atom -12397.187245 kJ/mol
# Density = 1.989525 g / cm^3
# Si number density = 19.940640 Si / 1000 Ang^3
#
#
#
# Elastic Constant Matrix: (Units=GPa)
#
#
# Indices 1 2 3 4 5 6 
#
# 1 62.9453 40.5518 42.9186 0.0001 0.0000 0.0006
# 2 40.5518 120.3926 57.9661 0.0035 -0.0008 -0.0048
# 3 42.9186 57.9661 136.9085 -0.0030 0.0000 -0.0086
# 4 0.0001 0.0035 -0.0030 -3.5598 0.0000 -0.0029
# 5 0.0000 -0.0008 0.0000 0.0000 16.6100 -0.0012
# 6 0.0006 -0.0048 -0.0086 -0.0029 -0.0012 6.8713
#
#
#
# Elastic Compliance Matrix: (Units=1/GPa)
#
#
# Indices 1 2 3 4 5 6 
#
# 1 0.022591 -0.005275 -0.004849 0.000000 0.000000 -0.000012
# 2 -0.005275 0.011665 -0.003285 0.000014 0.000001 0.000005
# 3 -0.004849 -0.003285 0.010215 -0.000012 0.000000 0.000011
# 4 0.000000 0.000014 -0.000012 -0.280912 0.000001 -0.000119
# 5 0.000000 0.000001 0.000000 0.000001 0.060205 0.000011
# 6 -0.000012 0.000005 0.000011 -0.000119 0.000011 0.145532
#
#
# Mechanical properties :
#
#
# Convention : Reuss Voigt Hill
#
# Bulk Modulus (GPa) = 56.64601 67.01327 61.82964
# Shear Modulus (GPa) = 2503.21165 15.90496 1259.55831
#
# Velocity S-wave (km/s) = 35.46910 2.82727 25.15999
# Velocity P-wave (km/s) = 41.30228 6.65863 29.58222
#
# Compressibility (1/GPa) = 0.01765350
#
# Stress axis : x y z
#
# Youngs Moduli (GPa) = 44.26537 85.72954 97.89530
#
# Poissons Ratio (x) = 0.45221 0.47465
# Poissons Ratio (y) = 0.23349 0.32160
# Poissons Ratio (z) = 0.21462 0.28163
#
# Static dielectric constant tensor:
#      x y z
#    x 3.408310 0.000000 0.000000 
#    y 0.000000 3.641260 0.000000 
#    z 0.000000 0.000000 3.899280 
# 
# 
# High freq. dielectric constant tensor:
#      x y z
#    x 1.741270 0.000000 0.000000 
#    y 0.000000 1.787080 0.000000 
#    z 0.000000 0.000000 1.793050 
# 
# From -- ./inp_files/11205.got.cif
#   From: 2010.03.12/outbox.cif.g09.slc.cpg/sg24_6_cif.got.tgz:11205.got - 2010.04.14 03:06:53.
