data_PCOD8164377
_publ_section_title
;
Structure prediction by ZEFSAII (Michael W. Deem and Ramdas Pophale) SiO2 
 PCOD8164377
Probable space group: I 2 2 2
;
_chemical_formula_sum "Si O2"
_cell_formula_units_Z 64
_cell_length_a 9.244131
_cell_length_b 16.089938
_cell_length_c 19.812172
_cell_angle_alpha 90.000000
_cell_angle_beta 90.000000
_cell_angle_gamma 90.000000
_cell_volume 2946.812827
_symmetry_space_group_name_H-M "I 2 2 2"
_symmetry_group_IT_number 23
_symmetry_cell_setting 'orthorhombic'
loop_
_space_group_symop_operation_xyz
x,y,z
-x,-y,z
x,-y,-z
-x,y,-z
1/2+x,1/2+y,1/2+z
1/2-x,1/2-y,1/2+z
1/2+x,1/2-y,1/2-z
1/2-x,1/2+y,1/2-z
loop_
_atom_site_type_symbol
_atom_site_label
_atom_site_fract_x
_atom_site_fract_y
_atom_site_fract_z
Si Si1 0.074973 0.264418 0.068481
Si Si2 0.255065 0.092062 0.779837
Si Si3 0.336195 0.916988 0.782670
Si Si4 0.654255 0.475878 0.857471
Si Si5 0.464701 0.655171 0.304210
Si Si6 0.018787 0.276891 0.314184
Si Si7 0.915424 0.580707 0.865429
Si Si8 0.902091 0.821536 0.564283
O O1 0.073320 0.191401 0.123045
O O2 0.243543 0.282326 0.055558
O O3 0.977432 0.342189 0.093055
O O4 0.000000 0.232095 0.000000
O O5 0.245376 0.077894 0.698235
O O6 0.325701 0.179651 0.802068
O O7 0.096498 0.091001 0.812759
O O8 0.344651 0.012489 0.808781
O O9 0.168876 0.893714 0.770344
O O10 0.405260 0.850430 0.832961
O O11 0.432237 0.903926 0.714773
O O12 0.500000 0.500000 0.825425
O O13 0.745059 0.558488 0.878779
O O14 0.625396 0.419003 0.922571
O O15 0.520495 0.726866 0.253517
O O16 0.003808 0.215013 0.376419
O O17 0.000000 0.500000 0.890498
O O18 0.000000 0.807275 0.500000
#
# Coordination Sequence:
#
# PCOD8164377 Si02
#       8
#     8   8   8   8   8   8   8   8
#     4  12  28  46  67  97 137 187 236 278 339 411
#     4  11  23  38  68 104 135 170 217 279 351 399
#     4  11  22  39  68 102 137 168 217 284 343 400
#     4  11  23  42  66 103 144 180 224 274 337 418
#     4  12  23  41  69 102 133 174 229 284 337 397
#     4  12  23  41  70  98 133 173 227 282 341 400
#     4  11  22  41  69  98 140 178 221 273 338 419
#     4  12  28  47  66  97 138 186 234 283 341 407
#
# _framework density 21.718378999999999
#
# number of rings (size 3 to 8) (size 9 to 14) (size 15 to 20)
#    0.000    0.500    5.000    5.250    3.500    0.500 
#    0.000    0.000    0.000    4.500    0.000    0.000 
#    0.000    0.000    0.000    0.000    0.000    0.000 
#
# Total GULP energy -396660.248900 kJ/mol
# GULP energy per Si atom -12395.632778 kJ/mol
# Density = 2.166895 g / cm^3
# Si number density = 21.718379 Si / 1000 Ang^3
#
#
#
# Elastic Constant Matrix: (Units=GPa)
#
#
# Indices 1 2 3 4 5 6 
#
# 1 113.6080 2.1728 27.1704 0.0000 0.0000 0.0000
# 2 2.1728 46.2373 20.0007 0.0000 0.0000 0.0000
# 3 27.1704 20.0007 95.1369 0.0000 0.0000 0.0000
# 4 0.0000 0.0000 0.0000 13.3077 0.0000 0.0000
# 5 0.0000 0.0000 0.0000 0.0000 34.6609 0.0000
# 6 0.0000 0.0000 0.0000 0.0000 0.0000 45.2571
#
#
#
# Elastic Compliance Matrix: (Units=1/GPa)
#
#
# Indices 1 2 3 4 5 6 
#
# 1 0.009474 0.000798 -0.002873 0.000000 0.000000 0.000000
# 2 0.000798 0.023858 -0.005244 0.000000 0.000000 0.000000
# 3 -0.002873 -0.005244 0.012434 0.000000 0.000000 0.000000
# 4 0.000000 0.000000 0.000000 0.075144 0.000000 0.000000
# 5 0.000000 0.000000 0.000000 0.000000 0.028851 0.000000
# 6 0.000000 0.000000 0.000000 0.000000 0.000000 0.022096
#
#
# Mechanical properties :
#
#
# Convention : Reuss Voigt Hill
#
# Bulk Modulus (GPa) = 32.12538 39.29666 35.71102
# Shear Modulus (GPa) = 25.39714 32.35436 28.87575
#
# Velocity S-wave (km/s) = 3.42334 3.86388 3.65026
# Velocity P-wave (km/s) = 5.51811 6.16758 5.85187
#
# Compressibility (1/GPa) = 0.03112804
#
# Stress axis : x y z
#
# Youngs Moduli (GPa) = 105.55030 41.91417 80.42354
#
# Poissons Ratio (x) = -0.03344 0.23109
# Poissons Ratio (y) = -0.08420 0.42171
# Poissons Ratio (z) = 0.30329 0.21978
#
# Static dielectric constant tensor:
#      x y z
#    x 4.281740 0.000000 0.000000 
#    y 0.000000 4.078010 0.000000 
#    z 0.000000 0.000000 3.546920 
# 
# 
# High freq. dielectric constant tensor:
#      x y z
#    x 1.885680 0.000000 0.000000 
#    y 0.000000 1.855170 0.000000 
#    z 0.000000 0.000000 1.802940 
# 
# From -- ./inp_files/26349.got.cif
#   From: 2010.03.12/outbox.cif.g09.slc.cpg/sg23_14_cif.got.tgz:26349.got - 2010.04.14 02:50:06.
