data_PCOD8164884
_publ_section_title
;
Structure prediction by ZEFSAII (Michael W. Deem and Ramdas Pophale) SiO2 
 PCOD8164884
Probable space group: I 21 21 21
;
_chemical_formula_sum "Si O2"
_cell_formula_units_Z 48
_cell_length_a 11.780955
_cell_length_b 20.589493
_cell_length_c 9.547349
_cell_angle_alpha 90.000000
_cell_angle_beta 90.000000
_cell_angle_gamma 90.000000
_cell_volume 2315.842117
_symmetry_space_group_name_H-M "I 21 21 21"
_symmetry_group_IT_number 24
_symmetry_cell_setting 'orthorhombic'
loop_
_space_group_symop_operation_xyz
x,y,z
-x,1/2-y,z
x,-y,1/2-z
1/2-x,y,-z
1/2+x,1/2+y,1/2+z
1/2-x,-y,1/2+z
1/2+x,1/2-y,-z
-x,1/2+y,1/2-z
loop_
_atom_site_type_symbol
_atom_site_label
_atom_site_fract_x
_atom_site_fract_y
_atom_site_fract_z
Si Si1 0.713230 0.407577 0.645941
Si Si2 0.250000 0.209877 0.000000
Si Si3 0.304017 0.668852 0.639001
Si Si4 0.393028 0.000000 0.250000
Si Si5 0.971808 0.501974 0.048955
Si Si6 0.694963 0.942166 0.849771
Si Si7 0.055155 0.141342 0.128282
O O1 0.750000 0.372187 0.500000
O O2 0.818152 0.433553 0.740050
O O3 0.650671 0.473925 0.598275
O O4 0.634155 0.357764 0.732170
O O5 0.249570 0.258042 0.862088
O O6 0.363741 0.165971 0.998406
O O7 0.250000 0.633071 0.500000
O O8 0.275925 0.626741 0.776491
O O9 0.440080 0.683072 0.634090
O O10 0.477730 0.998044 0.381404
O O11 0.993504 0.430532 0.106364
O O12 0.061268 0.550975 0.119242
O O13 0.739075 0.000000 0.750000
O O14 0.750000 0.945956 0.000000
#
# Coordination Sequence:
#
# PCOD8164884 Si02
#       7
#     8   4   8   4   8   8   8
#     4  10  19  33  56  98 141 165 206 271 353 416
#     4  10  26  40  70  94 120 184 228 282 322 408
#     4  10  24  44  63  94 129 176 234 276 330 408
#     4  10  20  30  50  96 140 160 206 264 342 424
#     4  11  21  34  61  96 135 171 208 274 344 407
#     4  12  24  41  65  98 135 177 220 277 348 408
#     4  12  19  40  66  90 129 171 225 275 333 396
#
# _framework density 20.726800000000001
#
# number of rings (size 3 to 8) (size 9 to 14) (size 15 to 20)
#    0.500    0.667    5.000    2.000    2.333    0.000 
#    0.000    0.833    0.000    0.000    0.000    0.000 
#    0.000    0.000    0.000    0.000    0.000    0.000 
#
# Total GULP energy -297346.173166 kJ/mol
# GULP energy per Si atom -12389.423882 kJ/mol
# Density = 2.067963 g / cm^3
# Si number density = 20.726800 Si / 1000 Ang^3
#
#
#
# Elastic Constant Matrix: (Units=GPa)
#
#
# Indices 1 2 3 4 5 6 
#
# 1 76.1367 26.0775 44.3772 0.0002 -0.0002 0.0000
# 2 26.0775 44.4888 29.0732 0.0003 0.0000 0.0000
# 3 44.3772 29.0732 138.8348 0.0016 0.0004 0.0002
# 4 0.0002 0.0003 0.0016 38.4146 0.0000 0.0000
# 5 -0.0002 0.0000 0.0004 0.0000 34.7570 -0.0001
# 6 0.0000 0.0000 0.0002 0.0000 -0.0001 30.4002
#
#
#
# Elastic Compliance Matrix: (Units=1/GPa)
#
#
# Indices 1 2 3 4 5 6 
#
# 1 0.018310 -0.008003 -0.004177 0.000000 0.000000 0.000000
# 2 -0.008003 0.029539 -0.003628 0.000000 0.000000 0.000000
# 3 -0.004177 -0.003628 0.009297 0.000000 0.000000 0.000000
# 4 0.000000 0.000000 0.000000 0.026032 0.000000 0.000000
# 5 0.000000 0.000000 0.000000 0.000000 0.028771 0.000000
# 6 0.000000 0.000000 0.000000 0.000000 0.000000 0.032894
#
#
# Mechanical properties :
#
#
# Convention : Reuss Voigt Hill
#
# Bulk Modulus (GPa) = 39.16677 50.94623 45.05650
# Shear Modulus (GPa) = 27.03150 31.37652 29.20401
#
# Velocity S-wave (km/s) = 3.61526 3.89500 3.75773
# Velocity P-wave (km/s) = 6.03030 6.69785 6.37282
#
# Compressibility (1/GPa) = 0.02553185
#
# Stress axis : x y z
#
# Youngs Moduli (GPa) = 54.61557 33.85323 107.55580
#
# Poissons Ratio (x) = 0.27093 0.44922
# Poissons Ratio (y) = 0.43709 0.39018
# Poissons Ratio (z) = 0.22811 0.12281
#
# Static dielectric constant tensor:
#      x y z
#    x 3.828390 0.000000 0.000000 
#    y 0.000000 3.435700 0.000000 
#    z 0.000000 0.000000 3.946400 
# 
# 
# High freq. dielectric constant tensor:
#      x y z
#    x 1.809620 0.000000 0.000000 
#    y 0.000000 1.780220 0.000000 
#    z 0.000000 0.000000 1.808640 
# 
# From -- ./inp_files/11316.got.cif
#   From: 2010.03.12/outbox.cif.g09.slc.cpg/sg24_6_cif.got.tgz:11316.got - 2010.04.14 03:06:53.
