data_PCOD8164047
_publ_section_title
;
Structure prediction by ZEFSAII (Michael W. Deem and Ramdas Pophale) SiO2 
 PCOD8164047
Probable space group: I 2 2 2
;
_chemical_formula_sum "Si O2"
_cell_formula_units_Z 34
_cell_length_a 18.506965
_cell_length_b 8.461249
_cell_length_c 10.040452
_cell_angle_alpha 90.000000
_cell_angle_beta 90.000000
_cell_angle_gamma 90.000000
_cell_volume 1572.254852
_symmetry_space_group_name_H-M "I 2 2 2"
_symmetry_group_IT_number 23
_symmetry_cell_setting 'orthorhombic'
loop_
_space_group_symop_operation_xyz
x,y,z
-x,-y,z
x,-y,-z
-x,y,-z
1/2+x,1/2+y,1/2+z
1/2-x,1/2-y,1/2+z
1/2+x,1/2-y,1/2-z
1/2-x,1/2+y,1/2-z
loop_
_atom_site_type_symbol
_atom_site_label
_atom_site_fract_x
_atom_site_fract_y
_atom_site_fract_z
Si Si1 0.000000 0.000000 0.000000
Si Si2 0.839256 0.698150 0.226245
Si Si3 0.314376 0.163805 0.210912
Si Si4 0.868363 0.165596 0.036669
Si Si5 0.416256 0.685946 0.012599
O O1 0.052151 0.889665 0.091326
O O2 0.767586 0.792569 0.179555
O O3 0.822893 0.521620 0.270021
O O4 0.884722 0.777634 0.342771
O O5 0.883759 0.717446 0.089141
O O6 0.325928 0.244317 0.352019
O O7 0.369105 0.224069 0.098279
O O8 0.826561 0.000000 0.000000
O O9 0.408170 0.500000 0.000000
O O10 0.500000 0.740177 0.000000
#
# Coordination Sequence:
#
# PCOD8164047 Si02
#       5
#     2   8   8   8   8
#     4   8  24  40  70  90 132 172 216 254 336 372
#     4  12  25  43  67  98 133 173 219 271 327 388
#     4  12  25  43  67  98 133 173 219 271 327 388
#     4  10  22  42  67  93 127 170 218 257 319 388
#     4  11  26  45  69  97 135 175 217 270 334 392
#
# _framework density 21.624991000000001
#
# number of rings (size 3 to 8) (size 9 to 14) (size 15 to 20)
#    0.706    0.235    0.000    7.059    3.294    1.882 
#    0.000    1.176    0.000    0.000    0.000    0.000 
#    0.000    0.000    0.000    0.000    0.000    0.000 
#
# Total GULP energy -210627.710662 kJ/mol
# GULP energy per Si atom -12389.865333 kJ/mol
# Density = 2.157577 g / cm^3
# Si number density = 21.624991 Si / 1000 Ang^3
#
#
#
# Elastic Constant Matrix: (Units=GPa)
#
#
# Indices 1 2 3 4 5 6 
#
# 1 124.0350 34.1994 30.2587 0.0000 0.0000 0.0000
# 2 34.1994 96.4801 14.0525 0.0000 0.0000 0.0000
# 3 30.2587 14.0525 121.6753 0.0000 0.0000 0.0000
# 4 0.0000 0.0000 0.0000 40.1618 0.0000 0.0000
# 5 0.0000 0.0000 0.0000 0.0000 35.9059 0.0000
# 6 0.0000 0.0000 0.0000 0.0000 0.0000 34.7869
#
#
#
# Elastic Compliance Matrix: (Units=1/GPa)
#
#
# Indices 1 2 3 4 5 6 
#
# 1 0.009383 -0.003037 -0.001983 0.000000 0.000000 0.000000
# 2 -0.003037 0.011525 -0.000576 0.000000 0.000000 0.000000
# 3 -0.001983 -0.000576 0.008778 0.000000 0.000000 0.000000
# 4 0.000000 0.000000 0.000000 0.024899 0.000000 0.000000
# 5 0.000000 0.000000 0.000000 0.000000 0.027851 0.000000
# 6 0.000000 0.000000 0.000000 0.000000 0.000000 0.028746
#
#
# Mechanical properties :
#
#
# Convention : Reuss Voigt Hill
#
# Bulk Modulus (GPa) = 54.06788 55.46799 54.76793
# Shear Modulus (GPa) = 38.89842 39.74957 39.32399
#
# Velocity S-wave (km/s) = 4.24579 4.29199 4.26896
# Velocity P-wave (km/s) = 7.00660 7.08994 7.04839
#
# Compressibility (1/GPa) = 0.01849527
#
# Stress axis : x y z
#
# Youngs Moduli (GPa) = 106.57115 86.76532 113.91915
#
# Poissons Ratio (x) = 0.26354 0.22587
# Poissons Ratio (y) = 0.32370 0.06559
# Poissons Ratio (z) = 0.21130 0.04995
#
# Static dielectric constant tensor:
#      x y z
#    x 4.112290 0.000000 0.000000 
#    y 0.000000 4.174180 0.000000 
#    z 0.000000 0.000000 3.587840 
# 
# 
# High freq. dielectric constant tensor:
#      x y z
#    x 1.854300 0.000000 0.000000 
#    y 0.000000 1.860400 0.000000 
#    z 0.000000 0.000000 1.855860 
# 
# From -- ./inp_files/11673.got.cif
#   From: 2010.03.12/outbox.cif.g09.slc.cpg/sg23_6_cif.got.tgz:11673.got - 2010.04.14 02:50:06.
