data_PCOD8164489
_publ_section_title
;
Structure prediction by ZEFSAII (Michael W. Deem and Ramdas Pophale) SiO2 
 PCOD8164489
Probable space group: I 2 2 2
;
_chemical_formula_sum "Si O2"
_cell_formula_units_Z 40
_cell_length_a 26.064030
_cell_length_b 12.389953
_cell_length_c 5.161437
_cell_angle_alpha 90.000000
_cell_angle_beta 90.000000
_cell_angle_gamma 90.000000
_cell_volume 1666.793724
_symmetry_space_group_name_H-M "I 2 2 2"
_symmetry_group_IT_number 23
_symmetry_cell_setting 'orthorhombic'
loop_
_space_group_symop_operation_xyz
x,y,z
-x,-y,z
x,-y,-z
-x,y,-z
1/2+x,1/2+y,1/2+z
1/2-x,1/2-y,1/2+z
1/2+x,1/2-y,1/2-z
1/2-x,1/2+y,1/2-z
loop_
_atom_site_type_symbol
_atom_site_label
_atom_site_fract_x
_atom_site_fract_y
_atom_site_fract_z
Si Si1 0.000000 0.245379 0.500000
Si Si2 0.062067 0.069635 0.259713
Si Si3 0.259168 0.000000 0.500000
Si Si4 0.159619 0.662179 0.896386
Si Si5 0.595918 0.880098 0.091928
Si Si6 0.676357 0.603844 0.676119
O O1 0.973682 0.175888 0.731765
O O2 0.957153 0.317737 0.358124
O O3 0.120873 0.102346 0.310981
O O4 0.043366 0.000000 0.500000
O O5 0.053549 0.000000 0.000000
O O6 0.295878 0.075737 0.675979
O O7 0.224091 0.090495 0.366758
O O8 0.127249 0.678557 0.635596
O O9 0.182053 0.781049 0.969985
O O10 0.127202 0.618455 0.139826
O O11 0.582957 0.000000 0.000000
O O12 0.680328 0.500000 0.500000
#
# Coordination Sequence:
#
# PCOD8164489 Si02
#       6
#     4   8   4   8   8   8
#     4  12  28  48  88 108 156 222 254 322 412 466
#     4  11  26  49  71 113 159 195 257 324 384 474
#     4  12  28  50  82 114 152 224 254 330 408 466
#     4  12  29  51  81 112 166 198 268 331 393 470
#     4  12  27  54  77 118 152 207 264 334 387 476
#     4  11  28  48  78 115 158 207 264 327 392 480
#
# _framework density 23.998173000000001
#
# number of rings (size 3 to 8) (size 9 to 14) (size 15 to 20)
#    0.000    0.400    5.000    0.600   14.000    4.000 
#    0.000    2.000    0.000    0.000    0.000    0.000 
#    0.000    0.000    0.000    0.000    0.000    0.000 
#
# Total GULP energy -247904.193720 kJ/mol
# GULP energy per Si atom -12395.209686 kJ/mol
# Density = 2.394355 g / cm^3
# Si number density = 23.998173 Si / 1000 Ang^3
#
#
#
# Elastic Constant Matrix: (Units=GPa)
#
#
# Indices 1 2 3 4 5 6 
#
# 1 162.1066 59.0731 40.0334 0.0000 0.0000 0.0000
# 2 59.0731 152.4679 20.3238 0.0000 0.0000 0.0000
# 3 40.0334 20.3238 111.6797 0.0001 -0.0001 0.0001
# 4 0.0000 0.0000 0.0001 34.0083 0.0000 0.0000
# 5 0.0000 0.0000 -0.0001 0.0000 18.1423 0.0000
# 6 0.0000 0.0000 0.0001 0.0000 0.0000 58.9486
#
#
#
# Elastic Compliance Matrix: (Units=1/GPa)
#
#
# Indices 1 2 3 4 5 6 
#
# 1 0.007708 -0.002683 -0.002275 0.000000 0.000000 0.000000
# 2 -0.002683 0.007656 -0.000431 0.000000 0.000000 0.000000
# 3 -0.002275 -0.000431 0.009848 0.000000 0.000000 0.000000
# 4 0.000000 0.000000 0.000000 0.029405 0.000000 0.000000
# 5 0.000000 0.000000 0.000000 0.000000 0.055120 0.000000
# 6 0.000000 0.000000 0.000000 0.000000 0.000000 0.016964
#
#
# Mechanical properties :
#
#
# Convention : Reuss Voigt Hill
#
# Bulk Modulus (GPa) = 69.28424 73.90163 71.59294
# Shear Modulus (GPa) = 35.13928 42.67479 38.90703
#
# Velocity S-wave (km/s) = 3.83070 4.22151 4.03084
# Velocity P-wave (km/s) = 6.96412 7.39074 7.18060
#
# Compressibility (1/GPa) = 0.01443330
#
# Stress axis : x y z
#
# Youngs Moduli (GPa) = 129.72831 130.61796 101.54198
#
# Poissons Ratio (x) = 0.35050 0.23100
# Poissons Ratio (y) = 0.34811 0.04380
# Poissons Ratio (z) = 0.29512 0.05634
#
# Static dielectric constant tensor:
#      x y z
#    x 4.909840 0.000000 0.000000 
#    y 0.000000 4.671000 0.000000 
#    z 0.000000 0.000000 3.545020 
# 
# 
# High freq. dielectric constant tensor:
#      x y z
#    x 1.974130 0.000000 0.000000 
#    y 0.000000 1.978930 0.000000 
#    z 0.000000 0.000000 1.921540 
# 
# From -- ./inp_files/4785.got.cif
#   From: 2010.03.12/outbox.cif.g09.slc.cpg/sg23_3_cif.got.tgz:4785.got - 2010.04.14 02:50:06.
