data_PCOD8164156
_publ_section_title
;
Structure prediction by ZEFSAII (Michael W. Deem and Ramdas Pophale) SiO2 
 PCOD8164156
Probable space group: I 2 2 2
;
_chemical_formula_sum "Si O2"
_cell_formula_units_Z 48
_cell_length_a 9.686793
_cell_length_b 14.897178
_cell_length_c 15.425494
_cell_angle_alpha 90.000000
_cell_angle_beta 90.000000
_cell_angle_gamma 90.000000
_cell_volume 2225.989479
_symmetry_space_group_name_H-M "I 2 2 2"
_symmetry_group_IT_number 23
_symmetry_cell_setting 'orthorhombic'
loop_
_space_group_symop_operation_xyz
x,y,z
-x,-y,z
x,-y,-z
-x,y,-z
1/2+x,1/2+y,1/2+z
1/2-x,1/2-y,1/2+z
1/2+x,1/2-y,1/2-z
1/2-x,1/2+y,1/2-z
loop_
_atom_site_type_symbol
_atom_site_label
_atom_site_fract_x
_atom_site_fract_y
_atom_site_fract_z
Si Si1 0.016059 0.728041 0.899082
Si Si2 0.731021 0.858771 0.701644
Si Si3 0.503251 0.394208 0.098298
Si Si4 0.917163 0.923250 0.091194
Si Si5 0.241760 0.320070 0.797394
Si Si6 0.343500 0.022209 0.176630
O O1 0.110741 0.643161 0.871318
O O2 0.077479 0.825001 0.866114
O O3 0.863787 0.720848 0.864690
O O4 0.000000 0.726581 0.000000
O O5 0.698060 0.765604 0.748907
O O6 0.876745 0.856119 0.653632
O O7 0.716913 0.940799 0.767068
O O8 0.500000 0.500000 0.092541
O O9 0.641045 0.368527 0.148016
O O10 0.500000 0.354234 0.000000
O O11 0.756483 0.957673 0.093139
O O12 0.000000 0.000000 0.146817
O O13 0.000000 0.919462 0.000000
O O14 0.160488 0.389096 0.735501
O O15 0.500000 0.000000 0.145732
#
# Coordination Sequence:
#
# PCOD8164156 Si02
#       6
#     8   8   8   8   8   8
#     4  11  23  42  66  98 140 184 229 287 357 423
#     4  12  24  42  68 101 135 183 234 292 356 416
#     4  11  25  44  67 100 140 186 239 295 356 424
#     4  10  23  45  71  98 132 187 237 284 351 418
#     4  12  24  42  66 103 136 180 240 288 354 415
#     4  12  25  42  67 106 142 176 240 294 351 423
#
# _framework density 21.563444
#
# number of rings (size 3 to 8) (size 9 to 14) (size 15 to 20)
#    0.000    0.667    5.000    3.000    2.333    0.000 
#    0.000    2.500    0.000    0.000    0.000    0.000 
#    0.000    0.000    0.000    0.000    0.000    0.000 
#
# Total GULP energy -297385.953778 kJ/mol
# GULP energy per Si atom -12391.081407 kJ/mol
# Density = 2.151436 g / cm^3
# Si number density = 21.563444 Si / 1000 Ang^3
#
#
#
# Elastic Constant Matrix: (Units=GPa)
#
#
# Indices 1 2 3 4 5 6 
#
# 1 164.5163 24.5464 47.0096 0.0000 0.0000 0.0000
# 2 24.5464 96.8600 34.2863 0.0000 0.0000 0.0000
# 3 47.0096 34.2863 75.7558 0.0000 0.0000 0.0000
# 4 0.0000 0.0000 0.0000 7.5499 0.0000 0.0000
# 5 0.0000 0.0000 0.0000 0.0000 17.0477 0.0000
# 6 0.0000 0.0000 0.0000 0.0000 0.0000 27.1081
#
#
#
# Elastic Compliance Matrix: (Units=1/GPa)
#
#
# Indices 1 2 3 4 5 6 
#
# 1 0.007396 -0.000297 -0.004455 0.000000 0.000000 0.000000
# 2 -0.000297 0.012306 -0.005385 0.000000 0.000000 0.000000
# 3 -0.004455 -0.005385 0.018402 0.000000 0.000000 0.000000
# 4 0.000000 0.000000 0.000000 0.132453 0.000000 0.000000
# 5 0.000000 0.000000 0.000000 0.000000 0.058659 0.000000
# 6 0.000000 0.000000 0.000000 0.000000 0.000000 0.036889
#
#
# Mechanical properties :
#
#
# Convention : Reuss Voigt Hill
#
# Bulk Modulus (GPa) = 56.08782 60.97963 58.53373
# Shear Modulus (GPa) = 17.10446 25.76044 21.43245
#
# Velocity S-wave (km/s) = 2.81946 3.46010 3.15608
# Velocity P-wave (km/s) = 6.05527 6.65610 6.36278
#
# Compressibility (1/GPa) = 0.01782918
#
# Stress axis : x y z
#
# Youngs Moduli (GPa) = 135.21345 81.26337 54.34242
#
# Poissons Ratio (x) = 0.02416 0.24208
# Poissons Ratio (y) = 0.04021 0.29263
# Poissons Ratio (z) = 0.60234 0.43759
#
# Static dielectric constant tensor:
#      x y z
#    x 3.968700 0.000000 0.000000 
#    y 0.000000 4.880460 0.000000 
#    z 0.000000 0.000000 4.094290 
# 
# 
# High freq. dielectric constant tensor:
#      x y z
#    x 1.860030 0.000000 0.000000 
#    y 0.000000 1.861320 0.000000 
#    z 0.000000 0.000000 1.839300 
# 
# From -- ./inp_files/23730.got.cif
#   From: 2010.03.12/outbox.cif.g09.slc.cpg/sg23_12_cif.got.tgz:23730.got - 2010.04.14 02:50:06.
