data_PCOD8164825
_publ_section_title
;
Structure prediction by ZEFSAII (Michael W. Deem and Ramdas Pophale) SiO2 
 PCOD8164825
Probable space group: I 21 21 21
;
_chemical_formula_sum "Si O2"
_cell_formula_units_Z 44
_cell_length_a 9.941704
_cell_length_b 10.275232
_cell_length_c 23.592277
_cell_angle_alpha 90.000000
_cell_angle_beta 90.000000
_cell_angle_gamma 90.000000
_cell_volume 2410.029306
_symmetry_space_group_name_H-M "I 21 21 21"
_symmetry_group_IT_number 24
_symmetry_cell_setting 'orthorhombic'
loop_
_space_group_symop_operation_xyz
x,y,z
-x,1/2-y,z
x,-y,1/2-z
1/2-x,y,-z
1/2+x,1/2+y,1/2+z
1/2-x,-y,1/2+z
1/2+x,1/2-y,-z
-x,1/2+y,1/2-z
loop_
_atom_site_type_symbol
_atom_site_label
_atom_site_fract_x
_atom_site_fract_y
_atom_site_fract_z
Si Si1 0.654536 0.376404 0.952013
Si Si2 0.712370 0.684396 0.668003
Si Si3 0.145087 0.425437 0.044392
Si Si4 0.000000 0.250000 0.794970
Si Si5 0.851247 0.975677 0.333198
Si Si6 0.380182 0.500000 0.250000
Si Si7 0.076704 0.000000 0.250000
O O1 0.677784 0.412885 0.885429
O O2 0.509754 0.420922 0.975118
O O3 0.687859 0.223467 0.946659
O O4 0.750000 0.439945 0.000000
O O5 0.871382 0.717690 0.665854
O O6 0.627452 0.818694 0.668714
O O7 0.673639 0.613712 0.726951
O O8 0.155670 0.513876 0.100777
O O9 0.250000 0.489387 0.000000
O O10 0.972322 0.126853 0.754816
O O11 0.712224 0.020261 0.305169
O O12 0.977210 0.044060 0.301498
#
# Coordination Sequence:
#
# PCOD8164825 Si02
#       7
#     8   8   8   4   8   4   4
#     4   9  17  27  42  66  97 138 177 209 260 333
#     4  10  19  30  46  68 103 140 173 221 272 328
#     4   9  16  28  45  66  98 137 175 211 266 325
#     4  10  20  34  48  74 110 140 178 218 278 332
#     4   9  18  31  47  71 102 134 176 218 268 321
#     4   9  19  32  50  72 107 139 174 218 272 325
#     4  11  17  28  50  68  97 137 178 224 260 311
#
# _framework density 18.257038999999999
#
# number of rings (size 3 to 8) (size 9 to 14) (size 15 to 20)
#    0.000    2.545    1.818    1.091    0.000    5.818 
#    0.000    0.000    0.000    0.000    0.000    0.000 
#   16.364    6.545    0.000    0.000    0.000    0.000 
#
# Total GULP energy -272551.914318 kJ/mol
# GULP energy per Si atom -12388.723378 kJ/mol
# Density = 1.821549 g / cm^3
# Si number density = 18.257039 Si / 1000 Ang^3
#
#
#
# Elastic Constant Matrix: (Units=GPa)
#
#
# Indices 1 2 3 4 5 6 
#
# 1 105.0190 18.3456 54.3215 0.0000 0.0000 0.0000
# 2 18.3456 32.8904 18.3125 0.0000 0.0000 0.0000
# 3 54.3215 18.3125 131.7103 0.0000 0.0000 0.0000
# 4 0.0000 0.0000 0.0000 18.4897 0.0000 0.0000
# 5 0.0000 0.0000 0.0000 0.0000 30.2131 0.0000
# 6 0.0000 0.0000 0.0000 0.0000 0.0000 21.7685
#
#
#
# Elastic Compliance Matrix: (Units=1/GPa)
#
#
# Indices 1 2 3 4 5 6 
#
# 1 0.012694 -0.004515 -0.004608 0.000000 0.000000 0.000000
# 2 -0.004515 0.034561 -0.002943 0.000000 0.000000 0.000000
# 3 -0.004608 -0.002943 0.009902 0.000000 0.000000 0.000000
# 4 0.000000 0.000000 0.000000 0.054084 0.000000 0.000000
# 5 0.000000 0.000000 0.000000 0.000000 0.033098 0.000000
# 6 0.000000 0.000000 0.000000 0.000000 0.000000 0.045938
#
#
# Mechanical properties :
#
#
# Convention : Reuss Voigt Hill
#
# Bulk Modulus (GPa) = 30.27968 50.17543 40.22755
# Shear Modulus (GPa) = 22.18102 26.00360 24.09231
#
# Velocity S-wave (km/s) = 3.48937 3.77809 3.63660
# Velocity P-wave (km/s) = 5.73197 6.82455 6.30198
#
# Compressibility (1/GPa) = 0.03302545
#
# Stress axis : x y z
#
# Youngs Moduli (GPa) = 78.77633 28.93428 100.98988
#
# Poissons Ratio (x) = 0.13064 0.46533
# Poissons Ratio (y) = 0.35568 0.29722
# Poissons Ratio (z) = 0.36298 0.08516
#
# Static dielectric constant tensor:
#      x y z
#    x 3.461550 0.000000 0.000000 
#    y 0.000000 2.837530 0.000000 
#    z 0.000000 0.000000 3.668690 
# 
# 
# High freq. dielectric constant tensor:
#      x y z
#    x 1.724810 0.000000 0.000000 
#    y 0.000000 1.630440 0.000000 
#    z 0.000000 0.000000 1.709200 
# 
# From -- ./inp_files/15795.got.cif
#   From: 2010.03.12/outbox.cif.g09.slc.cpg/sg24_8_cif.got.tgz:15795.got - 2010.04.14 03:06:53.
