data_PCOD8164635
_publ_section_title
;
Structure prediction by ZEFSAII (Michael W. Deem and Ramdas Pophale) SiO2 
 PCOD8164635
Probable space group: I 21 21 21
;
_chemical_formula_sum "Si O2"
_cell_formula_units_Z 48
_cell_length_a 16.940294
_cell_length_b 9.003080
_cell_length_c 19.028722
_cell_angle_alpha 90.000000
_cell_angle_beta 90.000000
_cell_angle_gamma 90.000000
_cell_volume 2902.162151
_symmetry_space_group_name_H-M "I 21 21 21"
_symmetry_group_IT_number 24
_symmetry_cell_setting 'orthorhombic'
loop_
_space_group_symop_operation_xyz
x,y,z
-x,1/2-y,z
x,-y,1/2-z
1/2-x,y,-z
1/2+x,1/2+y,1/2+z
1/2-x,-y,1/2+z
1/2+x,1/2-y,-z
-x,1/2+y,1/2-z
loop_
_atom_site_type_symbol
_atom_site_label
_atom_site_fract_x
_atom_site_fract_y
_atom_site_fract_z
Si Si1 0.215776 0.056706 0.576868
Si Si2 0.801644 0.159367 0.435719
Si Si3 0.482082 0.084373 0.902627
Si Si4 0.360051 0.567720 0.675569
Si Si5 0.433440 0.849946 0.010722
Si Si6 0.822563 0.594740 0.321519
O O1 0.250000 0.015496 0.500000
O O2 0.249615 0.215066 0.603288
O O3 0.120684 0.067454 0.569044
O O4 0.242266 0.937374 0.634642
O O5 0.750000 0.095349 0.500000
O O6 0.881638 0.241223 0.460965
O O7 0.814398 0.020969 0.384877
O O8 0.500000 0.250000 0.932239
O O9 0.547649 0.058177 0.842921
O O10 0.398160 0.052237 0.867421
O O11 0.484107 0.970667 0.966975
O O12 0.345140 0.500000 0.750000
O O13 0.324743 0.730042 0.687711
O O14 0.500000 0.750000 0.049072
O O15 0.823092 0.500000 0.250000
#
# Coordination Sequence:
#
# PCOD8164635 Si02
#       6
#     8   8   8   8   8   8
#     4   9  18  33  52  74  98 137 174 207 258 313
#     4   9  18  33  50  73 101 133 174 212 256 307
#     4  10  20  32  46  76 107 142 173 204 252 312
#     4  11  22  32  48  77 106 140 176 212 254 307
#     4  10  17  32  56  72 103 135 172 217 257 304
#     4  11  21  34  50  71 108 145 174 212 255 311
#
# _framework density 16.539393
#
# number of rings (size 3 to 8) (size 9 to 14) (size 15 to 20)
#    0.000    2.333    5.000    1.500    0.000    0.667 
#    0.000    0.000    0.000    0.000    0.000   10.500 
#    0.000    0.000    0.000    0.000    0.000    0.000 
#
# Total GULP energy -297348.543318 kJ/mol
# GULP energy per Si atom -12389.522638 kJ/mol
# Density = 1.650175 g / cm^3
# Si number density = 16.539393 Si / 1000 Ang^3
#
#
#
# Elastic Constant Matrix: (Units=GPa)
#
#
# Indices 1 2 3 4 5 6 
#
# 1 87.4879 46.3703 45.8217 0.0000 0.0000 0.0000
# 2 46.3703 99.1228 54.1164 0.0000 0.0000 0.0000
# 3 45.8217 54.1164 56.3915 0.0000 0.0000 0.0000
# 4 0.0000 0.0000 0.0000 26.6728 0.0000 0.0000
# 5 0.0000 0.0000 0.0000 0.0000 14.0659 0.0000
# 6 0.0000 0.0000 0.0000 0.0000 0.0000 23.5424
#
#
#
# Elastic Compliance Matrix: (Units=1/GPa)
#
#
# Indices 1 2 3 4 5 6 
#
# 1 0.019947 -0.001013 -0.015236 0.000000 0.000000 0.000000
# 2 -0.001013 0.021243 -0.019562 0.000000 0.000000 0.000000
# 3 -0.015236 -0.019562 0.048886 0.000000 0.000000 0.000000
# 4 0.000000 0.000000 0.000000 0.037491 0.000000 0.000000
# 5 0.000000 0.000000 0.000000 0.000000 0.071094 0.000000
# 6 0.000000 0.000000 0.000000 0.000000 0.000000 0.042477
#
#
# Mechanical properties :
#
#
# Convention : Reuss Voigt Hill
#
# Bulk Modulus (GPa) = 54.19114 59.51323 56.85218
# Shear Modulus (GPa) = 15.67837 19.30248 17.49043
#
# Velocity S-wave (km/s) = 3.08221 3.41993 3.25545
# Velocity P-wave (km/s) = 6.74557 7.18717 6.96987
#
# Compressibility (1/GPa) = 0.01845320
#
# Stress axis : x y z
#
# Youngs Moduli (GPa) = 50.13309 47.07528 20.45572
#
# Poissons Ratio (x) = 0.04770 0.31166
# Poissons Ratio (y) = 0.05080 0.40016
# Poissons Ratio (z) = 0.76381 0.92089
#
# Static dielectric constant tensor:
#      x y z
#    x 3.206770 0.000000 0.000000 
#    y 0.000000 3.208320 0.000000 
#    z 0.000000 0.000000 2.865990 
# 
# 
# High freq. dielectric constant tensor:
#      x y z
#    x 1.629040 0.000000 0.000000 
#    y 0.000000 1.644010 0.000000 
#    z 0.000000 0.000000 1.604310 
# 
# From -- ./inp_files/14338.got.cif
#   From: 2010.03.12/outbox.cif.g09.slc.cpg/sg24_8_cif.got.tgz:14338.got - 2010.04.14 03:06:53.
