data_PCOD8164352
_publ_section_title
;
Structure prediction by ZEFSAII (Michael W. Deem and Ramdas Pophale) SiO2 
 PCOD8164352
Probable space group: I 2 2 2
;
_chemical_formula_sum "Si O2"
_cell_formula_units_Z 56
_cell_length_a 5.494330
_cell_length_b 32.603861
_cell_length_c 13.776614
_cell_angle_alpha 90.000000
_cell_angle_beta 90.000000
_cell_angle_gamma 90.000000
_cell_volume 2467.892645
_symmetry_space_group_name_H-M "I 2 2 2"
_symmetry_group_IT_number 23
_symmetry_cell_setting 'orthorhombic'
loop_
_space_group_symop_operation_xyz
x,y,z
-x,-y,z
x,-y,-z
-x,y,-z
1/2+x,1/2+y,1/2+z
1/2-x,1/2-y,1/2+z
1/2+x,1/2-y,1/2-z
1/2-x,1/2+y,1/2-z
loop_
_atom_site_type_symbol
_atom_site_label
_atom_site_fract_x
_atom_site_fract_y
_atom_site_fract_z
Si Si1 0.728123 0.122664 0.258410
Si Si2 0.804138 0.224714 0.745161
Si Si3 0.384524 0.412007 0.903774
Si Si4 0.751190 0.425639 0.443112
Si Si5 0.392295 0.167473 0.402198
Si Si6 0.895433 0.455319 0.251910
Si Si7 0.925224 0.840827 0.104707
O O1 0.575968 0.157770 0.313601
O O2 0.587299 0.081229 0.230597
O O3 0.939847 0.109701 0.329385
O O4 0.835556 0.142501 0.160736
O O5 0.564131 0.252776 0.751092
O O6 0.801384 0.199227 0.643934
O O7 0.788031 0.194322 0.836593
O O8 0.213322 0.375436 0.941046
O O9 0.246031 0.448170 0.848529
O O10 0.500000 0.432130 0.000000
O O11 0.500000 0.433942 0.500000
O O12 0.727569 0.454397 0.347790
O O13 0.764153 0.378197 0.409635
O O14 0.000000 0.437097 0.500000
O O15 0.500000 0.188370 0.500000
O O16 0.000000 0.500000 0.239346
O O17 0.000000 0.822963 0.000000
#
# Coordination Sequence:
#
# PCOD8164352 Si02
#       7
#     8   8   8   8   8   8   8
#     4  11  21  45  71 103 138 182 257 305 355 435
#     4  12  28  48  69 107 154 187 233 301 376 453
#     4  11  22  42  75 104 130 191 257 307 356 434
#     4  11  24  45  74 108 140 188 256 302 353 437
#     4  11  23  43  76 100 132 189 247 305 358 430
#     4  11  25  43  66 106 156 196 234 311 388 440
#     4  11  23  47  76 103 138 194 243 302 362 433
#
# _framework density 22.691423
#
# number of rings (size 3 to 8) (size 9 to 14) (size 15 to 20)
#    0.000    0.857    4.286    3.429    0.000    3.714 
#    0.000    9.286    0.000    0.000    0.000    0.000 
#    0.000    0.000    0.000    0.000    0.000    0.000 
#
# Total GULP energy -347132.109684 kJ/mol
# GULP energy per Si atom -12397.575346 kJ/mol
# Density = 2.263978 g / cm^3
# Si number density = 22.691423 Si / 1000 Ang^3
#
#
#
# Elastic Constant Matrix: (Units=GPa)
#
#
# Indices 1 2 3 4 5 6 
#
# 1 114.7207 40.3251 54.4664 0.0000 0.0000 0.0000
# 2 40.3251 93.6878 64.5202 -0.0001 0.0000 0.0000
# 3 54.4664 64.5202 182.8721 0.0001 0.0000 0.0000
# 4 0.0000 -0.0001 0.0001 13.2656 0.0000 0.0000
# 5 0.0000 0.0000 0.0000 0.0000 43.0596 0.0000
# 6 0.0000 0.0000 0.0000 0.0000 0.0000 14.3715
#
#
#
# Elastic Compliance Matrix: (Units=1/GPa)
#
#
# Indices 1 2 3 4 5 6 
#
# 1 0.010844 -0.003227 -0.002091 0.000000 0.000000 0.000000
# 2 -0.003227 0.015060 -0.004352 0.000000 0.000000 0.000000
# 3 -0.002091 -0.004352 0.007627 0.000000 0.000000 0.000000
# 4 0.000000 0.000000 0.000000 0.075383 0.000000 0.000000
# 5 0.000000 0.000000 0.000000 0.000000 0.023224 0.000000
# 6 0.000000 0.000000 0.000000 0.000000 0.000000 0.069582
#
#
# Mechanical properties :
#
#
# Convention : Reuss Voigt Hill
#
# Bulk Modulus (GPa) = 70.47514 78.87823 74.67669
# Shear Modulus (GPa) = 22.14434 29.60391 25.87413
#
# Velocity S-wave (km/s) = 3.12731 3.61588 3.38044
# Velocity P-wave (km/s) = 6.64572 7.22977 6.94389
#
# Compressibility (1/GPa) = 0.01418940
#
# Stress axis : x y z
#
# Youngs Moduli (GPa) = 92.21614 66.40041 131.11933
#
# Poissons Ratio (x) = 0.21430 0.27418
# Poissons Ratio (y) = 0.29762 0.57066
# Poissons Ratio (z) = 0.19283 0.28899
#
# Static dielectric constant tensor:
#      x y z
#    x 5.232100 0.000000 0.000000 
#    y 0.000000 3.942680 0.000000 
#    z 0.000000 0.000000 4.717610 
# 
# 
# High freq. dielectric constant tensor:
#      x y z
#    x 1.898190 0.000000 0.000000 
#    y 0.000000 1.875410 0.000000 
#    z 0.000000 0.000000 1.916340 
# 
# From -- ./inp_files/19319.got.cif
#   From: 2010.03.12/outbox.cif.g09.slc.cpg/sg23_10_cif.got.tgz:19319.got - 2010.04.14 02:50:06.
