data_PCOD8164303
_publ_section_title
;
Structure prediction by ZEFSAII (Michael W. Deem and Ramdas Pophale) SiO2 
 PCOD8164303
Probable space group: I 2 2 2
;
_chemical_formula_sum "Si O2"
_cell_formula_units_Z 40
_cell_length_a 12.074336
_cell_length_b 17.806444
_cell_length_c 7.726191
_cell_angle_alpha 90.000000
_cell_angle_beta 90.000000
_cell_angle_gamma 90.000000
_cell_volume 1661.138697
_symmetry_space_group_name_H-M "I 2 2 2"
_symmetry_group_IT_number 23
_symmetry_cell_setting 'orthorhombic'
loop_
_space_group_symop_operation_xyz
x,y,z
-x,-y,z
x,-y,-z
-x,y,-z
1/2+x,1/2+y,1/2+z
1/2-x,1/2-y,1/2+z
1/2+x,1/2-y,1/2-z
1/2-x,1/2+y,1/2-z
loop_
_atom_site_type_symbol
_atom_site_label
_atom_site_fract_x
_atom_site_fract_y
_atom_site_fract_z
Si Si1 0.263967 0.073034 0.879023
Si Si2 0.534590 0.866992 0.692289
Si Si3 0.828770 0.312181 0.359796
Si Si4 0.025709 0.082906 0.797206
Si Si5 0.382125 0.716556 0.160548
O O1 0.375222 0.072983 0.761846
O O2 0.157216 0.087073 0.758980
O O3 0.257100 0.146590 0.996524
O O4 0.254163 0.000000 0.000000
O O5 0.500000 0.888418 0.500000
O O6 0.423191 0.871418 0.805127
O O7 0.577107 0.781201 0.707082
O O8 0.749103 0.293527 0.200030
O O9 0.887436 0.240426 0.456038
O O10 0.953909 0.141619 0.686109
O O11 0.000000 0.000000 0.731114
O O12 0.000000 0.093841 0.000000
#
# Coordination Sequence:
#
# PCOD8164303 Si02
#       5
#     8   8   8   8   8
#     4  11  22  43  71 103 142 188 237 294 373 447
#     4  11  26  44  67 104 138 187 248 299 372 435
#     4  11  24  42  66 102 135 189 232 298 366 436
#     4  11  20  39  71 106 140 188 240 297 372 448
#     4  11  22  39  68 101 144 179 242 305 366 439
#
# _framework density 24.079868999999999
#
# number of rings (size 3 to 8) (size 9 to 14) (size 15 to 20)
#    0.000    1.000    4.000    4.200    5.600    1.600 
#    3.600    2.000    0.000    7.200    0.000    1.400 
#    0.000    0.000    0.000    0.000    0.000    0.000 
#
# Total GULP energy -247935.360717 kJ/mol
# GULP energy per Si atom -12396.768036 kJ/mol
# Density = 2.402506 g / cm^3
# Si number density = 24.079869 Si / 1000 Ang^3
#
#
#
# Elastic Constant Matrix: (Units=GPa)
#
#
# Indices 1 2 3 4 5 6 
#
# 1 176.9109 42.3978 50.4835 0.0000 0.0000 0.0000
# 2 42.3978 113.3737 24.2506 0.0000 0.0000 0.0000
# 3 50.4835 24.2506 97.4410 0.0000 -0.0001 0.0001
# 4 0.0000 0.0000 0.0000 20.9384 0.0000 0.0000
# 5 0.0000 0.0000 -0.0001 0.0000 15.4742 0.0000
# 6 0.0000 0.0000 0.0001 0.0000 0.0000 41.1131
#
#
#
# Elastic Compliance Matrix: (Units=1/GPa)
#
#
# Indices 1 2 3 4 5 6 
#
# 1 0.007019 -0.001951 -0.003151 0.000000 0.000000 0.000000
# 2 -0.001951 0.009859 -0.001443 0.000000 0.000000 0.000000
# 3 -0.003151 -0.001443 0.012254 0.000000 0.000000 0.000000
# 4 0.000000 0.000000 0.000000 0.047759 0.000000 0.000000
# 5 0.000000 0.000000 0.000000 0.000000 0.064624 0.000000
# 6 0.000000 0.000000 0.000000 0.000000 0.000000 0.024323
#
#
# Mechanical properties :
#
#
# Convention : Reuss Voigt Hill
#
# Bulk Modulus (GPa) = 62.33454 69.10992 65.72223
# Shear Modulus (GPa) = 27.13331 33.54473 30.33902
#
# Velocity S-wave (km/s) = 3.36043 3.73642 3.55340
# Velocity P-wave (km/s) = 6.40308 6.88310 6.64742
#
# Compressibility (1/GPa) = 0.01604247
#
# Stress axis : x y z
#
# Youngs Moduli (GPa) = 142.46373 101.43443 81.60430
#
# Poissons Ratio (x) = 0.19789 0.25714
# Poissons Ratio (y) = 0.27794 0.11774
# Poissons Ratio (z) = 0.44892 0.14635
#
# Static dielectric constant tensor:
#      x y z
#    x 4.827500 0.000000 0.000000 
#    y 0.000000 4.272750 0.000000 
#    z 0.000000 0.000000 4.046170 
# 
# 
# High freq. dielectric constant tensor:
#      x y z
#    x 1.986230 0.000000 0.000000 
#    y 0.000000 1.943880 0.000000 
#    z 0.000000 0.000000 1.932600 
# 
# From -- ./inp_files/8200.got.cif
#   From: 2010.03.12/outbox.cif.g09.slc.cpg/sg23_5_cif.got.tgz:8200.got - 2010.04.14 02:50:06.
