data_PCOD8164153
_publ_section_title
;
Structure prediction by ZEFSAII (Michael W. Deem and Ramdas Pophale) SiO2 
 PCOD8164153
Probable space group: I 2 2 2
;
_chemical_formula_sum "Si O2"
_cell_formula_units_Z 44
_cell_length_a 19.013121
_cell_length_b 13.444739
_cell_length_c 7.555570
_cell_angle_alpha 90.000000
_cell_angle_beta 90.000000
_cell_angle_gamma 90.000000
_cell_volume 1931.403532
_symmetry_space_group_name_H-M "I 2 2 2"
_symmetry_group_IT_number 23
_symmetry_cell_setting 'orthorhombic'
loop_
_space_group_symop_operation_xyz
x,y,z
-x,-y,z
x,-y,-z
-x,y,-z
1/2+x,1/2+y,1/2+z
1/2-x,1/2-y,1/2+z
1/2+x,1/2-y,1/2-z
1/2-x,1/2+y,1/2-z
loop_
_atom_site_type_symbol
_atom_site_label
_atom_site_fract_x
_atom_site_fract_y
_atom_site_fract_z
Si Si1 0.725412 0.149330 0.998742
Si Si2 0.000000 0.757187 0.500000
Si Si3 0.910307 0.420004 0.641371
Si Si4 0.380438 0.000000 0.500000
Si Si5 0.342915 0.500000 0.500000
Si Si6 0.441604 0.349333 0.349957
Si Si7 0.326350 0.195502 0.364227
O O1 0.671774 0.179623 0.845333
O O2 0.790736 0.084585 0.922373
O O3 0.675385 0.090179 0.136534
O O4 0.754329 0.249040 0.088207
O O5 0.055369 0.687375 0.604097
O O6 0.031360 0.830456 0.349444
O O7 0.938024 0.500000 0.500000
O O8 0.929259 0.465929 0.834194
O O9 0.328196 0.909935 0.541929
O O10 0.392049 0.448757 0.349199
O O11 0.500000 0.365285 0.500000
O O12 0.396119 0.255776 0.416384
#
# Coordination Sequence:
#
# PCOD8164153 Si02
#       7
#     8   4   8   4   4   8   8
#     4  11  21  43  69 101 142 184 241 301 356 431
#     4  12  25  44  73 104 144 192 246 295 367 440
#     4  12  23  42  67 105 146 185 239 302 360 444
#     4  12  22  40  65 100 136 185 226 286 370 428
#     4  10  23  44  76  99 144 188 236 300 362 427
#     4  11  24  47  72 104 143 192 237 298 363 436
#     4  11  23  40  68 102 140 187 237 296 365 428
#
# _framework density 22.781359999999999
#
# number of rings (size 3 to 8) (size 9 to 14) (size 15 to 20)
#    0.000    0.727    4.545    2.727    0.000    2.909 
#    0.000    7.727    4.000    0.000    0.000    0.000 
#    0.000    0.000    0.000    0.000    0.000    0.000 
#
# Total GULP energy -272717.765566 kJ/mol
# GULP energy per Si atom -12396.262071 kJ/mol
# Density = 2.272951 g / cm^3
# Si number density = 22.781360 Si / 1000 Ang^3
#
#
#
# Elastic Constant Matrix: (Units=GPa)
#
#
# Indices 1 2 3 4 5 6 
#
# 1 105.8571 41.0524 35.8764 0.0000 0.0000 0.0000
# 2 41.0524 114.3741 38.9909 0.0000 0.0000 0.0000
# 3 35.8764 38.9909 137.9049 0.0000 0.0000 0.0000
# 4 0.0000 0.0000 0.0000 37.0507 0.0000 0.0000
# 5 0.0000 0.0000 0.0000 0.0000 15.9377 0.0000
# 6 0.0000 0.0000 0.0000 0.0000 0.0000 22.6400
#
#
#
# Elastic Compliance Matrix: (Units=1/GPa)
#
#
# Indices 1 2 3 4 5 6 
#
# 1 0.011457 -0.003427 -0.002012 0.000000 0.000000 0.000000
# 2 -0.003427 0.010701 -0.002134 0.000000 0.000000 0.000000
# 3 -0.002012 -0.002134 0.008378 0.000000 0.000000 0.000000
# 4 0.000000 0.000000 0.000000 0.026990 0.000000 0.000000
# 5 0.000000 0.000000 0.000000 0.000000 0.062744 0.000000
# 6 0.000000 0.000000 0.000000 0.000000 0.000000 0.044170
#
#
# Mechanical properties :
#
#
# Convention : Reuss Voigt Hill
#
# Bulk Modulus (GPa) = 64.97195 65.55282 65.26239
# Shear Modulus (GPa) = 27.06864 31.27344 29.17104
#
# Velocity S-wave (km/s) = 3.45076 3.70910 3.58226
# Velocity P-wave (km/s) = 6.66773 6.86881 6.76902
#
# Compressibility (1/GPa) = 0.01539126
#
# Stress axis : x y z
#
# Youngs Moduli (GPa) = 87.27981 93.45228 119.35822
#
# Poissons Ratio (x) = 0.32022 0.24013
# Poissons Ratio (y) = 0.29907 0.25472
# Poissons Ratio (z) = 0.17560 0.19943
#
# Static dielectric constant tensor:
#      x y z
#    x 4.222560 0.000000 0.000000 
#    y 0.000000 4.244560 0.000000 
#    z 0.000000 0.000000 4.039350 
# 
# 
# High freq. dielectric constant tensor:
#      x y z
#    x 1.904480 0.000000 0.000000 
#    y 0.000000 1.907470 0.000000 
#    z 0.000000 0.000000 1.882960 
# 
# From -- ./inp_files/11008.got.cif
#   From: 2010.03.12/outbox.cif.g09.slc.cpg/sg23_6_cif.got.tgz:11008.got - 2010.04.14 02:50:06.
