data_PCOD8164904
_publ_section_title
;
Structure prediction by ZEFSAII (Michael W. Deem and Ramdas Pophale) SiO2 
 PCOD8164904
Probable space group: I 21 21 21
;
_chemical_formula_sum "Si O2"
_cell_formula_units_Z 64
_cell_length_a 23.394805
_cell_length_b 11.577406
_cell_length_c 12.906916
_cell_angle_alpha 90.000000
_cell_angle_beta 90.000000
_cell_angle_gamma 90.000000
_cell_volume 3495.853116
_symmetry_space_group_name_H-M "I 21 21 21"
_symmetry_group_IT_number 24
_symmetry_cell_setting 'orthorhombic'
loop_
_space_group_symop_operation_xyz
x,y,z
-x,1/2-y,z
x,-y,1/2-z
1/2-x,y,-z
1/2+x,1/2+y,1/2+z
1/2-x,-y,1/2+z
1/2+x,1/2-y,-z
-x,1/2+y,1/2-z
loop_
_atom_site_type_symbol
_atom_site_label
_atom_site_fract_x
_atom_site_fract_y
_atom_site_fract_z
Si Si1 0.371677 0.234013 0.413261
Si Si2 0.802266 0.394672 0.436430
Si Si3 0.233283 0.403452 0.164764
Si Si4 0.947574 0.529995 0.867594
Si Si5 0.663115 0.129071 0.025360
Si Si6 0.270432 0.833723 0.242109
Si Si7 0.924344 0.020739 0.626949
Si Si8 0.161276 0.897720 0.565764
O O1 0.354214 0.192256 0.530519
O O2 0.426753 0.160901 0.379574
O O3 0.321447 0.203040 0.333691
O O4 0.388353 0.367140 0.407372
O O5 0.750000 0.340990 0.500000
O O6 0.782835 0.396634 0.316333
O O7 0.814054 0.526052 0.472147
O O8 0.224329 0.500000 0.250000
O O9 0.289656 0.430970 0.098308
O O10 0.240284 0.278348 0.213035
O O11 0.176782 0.405201 0.092702
O O12 0.955625 0.500000 0.750000
O O13 0.903924 0.437419 0.916474
O O14 0.011036 0.525031 0.915836
O O15 0.664332 0.266466 0.032864
O O16 0.601859 0.086203 0.063728
O O17 0.298710 0.915856 0.331454
O O18 0.919166 0.000000 0.750000
#
# Coordination Sequence:
#
# PCOD8164904 Si02
#       8
#     8   8   8   8   8   8   8   8
#     4  10  19  35  51  80 115 143 189 230 275 338
#     4   9  21  31  53  81 109 149 182 226 277 342
#     4  10  21  36  56  79 115 151 189 227 284 333
#     4  10  20  34  54  81 109 153 182 234 281 348
#     4  10  22  37  54  83 112 153 185 233 272 345
#     4  10  19  34  56  80 113 154 180 225 285 336
#     4  11  22  34  55  81 113 149 192 229 288 330
#     4  10  20  37  53  80 120 144 188 225 283 338
#
# _framework density 18.307404999999999
#
# number of rings (size 3 to 8) (size 9 to 14) (size 15 to 20)
#    0.000    2.000    1.250    3.000    5.250    0.500 
#    0.000    0.000    0.000    0.000    0.000    7.000 
#    0.000    0.000    0.000    0.000    0.000    0.000 
#
# Total GULP energy -396603.488016 kJ/mol
# GULP energy per Si atom -12393.859001 kJ/mol
# Density = 1.826574 g / cm^3
# Si number density = 18.307405 Si / 1000 Ang^3
#
#
#
# Elastic Constant Matrix: (Units=GPa)
#
#
# Indices 1 2 3 4 5 6 
#
# 1 104.1648 45.0530 53.9461 0.0000 0.0000 0.0000
# 2 45.0530 94.0453 52.5745 0.0000 0.0000 0.0000
# 3 53.9461 52.5745 88.6090 0.0000 0.0000 0.0000
# 4 0.0000 0.0000 0.0000 20.0906 0.0000 0.0000
# 5 0.0000 0.0000 0.0000 0.0000 23.6116 0.0000
# 6 0.0000 0.0000 0.0000 0.0000 0.0000 25.6711
#
#
#
# Elastic Compliance Matrix: (Units=1/GPa)
#
#
# Indices 1 2 3 4 5 6 
#
# 1 0.014574 -0.003025 -0.007078 0.000000 0.000000 0.000000
# 2 -0.003025 0.016538 -0.007971 0.000000 0.000000 0.000000
# 3 -0.007078 -0.007971 0.020324 0.000000 0.000000 0.000000
# 4 0.000000 0.000000 0.000000 0.049774 0.000000 0.000000
# 5 0.000000 0.000000 0.000000 0.000000 0.042352 0.000000
# 6 0.000000 0.000000 0.000000 0.000000 0.000000 0.038954
#
#
# Mechanical properties :
#
#
# Convention : Reuss Voigt Hill
#
# Bulk Modulus (GPa) = 65.40872 65.55183 65.48027
# Shear Modulus (GPa) = 22.34514 22.89105 22.61809
#
# Velocity S-wave (km/s) = 3.49743 3.53989 3.51873
# Velocity P-wave (km/s) = 7.21907 7.25202 7.23556
#
# Compressibility (1/GPa) = 0.01528848
#
# Stress axis : x y z
#
# Youngs Moduli (GPa) = 68.61429 60.46519 49.20211
#
# Poissons Ratio (x) = 0.18290 0.34826
# Poissons Ratio (y) = 0.20755 0.39220
# Poissons Ratio (z) = 0.48566 0.48198
#
# Static dielectric constant tensor:
#      x y z
#    x 3.632880 0.000000 0.000000 
#    y 0.000000 3.361070 0.000000 
#    z 0.000000 0.000000 3.491280 
# 
# 
# High freq. dielectric constant tensor:
#      x y z
#    x 1.696850 0.000000 0.000000 
#    y 0.000000 1.720550 0.000000 
#    z 0.000000 0.000000 1.688820 
# 
# From -- ./inp_files/20148.got.cif
#   From: 2010.03.12/outbox.cif.g09.slc.cpg/sg24_11_cif.got.tgz:20148.got - 2010.04.14 03:06:53.
