data_PCOD8164357
_publ_section_title
;
Structure prediction by ZEFSAII (Michael W. Deem and Ramdas Pophale) SiO2 
 PCOD8164357
Probable space group: I 2 2 2
;
_chemical_formula_sum "Si O2"
_cell_formula_units_Z 52
_cell_length_a 22.883546
_cell_length_b 18.984542
_cell_length_c 6.274662
_cell_angle_alpha 90.000000
_cell_angle_beta 90.000000
_cell_angle_gamma 90.000000
_cell_volume 2725.924253
_symmetry_space_group_name_H-M "I 2 2 2"
_symmetry_group_IT_number 23
_symmetry_cell_setting 'orthorhombic'
loop_
_space_group_symop_operation_xyz
x,y,z
-x,-y,z
x,-y,-z
-x,y,-z
1/2+x,1/2+y,1/2+z
1/2-x,1/2-y,1/2+z
1/2+x,1/2-y,1/2-z
1/2-x,1/2+y,1/2-z
loop_
_atom_site_type_symbol
_atom_site_label
_atom_site_fract_x
_atom_site_fract_y
_atom_site_fract_z
Si Si1 0.441769 0.226867 0.117760
Si Si2 0.783409 0.163789 0.172896
Si Si3 0.182346 0.684573 0.345791
Si Si4 0.260080 0.073838 0.437574
Si Si5 0.054205 0.866971 0.623606
Si Si6 0.000000 0.216086 0.000000
Si Si7 0.154643 0.066222 0.138489
O O1 0.385644 0.176949 0.085327
O O2 0.455893 0.233873 0.368455
O O3 0.500000 0.197012 0.000000
O O4 0.424182 0.303883 0.028345
O O5 0.805854 0.238887 0.249404
O O6 0.773295 0.111497 0.369002
O O7 0.721830 0.172488 0.052255
O O8 0.833278 0.132898 0.016164
O O9 0.193080 0.626641 0.163598
O O10 0.213900 0.048790 0.260641
O O11 0.291538 0.000000 0.500000
O O12 0.106191 0.919976 0.679012
O O13 0.000000 0.905350 0.500000
O O14 0.035795 0.834431 0.847132
O O15 0.133773 0.000000 0.000000
#
# Coordination Sequence:
#
# PCOD8164357 Si02
#       7
#     8   8   8   8   8   4   8
#     4   9  19  34  56  88 120 152 193 249 308 358
#     4  11  22  36  57  92 121 152 206 252 305 359
#     4  11  22  35  61  92 117 156 199 252 300 368
#     4  11  23  40  56  86 123 156 196 249 315 367
#     4   9  19  34  55  80 113 154 203 249 289 349
#     4   8  16  34  55  78 117 152 190 242 298 348
#     4  11  22  37  60  79 117 168 201 248 307 362
#
# _framework density 19.0761
#
# number of rings (size 3 to 8) (size 9 to 14) (size 15 to 20)
#    0.000    2.154    3.077    1.846    2.154    3.692 
#    0.000    0.385    0.000    0.923    0.000    8.077 
#    0.000    0.000    0.000    0.000    0.000    0.000 
#
# Total GULP energy -322313.891166 kJ/mol
# GULP energy per Si atom -12396.688122 kJ/mol
# Density = 1.903268 g / cm^3
# Si number density = 19.076100 Si / 1000 Ang^3
#
#
#
# Elastic Constant Matrix: (Units=GPa)
#
#
# Indices 1 2 3 4 5 6 
#
# 1 120.2386 36.3138 33.9928 0.0000 0.0000 0.0000
# 2 36.3138 99.4815 28.5365 0.0000 0.0000 0.0000
# 3 33.9928 28.5365 97.2949 0.0000 0.0000 0.0000
# 4 0.0000 0.0000 0.0000 20.3748 0.0000 0.0000
# 5 0.0000 0.0000 0.0000 0.0000 21.2894 0.0000
# 6 0.0000 0.0000 0.0000 0.0000 0.0000 13.8888
#
#
#
# Elastic Compliance Matrix: (Units=1/GPa)
#
#
# Indices 1 2 3 4 5 6 
#
# 1 0.009926 -0.002870 -0.002626 0.000000 0.000000 0.000000
# 2 -0.002870 0.011805 -0.002460 0.000000 0.000000 0.000000
# 3 -0.002626 -0.002460 0.011917 0.000000 0.000000 0.000000
# 4 0.000000 0.000000 0.000000 0.049080 0.000000 0.000000
# 5 0.000000 0.000000 0.000000 0.000000 0.046972 0.000000
# 6 0.000000 0.000000 0.000000 0.000000 0.000000 0.072001
#
#
# Mechanical properties :
#
#
# Convention : Reuss Voigt Hill
#
# Bulk Modulus (GPa) = 56.38095 57.18904 56.78499
# Shear Modulus (GPa) = 22.36886 25.65539 24.01213
#
# Velocity S-wave (km/s) = 3.42806 3.67126 3.55174
# Velocity P-wave (km/s) = 6.72969 6.92931 6.83023
#
# Compressibility (1/GPa) = 0.01773649
#
# Stress axis : x y z
#
# Youngs Moduli (GPa) = 100.74522 84.70735 83.91364
#
# Poissons Ratio (x) = 0.24311 0.22037
# Poissons Ratio (y) = 0.28914 0.20641
# Poissons Ratio (z) = 0.26458 0.20836
#
# Static dielectric constant tensor:
#      x y z
#    x 3.486970 0.000000 0.000000 
#    y 0.000000 3.282510 0.000000 
#    z 0.000000 0.000000 4.083660 
# 
# 
# High freq. dielectric constant tensor:
#      x y z
#    x 1.730070 0.000000 0.000000 
#    y 0.000000 1.709600 0.000000 
#    z 0.000000 0.000000 1.763200 
# 
# From -- ./inp_files/3943.got.cif
#   From: 2010.03.12/outbox.cif.g09.slc.cpg/sg23_2_cif.got.tgz:3943.got - 2010.04.14 02:50:06.
