data_PCOD8164482
_publ_section_title
;
Structure prediction by ZEFSAII (Michael W. Deem and Ramdas Pophale) SiO2 
 PCOD8164482
Probable space group: I 2 2 2
;
_chemical_formula_sum "Si O2"
_cell_formula_units_Z 32
_cell_length_a 5.139144
_cell_length_b 11.751697
_cell_length_c 20.723716
_cell_angle_alpha 90.000000
_cell_angle_beta 90.000000
_cell_angle_gamma 90.000000
_cell_volume 1251.581123
_symmetry_space_group_name_H-M "I 2 2 2"
_symmetry_group_IT_number 23
_symmetry_cell_setting 'orthorhombic'
loop_
_space_group_symop_operation_xyz
x,y,z
-x,-y,z
x,-y,-z
-x,y,-z
1/2+x,1/2+y,1/2+z
1/2-x,1/2-y,1/2+z
1/2+x,1/2-y,1/2-z
1/2-x,1/2+y,1/2-z
loop_
_atom_site_type_symbol
_atom_site_label
_atom_site_fract_x
_atom_site_fract_y
_atom_site_fract_z
Si Si1 0.904236 0.879228 0.096825
Si Si2 0.500000 0.195198 0.500000
Si Si3 0.000000 0.500000 0.910421
Si Si4 0.826177 0.096744 0.299642
Si Si5 0.917665 0.669214 0.324344
O O1 0.643613 0.901013 0.138531
O O2 0.137894 0.831729 0.140902
O O3 0.827432 0.784954 0.042159
O O4 0.000000 0.000000 0.067102
O O5 0.637358 0.103828 0.548352
O O6 0.222720 0.554795 0.867926
O O7 0.598414 0.122300 0.248614
O O8 0.006245 0.201164 0.317522
O O9 0.000000 0.000000 0.266210
#
# Coordination Sequence:
#
# PCOD8164482 Si02
#       5
#     8   4   4   8   8
#     4  12  27  50  81 120 160 215 268 336 412 485
#     4  11  25  54  78 116 163 219 280 328 406 485
#     4  11  26  52  82 114 162 217 276 346 400 497
#     4  12  28  48  79 122 163 215 273 343 426 481
#     4  12  28  49  80 120 164 205 271 339 415 495
#
# _framework density 25.567658000000002
#
# number of rings (size 3 to 8) (size 9 to 14) (size 15 to 20)
#    0.000    0.250    2.500    4.875   10.500    1.000 
#    4.500    3.750    0.000    0.000    0.000    0.000 
#    0.000    0.000    0.000    0.000    0.000    0.000 
#
# Total GULP energy -198255.076677 kJ/mol
# GULP energy per Si atom -12390.942292 kJ/mol
# Density = 2.550947 g / cm^3
# Si number density = 25.567658 Si / 1000 Ang^3
#
#
#
# Elastic Constant Matrix: (Units=GPa)
#
#
# Indices 1 2 3 4 5 6 
#
# 1 122.3601 34.6570 53.3548 0.0000 0.0000 0.0000
# 2 34.6570 194.7810 78.6750 0.0000 0.0000 0.0000
# 3 53.3548 78.6750 158.9677 0.0000 0.0000 0.0000
# 4 0.0000 0.0000 0.0000 50.4892 0.0000 0.0000
# 5 0.0000 0.0000 0.0000 0.0000 7.7281 0.0000
# 6 0.0000 0.0000 0.0000 0.0000 0.0000 49.0622
#
#
#
# Elastic Compliance Matrix: (Units=1/GPa)
#
#
# Indices 1 2 3 4 5 6 
#
# 1 0.009614 -0.000509 -0.002975 0.000000 0.000000 0.000000
# 2 -0.000509 0.006444 -0.003018 0.000000 0.000000 0.000000
# 3 -0.002975 -0.003018 0.008783 0.000000 0.000000 0.000000
# 4 0.000000 0.000000 0.000000 0.019806 0.000000 0.000000
# 5 0.000000 0.000000 0.000000 0.000000 0.129398 0.000000
# 6 0.000000 0.000000 0.000000 0.000000 0.000000 0.020382
#
#
# Mechanical properties :
#
#
# Convention : Reuss Voigt Hill
#
# Bulk Modulus (GPa) = 84.48605 89.94248 87.21426
# Shear Modulus (GPa) = 23.65444 42.08402 32.86923
#
# Velocity S-wave (km/s) = 3.04496 4.06148 3.58939
# Velocity P-wave (km/s) = 6.74375 7.56629 7.16683
#
# Compressibility (1/GPa) = 0.01183627
#
# Stress axis : x y z
#
# Youngs Moduli (GPa) = 104.01566 155.19205 113.85915
#
# Poissons Ratio (x) = 0.07899 0.33871
# Poissons Ratio (y) = 0.05294 0.34365
# Poissons Ratio (z) = 0.30943 0.46840
#
# Static dielectric constant tensor:
#      x y z
#    x 4.830730 0.000000 0.000000 
#    y 0.000000 5.156170 0.000000 
#    z 0.000000 0.000000 4.940910 
# 
# 
# High freq. dielectric constant tensor:
#      x y z
#    x 1.985080 0.000000 0.000000 
#    y 0.000000 2.062520 0.000000 
#    z 0.000000 0.000000 2.032470 
# 
# From -- ./inp_files/13766.got.cif
#   From: 2010.03.12/outbox.cif.g09.slc.cpg/sg23_7_cif.got.tgz:13766.got - 2010.04.14 02:50:06.
