data_PCOD8164209
_publ_section_title
;
Structure prediction by ZEFSAII (Michael W. Deem and Ramdas Pophale) SiO2 
 PCOD8164209
Probable space group: I 2 2 2
;
_chemical_formula_sum "Si O2"
_cell_formula_units_Z 28
_cell_length_a 13.648707
_cell_length_b 16.790625
_cell_length_c 5.490150
_cell_angle_alpha 90.000000
_cell_angle_beta 90.000000
_cell_angle_gamma 90.000000
_cell_volume 1258.179438
_symmetry_space_group_name_H-M "I 2 2 2"
_symmetry_group_IT_number 23
_symmetry_cell_setting 'orthorhombic'
loop_
_space_group_symop_operation_xyz
x,y,z
-x,-y,z
x,-y,-z
-x,y,-z
1/2+x,1/2+y,1/2+z
1/2-x,1/2-y,1/2+z
1/2+x,1/2-y,1/2-z
1/2-x,1/2+y,1/2-z
loop_
_atom_site_type_symbol
_atom_site_label
_atom_site_fract_x
_atom_site_fract_y
_atom_site_fract_z
Si Si1 0.763753 0.579465 0.625753
Si Si2 0.942519 0.686288 0.740501
Si Si3 0.873588 0.000000 0.500000
Si Si4 0.910429 0.861334 0.820171
O O1 0.808216 0.500000 0.500000
O O2 0.847362 0.631302 0.751400
O O3 0.692368 0.557271 0.841065
O O4 0.697877 0.628709 0.433873
O O5 0.908881 0.776663 0.683444
O O6 0.000000 0.656890 0.500000
O O7 0.000000 0.677072 0.000000
O O8 0.938341 0.938009 0.656057
O O9 0.000000 0.857122 0.000000
#
# Coordination Sequence:
#
# PCOD8164209 Si02
#       4
#     8   8   4   8
#     4  10  25  46  71 104 138 187 237 295 357 419
#     4  11  28  48  73 107 143 190 242 290 352 424
#     4  10  24  43  71 100 144 180 241 288 365 416
#     4  10  25  43  69 108 141 186 234 293 361 427
#
# _framework density 22.254377000000002
#
# number of rings (size 3 to 8) (size 9 to 14) (size 15 to 20)
#    0.000    1.714    0.000    0.000   20.000    6.857 
#    0.000    0.000    0.000    0.000    0.000    0.000 
#    0.000    0.000    0.000    0.000    0.000    0.000 
#
# Total GULP energy -173531.027559 kJ/mol
# GULP energy per Si atom -12395.073397 kJ/mol
# Density = 2.220372 g / cm^3
# Si number density = 22.254377 Si / 1000 Ang^3
#
#
#
# Elastic Constant Matrix: (Units=GPa)
#
#
# Indices 1 2 3 4 5 6 
#
# 1 100.0206 60.8962 25.3508 0.0000 0.0000 0.0000
# 2 60.8962 127.5605 18.1940 0.0000 0.0000 0.0000
# 3 25.3508 18.1940 90.1480 0.0000 0.0000 0.0000
# 4 0.0000 0.0000 0.0000 23.6081 0.0000 0.0000
# 5 0.0000 0.0000 0.0000 0.0000 8.1709 0.0000
# 6 0.0000 0.0000 0.0000 0.0000 0.0000 37.0034
#
#
#
# Elastic Compliance Matrix: (Units=1/GPa)
#
#
# Indices 1 2 3 4 5 6 
#
# 1 0.014754 -0.006643 -0.002808 0.000000 0.000000 0.000000
# 2 -0.006643 0.011063 -0.000365 0.000000 0.000000 0.000000
# 3 -0.002808 -0.000365 0.011956 0.000000 0.000000 0.000000
# 4 0.000000 0.000000 0.000000 0.042358 0.000000 0.000000
# 5 0.000000 0.000000 0.000000 0.000000 0.122386 0.000000
# 6 0.000000 0.000000 0.000000 0.000000 0.000000 0.027025
#
#
# Mechanical properties :
#
#
# Convention : Reuss Voigt Hill
#
# Bulk Modulus (GPa) = 55.12313 58.51235 56.81774
# Shear Modulus (GPa) = 19.59088 27.97568 23.78328
#
# Velocity S-wave (km/s) = 2.97023 3.54939 3.27265
# Velocity P-wave (km/s) = 6.04867 6.56865 6.31401
#
# Compressibility (1/GPa) = 0.01814121
#
# Stress axis : x y z
#
# Youngs Moduli (GPa) = 67.77724 90.39371 83.63857
#
# Poissons Ratio (x) = 0.60048 0.23489
# Poissons Ratio (y) = 0.45024 0.03050
# Poissons Ratio (z) = 0.19034 0.03296
#
# Static dielectric constant tensor:
#      x y z
#    x 3.851020 0.000000 0.000000 
#    y 0.000000 4.598520 0.000000 
#    z 0.000000 0.000000 4.183610 
# 
# 
# High freq. dielectric constant tensor:
#      x y z
#    x 1.873550 0.000000 0.000000 
#    y 0.000000 1.889690 0.000000 
#    z 0.000000 0.000000 1.886490 
# 
# From -- ./inp_files/2070.got.cif
#   From: 2010.03.12/outbox.cif.g09.slc.cpg/sg23_2_cif.got.tgz:2070.got - 2010.04.14 02:50:06.
