data_PCOD8164031
_publ_section_title
;
Structure prediction by ZEFSAII (Michael W. Deem and Ramdas Pophale) SiO2 
 PCOD8164031
Probable space group: I 2 2 2
;
_chemical_formula_sum "Si O2"
_cell_formula_units_Z 34
_cell_length_a 8.594381
_cell_length_b 23.437528
_cell_length_c 7.971292
_cell_angle_alpha 90.000000
_cell_angle_beta 90.000000
_cell_angle_gamma 90.000000
_cell_volume 1605.665680
_symmetry_space_group_name_H-M "I 2 2 2"
_symmetry_group_IT_number 23
_symmetry_cell_setting 'orthorhombic'
loop_
_space_group_symop_operation_xyz
x,y,z
-x,-y,z
x,-y,-z
-x,y,-z
1/2+x,1/2+y,1/2+z
1/2-x,1/2-y,1/2+z
1/2+x,1/2-y,1/2-z
1/2-x,1/2+y,1/2-z
loop_
_atom_site_type_symbol
_atom_site_label
_atom_site_fract_x
_atom_site_fract_y
_atom_site_fract_z
Si Si1 0.329348 0.828692 0.058675
Si Si2 0.287119 0.909761 0.327721
Si Si3 0.000000 0.500000 0.000000
Si Si4 0.500000 0.368702 0.000000
Si Si5 0.000000 0.680462 0.000000
Si Si6 0.721723 0.713103 0.789887
O O1 0.268271 0.889958 0.132401
O O2 0.334447 0.778617 0.200424
O O3 0.500000 0.843120 0.000000
O O4 0.225419 0.806860 0.903185
O O5 0.387337 0.965943 0.371683
O O6 0.379956 0.857365 0.400467
O O7 0.114265 0.912311 0.403887
O O8 0.401886 0.328312 0.877767
O O9 0.894855 0.715686 0.869328
#
# Coordination Sequence:
#
# PCOD8164031 Si02
#       6
#     8   8   2   4   4   8
#     4  12  24  38  62  99 141 188 223 266 316 415
#     4  10  22  41  68  96 125 169 232 274 346 388
#     4  10  24  50  78  92 120 180 224 302 348 398
#     4  10  22  41  66 106 130 173 216 278 332 416
#     4   9  18  37  62  88 132 178 219 257 320 418
#     4  11  22  36  61  97 145 179 216 256 333 396
#
# _framework density 21.175017
#
# number of rings (size 3 to 8) (size 9 to 14) (size 15 to 20)
#    0.000    1.412    3.529    2.824    0.000    1.412 
#    0.000    0.588    0.000    0.000    6.118    0.000 
#    0.000    0.000    0.000    0.000    0.000    0.000 
#
# Total GULP energy -210602.462049 kJ/mol
# GULP energy per Si atom -12388.380121 kJ/mol
# Density = 2.112682 g / cm^3
# Si number density = 21.175017 Si / 1000 Ang^3
#
#
#
# Elastic Constant Matrix: (Units=GPa)
#
#
# Indices 1 2 3 4 5 6 
#
# 1 136.2482 47.3171 45.9674 -0.0005 -0.0017 0.0123
# 2 47.3171 98.9225 59.7821 0.0004 0.0050 -0.0024
# 3 45.9674 59.7821 125.1676 -0.0014 -0.0126 0.0276
# 4 -0.0005 0.0004 -0.0014 23.2898 -0.0003 0.0035
# 5 -0.0017 0.0050 -0.0126 -0.0003 30.1925 -0.0072
# 6 0.0123 -0.0024 0.0276 0.0035 -0.0072 82.3997
#
#
#
# Elastic Compliance Matrix: (Units=1/GPa)
#
#
# Indices 1 2 3 4 5 6 
#
# 1 0.009072 -0.003270 -0.001770 0.000000 0.000000 -0.000001
# 2 -0.003270 0.015389 -0.006149 -0.000001 -0.000005 0.000003
# 3 -0.001770 -0.006149 0.011576 0.000001 0.000006 -0.000004
# 4 0.000000 -0.000001 0.000001 0.042937 0.000000 -0.000002
# 5 0.000000 -0.000005 0.000006 0.000000 0.033121 0.000003
# 6 -0.000001 0.000003 -0.000004 -0.000002 0.000003 0.012136
#
#
# Mechanical properties :
#
#
# Convention : Reuss Voigt Hill
#
# Bulk Modulus (GPa) = 73.20915 74.05237 73.63076
# Shear Modulus (GPa) = 33.07681 40.99451 37.03566
#
# Velocity S-wave (km/s) = 3.95659 4.40476 4.18667
# Velocity P-wave (km/s) = 7.45125 7.80491 7.63013
#
# Compressibility (1/GPa) = 0.01365949
#
# Stress axis : x y z
#
# Youngs Moduli (GPa) = 110.22584 64.98077 86.38307
#
# Poissons Ratio (x) = 0.21247 0.15290
# Poissons Ratio (y) = 0.36042 0.53120
# Poissons Ratio (z) = 0.19511 0.39959
#
# Static dielectric constant tensor:
#      x y z
#    x 4.328710 0.000010 0.000250 
#    y 0.000010 3.556510 -0.000010 
#    z 0.000250 -0.000010 2.697280 
# 
# 
# High freq. dielectric constant tensor:
#      x y z
#    x 1.850320 0.000000 0.000000 
#    y 0.000000 1.789000 0.000000 
#    z 0.000000 0.000000 1.835910 
# 
# From -- ./inp_files/6735.got.cif
#   From: 2010.03.12/outbox.cif.g09.slc.cpg/sg23_4_cif.got.tgz:6735.got - 2010.04.14 02:50:06.
