data_PCOD8164607
_publ_section_title
;
Structure prediction by ZEFSAII (Michael W. Deem and Ramdas Pophale) SiO2 
 PCOD8164607
Probable space group: I 21 21 21
;
_chemical_formula_sum "Si O2"
_cell_formula_units_Z 60
_cell_length_a 12.195666
_cell_length_b 7.529693
_cell_length_c 30.320512
_cell_angle_alpha 90.000000
_cell_angle_beta 90.000000
_cell_angle_gamma 90.000000
_cell_volume 2784.321123
_symmetry_space_group_name_H-M "I 21 21 21"
_symmetry_group_IT_number 24
_symmetry_cell_setting 'orthorhombic'
loop_
_space_group_symop_operation_xyz
x,y,z
-x,1/2-y,z
x,-y,1/2-z
1/2-x,y,-z
1/2+x,1/2+y,1/2+z
1/2-x,-y,1/2+z
1/2+x,1/2-y,-z
-x,1/2+y,1/2-z
loop_
_atom_site_type_symbol
_atom_site_label
_atom_site_fract_x
_atom_site_fract_y
_atom_site_fract_z
Si Si1 0.396832 0.025362 0.798822
Si Si2 0.411539 0.104302 0.437747
Si Si3 0.229959 0.357178 0.876183
Si Si4 0.359036 0.561719 0.702995
Si Si5 0.836690 0.899212 0.464179
Si Si6 0.204789 0.044204 0.384937
Si Si7 0.500000 0.750000 0.402528
Si Si8 0.918366 0.499651 0.468537
O O1 0.383618 0.233211 0.805283
O O2 0.524043 0.962304 0.802113
O O3 0.333356 0.901878 0.835167
O O4 0.347736 0.000000 0.750000
O O5 0.500000 0.250000 0.425136
O O6 0.317077 0.134748 0.401328
O O7 0.456899 0.903661 0.434535
O O8 0.374243 0.113542 0.489130
O O9 0.269427 0.479376 0.834985
O O10 0.275150 0.457185 0.919308
O O11 0.285164 0.165984 0.879600
O O12 0.098021 0.332559 0.873011
O O13 0.308491 0.500000 0.750000
O O14 0.750000 0.963543 0.500000
O O15 0.861164 0.690960 0.469038
O O16 0.950066 0.003799 0.469879
O O17 0.115127 0.092535 0.422346
#
# Coordination Sequence:
#
# PCOD8164607 Si02
#       8
#     8   8   8   8   8   8   4   8
#     4   9  17  32  56  82 111 148 184 233 300 367
#     4  11  22  37  57  82 114 156 200 242 291 351
#     4   9  17  31  54  81 108 146 192 239 286 352
#     4   9  17  31  53  84 114 141 182 233 299 360
#     4  10  17  27  51  85 110 145 199 240 283 345
#     4   9  18  34  56  79 108 153 194 237 291 353
#     4  10  20  38  58  78 110 156 196 238 296 340
#     4  10  18  31  52  77 115 153 191 239 291 346
#
# _framework density 21.549239
#
# number of rings (size 3 to 8) (size 9 to 14) (size 15 to 20)
#    0.000    2.400    0.000    5.200    0.000    3.200 
#    2.400    4.000    5.867    7.200    1.733    0.000 
#    0.000    0.000    0.000    0.000    0.000    0.000 
#
# Total GULP energy -371682.350721 kJ/mol
# GULP energy per Si atom -12389.411691 kJ/mol
# Density = 2.150019 g / cm^3
# Si number density = 21.549239 Si / 1000 Ang^3
#
#
#
# Elastic Constant Matrix: (Units=GPa)
#
#
# Indices 1 2 3 4 5 6 
#
# 1 139.4733 19.0437 99.4037 0.0000 0.0000 0.0000
# 2 19.0437 16.6727 12.2474 0.0000 0.0000 0.0000
# 3 99.4037 12.2474 220.3255 0.0000 0.0000 0.0000
# 4 0.0000 0.0000 0.0000 21.1247 0.0000 0.0000
# 5 0.0000 0.0000 0.0000 0.0000 28.7731 0.0000
# 6 0.0000 0.0000 0.0000 0.0000 0.0000 18.6316
#
#
#
# Elastic Compliance Matrix: (Units=1/GPa)
#
#
# Indices 1 2 3 4 5 6 
#
# 1 0.012019 -0.010160 -0.004858 0.000000 0.000000 0.000000
# 2 -0.010160 0.071120 0.000630 0.000000 0.000000 0.000000
# 3 -0.004858 0.000630 0.006695 0.000000 0.000000 0.000000
# 4 0.000000 0.000000 0.000000 0.047338 0.000000 0.000000
# 5 0.000000 0.000000 0.000000 0.000000 0.034755 0.000000
# 6 0.000000 0.000000 0.000000 0.000000 0.000000 0.053672
#
#
# Mechanical properties :
#
#
# Convention : Reuss Voigt Hill
#
# Bulk Modulus (GPa) = 16.37740 70.87347 43.62543
# Shear Modulus (GPa) = 18.19982 30.09102 24.14542
#
# Velocity S-wave (km/s) = 2.90930 3.74088 3.35098
# Velocity P-wave (km/s) = 4.34763 7.18466 5.93806
#
# Compressibility (1/GPa) = 0.06105976
#
# Stress axis : x y z
#
# Youngs Moduli (GPa) = 83.19867 14.06073 149.35492
#
# Poissons Ratio (x) = 0.14286 0.72557
# Poissons Ratio (y) = 0.84531 -0.09417
# Poissons Ratio (z) = 0.40418 -0.00887
#
# Static dielectric constant tensor:
#      x y z
#    x 3.990450 0.000000 0.000000 
#    y 0.000000 3.475440 0.000000 
#    z 0.000000 0.000000 4.282040 
# 
# 
# High freq. dielectric constant tensor:
#      x y z
#    x 1.835640 0.000000 0.000000 
#    y 0.000000 1.818830 0.000000 
#    z 0.000000 0.000000 1.845520 
# 
# From -- ./inp_files/38573.got.cif
#   From: 2010.03.12/outbox.cif.g09.slc.cpg/sg24_20_cif.got.tgz:38573.got - 2010.04.14 03:06:53.
