data_PCOD8164052
_publ_section_title
;
Structure prediction by ZEFSAII (Michael W. Deem and Ramdas Pophale) SiO2 
 PCOD8164052
Probable space group: I 2 2 2
;
_chemical_formula_sum "Si O2"
_cell_formula_units_Z 48
_cell_length_a 4.992103
_cell_length_b 30.081379
_cell_length_c 14.613315
_cell_angle_alpha 90.000000
_cell_angle_beta 90.000000
_cell_angle_gamma 90.000000
_cell_volume 2194.471903
_symmetry_space_group_name_H-M "I 2 2 2"
_symmetry_group_IT_number 23
_symmetry_cell_setting 'orthorhombic'
loop_
_space_group_symop_operation_xyz
x,y,z
-x,-y,z
x,-y,-z
-x,y,-z
1/2+x,1/2+y,1/2+z
1/2-x,1/2-y,1/2+z
1/2+x,1/2-y,1/2-z
1/2-x,1/2+y,1/2-z
loop_
_atom_site_type_symbol
_atom_site_label
_atom_site_fract_x
_atom_site_fract_y
_atom_site_fract_z
Si Si1 0.163292 0.734762 0.634528
Si Si2 0.000000 0.662382 0.500000
Si Si3 0.671945 0.789398 0.655739
Si Si4 0.504449 0.051920 0.693918
Si Si5 0.015588 0.051850 0.813696
Si Si6 0.731713 0.122040 0.439286
Si Si7 0.500000 0.395611 0.500000
O O1 0.391144 0.771804 0.614904
O O2 0.184426 0.716600 0.736420
O O3 0.163433 0.690853 0.574251
O O4 0.886997 0.757931 0.608217
O O5 0.758302 0.631815 0.534116
O O6 0.765641 0.840125 0.637697
O O7 0.790103 0.066562 0.738201
O O8 0.407841 0.077906 0.603050
O O9 0.297872 0.064574 0.771872
O O10 0.500000 0.000000 0.667414
O O11 0.033976 0.074409 0.911316
O O12 0.000000 0.000000 0.832726
O O13 0.500000 0.143877 0.500000
O O14 0.000000 0.111633 0.500000
#
# Coordination Sequence:
#
# PCOD8164052 Si02
#       7
#     8   4   8   8   8   8   4
#     4  10  23  43  63  91 128 178 217 270 328 399
#     4  12  26  40  63 100 134 174 217 274 346 382
#     4  10  23  42  66  89 127 174 222 267 332 390
#     4  10  23  45  69  95 133 177 214 270 340 401
#     4  10  22  42  68  96 133 180 222 268 327 391
#     4  12  26  42  68 104 127 168 219 279 335 394
#     4  12  25  38  64 102 136 174 224 274 321 396
#
# _framework density 21.873142000000001
#
# number of rings (size 3 to 8) (size 9 to 14) (size 15 to 20)
#    0.000    1.333    0.000    4.250    8.167    0.333 
#    0.000    4.167    0.000    0.000    0.000    0.000 
#    0.000    0.000    0.000    0.000    0.000    0.000 
#
# Total GULP energy -297347.412190 kJ/mol
# GULP energy per Si atom -12389.475508 kJ/mol
# Density = 2.182336 g / cm^3
# Si number density = 21.873142 Si / 1000 Ang^3
#
#
#
# Elastic Constant Matrix: (Units=GPa)
#
#
# Indices 1 2 3 4 5 6 
#
# 1 116.6840 43.1565 40.1981 0.0000 0.0000 0.0000
# 2 43.1565 96.1043 55.1050 0.0000 0.0000 0.0000
# 3 40.1981 55.1050 69.0777 0.0001 -0.0001 0.0001
# 4 0.0000 0.0000 0.0001 -9.4316 0.0001 0.0000
# 5 0.0000 0.0000 -0.0001 0.0001 24.7171 0.0000
# 6 0.0000 0.0000 0.0001 0.0000 0.0000 27.2080
#
#
#
# Elastic Compliance Matrix: (Units=1/GPa)
#
#
# Indices 1 2 3 4 5 6 
#
# 1 0.010997 -0.002339 -0.004534 0.000000 0.000000 0.000000
# 2 -0.002339 0.019674 -0.014334 0.000000 0.000000 0.000000
# 3 -0.004534 -0.014334 0.028549 0.000000 0.000000 0.000000
# 4 0.000000 0.000000 0.000000 -0.106026 0.000000 0.000000
# 5 0.000000 0.000000 0.000000 0.000000 0.040458 0.000000
# 6 0.000000 0.000000 0.000000 0.000000 0.000000 0.036754
#
#
# Mechanical properties :
#
#
# Convention : Reuss Voigt Hill
#
# Bulk Modulus (GPa) = 59.49540 62.08724 60.79132
# Shear Modulus (GPa) = 63.75801 18.05912 40.90857
#
# Velocity S-wave (km/s) = 5.40484 2.87649 4.32935
# Velocity P-wave (km/s) = 8.13689 6.28324 7.26939
#
# Compressibility (1/GPa) = 0.01680802
#
# Stress axis : x y z
#
# Youngs Moduli (GPa) = 90.93330 50.82756 35.02717
#
# Poissons Ratio (x) = 0.11887 0.15881
# Poissons Ratio (y) = 0.21266 0.50207
# Poissons Ratio (z) = 0.41228 0.72855
#
# Static dielectric constant tensor:
#      x y z
#    x 4.266390 0.000000 0.000000 
#    y 0.000000 4.376520 0.000000 
#    z 0.000000 0.000000 3.800820 
# 
# 
# High freq. dielectric constant tensor:
#      x y z
#    x 1.878180 0.000000 0.000000 
#    y 0.000000 1.864680 0.000000 
#    z 0.000000 0.000000 1.863090 
# 
# From -- ./inp_files/19257.got.cif
#   From: 2010.03.12/outbox.cif.g09.slc.cpg/sg23_10_cif.got.tgz:19257.got - 2010.04.14 02:50:06.
