data_PCOD8164659
_publ_section_title
;
Structure prediction by ZEFSAII (Michael W. Deem and Ramdas Pophale) SiO2 
 PCOD8164659
Probable space group: I 21 21 21
;
_chemical_formula_sum "Si O2"
_cell_formula_units_Z 56
_cell_length_a 13.076313
_cell_length_b 21.189078
_cell_length_c 12.769565
_cell_angle_alpha 90.000000
_cell_angle_beta 90.000000
_cell_angle_gamma 90.000000
_cell_volume 3538.127428
_symmetry_space_group_name_H-M "I 21 21 21"
_symmetry_group_IT_number 24
_symmetry_cell_setting 'orthorhombic'
loop_
_space_group_symop_operation_xyz
x,y,z
-x,1/2-y,z
x,-y,1/2-z
1/2-x,y,-z
1/2+x,1/2+y,1/2+z
1/2-x,-y,1/2+z
1/2+x,1/2-y,-z
-x,1/2+y,1/2-z
loop_
_atom_site_type_symbol
_atom_site_label
_atom_site_fract_x
_atom_site_fract_y
_atom_site_fract_z
Si Si1 0.737913 0.941041 0.879734
Si Si2 0.061439 0.534544 0.351564
Si Si3 0.650205 0.154668 0.762568
Si Si4 0.500000 0.250000 0.838208
Si Si5 0.994239 0.920793 0.566227
Si Si6 0.586373 0.000000 0.250000
Si Si7 0.672868 0.182249 0.093238
Si Si8 0.869574 0.690864 0.517641
O O1 0.672306 0.879636 0.846571
O O2 0.672585 0.003723 0.862658
O O3 0.843899 0.950949 0.816813
O O4 0.750000 0.928776 0.000000
O O5 0.005786 0.500000 0.250000
O O6 0.085684 0.607675 0.335565
O O7 0.999576 0.533702 0.462052
O O8 0.577329 0.215312 0.758141
O O9 0.763152 0.172746 0.802059
O O10 0.431888 0.202953 0.909683
O O11 0.892102 0.878909 0.565490
O O12 0.090157 0.873449 0.571772
O O13 0.989088 0.963593 0.670244
O O14 0.750000 0.194074 0.000000
O O15 0.609673 0.248444 0.094378
O O16 0.750000 0.678681 0.500000
#
# Coordination Sequence:
#
# PCOD8164659 Si02
#       8
#     8   8   8   4   8   4   8   8
#     4  11  20  31  48  78 108 136 166 206 262 312
#     4  10  18  27  48  77 106 134 162 205 257 306
#     4  11  19  29  48  78 110 128 164 204 265 305
#     4  12  18  30  52  80 102 136 164 210 268 300
#     4  12  20  32  48  75 116 132 167 212 255 318
#     4  12  22  28  52  76 104 150 162 208 268 294
#     4  11  16  27  49  78 106 130 152 201 260 310
#     4  11  20  31  51  77 105 134 164 207 266 305
#
# _framework density 15.827582
#
# number of rings (size 3 to 8) (size 9 to 14) (size 15 to 20)
#    0.000    0.857   12.143    0.000    0.000    0.000 
#    0.000    0.000    1.571    1.714    0.000    0.000 
#    0.000    0.000    0.000    0.000    0.000    0.000 
#
# Total GULP energy -346870.444012 kJ/mol
# GULP energy per Si atom -12388.230143 kJ/mol
# Density = 1.579156 g / cm^3
# Si number density = 15.827582 Si / 1000 Ang^3
#
#
#
# Elastic Constant Matrix: (Units=GPa)
#
#
# Indices 1 2 3 4 5 6 
#
# 1 54.4994 26.5642 21.6311 0.0001 0.0000 0.0000
# 2 26.5642 81.0804 40.9698 0.0004 -0.0002 0.0000
# 3 21.6311 40.9698 96.1617 0.0008 -0.0005 0.0003
# 4 0.0001 0.0004 0.0008 23.3939 -0.0004 0.0002
# 5 0.0000 -0.0002 -0.0005 -0.0004 15.5998 -0.0001
# 6 0.0000 0.0000 0.0003 0.0002 -0.0001 31.1507
#
#
#
# Elastic Compliance Matrix: (Units=1/GPa)
#
#
# Indices 1 2 3 4 5 6 
#
# 1 0.022270 -0.006072 -0.002422 0.000000 0.000000 0.000000
# 2 -0.006072 0.017373 -0.006036 0.000000 0.000000 0.000000
# 3 -0.002422 -0.006036 0.013516 0.000000 0.000000 0.000000
# 4 0.000000 0.000000 0.000000 0.042746 0.000001 0.000000
# 5 0.000000 0.000000 0.000000 0.000001 0.064104 0.000000
# 6 0.000000 0.000000 0.000000 0.000000 0.000000 0.032102
#
#
# Mechanical properties :
#
#
# Convention : Reuss Voigt Hill
#
# Bulk Modulus (GPa) = 41.49807 45.56354 43.53081
# Shear Modulus (GPa) = 21.81466 23.53396 22.67431
#
# Velocity S-wave (km/s) = 3.71653 3.86021 3.78905
# Velocity P-wave (km/s) = 6.68525 6.97985 6.83413
#
# Compressibility (1/GPa) = 0.02409751
#
# Stress axis : x y z
#
# Youngs Moduli (GPa) = 44.90331 57.56145 73.98851
#
# Poissons Ratio (x) = 0.34953 0.17923
# Poissons Ratio (y) = 0.27266 0.44658
# Poissons Ratio (z) = 0.10878 0.34743
#
# Static dielectric constant tensor:
#      x y z
#    x 2.820080 0.000000 0.000000 
#    y 0.000000 3.194690 0.000000 
#    z 0.000000 0.000000 3.105260 
# 
# 
# High freq. dielectric constant tensor:
#      x y z
#    x 1.581590 0.000000 0.000000 
#    y 0.000000 1.605570 0.000000 
#    z 0.000000 0.000000 1.585810 
# 
# From -- ./inp_files/26720.got.cif
#   From: 2010.03.12/outbox.cif.g09.slc.cpg/sg24_14_cif.got.tgz:26720.got - 2010.04.14 03:06:53.
