data_PCOD8164288
_publ_section_title
;
Structure prediction by ZEFSAII (Michael W. Deem and Ramdas Pophale) SiO2 
 PCOD8164288
Probable space group: I 2 2 2
;
_chemical_formula_sum "Si O2"
_cell_formula_units_Z 64
_cell_length_a 9.643114
_cell_length_b 10.796233
_cell_length_c 29.940849
_cell_angle_alpha 90.000000
_cell_angle_beta 90.000000
_cell_angle_gamma 90.000000
_cell_volume 3117.120998
_symmetry_space_group_name_H-M "I 2 2 2"
_symmetry_group_IT_number 23
_symmetry_cell_setting 'orthorhombic'
loop_
_space_group_symop_operation_xyz
x,y,z
-x,-y,z
x,-y,-z
-x,y,-z
1/2+x,1/2+y,1/2+z
1/2-x,1/2-y,1/2+z
1/2+x,1/2-y,1/2-z
1/2-x,1/2+y,1/2-z
loop_
_atom_site_type_symbol
_atom_site_label
_atom_site_fract_x
_atom_site_fract_y
_atom_site_fract_z
Si Si1 0.444203 0.864075 0.136672
Si Si2 0.694961 0.737242 0.782856
Si Si3 0.790883 0.784259 0.609195
Si Si4 0.477797 0.359907 0.280587
Si Si5 0.162600 0.034244 0.354132
Si Si6 0.016691 0.139169 0.116009
Si Si7 0.161606 0.139286 0.508443
Si Si8 0.239935 0.260114 0.921042
O O1 0.378688 0.835179 0.184698
O O2 0.564163 0.766375 0.126979
O O3 0.327054 0.856461 0.098163
O O4 0.500000 0.000000 0.137544
O O5 0.604674 0.719329 0.738451
O O6 0.836447 0.795668 0.763692
O O7 0.712633 0.606166 0.809491
O O8 0.675608 0.679419 0.613967
O O9 0.801345 0.820330 0.557800
O O10 0.753929 0.905480 0.639106
O O11 0.500000 0.500000 0.263034
O O12 0.466452 0.356143 0.333422
O O13 0.198291 0.118230 0.396997
O O14 0.000000 0.000000 0.353193
O O15 0.922341 0.235618 0.088358
O O16 0.000000 0.000000 0.096895
O O17 0.242783 0.228338 0.474095
O O18 0.000000 0.154006 0.500000
O O19 0.212288 0.000000 0.500000
#
# Coordination Sequence:
#
# PCOD8164288 Si02
#       8
#     8   8   8   8   8   8   8   8
#     4  11  23  41  67  95 132 182 228 263 331 401
#     4  11  25  43  69 100 134 177 218 287 336 403
#     4  12  24  39  72 103 127 185 221 270 345 403
#     4  11  26  45  68  98 136 176 224 279 338 405
#     4  11  19  40  66 100 133 168 214 277 342 394
#     4  11  26  48  66  90 139 186 224 271 335 403
#     4  11  21  38  67 102 136 167 221 283 339 399
#     4  11  21  43  66  94 139 172 221 281 334 394
#
# _framework density 20.531766999999999
#
# number of rings (size 3 to 8) (size 9 to 14) (size 15 to 20)
#    0.000    0.875    7.500    1.125    3.500    1.000 
#    0.000    5.625    0.000    0.000    0.000    0.000 
#    0.000    0.000    0.000    0.000    0.000    0.000 
#
# Total GULP energy -396830.249787 kJ/mol
# GULP energy per Si atom -12400.945306 kJ/mol
# Density = 2.048504 g / cm^3
# Si number density = 20.531767 Si / 1000 Ang^3
#
#
#
# Elastic Constant Matrix: (Units=GPa)
#
#
# Indices 1 2 3 4 5 6 
#
# 1 96.8412 28.0696 12.9143 0.0000 0.0000 0.0000
# 2 28.0696 104.3215 29.0385 0.0000 0.0000 0.0000
# 3 12.9143 29.0385 47.7404 0.0000 0.0000 0.0000
# 4 0.0000 0.0000 0.0000 13.7778 0.0000 0.0000
# 5 0.0000 0.0000 0.0000 0.0000 30.4869 0.0000
# 6 0.0000 0.0000 0.0000 0.0000 0.0000 40.0530
#
#
#
# Elastic Compliance Matrix: (Units=1/GPa)
#
#
# Indices 1 2 3 4 5 6 
#
# 1 0.011283 -0.002632 -0.001451 0.000000 0.000000 0.000000
# 2 -0.002632 0.012153 -0.006680 0.000000 0.000000 0.000000
# 3 -0.001451 -0.006680 0.025403 0.000000 0.000000 0.000000
# 4 0.000000 0.000000 0.000000 0.072580 0.000000 0.000000
# 5 0.000000 0.000000 0.000000 0.000000 0.032801 0.000000
# 6 0.000000 0.000000 0.000000 0.000000 0.000000 0.024967
#
#
# Mechanical properties :
#
#
# Convention : Reuss Voigt Hill
#
# Bulk Modulus (GPa) = 36.61454 43.21643 39.91549
# Shear Modulus (GPa) = 23.83019 28.78893 26.30956
#
# Velocity S-wave (km/s) = 3.41053 3.74861 3.58356
# Velocity P-wave (km/s) = 5.77761 6.31113 6.05025
#
# Compressibility (1/GPa) = 0.02731155
#
# Stress axis : x y z
#
# Youngs Moduli (GPa) = 88.63245 82.28122 39.36599
#
# Poissons Ratio (x) = 0.21655 0.05713
# Poissons Ratio (y) = 0.23326 0.26298
# Poissons Ratio (z) = 0.12863 0.54968
#
# Static dielectric constant tensor:
#      x y z
#    x 3.594920 0.000000 0.000000 
#    y 0.000000 4.056690 0.000000 
#    z 0.000000 0.000000 3.599730 
# 
# 
# High freq. dielectric constant tensor:
#      x y z
#    x 1.799580 0.000000 0.000000 
#    y 0.000000 1.806380 0.000000 
#    z 0.000000 0.000000 1.797990 
# 
# From -- ./inp_files/30340.got.cif
#   From: 2010.03.12/outbox.cif.g09.slc.cpg/sg23_16_cif.got.tgz:30340.got - 2010.04.14 02:50:06.
