data_PCOD8164853
_publ_section_title
;
Structure prediction by ZEFSAII (Michael W. Deem and Ramdas Pophale) SiO2 
 PCOD8164853
Probable space group: I 21 21 21
;
_chemical_formula_sum "Si O2"
_cell_formula_units_Z 56
_cell_length_a 14.028034
_cell_length_b 22.833566
_cell_length_c 9.057167
_cell_angle_alpha 90.000000
_cell_angle_beta 90.000000
_cell_angle_gamma 90.000000
_cell_volume 2901.101526
_symmetry_space_group_name_H-M "I 21 21 21"
_symmetry_group_IT_number 24
_symmetry_cell_setting 'orthorhombic'
loop_
_space_group_symop_operation_xyz
x,y,z
-x,1/2-y,z
x,-y,1/2-z
1/2-x,y,-z
1/2+x,1/2+y,1/2+z
1/2-x,-y,1/2+z
1/2+x,1/2-y,-z
-x,1/2+y,1/2-z
loop_
_atom_site_type_symbol
_atom_site_label
_atom_site_fract_x
_atom_site_fract_y
_atom_site_fract_z
Si Si1 0.550018 0.380433 0.076954
Si Si2 0.392281 0.769644 0.585618
Si Si3 0.840629 0.843186 0.923408
Si Si4 0.949982 0.619567 0.923047
Si Si5 0.351223 1.000000 0.422772
Si Si6 0.892281 0.730356 0.085617
Si Si7 0.340629 0.656814 0.423408
O O1 0.562432 0.367919 0.250001
O O2 0.587197 0.443899 0.029270
O O3 0.438302 0.376237 0.033183
O O4 0.613787 0.333337 0.989712
O O5 0.500000 0.750000 0.598275
O O6 0.346606 0.772262 0.750000
O O7 0.338657 0.723343 0.482838
O O8 0.824819 0.842509 0.750000
O O9 0.938302 0.876237 0.966818
O O10 0.750000 0.875708 0.000000
O O11 0.838657 0.776657 0.982837
O O12 0.912804 0.556100 0.970731
O O13 0.886212 0.666662 0.010290
O O14 0.250000 0.000000 0.500000
O O15 0.331814 0.000000 0.250000
O O16 0.000000 0.750000 0.098273
O O17 0.250000 0.624292 0.500000
#
# Coordination Sequence:
#
# PCOD8164853 Si02
#       7
#     8   8   8   8   8   8   8
#     4   9  19  36  55  75 105 142 176 214 261 311
#     4   9  17  30  50  76 105 136 171 211 254 302
#     4  10  19  32  52  78 108 141 175 212 258 312
#     4   9  19  36  55  75 105 142 176 214 261 311
#     4  10  22  40  59  78 100 132 175 218 261 310
#     4   9  17  30  50  76 105 136 171 211 254 302
#     4  10  19  32  52  78 108 141 175 212 258 312
#
# _framework density 19.303013
#
# number of rings (size 3 to 8) (size 9 to 14) (size 15 to 20)
#    0.000    2.571    0.000    1.714    0.000    6.857 
#    0.000    3.571    0.000    0.000    0.000    0.000 
#    0.000    0.000    0.000    0.000    0.000    0.000 
#
# Total GULP energy -347135.727552 kJ/mol
# GULP energy per Si atom -12397.704555 kJ/mol
# Density = 1.925908 g / cm^3
# Si number density = 19.303013 Si / 1000 Ang^3
#
#
#
# Elastic Constant Matrix: (Units=GPa)
#
#
# Indices 1 2 3 4 5 6 
#
# 1 116.4856 56.0804 46.4463 0.0000 -0.0003 -0.0001
# 2 56.0804 135.4859 43.4533 -0.0006 0.0002 0.0001
# 3 46.4463 43.4533 82.4656 -0.0074 0.0020 0.0001
# 4 0.0000 -0.0006 -0.0074 22.4183 0.0007 0.0001
# 5 -0.0003 0.0002 0.0020 0.0007 33.7050 0.0001
# 6 -0.0001 0.0001 0.0001 0.0001 0.0001 20.4670
#
#
#
# Elastic Compliance Matrix: (Units=1/GPa)
#
#
# Indices 1 2 3 4 5 6 
#
# 1 0.012277 -0.003446 -0.005099 -0.000002 0.000000 0.000000
# 2 -0.003446 0.009849 -0.003249 -0.000001 0.000000 0.000000
# 3 -0.005099 -0.003249 0.016710 0.000005 -0.000001 0.000000
# 4 -0.000002 -0.000001 0.000005 0.044606 -0.000001 0.000000
# 5 0.000000 0.000000 -0.000001 -0.000001 0.029669 0.000000
# 6 0.000000 0.000000 0.000000 0.000000 0.000000 0.048859
#
#
# Mechanical properties :
#
#
# Convention : Reuss Voigt Hill
#
# Bulk Modulus (GPa) = 65.58057 69.59969 67.59013
# Shear Modulus (GPa) = 26.22728 27.88188 27.05458
#
# Velocity S-wave (km/s) = 3.69007 3.80469 3.74782
# Velocity P-wave (km/s) = 7.22520 7.44551 7.33618
#
# Compressibility (1/GPa) = 0.01524842
#
# Stress axis : x y z
#
# Youngs Moduli (GPa) = 81.45329 101.52954 59.84525
#
# Poissons Ratio (x) = 0.34992 0.30513
# Poissons Ratio (y) = 0.28073 0.19442
# Poissons Ratio (z) = 0.41530 0.32984
#
# Static dielectric constant tensor:
#      x y z
#    x 3.775540 0.000000 0.000000 
#    y 0.000000 3.428510 0.000000 
#    z 0.000000 0.000000 3.650890 
# 
# 
# High freq. dielectric constant tensor:
#      x y z
#    x 1.758890 0.000000 0.000000 
#    y 0.000000 1.724700 0.000000 
#    z 0.000000 0.000000 1.755600 
# 
# From -- ./inp_files/13170.got.cif
#   From: 2010.03.12/outbox.cif.g09.slc.cpg/sg24_7_cif.got.tgz:13170.got - 2010.04.14 03:06:53.
