data_PCOD8164287
_publ_section_title
;
Structure prediction by ZEFSAII (Michael W. Deem and Ramdas Pophale) SiO2 
 PCOD8164287
Probable space group: I 2 2 2
;
_chemical_formula_sum "Si O2"
_cell_formula_units_Z 64
_cell_length_a 9.728229
_cell_length_b 22.692976
_cell_length_c 18.276798
_cell_angle_alpha 90.000000
_cell_angle_beta 90.000000
_cell_angle_gamma 90.000000
_cell_volume 4034.831019
_symmetry_space_group_name_H-M "I 2 2 2"
_symmetry_group_IT_number 23
_symmetry_cell_setting 'orthorhombic'
loop_
_space_group_symop_operation_xyz
x,y,z
-x,-y,z
x,-y,-z
-x,y,-z
1/2+x,1/2+y,1/2+z
1/2-x,1/2-y,1/2+z
1/2+x,1/2-y,1/2-z
1/2-x,1/2+y,1/2-z
loop_
_atom_site_type_symbol
_atom_site_label
_atom_site_fract_x
_atom_site_fract_y
_atom_site_fract_z
Si Si1 0.159462 0.803766 0.274904
Si Si2 0.524426 0.564669 0.585160
Si Si3 0.343641 0.252627 0.080231
Si Si4 0.338681 0.694044 0.227937
Si Si5 0.478903 0.068898 0.915248
Si Si6 0.160300 0.753308 0.581868
Si Si7 0.276435 0.633726 0.640463
Si Si8 0.769657 0.368378 0.357000
O O1 0.176945 0.807807 0.363354
O O2 0.243797 0.746654 0.253864
O O3 0.224508 0.858420 0.229495
O O4 0.999050 0.795638 0.253312
O O5 0.500000 0.500000 0.619975
O O6 0.500000 0.561585 0.500000
O O7 0.428678 0.613598 0.621084
O O8 0.679968 0.584034 0.599552
O O9 0.502368 0.232380 0.082337
O O10 0.256374 0.195239 0.103693
O O11 0.297917 0.274504 0.999689
O O12 0.319029 0.692297 0.139178
O O13 0.281102 0.636895 0.271894
O O14 0.326089 0.083902 0.888409
O O15 0.576868 0.106264 0.861725
O O16 0.500000 0.000000 0.904282
O O17 0.500000 0.087370 0.000000
O O18 0.250544 0.696704 0.602927
#
# Coordination Sequence:
#
# PCOD8164287 Si02
#       8
#     8   8   8   8   8   8   8   8
#     4   9  18  30  46  69  93 122 155 187 229 281
#     4  11  22  32  43  62  91 123 154 193 236 272
#     4   9  16  28  48  69  90 118 153 186 220 270
#     4   9  18  30  46  69  93 122 155 187 229 281
#     4  11  22  34  49  68  89 123 172 207 226 266
#     4   9  16  28  48  69  90 118 153 186 220 270
#     4  11  19  32  47  65  93 124 157 192 235 277
#     4  11  19  32  47  65  93 124 157 192 235 277
#
# _framework density 15.861878000000001
#
# number of rings (size 3 to 8) (size 9 to 14) (size 15 to 20)
#    0.000    2.000    2.500    3.000    1.750    2.000 
#    0.000    0.000    0.000    0.000    0.000    0.000 
#    0.000    6.000    0.000    0.000    0.000    0.000 
#
# Total GULP energy -396494.416785 kJ/mol
# GULP energy per Si atom -12390.450525 kJ/mol
# Density = 1.582578 g / cm^3
# Si number density = 15.861878 Si / 1000 Ang^3
#
#
#
# Elastic Constant Matrix: (Units=GPa)
#
#
# Indices 1 2 3 4 5 6 
#
# 1 45.5067 11.4912 23.3487 0.0000 0.0000 0.0000
# 2 11.4912 45.9939 41.1785 0.0000 0.0000 0.0000
# 3 23.3487 41.1785 127.2638 0.0000 0.0000 0.0000
# 4 0.0000 0.0000 0.0000 19.9584 0.0000 0.0000
# 5 0.0000 0.0000 0.0000 0.0000 22.1203 0.0000
# 6 0.0000 0.0000 0.0000 0.0000 0.0000 5.5788
#
#
#
# Elastic Compliance Matrix: (Units=1/GPa)
#
#
# Indices 1 2 3 4 5 6 
#
# 1 0.024541 -0.002957 -0.003546 0.000000 0.000000 0.000000
# 2 -0.002957 0.030965 -0.009477 0.000000 0.000000 0.000000
# 3 -0.003546 -0.009477 0.011575 0.000000 0.000000 0.000000
# 4 0.000000 0.000000 0.000000 0.050104 0.000000 0.000000
# 5 0.000000 0.000000 0.000000 0.000000 0.045207 0.000000
# 6 0.000000 0.000000 0.000000 0.000000 0.000000 0.179251
#
#
# Mechanical properties :
#
#
# Convention : Reuss Voigt Hill
#
# Bulk Modulus (GPa) = 28.47228 41.20014 34.83621
# Shear Modulus (GPa) = 12.97658 19.04789 16.01224
#
# Velocity S-wave (km/s) = 2.86335 3.46910 3.18068
# Velocity P-wave (km/s) = 5.37780 6.48667 5.95809
#
# Compressibility (1/GPa) = 0.03512188
#
# Stress axis : x y z
#
# Youngs Moduli (GPa) = 40.74867 32.29404 86.39575
#
# Poissons Ratio (x) = 0.09549 0.30633
# Poissons Ratio (y) = 0.12049 0.81877
# Poissons Ratio (z) = 0.14448 0.30605
#
# Static dielectric constant tensor:
#      x y z
#    x 3.088520 0.000000 0.000000 
#    y 0.000000 2.899740 0.000000 
#    z 0.000000 0.000000 3.794640 
# 
# 
# High freq. dielectric constant tensor:
#      x y z
#    x 1.618290 0.000000 0.000000 
#    y 0.000000 1.566770 0.000000 
#    z 0.000000 0.000000 1.608480 
# 
# From -- ./inp_files/12192.got.cif
#   From: 2010.03.12/outbox.cif.g09.slc.cpg/sg23_7_cif.got.tgz:12192.got - 2010.04.14 02:50:06.
