data_PCOD8164129
_publ_section_title
;
Structure prediction by ZEFSAII (Michael W. Deem and Ramdas Pophale) SiO2 
 PCOD8164129
Probable space group: I 2 2 2
;
_chemical_formula_sum "Si O2"
_cell_formula_units_Z 56
_cell_length_a 8.484950
_cell_length_b 22.846778
_cell_length_c 13.017886
_cell_angle_alpha 90.000000
_cell_angle_beta 90.000000
_cell_angle_gamma 90.000000
_cell_volume 2523.566265
_symmetry_space_group_name_H-M "I 2 2 2"
_symmetry_group_IT_number 23
_symmetry_cell_setting 'orthorhombic'
loop_
_space_group_symop_operation_xyz
x,y,z
-x,-y,z
x,-y,-z
-x,y,-z
1/2+x,1/2+y,1/2+z
1/2-x,1/2-y,1/2+z
1/2+x,1/2-y,1/2-z
1/2-x,1/2+y,1/2-z
loop_
_atom_site_type_symbol
_atom_site_label
_atom_site_fract_x
_atom_site_fract_y
_atom_site_fract_z
Si Si1 0.869146 0.675399 0.319079
Si Si2 0.745047 0.563278 0.019616
Si Si3 0.648778 0.608175 0.809870
Si Si4 0.500000 0.104525 0.000000
Si Si5 0.847388 0.284116 0.188313
Si Si6 0.175623 0.073153 0.744311
Si Si7 0.500000 0.841551 0.500000
Si Si8 0.654462 0.031492 0.825490
O O1 0.893767 0.647436 0.431458
O O2 0.719932 0.718801 0.317248
O O3 0.814426 0.620991 0.249393
O O4 0.033456 0.705305 0.283884
O O5 0.655174 0.552746 0.126632
O O6 0.863526 0.616149 0.038248
O O7 0.826047 0.500000 0.000000
O O8 0.629765 0.582437 0.925494
O O9 0.689183 0.676732 0.809851
O O10 0.499343 0.598570 0.734498
O O11 0.803791 0.580340 0.757658
O O12 0.382147 0.061750 0.064439
O O13 0.950102 0.297617 0.088810
O O14 0.209507 0.019102 0.823252
O O15 0.500000 0.000000 0.781728
#
# Coordination Sequence:
#
# PCOD8164129 Si02
#       8
#     8   8   8   4   8   8   4   8
#     4  12  26  48  76  95 140 186 243 297 353 420
#     4  11  22  36  68 106 149 182 222 287 365 436
#     4  11  24  43  68 108 146 184 232 292 360 426
#     4  12  27  50  72 104 136 198 243 288 356 424
#     4  11  24  48  72 101 134 184 235 297 357 424
#     4  12  24  42  70 110 145 187 228 295 355 426
#     4  10  23  42  66 104 140 173 238 288 352 434
#     4  12  24  44  75  97 145 189 238 288 346 420
#
# _framework density 22.190819000000001
#
# number of rings (size 3 to 8) (size 9 to 14) (size 15 to 20)
#    0.000    0.571    5.714    2.143    2.000    1.714 
#    7.714    0.000    3.143    0.000    0.000    0.000 
#    0.000    0.000    0.000    0.000    0.000    0.000 
#
# Total GULP energy -346948.153301 kJ/mol
# GULP energy per Si atom -12391.005475 kJ/mol
# Density = 2.214031 g / cm^3
# Si number density = 22.190819 Si / 1000 Ang^3
#
#
#
# Elastic Constant Matrix: (Units=GPa)
#
#
# Indices 1 2 3 4 5 6 
#
# 1 90.3716 28.9694 42.6210 0.0000 0.0000 0.0000
# 2 28.9694 121.3677 51.1902 0.0000 0.0000 0.0000
# 3 42.6210 51.1902 115.2092 -0.0002 -0.0001 0.0001
# 4 0.0000 0.0000 -0.0002 33.4379 0.0001 0.0000
# 5 0.0000 0.0000 -0.0001 0.0001 27.2812 0.0000
# 6 0.0000 0.0000 0.0001 0.0000 0.0000 38.5763
#
#
#
# Elastic Compliance Matrix: (Units=1/GPa)
#
#
# Indices 1 2 3 4 5 6 
#
# 1 0.013590 -0.001382 -0.004413 0.000000 0.000000 0.000000
# 2 -0.001382 0.010280 -0.004056 0.000000 0.000000 0.000000
# 3 -0.004413 -0.004056 0.012115 0.000000 0.000000 0.000000
# 4 0.000000 0.000000 0.000000 0.029906 0.000000 0.000000
# 5 0.000000 0.000000 0.000000 0.000000 0.036655 0.000000
# 6 0.000000 0.000000 0.000000 0.000000 0.000000 0.025923
#
#
# Mechanical properties :
#
#
# Convention : Reuss Voigt Hill
#
# Bulk Modulus (GPa) = 61.42122 63.61217 62.51669
# Shear Modulus (GPa) = 32.55201 33.47027 33.01114
#
# Velocity S-wave (km/s) = 3.83419 3.88789 3.86113
# Velocity P-wave (km/s) = 6.88041 6.99160 6.93623
#
# Compressibility (1/GPa) = 0.01628102
#
# Stress axis : x y z
#
# Youngs Moduli (GPa) = 73.58378 97.27370 82.54310
#
# Poissons Ratio (x) = 0.13447 0.36429
# Poissons Ratio (y) = 0.10172 0.33483
# Poissons Ratio (z) = 0.32475 0.39458
#
# Static dielectric constant tensor:
#      x y z
#    x 3.898480 0.000000 0.000000 
#    y 0.000000 4.087450 0.000000 
#    z 0.000000 0.000000 3.990520 
# 
# 
# High freq. dielectric constant tensor:
#      x y z
#    x 1.868520 0.000000 0.000000 
#    y 0.000000 1.884550 0.000000 
#    z 0.000000 0.000000 1.859770 
# 
# From -- ./inp_files/20227.got.cif
#   From: 2010.03.12/outbox.cif.g09.slc.cpg/sg23_11_cif.got.tgz:20227.got - 2010.04.14 02:50:06.
