data_PCOD8164493
_publ_section_title
;
Structure prediction by ZEFSAII (Michael W. Deem and Ramdas Pophale) SiO2 
 PCOD8164493
Probable space group: I 2 2 2
;
_chemical_formula_sum "Si O2"
_cell_formula_units_Z 64
_cell_length_a 12.716731
_cell_length_b 24.098243
_cell_length_c 9.339044
_cell_angle_alpha 90.000000
_cell_angle_beta 90.000000
_cell_angle_gamma 90.000000
_cell_volume 2861.958194
_symmetry_space_group_name_H-M "I 2 2 2"
_symmetry_group_IT_number 23
_symmetry_cell_setting 'orthorhombic'
loop_
_space_group_symop_operation_xyz
x,y,z
-x,-y,z
x,-y,-z
-x,y,-z
1/2+x,1/2+y,1/2+z
1/2-x,1/2-y,1/2+z
1/2+x,1/2-y,1/2-z
1/2-x,1/2+y,1/2-z
loop_
_atom_site_type_symbol
_atom_site_label
_atom_site_fract_x
_atom_site_fract_y
_atom_site_fract_z
Si Si1 0.210663 0.297436 0.024117
Si Si2 0.968918 0.560636 0.667390
Si Si3 0.937185 0.228807 0.359255
Si Si4 0.257871 0.884703 0.728310
Si Si5 0.537949 0.437768 0.147339
Si Si6 0.558019 0.637717 0.353945
Si Si7 0.935359 0.328072 0.719266
Si Si8 0.752874 0.821716 0.981342
O O1 0.315794 0.284686 0.114812
O O2 0.120401 0.309516 0.136977
O O3 0.213445 0.347801 0.910956
O O4 0.189327 0.237718 0.951116
O O5 0.848085 0.573897 0.710191
O O6 0.000000 0.500000 0.728266
O O7 0.000000 0.563177 0.500000
O O8 0.038096 0.607698 0.743417
O O9 0.985443 0.187013 0.244481
O O10 0.000000 0.215391 0.500000
O O11 0.958044 0.292037 0.303397
O O12 0.160241 0.924476 0.683168
O O13 0.232835 0.841307 0.854961
O O14 0.500000 0.500000 0.129355
O O15 0.468216 0.419971 0.281413
O O16 0.500000 0.407203 0.000000
O O17 0.500000 0.645813 0.500000
O O18 0.683844 0.636563 0.378145
O O19 0.867350 0.319228 0.573037
#
# Coordination Sequence:
#
# PCOD8164493 Si02
#       8
#     8   8   8   8   8   8   8   8
#     4  12  26  43  72 107 149 202 236 298 390 452
#     4  11  26  51  79 106 141 197 257 319 374 436
#     4  12  24  42  70 100 150 192 238 302 373 458
#     4  12  26  51  75 108 152 195 255 308 383 463
#     4  11  27  52  76 105 147 201 254 314 386 453
#     4  12  24  41  67 107 145 185 246 307 371 452
#     4  12  25  46  72 107 148 197 252 304 371 458
#     4  12  24  42  69 111 148 196 243 297 377 464
#
# _framework density 22.362311999999999
#
# number of rings (size 3 to 8) (size 9 to 14) (size 15 to 20)
#    0.000    0.250    5.000    4.500    1.750    1.750 
#    2.250    0.625    0.000    0.000    0.000    0.000 
#    0.000    0.000    0.000    0.000    0.000    0.000 
#
# Total GULP energy -396591.690120 kJ/mol
# GULP energy per Si atom -12393.490316 kJ/mol
# Density = 2.231141 g / cm^3
# Si number density = 22.362312 Si / 1000 Ang^3
#
#
#
# Elastic Constant Matrix: (Units=GPa)
#
#
# Indices 1 2 3 4 5 6 
#
# 1 122.5372 50.7028 49.7137 -0.0003 -0.0001 -0.0001
# 2 50.7028 129.7291 46.7231 -0.0005 -0.0003 -0.0002
# 3 49.7137 46.7231 119.3214 -0.0032 -0.0003 0.0000
# 4 -0.0003 -0.0005 -0.0032 36.3458 0.0006 0.0004
# 5 -0.0001 -0.0003 -0.0003 0.0006 39.2620 0.0000
# 6 -0.0001 -0.0002 0.0000 0.0004 0.0000 34.8127
#
#
#
# Elastic Compliance Matrix: (Units=1/GPa)
#
#
# Indices 1 2 3 4 5 6 
#
# 1 0.010745 -0.003012 -0.003297 0.000000 0.000000 0.000000
# 2 -0.003012 0.009818 -0.002590 0.000000 0.000000 0.000000
# 3 -0.003297 -0.002590 0.010769 0.000001 0.000000 0.000000
# 4 0.000000 0.000000 0.000001 0.027513 0.000000 0.000000
# 5 0.000000 0.000000 0.000000 0.000000 0.025470 0.000000
# 6 0.000000 0.000000 0.000000 0.000000 0.000000 0.028725
#
#
# Mechanical properties :
#
#
# Convention : Reuss Voigt Hill
#
# Bulk Modulus (GPa) = 73.88909 73.98520 73.93714
# Shear Modulus (GPa) = 36.94153 37.04732 36.99442
#
# Velocity S-wave (km/s) = 4.06883 4.07466 4.07175
# Velocity P-wave (km/s) = 7.42882 7.43597 7.43240
#
# Compressibility (1/GPa) = 0.01353380
#
# Stress axis : x y z
#
# Youngs Moduli (GPa) = 93.06875 101.85143 92.86298
#
# Poissons Ratio (x) = 0.30676 0.30620
# Poissons Ratio (y) = 0.28031 0.24049
# Poissons Ratio (z) = 0.30687 0.26376
#
# Static dielectric constant tensor:
#      x y z
#    x 3.634120 0.000010 0.000000 
#    y 0.000010 4.240250 0.000000 
#    z 0.000000 0.000000 4.445930 
# 
# 
# High freq. dielectric constant tensor:
#      x y z
#    x 1.888000 0.000000 0.000000 
#    y 0.000000 1.873330 0.000000 
#    z 0.000000 0.000000 1.898620 
# 
# From -- ./inp_files/10338.got.cif
#   From: 2010.03.12/outbox.cif.g09.slc.cpg/sg23_6_cif.got.tgz:10338.got - 2010.04.14 02:50:06.
