data_PCOD8164791
_publ_section_title
;
Structure prediction by ZEFSAII (Michael W. Deem and Ramdas Pophale) SiO2 
 PCOD8164791
Probable space group: I 21 21 21
;
_chemical_formula_sum "Si O2"
_cell_formula_units_Z 60
_cell_length_a 17.296047
_cell_length_b 11.158583
_cell_length_c 14.752512
_cell_angle_alpha 90.000000
_cell_angle_beta 90.000000
_cell_angle_gamma 90.000000
_cell_volume 2847.225611
_symmetry_space_group_name_H-M "I 21 21 21"
_symmetry_group_IT_number 24
_symmetry_cell_setting 'orthorhombic'
loop_
_space_group_symop_operation_xyz
x,y,z
-x,1/2-y,z
x,-y,1/2-z
1/2-x,y,-z
1/2+x,1/2+y,1/2+z
1/2-x,-y,1/2+z
1/2+x,1/2-y,-z
-x,1/2+y,1/2-z
loop_
_atom_site_type_symbol
_atom_site_label
_atom_site_fract_x
_atom_site_fract_y
_atom_site_fract_z
Si Si1 0.540422 0.508348 0.465564
Si Si2 0.397615 0.122156 0.202706
Si Si3 0.180944 0.004122 0.072455
Si Si4 0.761680 0.278659 0.164435
Si Si5 0.250000 0.612226 0.500000
Si Si6 0.611787 0.275040 0.385559
Si Si7 0.119408 0.435071 0.495813
Si Si8 0.706533 0.249058 0.634426
O O1 0.536448 0.587690 0.371568
O O2 0.604674 0.566007 0.530158
O O3 0.578489 0.378320 0.448526
O O4 0.460660 0.506213 0.523671
O O5 0.329533 0.196623 0.156469
O O6 0.424271 0.208357 0.285142
O O7 0.365173 0.000000 0.250000
O O8 0.199266 0.091979 0.155437
O O9 0.163053 0.872631 0.112816
O O10 0.250000 0.004001 0.000000
O O11 0.782920 0.189221 0.083130
O O12 0.790326 0.219871 0.258508
O O13 0.180640 0.528553 0.535402
O O14 0.585280 0.146884 0.422717
O O15 0.705127 0.269086 0.398084
O O16 0.159401 0.359312 0.414358
#
# Coordination Sequence:
#
# PCOD8164791 Si02
#       8
#     8   8   8   8   4   8   8   8
#     4  11  21  35  66  97 132 164 211 285 344 397
#     4   9  18  36  63 102 128 153 207 288 356 388
#     4  12  18  36  71 101 121 160 219 285 357 389
#     4  11  22  40  68  96 126 169 229 286 338 409
#     4  12  26  46  62  86 128 190 228 260 342 436
#     4  10  18  37  62  93 129 163 219 273 328 403
#     4  12  24  42  62  93 134 188 225 255 344 427
#     4  11  21  38  69  99 124 166 227 284 324 416
#
# _framework density 21.073143999999999
#
# number of rings (size 3 to 8) (size 9 to 14) (size 15 to 20)
#    0.000    1.067    6.000    2.400    0.000    0.533 
#    0.000   14.667    8.800    0.000    0.000    0.000 
#    0.000    0.000    0.000    0.000    0.000    0.000 
#
# Total GULP energy -371661.724619 kJ/mol
# GULP energy per Si atom -12388.724154 kJ/mol
# Density = 2.102518 g / cm^3
# Si number density = 21.073144 Si / 1000 Ang^3
#
#
#
# Elastic Constant Matrix: (Units=GPa)
#
#
# Indices 1 2 3 4 5 6 
#
# 1 110.9572 10.4494 43.7308 0.0000 0.0000 0.0000
# 2 10.4494 56.3977 38.1846 0.0000 0.0000 0.0000
# 3 43.7308 38.1846 97.5257 0.0000 0.0000 0.0000
# 4 0.0000 0.0000 0.0000 28.8062 0.0000 0.0000
# 5 0.0000 0.0000 0.0000 0.0000 19.2881 0.0000
# 6 0.0000 0.0000 0.0000 0.0000 0.0000 10.5406
#
#
#
# Elastic Compliance Matrix: (Units=1/GPa)
#
#
# Indices 1 2 3 4 5 6 
#
# 1 0.011077 0.001783 -0.005665 0.000000 0.000000 0.000000
# 2 0.001783 0.024414 -0.010359 0.000000 0.000000 0.000000
# 3 -0.005665 -0.010359 0.016850 0.000000 0.000000 0.000000
# 4 0.000000 0.000000 0.000000 0.034715 0.000000 0.000000
# 5 0.000000 0.000000 0.000000 0.000000 0.051846 0.000000
# 6 0.000000 0.000000 0.000000 0.000000 0.000000 0.094871
#
#
# Mechanical properties :
#
#
# Convention : Reuss Voigt Hill
#
# Bulk Modulus (GPa) = 41.91093 49.95668 45.93380
# Shear Modulus (GPa) = 18.50428 23.22802 20.86615
#
# Velocity S-wave (km/s) = 2.96649 3.32363 3.15012
# Velocity P-wave (km/s) = 5.62715 6.20375 5.92247
#
# Compressibility (1/GPa) = 0.02386013
#
# Stress axis : x y z
#
# Youngs Moduli (GPa) = 90.27395 40.95978 59.34781
#
# Poissons Ratio (x) = -0.07305 0.33623
# Poissons Ratio (y) = -0.16099 0.61476
# Poissons Ratio (z) = 0.51144 0.42429
#
# Static dielectric constant tensor:
#      x y z
#    x 3.665690 0.000000 0.000000 
#    y 0.000000 3.811280 0.000000 
#    z 0.000000 0.000000 3.903510 
# 
# 
# High freq. dielectric constant tensor:
#      x y z
#    x 1.807050 0.000000 0.000000 
#    y 0.000000 1.817870 0.000000 
#    z 0.000000 0.000000 1.816710 
# 
# From -- ./inp_files/27201.got.cif
#   From: 2010.03.12/outbox.cif.g09.slc.cpg/sg24_14_cif.got.tgz:27201.got - 2010.04.14 03:06:53.
