data_PCOD8164551
_publ_section_title
;
Structure prediction by ZEFSAII (Michael W. Deem and Ramdas Pophale) SiO2 
 PCOD8164551
Probable space group: I 2 2 2
;
_chemical_formula_sum "Si O2"
_cell_formula_units_Z 28
_cell_length_a 20.423455
_cell_length_b 5.113871
_cell_length_c 11.199453
_cell_angle_alpha 90.000000
_cell_angle_beta 90.000000
_cell_angle_gamma 90.000000
_cell_volume 1169.703509
_symmetry_space_group_name_H-M "I 2 2 2"
_symmetry_group_IT_number 23
_symmetry_cell_setting 'orthorhombic'
loop_
_space_group_symop_operation_xyz
x,y,z
-x,-y,z
x,-y,-z
-x,y,-z
1/2+x,1/2+y,1/2+z
1/2-x,1/2-y,1/2+z
1/2+x,1/2-y,1/2-z
1/2-x,1/2+y,1/2-z
loop_
_atom_site_type_symbol
_atom_site_label
_atom_site_fract_x
_atom_site_fract_y
_atom_site_fract_z
Si Si1 0.252866 0.682880 0.329526
Si Si2 0.137738 0.000000 0.000000
Si Si3 0.544653 0.250101 0.677946
Si Si4 0.615532 0.752003 0.072455
O O1 0.235657 0.407797 0.267506
O O2 0.319063 0.660377 0.405344
O O3 0.194230 0.755847 0.418826
O O4 0.093103 0.785684 0.066190
O O5 0.500000 0.500000 0.692748
O O6 0.587264 0.225108 0.796152
O O7 0.500000 0.000000 0.654203
O O8 0.590568 0.500000 0.000000
O O9 0.589903 0.000000 0.000000
#
# Coordination Sequence:
#
# PCOD8164551 Si02
#       4
#     8   4   8   8
#     4  12  27  47  77 116 157 198 251 329 399 462
#     4  12  29  50  86 112 161 202 264 326 402 466
#     4  12  30  52  75 113 159 211 264 315 385 473
#     4  12  26  49  80 114 151 204 268 323 393 456
#
# _framework density 23.937691000000001
#
# number of rings (size 3 to 8) (size 9 to 14) (size 15 to 20)
#    0.000    0.000    4.286    3.857    4.000    8.000 
#    0.000    0.000    0.000    0.000    0.000    0.000 
#    0.000    0.000    0.000    0.000    0.000    0.000 
#
# Total GULP energy -173737.365333 kJ/mol
# GULP energy per Si atom -12409.811809 kJ/mol
# Density = 2.388321 g / cm^3
# Si number density = 23.937691 Si / 1000 Ang^3
#
#
#
# Elastic Constant Matrix: (Units=GPa)
#
#
# Indices 1 2 3 4 5 6 
#
# 1 130.2938 61.6339 65.1619 0.0000 0.0000 0.0000
# 2 61.6339 183.8306 75.8117 0.0000 0.0000 0.0000
# 3 65.1619 75.8117 163.9212 0.0000 0.0000 0.0000
# 4 0.0000 0.0000 0.0000 43.9973 0.0000 0.0000
# 5 0.0000 0.0000 0.0000 0.0000 -10.9647 0.0000
# 6 0.0000 0.0000 0.0000 0.0000 0.0000 12.1601
#
#
#
# Elastic Compliance Matrix: (Units=1/GPa)
#
#
# Indices 1 2 3 4 5 6 
#
# 1 0.010233 -0.002167 -0.003066 0.000000 0.000000 0.000000
# 2 -0.002167 0.007181 -0.002460 0.000000 0.000000 0.000000
# 3 -0.003066 -0.002460 0.008457 0.000000 0.000000 0.000000
# 4 0.000000 0.000000 0.000000 0.022729 0.000000 0.000000
# 5 0.000000 0.000000 0.000000 0.000000 -0.091201 0.000000
# 6 0.000000 0.000000 0.000000 0.000000 0.000000 0.082236
#
#
# Mechanical properties :
#
#
# Convention : Reuss Voigt Hill
#
# Bulk Modulus (GPa) = 95.36258 98.14005 96.75132
# Shear Modulus (GPa) = 85.45082 27.40109 56.42595
#
# Velocity S-wave (km/s) = 5.98119 3.38699 4.86037
# Velocity P-wave (km/s) = 9.36076 7.50884 8.48548
#
# Compressibility (1/GPa) = 0.01048629
#
# Stress axis : x y z
#
# Youngs Moduli (GPa) = 97.72212 139.26501 118.24802
#
# Poissons Ratio (x) = 0.30172 0.36253
# Poissons Ratio (y) = 0.21172 0.29085
# Poissons Ratio (z) = 0.29960 0.34255
#
# Static dielectric constant tensor:
#      x y z
#    x 4.490280 0.000000 0.000000 
#    y 0.000000 5.386960 0.000000 
#    z 0.000000 0.000000 4.182950 
# 
# 
# High freq. dielectric constant tensor:
#      x y z
#    x 1.960140 0.000000 0.000000 
#    y 0.000000 1.960630 0.000000 
#    z 0.000000 0.000000 1.969160 
# 
# From -- ./inp_files/17724.got.cif
#   From: 2010.03.12/outbox.cif.g09.slc.cpg/sg23_9_cif.got.tgz:17724.got - 2010.04.14 02:50:06.
