data_PCOD8164151
_publ_section_title
;
Structure prediction by ZEFSAII (Michael W. Deem and Ramdas Pophale) SiO2 
 PCOD8164151
Probable space group: I 2 2 2
;
_chemical_formula_sum "Si O2"
_cell_formula_units_Z 46
_cell_length_a 23.802840
_cell_length_b 8.182185
_cell_length_c 11.550175
_cell_angle_alpha 90.000000
_cell_angle_beta 90.000000
_cell_angle_gamma 90.000000
_cell_volume 2249.503310
_symmetry_space_group_name_H-M "I 2 2 2"
_symmetry_group_IT_number 23
_symmetry_cell_setting 'orthorhombic'
loop_
_space_group_symop_operation_xyz
x,y,z
-x,-y,z
x,-y,-z
-x,y,-z
1/2+x,1/2+y,1/2+z
1/2-x,1/2-y,1/2+z
1/2+x,1/2-y,1/2-z
1/2-x,1/2+y,1/2-z
loop_
_atom_site_type_symbol
_atom_site_label
_atom_site_fract_x
_atom_site_fract_y
_atom_site_fract_z
Si Si1 0.561015 0.083571 0.239251
Si Si2 0.760364 0.500000 0.500000
Si Si3 0.661085 0.383640 0.638364
Si Si4 0.901506 0.805528 0.079379
Si Si5 0.558438 0.687521 0.964162
Si Si6 0.854835 0.324366 0.364174
Si Si7 0.000000 0.000000 0.000000
O O1 0.589865 0.129155 0.361945
O O2 0.561816 0.258028 0.170284
O O3 0.500000 0.000000 0.254062
O O4 0.603205 0.962021 0.178384
O O5 0.722889 0.379485 0.580457
O O6 0.796779 0.394728 0.410813
O O7 0.642285 0.574166 0.645407
O O8 0.618639 0.283570 0.553891
O O9 0.660188 0.305757 0.764892
O O10 0.962531 0.888900 0.083757
O O11 0.552253 0.500000 0.000000
O O12 0.500000 0.776962 0.000000
O O13 0.614306 0.743543 0.028137
#
# Coordination Sequence:
#
# PCOD8164151 Si02
#       7
#     8   4   8   8   8   8   2
#     4  12  24  36  64  98 140 165 207 268 326 392
#     4  10  23  44  71  89 130 165 226 278 334 370
#     4   9  23  46  65  89 125 174 225 272 313 395
#     4   9  21  40  61  89 129 171 220 256 315 389
#     4  11  23  40  63  95 132 173 211 249 319 402
#     4  12  23  43  67  95 131 167 209 277 333 370
#     4   8  18  36  62  80 122 174 214 244 306 382
#
# _framework density 20.448958000000001
#
# number of rings (size 3 to 8) (size 9 to 14) (size 15 to 20)
#    0.000    1.913    3.478    1.043    4.870    4.870 
#    3.130    0.000    0.000    0.000    0.000    0.000 
#    0.000    0.000    0.000    0.000    0.000    0.000 
#
# Total GULP energy -284974.476457 kJ/mol
# GULP energy per Si atom -12390.194629 kJ/mol
# Density = 2.040242 g / cm^3
# Si number density = 20.448958 Si / 1000 Ang^3
#
#
#
# Elastic Constant Matrix: (Units=GPa)
#
#
# Indices 1 2 3 4 5 6 
#
# 1 131.2665 23.1601 37.3921 0.0000 0.0000 0.0000
# 2 23.1601 63.2130 29.2415 0.0000 0.0000 0.0000
# 3 37.3921 29.2415 95.3981 0.0000 0.0000 0.0000
# 4 0.0000 0.0000 0.0000 20.1519 0.0000 0.0000
# 5 0.0000 0.0000 0.0000 0.0000 18.6859 0.0000
# 6 0.0000 0.0000 0.0000 0.0000 0.0000 18.8944
#
#
#
# Elastic Compliance Matrix: (Units=1/GPa)
#
#
# Indices 1 2 3 4 5 6 
#
# 1 0.008765 -0.001890 -0.002856 0.000000 0.000000 0.000000
# 2 -0.001890 0.018841 -0.005034 0.000000 0.000000 0.000000
# 3 -0.002856 -0.005034 0.013145 0.000000 0.000000 0.000000
# 4 0.000000 0.000000 0.000000 0.049623 0.000000 0.000000
# 5 0.000000 0.000000 0.000000 0.000000 0.053516 0.000000
# 6 0.000000 0.000000 0.000000 0.000000 0.000000 0.052926
#
#
# Mechanical properties :
#
#
# Convention : Reuss Voigt Hill
#
# Bulk Modulus (GPa) = 47.19256 52.16278 49.67767
# Shear Modulus (GPa) = 22.37730 24.88536 23.63133
#
# Velocity S-wave (km/s) = 3.31161 3.49227 3.40314
# Velocity P-wave (km/s) = 6.14416 6.46725 6.30777
#
# Compressibility (1/GPa) = 0.02118978
#
# Stress axis : x y z
#
# Youngs Moduli (GPa) = 114.08762 53.07627 76.07449
#
# Poissons Ratio (x) = 0.10032 0.21729
# Poissons Ratio (y) = 0.21564 0.38298
# Poissons Ratio (z) = 0.32586 0.26720
#
# Static dielectric constant tensor:
#      x y z
#    x 4.024910 0.000000 0.000000 
#    y 0.000000 3.824170 0.000000 
#    z 0.000000 0.000000 3.729650 
# 
# 
# High freq. dielectric constant tensor:
#      x y z
#    x 1.809190 0.000000 0.000000 
#    y 0.000000 1.782540 0.000000 
#    z 0.000000 0.000000 1.800110 
# 
# From -- ./inp_files/14782.got.cif
#   From: 2010.03.12/outbox.cif.g09.slc.cpg/sg23_8_cif.got.tgz:14782.got - 2010.04.14 02:50:06.
