data_PCOD8164403
_publ_section_title
;
Structure prediction by ZEFSAII (Michael W. Deem and Ramdas Pophale) SiO2 
 PCOD8164403
Probable space group: I 2 2 2
;
_chemical_formula_sum "Si O2"
_cell_formula_units_Z 56
_cell_length_a 21.607035
_cell_length_b 17.613279
_cell_length_c 9.327450
_cell_angle_alpha 90.000000
_cell_angle_beta 90.000000
_cell_angle_gamma 90.000000
_cell_volume 3549.754510
_symmetry_space_group_name_H-M "I 2 2 2"
_symmetry_group_IT_number 23
_symmetry_cell_setting 'orthorhombic'
loop_
_space_group_symop_operation_xyz
x,y,z
-x,-y,z
x,-y,-z
-x,y,-z
1/2+x,1/2+y,1/2+z
1/2-x,1/2-y,1/2+z
1/2+x,1/2-y,1/2-z
1/2-x,1/2+y,1/2-z
loop_
_atom_site_type_symbol
_atom_site_label
_atom_site_fract_x
_atom_site_fract_y
_atom_site_fract_z
Si Si1 0.072263 1.000000 0.333018
Si Si2 0.851577 0.882173 0.836864
Si Si3 0.690286 0.777088 0.334234
Si Si4 0.648423 0.617827 0.663136
Si Si5 0.309714 0.777088 0.334235
Si Si6 0.209972 0.414627 0.665324
Si Si7 0.209972 0.414627 0.334676
O O1 0.100505 0.923791 0.265834
O O2 0.087468 0.000000 0.500000
O O3 0.100505 0.076209 0.265835
O O4 0.000000 0.000000 0.300996
O O5 0.860023 0.790714 0.819250
O O6 0.782268 0.907527 0.795099
O O7 0.865313 0.906773 0.000000
O O8 0.706732 0.791046 0.500000
O O9 0.749999 0.750000 0.249998
O O10 0.668962 0.856637 0.262020
O O11 0.639978 0.709286 0.680750
O O12 0.717732 0.592472 0.704902
O O13 0.331037 0.856637 0.262020
O O14 0.199740 0.392882 0.500000
O O15 0.187289 0.500000 0.697781
#
# Coordination Sequence:
#
# PCOD8164403 Si02
#       7
#     8   8   8   8   8   8   8
#     4  11  23  33  43  63  85 107 145 191 224 253
#     4   9  17  31  45  57  80 113 145 177 212 252
#     4   9  17  27  40  60  83 109 142 174 208 252
#     4   9  17  31  45  57  80 113 145 177 212 252
#     4   9  17  27  40  60  83 109 142 174 208 252
#     4   9  16  27  42  62  88 114 142 173 205 248
#     4   9  16  27  42  62  88 114 142 173 205 248
#
# _framework density 15.775739
#
# number of rings (size 3 to 8) (size 9 to 14) (size 15 to 20)
#    0.000    2.714    1.429    3.000    0.000    7.429 
#    0.000    0.000    0.000    0.000    0.000    0.000 
#    0.000    1.143    0.000   12.571    0.000    9.143 
#
# Total GULP energy -347003.569674 kJ/mol
# GULP energy per Si atom -12392.984631 kJ/mol
# Density = 1.573983 g / cm^3
# Si number density = 15.775739 Si / 1000 Ang^3
#
#
#
# Elastic Constant Matrix: (Units=GPa)
#
#
# Indices 1 2 3 4 5 6 
#
# 1 33.5861 30.7769 35.6558 0.0000 0.0000 0.0000
# 2 30.7769 140.9683 74.8496 0.0000 0.0000 0.0000
# 3 35.6558 74.8496 105.7348 0.0000 0.0000 0.0000
# 4 0.0000 0.0000 0.0000 35.8955 0.0000 0.0000
# 5 0.0000 0.0000 0.0000 0.0000 16.6779 0.0000
# 6 0.0000 0.0000 0.0000 0.0000 0.0000 11.5487
#
#
#
# Elastic Compliance Matrix: (Units=1/GPa)
#
#
# Indices 1 2 3 4 5 6 
#
# 1 0.047139 -0.002966 -0.013796 0.000000 0.000000 0.000000
# 2 -0.002966 0.011553 -0.007178 0.000000 0.000000 0.000000
# 3 -0.013796 -0.007178 0.019191 0.000000 0.000000 0.000000
# 4 0.000000 0.000000 0.000000 0.027859 0.000000 0.000000
# 5 0.000000 0.000000 0.000000 0.000000 0.059959 0.000000
# 6 0.000000 0.000000 0.000000 0.000000 0.000000 0.086590
#
#
# Mechanical properties :
#
#
# Convention : Reuss Voigt Hill
#
# Bulk Modulus (GPa) = 33.33125 62.53933 47.93529
# Shear Modulus (GPa) = 16.12010 22.09156 19.10583
#
# Velocity S-wave (km/s) = 3.20007 3.74618 3.48385
# Velocity P-wave (km/s) = 5.90152 7.64465 6.82893
#
# Compressibility (1/GPa) = 0.03000188
#
# Stress axis : x y z
#
# Youngs Moduli (GPa) = 21.21397 86.56082 52.10728
#
# Poissons Ratio (x) = 0.25675 0.71889
# Poissons Ratio (y) = 0.06292 0.37402
# Poissons Ratio (z) = 0.29268 0.62132
#
# Static dielectric constant tensor:
#      x y z
#    x 2.426590 0.000000 0.000000 
#    y 0.000000 3.804080 0.000000 
#    z 0.000000 0.000000 3.184490 
# 
# 
# High freq. dielectric constant tensor:
#      x y z
#    x 1.522370 0.000000 0.000000 
#    y 0.000000 1.628040 0.000000 
#    z 0.000000 0.000000 1.616730 
# 
# From -- ./inp_files/12162.got.cif
#   From: 2010.03.12/outbox.cif.g09.slc.cpg/sg23_7_cif.got.tgz:12162.got - 2010.04.14 02:50:06.
