data_PCOD8164854
_publ_section_title
;
Structure prediction by ZEFSAII (Michael W. Deem and Ramdas Pophale) SiO2 
 PCOD8164854
Probable space group: I 21 21 21
;
_chemical_formula_sum "Si O2"
_cell_formula_units_Z 48
_cell_length_a 28.423166
_cell_length_b 8.787281
_cell_length_c 9.899615
_cell_angle_alpha 90.000000
_cell_angle_beta 90.000000
_cell_angle_gamma 90.000000
_cell_volume 2472.551072
_symmetry_space_group_name_H-M "I 21 21 21"
_symmetry_group_IT_number 24
_symmetry_cell_setting 'orthorhombic'
loop_
_space_group_symop_operation_xyz
x,y,z
-x,1/2-y,z
x,-y,1/2-z
1/2-x,y,-z
1/2+x,1/2+y,1/2+z
1/2-x,-y,1/2+z
1/2+x,1/2-y,-z
-x,1/2+y,1/2-z
loop_
_atom_site_type_symbol
_atom_site_label
_atom_site_fract_x
_atom_site_fract_y
_atom_site_fract_z
Si Si1 0.037339 0.878974 0.131860
Si Si2 0.320483 0.325159 0.278969
Si Si3 0.361950 0.179862 0.539492
Si Si4 0.766255 0.638041 0.147771
Si Si5 0.023113 0.912372 0.619880
Si Si6 0.131167 0.902384 0.626361
O O1 0.086598 0.790182 0.102586
O O2 0.000000 0.750000 0.174534
O O3 0.045095 0.000000 0.250000
O O4 0.017651 0.970662 0.003486
O O5 0.321139 0.500000 0.250000
O O6 0.355092 0.280802 0.404180
O O7 0.267206 0.275278 0.306908
O O8 0.339963 0.254187 0.137612
O O9 0.319269 0.207925 0.643950
O O10 0.359588 0.997160 0.509371
O O11 0.762498 0.500000 0.250000
O O12 0.750000 0.579257 0.000000
O O13 0.076654 0.869681 0.649185
O O14 0.000000 0.750000 0.588814
O O15 0.001299 0.000000 0.750000
O O16 0.152359 0.000000 0.750000
#
# Coordination Sequence:
#
# PCOD8164854 Si02
#       6
#     8   8   8   8   8   8
#     4  11  23  40  59  82 114 151 190 235 286 336
#     4  10  19  32  52  83 118 144 172 228 293 331
#     4   9  19  37  57  77 105 148 193 226 263 334
#     4  10  19  35  58  81 106 144 190 229 270 329
#     4  10  20  34  56  86 115 147 192 239 280 332
#     4   8  16  32  51  73 104 142 182 219 264 322
#
# _framework density 19.413146999999999
#
# number of rings (size 3 to 8) (size 9 to 14) (size 15 to 20)
#    0.000    2.333    0.000    5.000    0.000    2.000 
#    0.000    8.333    0.000    0.000    0.000    0.000 
#    0.000    0.000    0.000    0.000    0.000    0.000 
#
# Total GULP energy -297463.095987 kJ/mol
# GULP energy per Si atom -12394.295666 kJ/mol
# Density = 1.936896 g / cm^3
# Si number density = 19.413147 Si / 1000 Ang^3
#
#
#
# Elastic Constant Matrix: (Units=GPa)
#
#
# Indices 1 2 3 4 5 6 
#
# 1 125.4925 52.6686 24.5392 0.0000 0.0000 0.0000
# 2 52.6686 115.9753 30.1289 0.0000 0.0000 0.0000
# 3 24.5392 30.1289 70.0634 0.0000 0.0000 0.0000
# 4 0.0000 0.0000 0.0000 25.8409 0.0000 0.0000
# 5 0.0000 0.0000 0.0000 0.0000 18.5489 0.0000
# 6 0.0000 0.0000 0.0000 0.0000 0.0000 20.6658
#
#
#
# Elastic Compliance Matrix: (Units=1/GPa)
#
#
# Indices 1 2 3 4 5 6 
#
# 1 0.010032 -0.004101 -0.001750 0.000000 0.000000 0.000000
# 2 -0.004101 0.011384 -0.003459 0.000000 0.000000 0.000000
# 3 -0.001750 -0.003459 0.016373 0.000000 0.000000 0.000000
# 4 0.000000 0.000000 0.000000 0.038698 0.000000 0.000000
# 5 0.000000 0.000000 0.000000 0.000000 0.053912 0.000000
# 6 0.000000 0.000000 0.000000 0.000000 0.000000 0.048389
#
#
# Mechanical properties :
#
#
# Convention : Reuss Voigt Hill
#
# Bulk Modulus (GPa) = 52.16863 58.46717 55.31790
# Shear Modulus (GPa) = 24.53412 26.62406 25.57909
#
# Velocity S-wave (km/s) = 3.55884 3.70732 3.63384
# Velocity P-wave (km/s) = 6.61954 6.96479 6.79436
#
# Compressibility (1/GPa) = 0.01916861
#
# Stress axis : x y z
#
# Youngs Moduli (GPa) = 99.67994 87.84555 61.07594
#
# Poissons Ratio (x) = 0.36028 0.10688
# Poissons Ratio (y) = 0.40882 0.21125
# Poissons Ratio (z) = 0.17444 0.30384
#
# Static dielectric constant tensor:
#      x y z
#    x 3.766330 0.000000 0.000000 
#    y 0.000000 3.410250 0.000000 
#    z 0.000000 0.000000 3.518530 
# 
# 
# High freq. dielectric constant tensor:
#      x y z
#    x 1.766230 0.000000 0.000000 
#    y 0.000000 1.733580 0.000000 
#    z 0.000000 0.000000 1.741490 
# 
# From -- ./inp_files/16826.got.cif
#   From: 2010.03.12/outbox.cif.g09.slc.cpg/sg24_9_cif.got.tgz:16826.got - 2010.04.14 03:06:53.
