data_PCOD8164776
_publ_section_title
;
Structure prediction by ZEFSAII (Michael W. Deem and Ramdas Pophale) SiO2 
 PCOD8164776
Probable space group: I 21 21 21
;
_chemical_formula_sum "Si O2"
_cell_formula_units_Z 48
_cell_length_a 8.641301
_cell_length_b 15.120819
_cell_length_c 19.174261
_cell_angle_alpha 90.000000
_cell_angle_beta 90.000000
_cell_angle_gamma 90.000000
_cell_volume 2505.376979
_symmetry_space_group_name_H-M "I 21 21 21"
_symmetry_group_IT_number 24
_symmetry_cell_setting 'orthorhombic'
loop_
_space_group_symop_operation_xyz
x,y,z
-x,1/2-y,z
x,-y,1/2-z
1/2-x,y,-z
1/2+x,1/2+y,1/2+z
1/2-x,-y,1/2+z
1/2+x,1/2-y,-z
-x,1/2+y,1/2-z
loop_
_atom_site_type_symbol
_atom_site_label
_atom_site_fract_x
_atom_site_fract_y
_atom_site_fract_z
Si Si1 0.110413 0.334371 0.552666
Si Si2 0.872195 0.481557 0.560445
Si Si3 0.892632 0.835005 0.791167
Si Si4 0.321217 0.764026 0.705855
Si Si5 0.802982 0.581280 0.791755
Si Si6 0.142550 0.183291 0.932735
O O1 0.250000 0.323516 0.500000
O O2 0.177986 0.341363 0.631132
O O3 0.000000 0.250000 0.544501
O O4 0.020462 0.425414 0.536302
O O5 0.750000 0.481017 0.500000
O O6 0.787873 0.434320 0.625755
O O7 0.921464 0.583153 0.575444
O O8 0.755866 0.828049 0.733536
O O9 0.000000 0.750000 0.785145
O O10 0.012158 0.914034 0.774114
O O11 0.500000 0.750000 0.690402
O O12 0.295390 0.833236 0.769078
O O13 0.242414 0.796243 0.635399
O O14 0.730111 0.500000 0.750000
O O15 0.000000 0.250000 0.938769
O O16 0.250000 0.195120 0.000000
#
# Coordination Sequence:
#
# PCOD8164776 Si02
#       6
#     8   8   8   8   8   8
#     4  10  20  35  58  89 121 158 191 234 296 359
#     4  10  22  38  60  88 118 155 199 241 294 359
#     4   8  18  34  54  81 109 148 195 230 278 354
#     4  11  22  37  59  89 118 151 197 250 296 352
#     4  10  18  36  61  79 110 156 193 237 297 347
#     4  11  23  41  64  85 116 161 204 252 299 348
#
# _framework density 19.158792999999999
#
# number of rings (size 3 to 8) (size 9 to 14) (size 15 to 20)
#    0.000    2.000    1.667    3.500    0.000    2.667 
#    0.000    0.833    0.000    0.000    0.000    0.000 
#    0.000    0.000    0.000    0.000    0.000    0.000 
#
# Total GULP energy -297480.505205 kJ/mol
# GULP energy per Si atom -12395.021050 kJ/mol
# Density = 1.911519 g / cm^3
# Si number density = 19.158793 Si / 1000 Ang^3
#
#
#
# Elastic Constant Matrix: (Units=GPa)
#
#
# Indices 1 2 3 4 5 6 
#
# 1 96.3820 52.1594 39.7434 0.0000 0.0000 0.0000
# 2 52.1594 107.1376 43.8622 0.0000 0.0000 0.0000
# 3 39.7434 43.8622 87.8904 0.0000 0.0000 0.0000
# 4 0.0000 0.0000 0.0000 91.3035 0.0000 0.0000
# 5 0.0000 0.0000 0.0000 0.0000 28.8269 0.0000
# 6 0.0000 0.0000 0.0000 0.0000 0.0000 23.4225
#
#
#
# Elastic Compliance Matrix: (Units=1/GPa)
#
#
# Indices 1 2 3 4 5 6 
#
# 1 0.015116 -0.005732 -0.003975 0.000000 0.000000 0.000000
# 2 -0.005732 0.013904 -0.004347 0.000000 0.000000 0.000000
# 3 -0.003975 -0.004347 0.015345 0.000000 0.000000 0.000000
# 4 0.000000 0.000000 0.000000 0.010952 0.000000 0.000000
# 5 0.000000 0.000000 0.000000 0.000000 0.034690 0.000000
# 6 0.000000 0.000000 0.000000 0.000000 0.000000 0.042694
#
#
# Mechanical properties :
#
#
# Convention : Reuss Voigt Hill
#
# Bulk Modulus (GPa) = 61.51072 62.54888 62.02980
# Shear Modulus (GPa) = 30.07912 39.08693 34.58303
#
# Velocity S-wave (km/s) = 3.96661 4.52171 4.25322
# Velocity P-wave (km/s) = 7.29069 7.74465 7.52109
#
# Compressibility (1/GPa) = 0.01625733
#
# Stress axis : x y z
#
# Youngs Moduli (GPa) = 66.15289 71.92154 65.16945
#
# Poissons Ratio (x) = 0.41226 0.25905
# Poissons Ratio (y) = 0.37919 0.28329
# Poissons Ratio (z) = 0.26296 0.31264
#
# Static dielectric constant tensor:
#      x y z
#    x 3.191570 0.000000 0.000000 
#    y 0.000000 4.016700 0.000000 
#    z 0.000000 0.000000 3.671010 
# 
# 
# High freq. dielectric constant tensor:
#      x y z
#    x 1.718000 0.000000 0.000000 
#    y 0.000000 1.748120 0.000000 
#    z 0.000000 0.000000 1.760580 
# 
# From -- ./inp_files/29459.got.cif
#   From: 2010.03.12/outbox.cif.g09.slc.cpg/sg24_15_cif.got.tgz:29459.got - 2010.04.14 03:06:53.
