data_PCOD8164586
_publ_section_title
;
Structure prediction by ZEFSAII (Michael W. Deem and Ramdas Pophale) SiO2 
 PCOD8164586
Probable space group: I 21 21 21
;
_chemical_formula_sum "Si O2"
_cell_formula_units_Z 64
_cell_length_a 30.728472
_cell_length_b 8.803521
_cell_length_c 14.514468
_cell_angle_alpha 90.000000
_cell_angle_beta 90.000000
_cell_angle_gamma 90.000000
_cell_volume 3926.435719
_symmetry_space_group_name_H-M "I 21 21 21"
_symmetry_group_IT_number 24
_symmetry_cell_setting 'orthorhombic'
loop_
_space_group_symop_operation_xyz
x,y,z
-x,1/2-y,z
x,-y,1/2-z
1/2-x,y,-z
1/2+x,1/2+y,1/2+z
1/2-x,-y,1/2+z
1/2+x,1/2-y,-z
-x,1/2+y,1/2-z
loop_
_atom_site_type_symbol
_atom_site_label
_atom_site_fract_x
_atom_site_fract_y
_atom_site_fract_z
Si Si1 0.455850 0.679560 0.855388
Si Si2 0.708461 0.179775 0.060980
Si Si3 0.131658 0.331088 0.427960
Si Si4 0.455145 0.682095 0.644187
Si Si5 0.726934 0.676974 0.244287
Si Si6 0.314400 0.669344 0.748712
Si Si7 0.133845 0.678774 0.435046
Si Si8 0.707094 0.817075 0.055315
O O1 0.500000 0.750000 0.895939
O O2 0.416600 0.742383 0.920780
O O3 0.448975 0.734805 0.750064
O O4 0.457275 0.498602 0.860268
O O5 0.710666 0.241133 0.163865
O O6 0.707922 0.998050 0.062718
O O7 0.750000 0.234431 0.000000
O O8 0.662896 0.246268 0.018897
O O9 0.148723 0.322124 0.324451
O O10 0.126597 0.503915 0.457978
O O11 0.164840 0.253577 0.499630
O O12 0.500000 0.750000 0.603613
O O13 0.414395 0.748278 0.583579
O O14 0.717098 0.500000 0.250000
O O15 0.778020 0.706221 0.230592
O O16 0.702487 0.744531 0.155770
O O17 0.293030 0.500000 0.750000
O O18 0.335957 0.705522 0.652472
O O19 0.750000 0.761628 0.000000
#
# Coordination Sequence:
#
# PCOD8164586 Si02
#       8
#     8   8   8   8   8   8   8   8
#     4   9  16  27  44  68  98 126 153 187 231 279
#     4  10  19  33  54  72  88 121 170 207 232 271
#     4   9  16  28  50  73  91 121 165 206 230 261
#     4   9  16  27  44  68  98 126 153 187 231 279
#     4  12  24  34  44  67 104 133 153 192 247 293
#     4  10  16  30  51  69  91 125 169 202 228 267
#     4   9  16  28  50  73  91 121 165 206 230 261
#     4  10  19  33  54  72  88 121 170 207 232 271
#
# _framework density 16.299771
#
# number of rings (size 3 to 8) (size 9 to 14) (size 15 to 20)
#    0.000    2.250    3.750    1.125    0.000    0.500 
#    0.000    2.500    0.000    0.000    0.000    0.875 
#    0.000    0.000    0.000    0.000    0.000    0.000 
#
# Total GULP energy -396515.905855 kJ/mol
# GULP energy per Si atom -12391.122058 kJ/mol
# Density = 1.626267 g / cm^3
# Si number density = 16.299771 Si / 1000 Ang^3
#
#
#
# Elastic Constant Matrix: (Units=GPa)
#
#
# Indices 1 2 3 4 5 6 
#
# 1 142.7425 21.0119 48.5775 0.0000 0.0000 0.0000
# 2 21.0119 23.1130 18.2360 0.0000 0.0000 0.0000
# 3 48.5775 18.2360 89.5566 0.0000 0.0000 0.0000
# 4 0.0000 0.0000 0.0000 10.8495 0.0000 0.0000
# 5 0.0000 0.0000 0.0000 0.0000 36.2025 0.0000
# 6 0.0000 0.0000 0.0000 0.0000 0.0000 21.2010
#
#
#
# Elastic Compliance Matrix: (Units=1/GPa)
#
#
# Indices 1 2 3 4 5 6 
#
# 1 0.009089 -0.005210 -0.003869 0.000000 0.000000 0.000000
# 2 -0.005210 0.054534 -0.008278 0.000000 0.000000 0.000000
# 3 -0.003869 -0.008278 0.014951 0.000000 0.000000 0.000000
# 4 0.000000 0.000000 0.000000 0.092170 0.000000 0.000000
# 5 0.000000 0.000000 0.000000 0.000000 0.027622 0.000000
# 6 0.000000 0.000000 0.000000 0.000000 0.000000 0.047168
#
#
# Mechanical properties :
#
#
# Convention : Reuss Voigt Hill
#
# Bulk Modulus (GPa) = 22.80081 47.89588 35.34834
# Shear Modulus (GPa) = 16.95668 24.82306 20.88987
#
# Velocity S-wave (km/s) = 3.22887 3.90668 3.58384
# Velocity P-wave (km/s) = 5.28390 7.05675 6.23367
#
# Compressibility (1/GPa) = 0.04385810
#
# Stress axis : x y z
#
# Youngs Moduli (GPa) = 110.01868 18.33720 66.88687
#
# Poissons Ratio (x) = 0.09554 0.25881
# Poissons Ratio (y) = 0.57322 0.55371
# Poissons Ratio (z) = 0.42570 0.15180
#
# Static dielectric constant tensor:
#      x y z
#    x 3.383110 0.000000 0.000000 
#    y 0.000000 2.785750 0.000000 
#    z 0.000000 0.000000 3.046420 
# 
# 
# High freq. dielectric constant tensor:
#      x y z
#    x 1.628000 0.000000 0.000000 
#    y 0.000000 1.592390 0.000000 
#    z 0.000000 0.000000 1.605230 
# 
# From -- ./inp_files/28283.got.cif
#   From: 2010.03.12/outbox.cif.g09.slc.cpg/sg24_15_cif.got.tgz:28283.got - 2010.04.14 03:06:53.
