data_PCOD8164024
_publ_section_title
;
Structure prediction by ZEFSAII (Michael W. Deem and Ramdas Pophale) SiO2 
 PCOD8164024
Probable space group: I 2 2 2
;
_chemical_formula_sum "Si O2"
_cell_formula_units_Z 58
_cell_length_a 8.935492
_cell_length_b 24.444084
_cell_length_c 14.373882
_cell_angle_alpha 90.000000
_cell_angle_beta 90.000000
_cell_angle_gamma 90.000000
_cell_volume 3139.542114
_symmetry_space_group_name_H-M "I 2 2 2"
_symmetry_group_IT_number 23
_symmetry_cell_setting 'orthorhombic'
loop_
_space_group_symop_operation_xyz
x,y,z
-x,-y,z
x,-y,-z
-x,y,-z
1/2+x,1/2+y,1/2+z
1/2-x,1/2-y,1/2+z
1/2+x,1/2-y,1/2-z
1/2-x,1/2+y,1/2-z
loop_
_atom_site_type_symbol
_atom_site_label
_atom_site_fract_x
_atom_site_fract_y
_atom_site_fract_z
Si Si1 0.200197 0.301853 0.303213
Si Si2 0.144181 0.303887 0.710711
Si Si3 0.500000 0.000000 0.500000
Si Si4 0.350732 0.386246 0.183573
Si Si5 0.805922 0.114660 0.666258
Si Si6 0.332437 0.229727 0.008958
Si Si7 0.777613 0.006703 0.399386
Si Si8 0.326469 0.162950 0.514479
O O1 0.282429 0.249680 0.257735
O O2 0.279905 0.359115 0.275309
O O3 0.207784 0.302494 0.414990
O O4 0.031286 0.301340 0.265073
O O5 0.211602 0.360542 0.748775
O O6 0.169306 0.308633 0.599820
O O7 0.386779 0.967991 0.429930
O O8 0.522198 0.369068 0.180831
O O9 0.352255 0.452534 0.175105
O O10 0.247801 0.367746 0.099309
O O11 0.763209 0.146860 0.575503
O O12 0.768762 0.050735 0.654419
O O13 0.201943 0.273095 0.028526
O O14 0.500000 0.255942 0.000000
O O15 0.865196 0.000000 0.500000
O O16 0.500000 0.148922 0.500000
#
# Coordination Sequence:
#
# PCOD8164024 Si02
#       8
#     8   8   2   8   8   8   8   8
#     4  11  23  38  60  86 117 154 197 240 292 346
#     4  11  23  38  60  86 117 154 197 240 292 346
#     4   8  20  36  58  88 120 146 198 240 292 346
#     4  12  24  38  57  84 121 159 196 236 290 352
#     4  12  24  38  57  84 121 159 196 236 290 352
#     4  10  22  41  58  81 118 156 193 239 290 346
#     4  10  23  36  60  82 121 152 195 234 297 344
#     4  12  23  32  56  86 118 155 194 238 286 342
#
# _framework density 18.474032000000001
#
# number of rings (size 3 to 8) (size 9 to 14) (size 15 to 20)
#    0.414    0.552    4.138    3.310    5.793    1.655 
#    0.000    0.000    0.000    0.828    0.000    4.828 
#    0.000    0.000    0.000    0.000    0.000    0.000 
#
# Total GULP energy -359273.565104 kJ/mol
# GULP energy per Si atom -12388.743624 kJ/mol
# Density = 1.843198 g / cm^3
# Si number density = 18.474032 Si / 1000 Ang^3
#
#
#
# Elastic Constant Matrix: (Units=GPa)
#
#
# Indices 1 2 3 4 5 6 
#
# 1 126.4343 19.9573 29.1327 0.0000 0.0000 0.0000
# 2 19.9573 104.3817 41.8705 -0.0001 0.0001 0.0000
# 3 29.1327 41.8705 102.2844 0.0000 0.0000 0.0000
# 4 0.0000 -0.0001 0.0000 31.9599 0.0000 0.0000
# 5 0.0000 0.0001 0.0000 0.0000 25.8670 0.0000
# 6 0.0000 0.0000 0.0000 0.0000 0.0000 25.1382
#
#
#
# Elastic Compliance Matrix: (Units=1/GPa)
#
#
# Indices 1 2 3 4 5 6 
#
# 1 0.008518 -0.000784 -0.002105 0.000000 0.000000 0.000000
# 2 -0.000784 0.011535 -0.004498 0.000000 0.000000 0.000000
# 3 -0.002105 -0.004498 0.012218 0.000000 0.000000 0.000000
# 4 0.000000 0.000000 0.000000 0.031289 0.000000 0.000000
# 5 0.000000 0.000000 0.000000 0.000000 0.038659 0.000000
# 6 0.000000 0.000000 0.000000 0.000000 0.000000 0.039780
#
#
# Mechanical properties :
#
#
# Convention : Reuss Voigt Hill
#
# Bulk Modulus (GPa) = 57.15928 57.22462 57.19195
# Shear Modulus (GPa) = 30.74917 32.73567 31.74242
#
# Velocity S-wave (km/s) = 4.08420 4.21406 4.14964
# Velocity P-wave (km/s) = 7.29715 7.39734 7.34742
#
# Compressibility (1/GPa) = 0.01749497
#
# Stress axis : x y z
#
# Youngs Moduli (GPa) = 117.39725 86.69578 81.84868
#
# Poissons Ratio (x) = 0.06799 0.17230
# Poissons Ratio (y) = 0.09206 0.36819
# Poissons Ratio (z) = 0.24713 0.38999
#
# Static dielectric constant tensor:
#      x y z
#    x 3.631700 0.000000 0.000000 
#    y 0.000000 3.334460 0.000000 
#    z 0.000000 0.000000 3.361380 
# 
# 
# High freq. dielectric constant tensor:
#      x y z
#    x 1.738320 0.000000 0.000000 
#    y 0.000000 1.697630 0.000000 
#    z 0.000000 0.000000 1.699620 
# 
# From -- ./inp_files/20305.got.cif
#   From: 2010.03.12/outbox.cif.g09.slc.cpg/sg23_11_cif.got.tgz:20305.got - 2010.04.14 02:50:06.
