data_PCOD8164333
_publ_section_title
;
Structure prediction by ZEFSAII (Michael W. Deem and Ramdas Pophale) SiO2 
 PCOD8164333
Probable space group: I 2 2 2
;
_chemical_formula_sum "Si O2"
_cell_formula_units_Z 48
_cell_length_a 8.886648
_cell_length_b 14.506542
_cell_length_c 17.717067
_cell_angle_alpha 90.000000
_cell_angle_beta 90.000000
_cell_angle_gamma 90.000000
_cell_volume 2283.987409
_symmetry_space_group_name_H-M "I 2 2 2"
_symmetry_group_IT_number 23
_symmetry_cell_setting 'orthorhombic'
loop_
_space_group_symop_operation_xyz
x,y,z
-x,-y,z
x,-y,-z
-x,y,-z
1/2+x,1/2+y,1/2+z
1/2-x,1/2-y,1/2+z
1/2+x,1/2-y,1/2-z
1/2-x,1/2+y,1/2-z
loop_
_atom_site_type_symbol
_atom_site_label
_atom_site_fract_x
_atom_site_fract_y
_atom_site_fract_z
Si Si1 0.826442 0.026803 0.419569
Si Si2 0.826442 0.026803 0.080431
Si Si3 0.746246 0.143063 0.837792
Si Si4 0.454396 0.286026 0.086895
Si Si5 0.746246 0.143063 0.662208
Si Si6 0.045604 0.786026 0.086895
O O1 0.821042 0.136694 0.404508
O O2 0.752378 0.000000 0.500000
O O3 0.742602 0.966895 0.355300
O O4 0.000000 0.000000 0.421919
O O5 0.821042 0.136694 0.095492
O O6 0.742602 0.966895 0.144700
O O7 0.000000 0.000000 0.078081
O O8 0.752378 0.000000 0.000000
O O9 0.610424 0.190123 0.883257
O O10 0.721564 0.159626 0.750000
O O11 0.904019 0.186170 0.862852
O O12 0.595981 0.313830 0.137148
O O13 0.500000 0.276328 0.000000
O O14 0.610424 0.190123 0.616743
O O15 0.000000 0.776328 0.000000
#
# Coordination Sequence:
#
# PCOD8164333 Si02
#       6
#     8   8   8   8   8   8
#     4   9  17  35  60  87 114 155 210 243 286 360
#     4   9  17  35  60  87 114 155 210 243 286 360
#     4  11  23  37  61  94 125 157 201 258 312 355
#     4  11  21  39  64  89 119 165 207 249 300 367
#     4  11  23  37  61  94 125 157 201 258 312 355
#     4  11  21  39  64  89 119 165 207 249 300 367
#
# _framework density 21.015878000000001
#
# number of rings (size 3 to 8) (size 9 to 14) (size 15 to 20)
#    0.000    1.667    6.667    2.000    0.000    7.333 
#    0.000    1.667    0.000    4.000    0.000    0.000 
#    0.000    0.000    0.000    0.000    0.000    0.000 
#
# Total GULP energy -297520.556323 kJ/mol
# GULP energy per Si atom -12396.689847 kJ/mol
# Density = 2.096804 g / cm^3
# Si number density = 21.015878 Si / 1000 Ang^3
#
#
#
# Elastic Constant Matrix: (Units=GPa)
#
#
# Indices 1 2 3 4 5 6 
#
# 1 38.2329 30.3736 35.2360 0.0000 0.0000 0.0000
# 2 30.3736 94.4565 80.0839 0.0000 0.0000 0.0000
# 3 35.2360 80.0839 137.5933 0.0000 0.0000 0.0000
# 4 0.0000 0.0000 0.0000 31.7292 0.0000 0.0000
# 5 0.0000 0.0000 0.0000 0.0000 19.0059 0.0000
# 6 0.0000 0.0000 0.0000 0.0000 0.0000 24.4338
#
#
#
# Elastic Compliance Matrix: (Units=1/GPa)
#
#
# Indices 1 2 3 4 5 6 
#
# 1 0.036798 -0.007587 -0.005007 0.000000 0.000000 0.000000
# 2 -0.007587 0.022465 -0.011133 0.000000 0.000000 0.000000
# 3 -0.005007 -0.011133 0.015030 0.000000 0.000000 0.000000
# 4 0.000000 0.000000 0.000000 0.031517 0.000000 0.000000
# 5 0.000000 0.000000 0.000000 0.000000 0.052615 0.000000
# 6 0.000000 0.000000 0.000000 0.000000 0.000000 0.040927
#
#
# Mechanical properties :
#
#
# Convention : Reuss Voigt Hill
#
# Bulk Modulus (GPa) = 37.26012 62.40774 49.83393
# Shear Modulus (GPa) = 19.55014 23.33972 21.44493
#
# Velocity S-wave (km/s) = 3.05332 3.33615 3.19786
# Velocity P-wave (km/s) = 5.49530 6.67831 6.11548
#
# Compressibility (1/GPa) = 0.02683835
#
# Stress axis : x y z
#
# Youngs Moduli (GPa) = 27.17536 44.51313 66.53520
#
# Poissons Ratio (x) = 0.33774 0.33317
# Poissons Ratio (y) = 0.20619 0.74070
# Poissons Ratio (z) = 0.13608 0.49554
#
# Static dielectric constant tensor:
#      x y z
#    x 3.388560 0.000000 0.000000 
#    y 0.000000 4.412970 0.000000 
#    z 0.000000 0.000000 3.750810 
# 
# 
# High freq. dielectric constant tensor:
#      x y z
#    x 1.783360 0.000000 0.000000 
#    y 0.000000 1.831780 0.000000 
#    z 0.000000 0.000000 1.820990 
# 
# From -- ./inp_files/23732.got.cif
#   From: 2010.03.12/outbox.cif.g09.slc.cpg/sg23_12_cif.got.tgz:23732.got - 2010.04.14 02:50:06.
