data_PCOD8164305
_publ_section_title
;
Structure prediction by ZEFSAII (Michael W. Deem and Ramdas Pophale) SiO2 
 PCOD8164305
Probable space group: I 2 2 2
;
_chemical_formula_sum "Si O2"
_cell_formula_units_Z 58
_cell_length_a 9.388315
_cell_length_b 16.829641
_cell_length_c 15.726946
_cell_angle_alpha 90.000000
_cell_angle_beta 90.000000
_cell_angle_gamma 90.000000
_cell_volume 2484.888467
_symmetry_space_group_name_H-M "I 2 2 2"
_symmetry_group_IT_number 23
_symmetry_cell_setting 'orthorhombic'
loop_
_space_group_symop_operation_xyz
x,y,z
-x,-y,z
x,-y,-z
-x,y,-z
1/2+x,1/2+y,1/2+z
1/2-x,1/2-y,1/2+z
1/2+x,1/2-y,1/2-z
1/2-x,1/2+y,1/2-z
loop_
_atom_site_type_symbol
_atom_site_label
_atom_site_fract_x
_atom_site_fract_y
_atom_site_fract_z
Si Si1 0.859422 0.138746 0.533674
Si Si2 0.662111 0.199799 0.394196
Si Si3 0.000000 0.000000 0.000000
Si Si4 0.966138 0.702700 0.405949
Si Si5 0.431440 0.624850 0.361702
Si Si6 0.670566 0.849430 0.236466
Si Si7 0.779753 0.819390 0.792194
Si Si8 0.926520 0.419619 0.107821
O O1 0.795315 0.191559 0.456922
O O2 0.925032 0.203950 0.598220
O O3 0.737316 0.083437 0.573900
O O4 0.000000 0.089628 0.500000
O O5 0.604459 0.288937 0.398932
O O6 0.711307 0.168706 0.301169
O O7 0.531286 0.147155 0.429132
O O8 0.914204 0.940903 0.063508
O O9 0.835403 0.655022 0.363372
O O10 0.000000 0.670155 0.500000
O O11 0.104901 0.686532 0.349245
O O12 0.317572 0.606809 0.287562
O O13 0.584390 0.625613 0.314132
O O14 0.684839 0.774650 0.301418
O O15 0.578762 0.913248 0.289134
O O16 0.000000 0.500000 0.078642
#
# Coordination Sequence:
#
# PCOD8164305 Si02
#       8
#     8   8   2   8   8   8   8   8
#     4  11  24  41  73 109 142 180 248 317 376 446
#     4  11  24  44  74 105 137 197 250 312 381 447
#     4  12  32  44  64 114 158 202 236 310 396 472
#     4  11  21  37  68 113 138 180 249 299 361 442
#     4  11  25  42  72  99 150 191 250 301 371 454
#     4  11  22  44  71 105 142 195 243 314 365 445
#     4  11  20  39  74 104 140 185 251 300 355 446
#     4  12  26  45  70 107 144 190 249 304 387 452
#
# _framework density 23.341087999999999
#
# number of rings (size 3 to 8) (size 9 to 14) (size 15 to 20)
#    0.000    0.828    4.138    4.552    7.724    2.207 
#    0.000    1.379    0.000    0.828    0.000    0.000 
#    0.000    0.000    0.000    0.000    0.000    0.000 
#
# Total GULP energy -359348.046685 kJ/mol
# GULP energy per Si atom -12391.311955 kJ/mol
# Density = 2.328796 g / cm^3
# Si number density = 23.341088 Si / 1000 Ang^3
#
#
#
# Elastic Constant Matrix: (Units=GPa)
#
#
# Indices 1 2 3 4 5 6 
#
# 1 154.0062 45.3511 45.9277 0.0000 0.0000 0.0000
# 2 45.3511 88.3823 36.7763 0.0000 0.0000 0.0000
# 3 45.9277 36.7763 124.6869 0.0000 0.0000 0.0000
# 4 0.0000 0.0000 0.0000 22.4686 0.0000 0.0000
# 5 0.0000 0.0000 0.0000 0.0000 49.0034 0.0000
# 6 0.0000 0.0000 0.0000 0.0000 0.0000 24.0301
#
#
#
# Elastic Compliance Matrix: (Units=1/GPa)
#
#
# Indices 1 2 3 4 5 6 
#
# 1 0.008062 -0.003307 -0.001994 0.000000 0.000000 0.000000
# 2 -0.003307 0.014254 -0.002986 0.000000 0.000000 0.000000
# 3 -0.001994 -0.002986 0.009635 0.000000 0.000000 0.000000
# 4 0.000000 0.000000 0.000000 0.044507 0.000000 0.000000
# 5 0.000000 0.000000 0.000000 0.000000 0.020407 0.000000
# 6 0.000000 0.000000 0.000000 0.000000 0.000000 0.041614
#
#
# Mechanical properties :
#
#
# Convention : Reuss Voigt Hill
#
# Bulk Modulus (GPa) = 65.03340 69.24287 67.13813
# Shear Modulus (GPa) = 31.21516 35.03509 33.12513
#
# Velocity S-wave (km/s) = 3.66094 3.87848 3.77128
# Velocity P-wave (km/s) = 6.76703 7.05598 6.91302
#
# Compressibility (1/GPa) = 0.01537671
#
# Stress axis : x y z
#
# Youngs Moduli (GPa) = 124.04275 70.15646 103.78446
#
# Poissons Ratio (x) = 0.23200 0.20696
# Poissons Ratio (y) = 0.41020 0.30991
# Poissons Ratio (z) = 0.24736 0.20949
#
# Static dielectric constant tensor:
#      x y z
#    x 4.642830 0.000000 0.000000 
#    y 0.000000 3.678940 0.000000 
#    z 0.000000 0.000000 4.313040 
# 
# 
# High freq. dielectric constant tensor:
#      x y z
#    x 1.950140 0.000000 0.000000 
#    y 0.000000 1.863490 0.000000 
#    z 0.000000 0.000000 1.939400 
# 
# From -- ./inp_files/23899.got.cif
#   From: 2010.03.12/outbox.cif.g09.slc.cpg/sg23_12_cif.got.tgz:23899.got - 2010.04.14 02:50:06.
