data_PCOD8164017
_publ_section_title
;
Structure prediction by ZEFSAII (Michael W. Deem and Ramdas Pophale) SiO2 
 PCOD8164017
Probable space group: I 2 2 2
;
_chemical_formula_sum "Si O2"
_cell_formula_units_Z 34
_cell_length_a 8.637131
_cell_length_b 20.992326
_cell_length_c 8.820117
_cell_angle_alpha 90.000000
_cell_angle_beta 90.000000
_cell_angle_gamma 90.000000
_cell_volume 1599.206016
_symmetry_space_group_name_H-M "I 2 2 2"
_symmetry_group_IT_number 23
_symmetry_cell_setting 'orthorhombic'
loop_
_space_group_symop_operation_xyz
x,y,z
-x,-y,z
x,-y,-z
-x,y,-z
1/2+x,1/2+y,1/2+z
1/2-x,1/2-y,1/2+z
1/2+x,1/2-y,1/2-z
1/2-x,1/2+y,1/2-z
loop_
_atom_site_type_symbol
_atom_site_label
_atom_site_fract_x
_atom_site_fract_y
_atom_site_fract_z
Si Si1 0.860438 0.110068 0.794156
Si Si2 0.669331 0.329516 0.824556
Si Si3 0.000000 0.000000 0.000000
Si Si4 0.319728 0.275482 0.492353
Si Si5 0.819616 0.430808 0.011765
O O1 0.796385 0.160422 0.913275
O O2 0.726092 0.098066 0.673776
O O3 0.997323 0.143534 0.698043
O O4 0.902046 0.045979 0.888108
O O5 0.731280 0.293689 0.676561
O O6 0.696707 0.278485 0.959548
O O7 0.769378 0.390906 0.865594
O O8 0.500000 0.251600 0.500000
O O9 0.739741 0.500000 0.000000
O O10 0.000000 0.437138 0.000000
#
# Coordination Sequence:
#
# PCOD8164017 Si02
#       5
#     8   8   2   8   8
#     4  11  23  42  71 102 136 186 235 298 347 423
#     4  11  21  41  66 100 132 184 231 285 353 418
#     4  12  20  44  78 106 144 184 260 290 352 420
#     4  10  22  40  64  99 139 175 228 286 354 421
#     4  11  25  43  64  94 137 181 231 288 356 421
#
# _framework density 21.260549000000001
#
# number of rings (size 3 to 8) (size 9 to 14) (size 15 to 20)
#    0.000    1.176    3.529    4.235    0.000    4.706 
#    0.000    5.882    0.000    0.000    0.000    0.000 
#    0.000    0.000    0.000    0.000    0.000    0.000 
#
# Total GULP energy -210713.357476 kJ/mol
# GULP energy per Si atom -12394.903381 kJ/mol
# Density = 2.121216 g / cm^3
# Si number density = 21.260549 Si / 1000 Ang^3
#
#
#
# Elastic Constant Matrix: (Units=GPa)
#
#
# Indices 1 2 3 4 5 6 
#
# 1 60.3628 45.4048 49.9532 -0.0002 -0.0007 0.0006
# 2 45.4048 151.8532 52.1314 0.0001 0.0000 0.0004
# 3 49.9532 52.1314 118.0282 0.0005 -0.0012 0.0023
# 4 -0.0002 0.0001 0.0005 45.8699 -0.0002 0.0004
# 5 -0.0007 0.0000 -0.0012 -0.0002 35.3693 0.0000
# 6 0.0006 0.0004 0.0023 0.0004 0.0000 21.3592
#
#
#
# Elastic Compliance Matrix: (Units=1/GPa)
#
#
# Indices 1 2 3 4 5 6 
#
# 1 0.028578 -0.005178 -0.009808 0.000000 0.000000 0.000000
# 2 -0.005178 0.008700 -0.001651 0.000000 0.000000 0.000000
# 3 -0.009808 -0.001651 0.013353 0.000000 0.000000 -0.000001
# 4 0.000000 0.000000 0.000000 0.021801 0.000000 0.000000
# 5 0.000000 0.000000 0.000000 0.000000 0.028273 0.000000
# 6 0.000000 0.000000 -0.000001 0.000000 0.000000 0.046818
#
#
# Mechanical properties :
#
#
# Convention : Reuss Voigt Hill
#
# Bulk Modulus (GPa) = 57.61458 69.46923 63.54191
# Shear Modulus (GPa) = 26.79758 32.70332 29.75045
#
# Velocity S-wave (km/s) = 3.55411 3.92626 3.74482
# Velocity P-wave (km/s) = 6.63328 7.30070 6.97498
#
# Compressibility (1/GPa) = 0.01735672
#
# Stress axis : x y z
#
# Youngs Moduli (GPa) = 34.99201 114.93670 74.88914
#
# Poissons Ratio (x) = 0.59512 0.73452
# Poissons Ratio (y) = 0.18118 0.12368
# Poissons Ratio (z) = 0.34321 0.18981
#
# Static dielectric constant tensor:
#      x y z
#    x 3.537690 0.000000 0.000000 
#    y 0.000000 4.380100 -0.000010 
#    z 0.000000 -0.000010 4.298250 
# 
# 
# High freq. dielectric constant tensor:
#      x y z
#    x 1.805610 0.000000 0.000000 
#    y 0.000000 1.860870 0.000000 
#    z 0.000000 0.000000 1.851540 
# 
# From -- ./inp_files/6695.got.cif
#   From: 2010.03.12/outbox.cif.g09.slc.cpg/sg23_4_cif.got.tgz:6695.got - 2010.04.14 02:50:06.
