data_PCOD8164844
_publ_section_title
;
Structure prediction by ZEFSAII (Michael W. Deem and Ramdas Pophale) SiO2 
 PCOD8164844
Probable space group: I 21 21 21
;
_chemical_formula_sum "Si O2"
_cell_formula_units_Z 52
_cell_length_a 14.759076
_cell_length_b 9.015245
_cell_length_c 19.258816
_cell_angle_alpha 90.000000
_cell_angle_beta 90.000000
_cell_angle_gamma 90.000000
_cell_volume 2562.514235
_symmetry_space_group_name_H-M "I 21 21 21"
_symmetry_group_IT_number 24
_symmetry_cell_setting 'orthorhombic'
loop_
_space_group_symop_operation_xyz
x,y,z
-x,1/2-y,z
x,-y,1/2-z
1/2-x,y,-z
1/2+x,1/2+y,1/2+z
1/2-x,-y,1/2+z
1/2+x,1/2-y,-z
-x,1/2+y,1/2-z
loop_
_atom_site_type_symbol
_atom_site_label
_atom_site_fract_x
_atom_site_fract_y
_atom_site_fract_z
Si Si1 0.287948 0.603304 0.142126
Si Si2 0.020095 0.421570 0.586709
Si Si3 0.250000 0.515199 0.500000
Si Si4 0.936476 0.889386 0.462776
Si Si5 0.069790 0.116769 0.810658
Si Si6 0.871542 0.910765 0.312065
Si Si7 0.257272 0.830128 0.743583
O O1 0.393062 0.554843 0.137492
O O2 0.254065 0.603300 0.062624
O O3 0.229173 0.479605 0.181004
O O4 0.271005 0.760012 0.181221
O O5 0.029515 0.467807 0.505882
O O6 0.000000 0.250000 0.587522
O O7 0.941397 0.525728 0.617654
O O8 0.166521 0.630705 0.490388
O O9 0.934996 0.918588 0.379909
O O10 0.000000 0.750000 0.480388
O O11 0.170886 0.183781 0.807664
O O12 0.000000 0.250000 0.804635
O O13 0.052896 0.000000 0.750000
O O14 0.847744 0.743257 0.289321
O O15 0.922703 0.000000 0.250000
O O16 0.285196 0.000000 0.750000
#
# Coordination Sequence:
#
# PCOD8164844 Si02
#       7
#     8   8   4   8   8   8   8
#     4   9  17  34  55  76 106 150 188 220 274 349
#     4  11  21  34  52  79 115 150 185 229 280 340
#     4   8  18  36  62  82 110 152 190 222 276 348
#     4  10  21  39  60  85 112 146 191 235 282 340
#     4  11  20  30  49  80 117 152 181 222 278 340
#     4   9  19  38  60  77 104 147 190 229 279 342
#     4  10  19  31  52  83 111 138 184 238 280 323
#
# _framework density 20.292570000000001
#
# number of rings (size 3 to 8) (size 9 to 14) (size 15 to 20)
#    0.000    2.154    0.000    4.615    0.000    3.692 
#    0.000    7.692    0.000    1.846    0.000    0.000 
#    0.000    0.000    0.000    0.000    0.000    0.000 
#
# Total GULP energy -322125.902241 kJ/mol
# GULP energy per Si atom -12389.457779 kJ/mol
# Density = 2.024638 g / cm^3
# Si number density = 20.292570 Si / 1000 Ang^3
#
#
#
# Elastic Constant Matrix: (Units=GPa)
#
#
# Indices 1 2 3 4 5 6 
#
# 1 49.2896 24.9984 26.4797 0.0000 0.0000 0.0000
# 2 24.9984 102.2918 34.3889 0.0000 0.0000 0.0000
# 3 26.4797 34.3889 126.4479 0.0000 0.0000 0.0000
# 4 0.0000 0.0000 0.0000 19.3371 0.0000 0.0000
# 5 0.0000 0.0000 0.0000 0.0000 17.0256 0.0000
# 6 0.0000 0.0000 0.0000 0.0000 0.0000 15.0491
#
#
#
# Elastic Compliance Matrix: (Units=1/GPa)
#
#
# Indices 1 2 3 4 5 6 
#
# 1 0.024791 -0.004747 -0.003901 0.000000 0.000000 0.000000
# 2 -0.004747 0.011669 -0.002179 0.000000 0.000000 0.000000
# 3 -0.003901 -0.002179 0.009318 0.000000 0.000000 0.000000
# 4 0.000000 0.000000 0.000000 0.051714 0.000000 0.000000
# 5 0.000000 0.000000 0.000000 0.000000 0.058735 0.000000
# 6 0.000000 0.000000 0.000000 0.000000 0.000000 0.066449
#
#
# Mechanical properties :
#
#
# Convention : Reuss Voigt Hill
#
# Bulk Modulus (GPa) = 41.45283 49.97367 45.71325
# Shear Modulus (GPa) = 19.81203 23.09318 21.45260
#
# Velocity S-wave (km/s) = 3.12800 3.37710 3.25494
# Velocity P-wave (km/s) = 5.78945 6.31557 6.05823
#
# Compressibility (1/GPa) = 0.02412381
#
# Stress axis : x y z
#
# Youngs Moduli (GPa) = 40.33652 85.69890 107.32033
#
# Poissons Ratio (x) = 0.40684 0.41861
# Poissons Ratio (y) = 0.19149 0.23388
# Poissons Ratio (z) = 0.15733 0.18676
#
# Static dielectric constant tensor:
#      x y z
#    x 3.612040 0.000000 0.000000 
#    y 0.000000 3.579730 0.000000 
#    z 0.000000 0.000000 3.919910 
# 
# 
# High freq. dielectric constant tensor:
#      x y z
#    x 1.772110 0.000000 0.000000 
#    y 0.000000 1.783290 0.000000 
#    z 0.000000 0.000000 1.799600 
# 
# From -- ./inp_files/33718.got.cif
#   From: 2010.03.12/outbox.cif.g09.slc.cpg/sg24_17_cif.got.tgz:33718.got - 2010.04.14 03:06:53.
