data_PCOD8164821
_publ_section_title
;
Structure prediction by ZEFSAII (Michael W. Deem and Ramdas Pophale) SiO2 
 PCOD8164821
Probable space group: I 21 21 21
;
_chemical_formula_sum "Si O2"
_cell_formula_units_Z 64
_cell_length_a 17.982495
_cell_length_b 26.551898
_cell_length_c 8.988254
_cell_angle_alpha 90.000000
_cell_angle_beta 90.000000
_cell_angle_gamma 90.000000
_cell_volume 4291.616002
_symmetry_space_group_name_H-M "I 21 21 21"
_symmetry_group_IT_number 24
_symmetry_cell_setting 'orthorhombic'
loop_
_space_group_symop_operation_xyz
x,y,z
-x,1/2-y,z
x,-y,1/2-z
1/2-x,y,-z
1/2+x,1/2+y,1/2+z
1/2-x,-y,1/2+z
1/2+x,1/2-y,-z
-x,1/2+y,1/2-z
loop_
_atom_site_type_symbol
_atom_site_label
_atom_site_fract_x
_atom_site_fract_y
_atom_site_fract_z
Si Si1 0.335880 0.947837 0.673913
Si Si2 0.664120 0.552163 0.326087
Si Si3 0.949825 0.200837 0.336536
Si Si4 0.449825 0.700837 0.163463
Si Si5 0.592644 0.646372 0.824000
Si Si6 0.907356 0.646372 0.824000
Si Si7 0.164241 0.240324 0.829342
Si Si8 0.164241 0.240324 0.170657
O O1 0.352475 0.951902 0.500000
O O2 0.250000 0.934623 0.705139
O O3 0.386525 0.905101 0.744726
O O4 0.358302 0.000000 0.750000
O O5 0.641698 0.500000 0.250000
O O6 0.613475 0.594899 0.255274
O O7 0.916437 0.188918 0.500000
O O8 0.882452 0.210473 0.222462
O O9 0.000000 0.250000 0.346602
O O10 0.005524 0.156291 0.284808
O O11 0.500000 0.750000 0.153398
O O12 0.505524 0.656291 0.215192
O O13 0.382452 0.710473 0.277537
O O14 0.644883 0.691243 0.766046
O O15 0.605019 0.642119 1.000000
O O16 0.855117 0.691243 0.766046
O O17 0.250000 0.253963 0.807104
O O18 0.145048 0.228488 1.000000
#
# Coordination Sequence:
#
# PCOD8164821 Si02
#       8
#     8   8   8   8   8   8   8   8
#     4  10  20  32  45  62  84 110 141 175 209 244
#     4  10  20  32  45  62  84 110 141 175 209 244
#     4   8  16  29  42  58  80 107 139 172 206 245
#     4   8  16  29  42  58  80 107 139 172 206 245
#     4  10  19  30  44  61  82 110 143 175 208 247
#     4  10  19  30  44  61  82 110 143 175 208 247
#     4  10  19  28  40  61  86 111 141 174 207 246
#     4  10  19  28  40  61  86 111 141 174 207 246
#
# _framework density 14.912796999999999
#
# number of rings (size 3 to 8) (size 9 to 14) (size 15 to 20)
#    0.000    2.500    0.000    4.500    0.000   12.000 
#    0.000    0.000    0.000    0.000    0.000    0.000 
#    0.000    1.000    0.000    3.250    0.000    4.750 
#
# Total GULP energy -396714.076422 kJ/mol
# GULP energy per Si atom -12397.314888 kJ/mol
# Density = 1.487885 g / cm^3
# Si number density = 14.912797 Si / 1000 Ang^3
#
#
#
# Elastic Constant Matrix: (Units=GPa)
#
#
# Indices 1 2 3 4 5 6 
#
# 1 79.4510 52.0831 52.8121 0.0000 0.0000 0.0000
# 2 52.0831 93.2900 52.6300 0.0000 0.0000 0.0000
# 3 52.8121 52.6300 96.2901 0.0000 0.0000 0.0000
# 4 0.0000 0.0000 0.0000 26.6864 0.0000 0.0000
# 5 0.0000 0.0000 0.0000 0.0000 24.7387 0.0000
# 6 0.0000 0.0000 0.0000 0.0000 0.0000 25.1673
#
#
#
# Elastic Compliance Matrix: (Units=1/GPa)
#
#
# Indices 1 2 3 4 5 6 
#
# 1 0.023735 -0.008541 -0.008350 0.000000 0.000000 0.000000
# 2 -0.008541 0.018571 -0.005466 0.000000 0.000000 0.000000
# 3 -0.008350 -0.005466 0.017953 0.000000 0.000000 0.000000
# 4 0.000000 0.000000 0.000000 0.037472 0.000000 0.000000
# 5 0.000000 0.000000 0.000000 0.000000 0.040422 0.000000
# 6 0.000000 0.000000 0.000000 0.000000 0.000000 0.039734
#
#
# Mechanical properties :
#
#
# Convention : Reuss Voigt Hill
#
# Bulk Modulus (GPa) = 64.32737 64.89795 64.61266
# Shear Modulus (GPa) = 21.95060 22.75222 22.35141
#
# Velocity S-wave (km/s) = 3.84074 3.91024 3.87564
# Velocity P-wave (km/s) = 7.93081 7.99996 7.96546
#
# Compressibility (1/GPa) = 0.01554548
#
# Stress axis : x y z
#
# Youngs Moduli (GPa) = 42.13115 53.84652 55.70150
#
# Poissons Ratio (x) = 0.45988 0.46511
# Poissons Ratio (y) = 0.35982 0.30449
# Poissons Ratio (z) = 0.35180 0.29435
#
# Static dielectric constant tensor:
#      x y z
#    x 2.998670 0.000000 0.000000 
#    y 0.000000 2.815210 0.000000 
#    z 0.000000 0.000000 3.059600 
# 
# 
# High freq. dielectric constant tensor:
#      x y z
#    x 1.555160 0.000000 0.000000 
#    y 0.000000 1.540050 0.000000 
#    z 0.000000 0.000000 1.589260 
# 
# From -- ./inp_files/14655.got.cif
#   From: 2010.03.12/outbox.cif.g09.slc.cpg/sg24_8_cif.got.tgz:14655.got - 2010.04.14 03:06:53.
