data_PCOD8164985
_publ_section_title
;
Structure prediction by ZEFSAII (Michael W. Deem and Ramdas Pophale) SiO2 
 PCOD8164985
Probable space group: I 21 21 21
;
_chemical_formula_sum "Si O2"
_cell_formula_units_Z 64
_cell_length_a 9.139454
_cell_length_b 16.855031
_cell_length_c 20.433261
_cell_angle_alpha 90.000000
_cell_angle_beta 90.000000
_cell_angle_gamma 90.000000
_cell_volume 3147.657639
_symmetry_space_group_name_H-M "I 21 21 21"
_symmetry_group_IT_number 24
_symmetry_cell_setting 'orthorhombic'
loop_
_space_group_symop_operation_xyz
x,y,z
-x,1/2-y,z
x,-y,1/2-z
1/2-x,y,-z
1/2+x,1/2+y,1/2+z
1/2-x,-y,1/2+z
1/2+x,1/2-y,-z
-x,1/2+y,1/2-z
loop_
_atom_site_type_symbol
_atom_site_label
_atom_site_fract_x
_atom_site_fract_y
_atom_site_fract_z
Si Si1 0.194913 0.841899 0.738524
Si Si2 0.985926 0.843187 0.853438
Si Si3 0.599930 0.445338 0.689047
Si Si4 0.205844 0.701761 0.570592
Si Si5 0.856633 0.201449 0.194972
Si Si6 0.719364 0.927600 0.791100
Si Si7 0.903269 0.371007 0.900654
Si Si8 0.187939 0.039851 0.569636
O O1 0.053614 0.854733 0.782353
O O2 0.339278 0.862174 0.781779
O O3 0.212423 0.750103 0.718141
O O4 0.163505 0.889509 0.671417
O O5 0.064942 0.896423 0.908257
O O6 0.000000 0.750000 0.874570
O O7 0.822135 0.878581 0.841282
O O8 0.645445 0.500000 0.750000
O O9 0.428174 0.451916 0.669575
O O10 0.682610 0.466393 0.622246
O O11 0.250000 0.668725 0.500000
O O12 0.344376 0.685762 0.617413
O O13 0.175420 0.796153 0.565222
O O14 0.074464 0.650329 0.601328
O O15 0.858265 0.120902 0.233516
O O16 0.000000 0.250000 0.210279
O O17 0.795968 0.000000 0.750000
O O18 0.882000 0.452443 0.940710
O O19 0.250000 0.069313 0.500000
#
# Coordination Sequence:
#
# PCOD8164985 Si02
#       8
#     8   8   8   8   8   8   8   8
#     4  10  19  36  63  92 121 167 214 254 315 394
#     4  11  24  41  68  93 130 170 221 276 343 404
#     4  10  20  40  64  96 127 161 212 266 329 390
#     4  10  23  37  55  90 132 180 217 256 322 406
#     4  11  21  36  62  90 132 171 212 269 329 391
#     4  11  24  38  62 101 134 158 210 286 345 385
#     4  10  21  39  64  87 128 174 223 265 316 400
#     4  11  25  45  69  94 126 175 229 273 335 409
#
# _framework density 20.33258
#
# number of rings (size 3 to 8) (size 9 to 14) (size 15 to 20)
#    0.000    1.500    3.750    1.125    7.000    0.000 
#    4.500    1.875    0.000    0.000    0.000    0.000 
#    0.000    0.000    0.000    0.000    0.000    0.000 
#
# Total GULP energy -396504.070147 kJ/mol
# GULP energy per Si atom -12390.752192 kJ/mol
# Density = 2.028630 g / cm^3
# Si number density = 20.332580 Si / 1000 Ang^3
#
#
#
# Elastic Constant Matrix: (Units=GPa)
#
#
# Indices 1 2 3 4 5 6 
#
# 1 94.5041 40.1112 40.4996 0.0000 0.0000 0.0000
# 2 40.1112 98.4455 34.1067 0.0000 0.0000 0.0000
# 3 40.4996 34.1067 110.7690 0.0000 0.0000 0.0000
# 4 0.0000 0.0000 0.0000 20.7783 0.0000 0.0000
# 5 0.0000 0.0000 0.0000 0.0000 22.8759 0.0000
# 6 0.0000 0.0000 0.0000 0.0000 0.0000 21.2702
#
#
#
# Elastic Compliance Matrix: (Units=1/GPa)
#
#
# Indices 1 2 3 4 5 6 
#
# 1 0.014083 -0.004426 -0.003786 0.000000 0.000000 0.000000
# 2 -0.004426 0.012762 -0.002311 0.000000 0.000000 0.000000
# 3 -0.003786 -0.002311 0.011124 0.000000 0.000000 0.000000
# 4 0.000000 0.000000 0.000000 0.048127 0.000000 0.000000
# 5 0.000000 0.000000 0.000000 0.000000 0.043714 0.000000
# 6 0.000000 0.000000 0.000000 0.000000 0.000000 0.047014
#
#
# Mechanical properties :
#
#
# Convention : Reuss Voigt Hill
#
# Bulk Modulus (GPa) = 59.09661 59.23928 59.16795
# Shear Modulus (GPa) = 24.56865 25.58496 25.07681
#
# Velocity S-wave (km/s) = 3.47989 3.55113 3.51569
# Velocity P-wave (km/s) = 6.72861 6.78325 6.75599
#
# Compressibility (1/GPa) = 0.01692144
#
# Stress axis : x y z
#
# Youngs Moduli (GPa) = 71.00887 78.35699 89.89802
#
# Poissons Ratio (x) = 0.34683 0.34036
# Poissons Ratio (y) = 0.31430 0.20777
# Poissons Ratio (z) = 0.26884 0.18110
#
# Static dielectric constant tensor:
#      x y z
#    x 3.679580 0.000000 0.000000 
#    y 0.000000 3.817560 0.000000 
#    z 0.000000 0.000000 3.423420 
# 
# 
# High freq. dielectric constant tensor:
#      x y z
#    x 1.796630 0.000000 0.000000 
#    y 0.000000 1.793410 0.000000 
#    z 0.000000 0.000000 1.770330 
# 
# From -- ./inp_files/32941.got.cif
#   From: 2010.03.12/outbox.cif.g09.slc.cpg/sg24_17_cif.got.tgz:32941.got - 2010.04.14 03:06:53.
