data_PCOD8164132
_publ_section_title
;
Structure prediction by ZEFSAII (Michael W. Deem and Ramdas Pophale) SiO2 
 PCOD8164132
Probable space group: I 2 2 2
;
_chemical_formula_sum "Si O2"
_cell_formula_units_Z 64
_cell_length_a 14.734502
_cell_length_b 17.644206
_cell_length_c 11.882953
_cell_angle_alpha 90.000000
_cell_angle_beta 90.000000
_cell_angle_gamma 90.000000
_cell_volume 3089.313349
_symmetry_space_group_name_H-M "I 2 2 2"
_symmetry_group_IT_number 23
_symmetry_cell_setting 'orthorhombic'
loop_
_space_group_symop_operation_xyz
x,y,z
-x,-y,z
x,-y,-z
-x,y,-z
1/2+x,1/2+y,1/2+z
1/2-x,1/2-y,1/2+z
1/2+x,1/2-y,1/2-z
1/2-x,1/2+y,1/2-z
loop_
_atom_site_type_symbol
_atom_site_label
_atom_site_fract_x
_atom_site_fract_y
_atom_site_fract_z
Si Si1 0.595790 0.243707 0.533898
Si Si2 0.350346 0.916905 0.490962
Si Si3 0.982707 0.087349 0.629245
Si Si4 0.268622 0.197476 0.101756
Si Si5 0.364966 0.315196 0.239344
Si Si6 0.785235 0.571346 0.257640
Si Si7 0.896405 0.584837 0.467052
Si Si8 0.721091 0.410286 0.200910
O O1 0.500000 0.282075 0.500000
O O2 0.583665 0.153606 0.511223
O O3 0.676516 0.281348 0.462598
O O4 0.609412 0.253905 0.666509
O O5 0.306860 0.908379 0.369512
O O6 0.271163 0.911316 0.582182
O O7 0.399301 0.000000 0.500000
O O8 0.882092 0.103337 0.669317
O O9 0.000000 0.108792 0.500000
O O10 0.046976 0.138149 0.705412
O O11 0.000000 0.000000 0.652041
O O12 0.324758 0.273468 0.129236
O O13 0.247939 0.159785 0.221501
O O14 0.330303 0.143303 0.026697
O O15 0.293030 0.371660 0.297097
O O16 0.875640 0.586361 0.332943
O O17 0.745040 0.486682 0.269414
O O18 0.871269 0.500000 0.500000
O O19 0.000000 0.605036 0.500000
#
# Coordination Sequence:
#
# PCOD8164132 Si02
#       8
#     8   8   8   8   8   8   8   8
#     4  12  26  44  67  99 139 180 226 286 349 413
#     4  10  23  42  70  97 131 181 229 278 348 408
#     4  11  24  39  68 103 137 177 239 285 336 417
#     4  12  25  44  70 100 139 181 224 289 351 405
#     4  12  24  43  66 101 139 182 225 284 348 411
#     4  11  21  42  73  95 135 179 228 278 338 412
#     4  11  25  46  72 101 133 181 237 282 338 417
#     4  11  22  43  69  99 137 183 224 284 348 406
#
# _framework density 20.716577000000001
#
# number of rings (size 3 to 8) (size 9 to 14) (size 15 to 20)
#    0.000    0.750    6.250    1.500    3.500    1.750 
#    2.250    0.000    0.000    0.000    0.000    0.000 
#    0.000    0.000    0.000    0.000    0.000    0.000 
#
# Total GULP energy -396745.539815 kJ/mol
# GULP energy per Si atom -12398.298119 kJ/mol
# Density = 2.066943 g / cm^3
# Si number density = 20.716577 Si / 1000 Ang^3
#
#
#
# Elastic Constant Matrix: (Units=GPa)
#
#
# Indices 1 2 3 4 5 6 
#
# 1 144.9174 49.6224 59.5493 0.0000 0.0000 0.0000
# 2 49.6224 100.6950 45.7199 0.0000 0.0000 0.0000
# 3 59.5493 45.7199 120.2656 0.0000 0.0000 0.0000
# 4 0.0000 0.0000 0.0000 31.3403 0.0000 0.0000
# 5 0.0000 0.0000 0.0000 0.0000 27.2169 0.0000
# 6 0.0000 0.0000 0.0000 0.0000 0.0000 29.8582
#
#
#
# Elastic Compliance Matrix: (Units=1/GPa)
#
#
# Indices 1 2 3 4 5 6 
#
# 1 0.009373 -0.003036 -0.003487 0.000000 0.000000 0.000000
# 2 -0.003036 0.012986 -0.003434 0.000000 0.000000 0.000000
# 3 -0.003487 -0.003434 0.011347 0.000000 0.000000 0.000000
# 4 0.000000 0.000000 0.000000 0.031908 0.000000 0.000000
# 5 0.000000 0.000000 0.000000 0.000000 0.036742 0.000000
# 6 0.000000 0.000000 0.000000 0.000000 0.000000 0.033492
#
#
# Mechanical properties :
#
#
# Convention : Reuss Voigt Hill
#
# Bulk Modulus (GPa) = 72.49964 75.07346 73.78655
# Shear Modulus (GPa) = 31.18046 31.74885 31.46466
#
# Velocity S-wave (km/s) = 3.88377 3.91901 3.90143
# Velocity P-wave (km/s) = 7.42856 7.53626 7.48260
#
# Compressibility (1/GPa) = 0.01379317
#
# Stress axis : x y z
#
# Youngs Moduli (GPa) = 106.69189 77.00610 88.13098
#
# Poissons Ratio (x) = 0.23377 0.30730
# Poissons Ratio (y) = 0.32389 0.30261
# Poissons Ratio (z) = 0.37202 0.26441
#
# Static dielectric constant tensor:
#      x y z
#    x 3.666450 0.000000 0.000000 
#    y 0.000000 4.043000 0.000000 
#    z 0.000000 0.000000 3.699260 
# 
# 
# High freq. dielectric constant tensor:
#      x y z
#    x 1.809970 0.000000 0.000000 
#    y 0.000000 1.824680 0.000000 
#    z 0.000000 0.000000 1.816930 
# 
# From -- ./inp_files/16964.got.cif
#   From: 2010.03.12/outbox.cif.g09.slc.cpg/sg23_9_cif.got.tgz:16964.got - 2010.04.14 02:50:06.
