data_PCOD8164840
_publ_section_title
;
Structure prediction by ZEFSAII (Michael W. Deem and Ramdas Pophale) SiO2 
 PCOD8164840
Probable space group: I 21 21 21
;
_chemical_formula_sum "Si O2"
_cell_formula_units_Z 48
_cell_length_a 10.302335
_cell_length_b 23.697612
_cell_length_c 9.852472
_cell_angle_alpha 90.000000
_cell_angle_beta 90.000000
_cell_angle_gamma 90.000000
_cell_volume 2405.389781
_symmetry_space_group_name_H-M "I 21 21 21"
_symmetry_group_IT_number 24
_symmetry_cell_setting 'orthorhombic'
loop_
_space_group_symop_operation_xyz
x,y,z
-x,1/2-y,z
x,-y,1/2-z
1/2-x,y,-z
1/2+x,1/2+y,1/2+z
1/2-x,-y,1/2+z
1/2+x,1/2-y,-z
-x,1/2+y,1/2-z
loop_
_atom_site_type_symbol
_atom_site_label
_atom_site_fract_x
_atom_site_fract_y
_atom_site_fract_z
Si Si1 0.750000 0.159215 0.000000
Si Si2 0.963871 0.932975 0.544618
Si Si3 0.102031 0.300642 0.250055
Si Si4 0.045959 0.557175 0.979320
Si Si5 0.447909 0.911522 0.741785
Si Si6 0.750000 0.149360 0.500000
Si Si7 0.834123 0.564000 0.771615
O O1 0.640661 0.116540 0.055412
O O2 0.699232 0.200943 0.880346
O O3 0.032539 0.943403 0.399939
O O4 0.073047 0.915314 0.651393
O O5 0.904528 0.995827 0.576637
O O6 0.187218 0.309664 0.386557
O O7 0.000000 0.250000 0.264173
O O8 0.007804 0.351248 0.221221
O O9 0.144508 0.606721 0.933910
O O10 0.907153 0.571888 0.913844
O O11 0.025830 0.555682 0.141001
O O12 0.297295 0.900311 0.774605
O O13 0.789175 0.500000 0.750000
#
# Coordination Sequence:
#
# PCOD8164840 Si02
#       7
#     4   8   8   8   8   4   8
#     4  10  21  40  62  82 118 144 197 246 288 348
#     4  10  19  32  55  85 118 154 184 224 284 347
#     4  10  23  45  60  84 110 149 197 252 294 334
#     4  10  19  32  55  85 118 154 184 224 284 347
#     4  10  20  34  54  78 118 151 189 231 280 339
#     4  10  21  40  62  82 118 144 197 246 288 348
#     4  10  19  31  49  83 122 151 184 221 272 346
#
# _framework density 19.955186000000001
#
# number of rings (size 3 to 8) (size 9 to 14) (size 15 to 20)
#    0.000    2.000    0.000    4.000    0.000    2.667 
#   12.000    5.833    0.000    0.000    0.000    0.000 
#    0.000    0.000    0.000    0.000    0.000    0.000 
#
# Total GULP energy -297450.643138 kJ/mol
# GULP energy per Si atom -12393.776797 kJ/mol
# Density = 1.990977 g / cm^3
# Si number density = 19.955186 Si / 1000 Ang^3
#
#
#
# Elastic Constant Matrix: (Units=GPa)
#
#
# Indices 1 2 3 4 5 6 
#
# 1 91.7245 22.7340 28.5925 0.0006 0.0007 -0.0003
# 2 22.7340 57.4575 28.4271 0.0000 0.0001 -0.0003
# 3 28.5925 28.4271 98.2361 0.0014 -0.0014 0.0012
# 4 0.0006 0.0000 0.0014 15.9366 0.0000 0.0000
# 5 0.0007 0.0001 -0.0014 0.0000 36.6482 0.0001
# 6 -0.0003 -0.0003 0.0012 0.0000 0.0001 27.4389
#
#
#
# Elastic Compliance Matrix: (Units=1/GPa)
#
#
# Indices 1 2 3 4 5 6 
#
# 1 0.012633 -0.003711 -0.002603 0.000000 0.000000 0.000000
# 2 -0.003711 0.021402 -0.005113 0.000001 0.000000 0.000000
# 3 -0.002603 -0.005113 0.012417 -0.000001 0.000001 -0.000001
# 4 0.000000 0.000001 -0.000001 0.062749 0.000000 0.000000
# 5 0.000000 0.000000 0.000001 0.000000 0.027286 0.000000
# 6 0.000000 0.000000 -0.000001 0.000000 0.000000 0.036445
#
#
# Mechanical properties :
#
#
# Convention : Reuss Voigt Hill
#
# Bulk Modulus (GPa) = 42.37628 45.21392 43.79510
# Shear Modulus (GPa) = 24.55162 27.18238 25.86700
#
# Velocity S-wave (km/s) = 3.51142 3.69476 3.60426
# Velocity P-wave (km/s) = 6.14182 6.39599 6.27019
#
# Compressibility (1/GPa) = 0.02359811
#
# Stress axis : x y z
#
# Youngs Moduli (GPa) = 79.15522 46.72443 80.53532
#
# Poissons Ratio (x) = 0.17338 0.20966
# Poissons Ratio (y) = 0.29372 0.41179
# Poissons Ratio (z) = 0.20607 0.23891
#
# Static dielectric constant tensor:
#      x y z
#    x 3.801430 0.000000 0.000000 
#    y 0.000000 3.588840 0.000000 
#    z 0.000000 0.000000 3.840700 
# 
# 
# High freq. dielectric constant tensor:
#      x y z
#    x 1.786030 0.000000 0.000000 
#    y 0.000000 1.744960 0.000000 
#    z 0.000000 0.000000 1.790220 
# 
# From -- ./inp_files/11333.got.cif
#   From: 2010.03.12/outbox.cif.g09.slc.cpg/sg24_6_cif.got.tgz:11333.got - 2010.04.14 03:06:53.
