data_PCOD8164468
_publ_section_title
;
Structure prediction by ZEFSAII (Michael W. Deem and Ramdas Pophale) SiO2 
 PCOD8164468
Probable space group: I 2 2 2
;
_chemical_formula_sum "Si O2"
_cell_formula_units_Z 64
_cell_length_a 11.290989
_cell_length_b 28.614932
_cell_length_c 8.758732
_cell_angle_alpha 90.000000
_cell_angle_beta 90.000000
_cell_angle_gamma 90.000000
_cell_volume 2829.866451
_symmetry_space_group_name_H-M "I 2 2 2"
_symmetry_group_IT_number 23
_symmetry_cell_setting 'orthorhombic'
loop_
_space_group_symop_operation_xyz
x,y,z
-x,-y,z
x,-y,-z
-x,y,-z
1/2+x,1/2+y,1/2+z
1/2-x,1/2-y,1/2+z
1/2+x,1/2-y,1/2-z
1/2-x,1/2+y,1/2-z
loop_
_atom_site_type_symbol
_atom_site_label
_atom_site_fract_x
_atom_site_fract_y
_atom_site_fract_z
Si Si1 0.635253 0.210220 0.517167
Si Si2 0.861929 0.990002 0.670355
Si Si3 0.414317 0.882056 0.619970
Si Si4 0.171832 0.245553 0.284912
Si Si5 0.971751 0.151927 0.678542
Si Si6 0.574903 0.839582 0.857631
Si Si7 0.686112 0.606110 0.338055
Si Si8 0.207452 0.080746 0.190610
O O1 0.500000 0.225989 0.500000
O O2 0.663592 0.154090 0.519549
O O3 0.696669 0.232658 0.663553
O O4 0.704655 0.231300 0.375010
O O5 0.828182 0.938509 0.727054
O O6 0.810239 0.000000 0.500000
O O7 0.806247 0.025480 0.792055
O O8 0.000000 0.000000 0.668894
O O9 0.500000 0.911341 0.500000
O O10 0.494204 0.843080 0.707609
O O11 0.341411 0.911049 0.744860
O O12 0.111100 0.285872 0.388811
O O13 0.087408 0.200483 0.271230
O O14 0.086780 0.143464 0.786041
O O15 0.000000 0.153152 0.500000
O O16 0.881852 0.108827 0.701294
O O17 0.684707 0.872902 0.821701
O O18 0.500000 0.858962 0.000000
O O19 0.676394 0.593730 0.517311
#
# Coordination Sequence:
#
# PCOD8164468 Si02
#       8
#     8   8   8   8   8   8   8   8
#     4  11  26  45  66 101 142 193 253 307 370 446
#     4  11  25  47  79 114 150 191 242 311 398 467
#     4  11  24  49  72 101 143 203 246 306 369 457
#     4  12  28  44  72 101 152 197 257 311 374 443
#     4  12  28  44  71 110 151 193 250 308 383 453
#     4  12  27  48  74 102 150 199 252 304 380 444
#     4  12  28  47  78 114 149 194 249 322 378 466
#     4  12  25  49  77 111 151 188 250 314 391 457
#
# _framework density 22.615908999999998
#
# number of rings (size 3 to 8) (size 9 to 14) (size 15 to 20)
#    0.000    0.375    6.250    1.875   10.500    0.500 
#    0.000    0.625    0.000    0.000    0.000    0.000 
#    0.000    0.000    0.000    0.000    0.000    0.000 
#
# Total GULP energy -396577.201407 kJ/mol
# GULP energy per Si atom -12393.037544 kJ/mol
# Density = 2.256443 g / cm^3
# Si number density = 22.615909 Si / 1000 Ang^3
#
#
#
# Elastic Constant Matrix: (Units=GPa)
#
#
# Indices 1 2 3 4 5 6 
#
# 1 110.7285 46.6438 35.1365 0.0004 -0.0005 0.0005
# 2 46.6438 124.8392 30.8192 -0.0033 0.0012 0.0015
# 3 35.1365 30.8192 126.9989 -0.0121 0.0112 0.0081
# 4 0.0004 -0.0033 -0.0121 32.4820 0.0039 0.0035
# 5 -0.0005 0.0012 0.0112 0.0039 46.2163 -0.0022
# 6 0.0005 0.0015 0.0081 0.0035 -0.0022 25.5809
#
#
#
# Elastic Compliance Matrix: (Units=1/GPa)
#
#
# Indices 1 2 3 4 5 6 
#
# 1 0.011283 -0.003665 -0.002232 -0.000001 0.000001 0.000001
# 2 -0.003665 0.009711 -0.001343 0.000001 0.000000 0.000000
# 3 -0.002232 -0.001343 0.008818 0.000003 -0.000002 -0.000003
# 4 -0.000001 0.000001 0.000003 0.030786 -0.000003 -0.000004
# 5 0.000001 0.000000 -0.000002 -0.000003 0.021637 0.000002
# 6 0.000001 0.000000 -0.000003 -0.000004 0.000002 0.039092
#
#
# Mechanical properties :
#
#
# Convention : Reuss Voigt Hill
#
# Bulk Modulus (GPa) = 65.22189 65.30729 65.26459
# Shear Modulus (GPa) = 35.48180 37.52031 36.50106
#
# Velocity S-wave (km/s) = 3.96521 4.07753 4.02176
# Velocity P-wave (km/s) = 7.06155 7.14897 7.10539
#
# Compressibility (1/GPa) = 0.01533228
#
# Stress axis : x y z
#
# Youngs Moduli (GPa) = 88.62740 102.97591 113.41009
#
# Poissons Ratio (x) = 0.37737 0.25318
# Poissons Ratio (y) = 0.32479 0.15228
# Poissons Ratio (z) = 0.19785 0.13827
#
# Static dielectric constant tensor:
#      x y z
#    x 4.140650 0.000000 0.000000 
#    y 0.000000 4.022120 0.000000 
#    z 0.000000 0.000000 4.353550 
# 
# 
# High freq. dielectric constant tensor:
#      x y z
#    x 1.894830 0.000000 0.000000 
#    y 0.000000 1.880310 0.000000 
#    z 0.000000 0.000000 1.911770 
# 
# From -- ./inp_files/8959.got.cif
#   From: 2010.03.12/outbox.cif.g09.slc.cpg/sg23_5_cif.got.tgz:8959.got - 2010.04.14 02:50:06.
