data_PCOD8164315
_publ_section_title
;
Structure prediction by ZEFSAII (Michael W. Deem and Ramdas Pophale) SiO2 
 PCOD8164315
Probable space group: I 2 2 2
;
_chemical_formula_sum "Si O2"
_cell_formula_units_Z 48
_cell_length_a 8.809092
_cell_length_b 28.131002
_cell_length_c 9.262665
_cell_angle_alpha 90.000000
_cell_angle_beta 90.000000
_cell_angle_gamma 90.000000
_cell_volume 2295.367904
_symmetry_space_group_name_H-M "I 2 2 2"
_symmetry_group_IT_number 23
_symmetry_cell_setting 'orthorhombic'
loop_
_space_group_symop_operation_xyz
x,y,z
-x,-y,z
x,-y,-z
-x,y,-z
1/2+x,1/2+y,1/2+z
1/2-x,1/2-y,1/2+z
1/2+x,1/2-y,1/2-z
1/2-x,1/2+y,1/2-z
loop_
_atom_site_type_symbol
_atom_site_label
_atom_site_fract_x
_atom_site_fract_y
_atom_site_fract_z
Si Si1 0.374620 0.348225 0.206653
Si Si2 0.752905 0.049920 0.981908
Si Si3 0.166295 0.350888 0.482641
Si Si4 0.667999 0.203222 0.495486
Si Si5 0.501267 0.551599 0.268600
Si Si6 0.331454 0.706784 0.287072
O O1 0.253201 0.339993 0.334728
O O2 0.286582 0.336367 0.059233
O O3 0.442217 0.401438 0.182232
O O4 0.504559 0.309144 0.230917
O O5 0.638309 0.092583 0.012226
O O6 0.829835 0.059342 0.825600
O O7 0.887039 0.046783 0.097503
O O8 0.662637 0.000000 0.000000
O O9 0.267476 0.336371 0.618433
O O10 0.000000 0.326181 0.500000
O O11 0.500000 0.180292 0.500000
O O12 0.659045 0.247779 0.388994
O O13 0.722024 0.219674 0.653638
O O14 0.500000 0.500000 0.183262
#
# Coordination Sequence:
#
# PCOD8164315 Si02
#       6
#     8   8   8   8   8   8
#     4  11  22  40  64  91 122 165 210 252 305 369
#     4   8  14  27  50  85 122 155 194 243 298 350
#     4  11  21  34  57  89 125 161 198 253 310 353
#     4  12  26  42  62  90 123 159 205 259 313 369
#     4   8  14  29  57  90 117 153 202 253 291 353
#     4  12  24  42  63  86 119 165 207 252 301 374
#
# _framework density 20.911681000000002
#
# number of rings (size 3 to 8) (size 9 to 14) (size 15 to 20)
#    0.000    1.667    1.667    6.000    0.000    1.667 
#    0.000    0.000    0.000    2.000    0.000    1.167 
#    0.000    0.000    0.000    0.000    0.000    0.000 
#
# Total GULP energy -297368.900214 kJ/mol
# GULP energy per Si atom -12390.370842 kJ/mol
# Density = 2.086408 g / cm^3
# Si number density = 20.911681 Si / 1000 Ang^3
#
#
#
# Elastic Constant Matrix: (Units=GPa)
#
#
# Indices 1 2 3 4 5 6 
#
# 1 78.1347 5.8727 7.7215 0.0005 -0.0001 -0.0015
# 2 5.8727 112.4736 16.8823 0.0012 -0.0006 -0.0008
# 3 7.7215 16.8823 65.6615 0.0053 -0.0083 -0.0001
# 4 0.0005 0.0012 0.0053 22.0814 -0.0010 -0.0003
# 5 -0.0001 -0.0006 -0.0083 -0.0010 31.9502 0.0000
# 6 -0.0015 -0.0008 -0.0001 -0.0003 0.0000 21.1494
#
#
#
# Elastic Compliance Matrix: (Units=1/GPa)
#
#
# Indices 1 2 3 4 5 6 
#
# 1 0.012972 -0.000466 -0.001406 0.000000 0.000000 0.000001
# 2 -0.000466 0.009265 -0.002327 0.000000 0.000000 0.000000
# 3 -0.001406 -0.002327 0.015993 -0.000004 0.000004 0.000000
# 4 0.000000 0.000000 -0.000004 0.045287 0.000001 0.000001
# 5 0.000000 0.000000 0.000004 0.000001 0.031299 0.000000
# 6 0.000001 0.000000 0.000000 0.000001 0.000000 0.047283
#
#
# Mechanical properties :
#
#
# Convention : Reuss Voigt Hill
#
# Bulk Modulus (GPa) = 33.52108 35.24698 34.38403
# Shear Modulus (GPa) = 27.70991 30.08909 28.89950
#
# Velocity S-wave (km/s) = 3.64413 3.79735 3.72153
# Velocity P-wave (km/s) = 5.81127 6.00985 5.91139
#
# Compressibility (1/GPa) = 0.02983197
#
# Stress axis : x y z
#
# Youngs Moduli (GPa) = 77.08690 107.93725 62.52632
#
# Poissons Ratio (x) = 0.05034 0.08789
# Poissons Ratio (y) = 0.03595 0.14551
# Poissons Ratio (z) = 0.10835 0.25119
#
# Static dielectric constant tensor:
#      x y z
#    x 3.695090 0.000000 0.000000 
#    y 0.000000 4.125190 -0.000010 
#    z 0.000000 -0.000010 3.576100 
# 
# 
# High freq. dielectric constant tensor:
#      x y z
#    x 1.816000 0.000000 0.000000 
#    y 0.000000 1.829150 0.000000 
#    z 0.000000 0.000000 1.788420 
# 
# From -- ./inp_files/7342.got.cif
#   From: 2010.03.12/outbox.cif.g09.slc.cpg/sg23_4_cif.got.tgz:7342.got - 2010.04.14 02:50:06.
