data_PCOD8164836
_publ_section_title
;
Structure prediction by ZEFSAII (Michael W. Deem and Ramdas Pophale) SiO2 
 PCOD8164836
Probable space group: I 21 21 21
;
_chemical_formula_sum "Si O2"
_cell_formula_units_Z 60
_cell_length_a 11.496915
_cell_length_b 9.595141
_cell_length_c 25.883669
_cell_angle_alpha 90.000000
_cell_angle_beta 90.000000
_cell_angle_gamma 90.000000
_cell_volume 2855.344534
_symmetry_space_group_name_H-M "I 21 21 21"
_symmetry_group_IT_number 24
_symmetry_cell_setting 'orthorhombic'
loop_
_space_group_symop_operation_xyz
x,y,z
-x,1/2-y,z
x,-y,1/2-z
1/2-x,y,-z
1/2+x,1/2+y,1/2+z
1/2-x,-y,1/2+z
1/2+x,1/2-y,-z
-x,1/2+y,1/2-z
loop_
_atom_site_type_symbol
_atom_site_label
_atom_site_fract_x
_atom_site_fract_y
_atom_site_fract_z
Si Si1 0.250000 0.514235 0.500000
Si Si2 0.987161 0.898169 0.987355
Si Si3 0.238741 0.481024 0.888431
Si Si4 0.136481 0.222921 0.138390
Si Si5 0.165193 0.023629 0.048751
Si Si6 0.862371 0.726077 0.126475
Si Si7 0.235495 0.981259 0.808982
Si Si8 0.514139 0.407435 0.372454
O O1 0.351610 0.413904 0.480576
O O2 0.265934 0.593154 0.554712
O O3 0.000000 0.750000 0.016010
O O4 0.053783 0.896768 0.932271
O O5 0.036091 0.019334 0.023852
O O6 0.295727 0.367559 0.850406
O O7 0.306074 0.626357 0.886552
O O8 0.105049 0.502464 0.870990
O O9 0.171464 0.162705 0.082058
O O10 0.179294 0.110548 0.179706
O O11 0.000000 0.250000 0.144350
O O12 0.178797 0.884798 0.083251
O O13 0.250000 0.025197 0.000000
O O14 0.806680 0.662342 0.179408
O O15 0.000000 0.750000 0.132600
O O16 0.198723 0.000000 0.750000
O O17 0.115000 0.987849 0.841663
O O18 0.500000 0.250000 0.350020
#
# Coordination Sequence:
#
# PCOD8164836 Si02
#       8
#     4   8   8   8   8   8   8   8
#     4  10  20  30  52  86 126 168 212 252 292 382
#     4  10  19  30  56  90 123 168 216 261 311 374
#     4  11  22  38  64  95 136 177 223 268 333 393
#     4  11  25  45  65  95 141 177 220 286 343 404
#     4  11  23  37  61  92 136 180 224 262 325 392
#     4  11  22  40  68  97 131 176 228 286 337 394
#     4  11  25  48  72  97 129 170 223 291 360 415
#     4  10  21  42  66  98 132 168 222 283 331 401
#
# _framework density 21.013226
#
# number of rings (size 3 to 8) (size 9 to 14) (size 15 to 20)
#    0.000    1.333    1.333    6.000    6.533    1.067 
#    2.400    0.667    0.000    0.000    0.000    0.000 
#    0.000    0.000    0.000    0.000    0.000    0.000 
#
# Total GULP energy -371649.676026 kJ/mol
# GULP energy per Si atom -12388.322534 kJ/mol
# Density = 2.096540 g / cm^3
# Si number density = 21.013226 Si / 1000 Ang^3
#
#
#
# Elastic Constant Matrix: (Units=GPa)
#
#
# Indices 1 2 3 4 5 6 
#
# 1 131.1457 44.5245 43.4028 0.0000 0.0000 0.0000
# 2 44.5245 107.4584 19.0418 0.0000 0.0000 0.0000
# 3 43.4028 19.0418 87.2461 0.0000 0.0000 0.0000
# 4 0.0000 0.0000 0.0000 17.5123 0.0000 0.0000
# 5 0.0000 0.0000 0.0000 0.0000 22.1640 0.0000
# 6 0.0000 0.0000 0.0000 0.0000 0.0000 33.7941
#
#
#
# Elastic Compliance Matrix: (Units=1/GPa)
#
#
# Indices 1 2 3 4 5 6 
#
# 1 0.010240 -0.003474 -0.004336 0.000000 0.000000 0.000000
# 2 -0.003474 0.010859 -0.000642 0.000000 0.000000 0.000000
# 3 -0.004336 -0.000642 0.013759 0.000000 0.000000 0.000000
# 4 0.000000 0.000000 0.000000 0.057103 0.000000 0.000000
# 5 0.000000 0.000000 0.000000 0.000000 0.045118 0.000000
# 6 0.000000 0.000000 0.000000 0.000000 0.000000 0.029591
#
#
# Mechanical properties :
#
#
# Convention : Reuss Voigt Hill
#
# Bulk Modulus (GPa) = 55.69732 59.97648 57.83690
# Shear Modulus (GPa) = 26.37720 29.28614 27.83167
#
# Velocity S-wave (km/s) = 3.54682 3.73728 3.64329
# Velocity P-wave (km/s) = 6.58305 6.87221 6.72918
#
# Compressibility (1/GPa) = 0.01795419
#
# Stress axis : x y z
#
# Youngs Moduli (GPa) = 97.66041 92.08770 72.68109
#
# Poissons Ratio (x) = 0.31995 0.31512
# Poissons Ratio (y) = 0.33931 0.04663
# Poissons Ratio (z) = 0.42342 0.05909
#
# Static dielectric constant tensor:
#      x y z
#    x 4.067860 0.000000 0.000000 
#    y 0.000000 3.728410 0.000000 
#    z 0.000000 0.000000 3.686100 
# 
# 
# High freq. dielectric constant tensor:
#      x y z
#    x 1.841900 0.000000 0.000000 
#    y 0.000000 1.814540 0.000000 
#    z 0.000000 0.000000 1.793730 
# 
# From -- ./inp_files/37220.got.cif
#   From: 2010.03.12/outbox.cif.g09.slc.cpg/sg24_19_cif.got.tgz:37220.got - 2010.04.14 03:06:53.
