data_PCOD8164988
_publ_section_title
;
Structure prediction by ZEFSAII (Michael W. Deem and Ramdas Pophale) SiO2 
 PCOD8164988
Probable space group: I 21 21 21
;
_chemical_formula_sum "Si O2"
_cell_formula_units_Z 64
_cell_length_a 10.242643
_cell_length_b 18.861599
_cell_length_c 17.792532
_cell_angle_alpha 90.000000
_cell_angle_beta 90.000000
_cell_angle_gamma 90.000000
_cell_volume 3437.385962
_symmetry_space_group_name_H-M "I 21 21 21"
_symmetry_group_IT_number 24
_symmetry_cell_setting 'orthorhombic'
loop_
_space_group_symop_operation_xyz
x,y,z
-x,1/2-y,z
x,-y,1/2-z
1/2-x,y,-z
1/2+x,1/2+y,1/2+z
1/2-x,-y,1/2+z
1/2+x,1/2-y,-z
-x,1/2+y,1/2-z
loop_
_atom_site_type_symbol
_atom_site_label
_atom_site_fract_x
_atom_site_fract_y
_atom_site_fract_z
Si Si1 0.628149 0.349705 0.948236
Si Si2 0.632045 0.486423 0.555068
Si Si3 0.723611 0.572611 0.794891
Si Si4 0.123429 0.354137 0.954947
Si Si5 0.131386 0.210982 0.213119
Si Si6 0.381347 0.480064 0.459070
Si Si7 0.118694 0.299773 0.788590
Si Si8 0.526960 0.930663 0.199773
O O1 0.633368 0.431170 0.921415
O O2 0.629978 0.299966 0.876117
O O3 0.750000 0.330258 0.000000
O O4 0.500074 0.332797 0.995680
O O5 0.750000 0.470187 0.500000
O O6 0.649619 0.436887 0.626773
O O7 0.497415 0.464810 0.516645
O O8 0.710476 0.500000 0.750000
O O9 0.648754 0.635442 0.752881
O O10 0.875484 0.591353 0.807703
O O11 0.128085 0.437495 0.938520
O O12 0.114649 0.313810 0.876971
O O13 0.250000 0.328418 0.000000
O O14 0.248160 0.262613 0.235689
O O15 0.000000 0.250000 0.240002
O O16 0.250000 0.453007 0.500000
O O17 0.408038 0.439085 0.381845
O O18 0.109809 0.371365 0.741694
O O19 0.000000 0.250000 0.765429
O O20 0.539949 0.000000 0.250000
#
# Coordination Sequence:
#
# PCOD8164988 Si02
#       8
#     8   8   8   8   8   8   8   8
#     4  10  21  35  58  89 124 166 212 243 299 374
#     4  10  19  36  65  94 118 154 210 265 304 354
#     4  11  22  40  68  93 120 167 220 260 302 362
#     4  10  21  37  56  87 129 170 202 243 303 377
#     4  12  26  41  57  91 134 170 202 258 318 369
#     4  10  21  38  62  94 125 156 203 261 317 363
#     4  12  24  39  62  91 125 170 214 249 311 370
#     4  11  22  40  68  93 121 167 217 262 302 362
#
# _framework density 18.618798999999999
#
# number of rings (size 3 to 8) (size 9 to 14) (size 15 to 20)
#    0.000    1.250    5.000    1.500    0.000    4.000 
#    0.000    1.250    0.000    4.500    0.000    0.000 
#    0.000    0.000    0.000    0.000    0.000    0.000 
#
# Total GULP energy -396933.199879 kJ/mol
# GULP energy per Si atom -12404.162496 kJ/mol
# Density = 1.857642 g / cm^3
# Si number density = 18.618799 Si / 1000 Ang^3
#
#
#
# Elastic Constant Matrix: (Units=GPa)
#
#
# Indices 1 2 3 4 5 6 
#
# 1 159.1878 47.8918 45.2923 0.0000 0.0000 0.0000
# 2 47.8918 83.4821 37.3973 0.0000 0.0000 0.0000
# 3 45.2923 37.3973 84.2792 0.0000 0.0000 0.0000
# 4 0.0000 0.0000 0.0000 37.0581 0.0000 0.0000
# 5 0.0000 0.0000 0.0000 0.0000 51.3311 0.0000
# 6 0.0000 0.0000 0.0000 0.0000 0.0000 25.6080
#
#
#
# Elastic Compliance Matrix: (Units=1/GPa)
#
#
# Indices 1 2 3 4 5 6 
#
# 1 0.008110 -0.003370 -0.002863 0.000000 0.000000 0.000000
# 2 -0.003370 0.016351 -0.005444 0.000000 0.000000 0.000000
# 3 -0.002863 -0.005444 0.015820 0.000000 0.000000 0.000000
# 4 0.000000 0.000000 0.000000 0.026985 0.000000 0.000000
# 5 0.000000 0.000000 0.000000 0.000000 0.019481 0.000000
# 6 0.000000 0.000000 0.000000 0.000000 0.000000 0.039050
#
#
# Mechanical properties :
#
#
# Convention : Reuss Voigt Hill
#
# Bulk Modulus (GPa) = 59.08087 65.34577 62.21332
# Shear Modulus (GPa) = 32.30092 35.89064 34.09578
#
# Velocity S-wave (km/s) = 4.16968 4.39527 4.28396
# Velocity P-wave (km/s) = 7.41501 7.80581 7.61292
#
# Compressibility (1/GPa) = 0.01692595
#
# Stress axis : x y z
#
# Youngs Moduli (GPa) = 123.29792 61.15895 63.21207
#
# Poissons Ratio (x) = 0.20612 0.18099
# Poissons Ratio (y) = 0.41554 0.34414
# Poissons Ratio (z) = 0.35302 0.33296
#
# Static dielectric constant tensor:
#      x y z
#    x 3.465940 0.000000 0.000000 
#    y 0.000000 3.293510 0.000000 
#    z 0.000000 0.000000 3.354370 
# 
# 
# High freq. dielectric constant tensor:
#      x y z
#    x 1.733570 0.000000 0.000000 
#    y 0.000000 1.714120 0.000000 
#    z 0.000000 0.000000 1.720180 
# 
# From -- ./inp_files/29805.got.cif
#   From: 2010.03.12/outbox.cif.g09.slc.cpg/sg24_15_cif.got.tgz:29805.got - 2010.04.14 03:06:53.
