data_PCOD8164146
_publ_section_title
;
Structure prediction by ZEFSAII (Michael W. Deem and Ramdas Pophale) SiO2 
 PCOD8164146
Probable space group: I 2 2 2
;
_chemical_formula_sum "Si O2"
_cell_formula_units_Z 36
_cell_length_a 9.062022
_cell_length_b 7.533872
_cell_length_c 23.248009
_cell_angle_alpha 90.000000
_cell_angle_beta 90.000000
_cell_angle_gamma 90.000000
_cell_volume 1587.190716
_symmetry_space_group_name_H-M "I 2 2 2"
_symmetry_group_IT_number 23
_symmetry_cell_setting 'orthorhombic'
loop_
_space_group_symop_operation_xyz
x,y,z
-x,-y,z
x,-y,-z
-x,y,-z
1/2+x,1/2+y,1/2+z
1/2-x,1/2-y,1/2+z
1/2+x,1/2-y,1/2-z
1/2-x,1/2+y,1/2-z
loop_
_atom_site_type_symbol
_atom_site_label
_atom_site_fract_x
_atom_site_fract_y
_atom_site_fract_z
Si Si1 0.961188 0.317120 0.298200
Si Si2 0.218556 0.727835 0.191267
Si Si3 0.929895 0.683242 0.060540
Si Si4 0.000000 0.000000 0.855779
Si Si5 0.840043 0.053208 0.389665
O O1 0.118588 0.234684 0.281470
O O2 0.000000 0.500000 0.332228
O O3 0.879335 0.369804 0.239137
O O4 0.862622 0.187143 0.336411
O O5 0.240681 0.613094 0.132827
O O6 0.139882 0.921161 0.180021
O O7 0.752538 0.645630 0.058618
O O8 0.000000 0.500000 0.082285
O O9 0.947487 0.836500 0.106322
O O10 0.000000 0.742430 0.000000
O O11 0.000000 0.000000 0.414753
#
# Coordination Sequence:
#
# PCOD8164146 Si02
#       5
#     8   8   8   4   8
#     4  11  24  38  64  98 146 187 232 270 340 417
#     4  11  25  38  64 102 139 189 227 277 341 417
#     4  11  24  45  72 101 128 175 237 294 352 405
#     4  12  25  42  72 100 138 182 234 291 344 422
#     4  10  23  44  66 100 141 179 226 288 351 405
#
# _framework density 22.681583
#
# number of rings (size 3 to 8) (size 9 to 14) (size 15 to 20)
#    0.000    1.111    2.222    3.000   14.000    0.000 
#    0.000    2.222    0.000    0.000   23.111    0.000 
#    0.000    0.000    0.000    0.000    0.000    0.000 
#
# Total GULP energy -222999.081482 kJ/mol
# GULP energy per Si atom -12388.837860 kJ/mol
# Density = 2.262996 g / cm^3
# Si number density = 22.681583 Si / 1000 Ang^3
#
#
#
# Elastic Constant Matrix: (Units=GPa)
#
#
# Indices 1 2 3 4 5 6 
#
# 1 139.3778 8.2451 56.5547 0.0000 0.0000 0.0000
# 2 8.2451 98.5466 6.9376 0.0000 0.0000 0.0000
# 3 56.5547 6.9376 60.0715 0.0000 0.0000 0.0000
# 4 0.0000 0.0000 0.0000 26.4465 0.0000 0.0000
# 5 0.0000 0.0000 0.0000 0.0000 34.9633 0.0000
# 6 0.0000 0.0000 0.0000 0.0000 0.0000 45.0908
#
#
#
# Elastic Compliance Matrix: (Units=1/GPa)
#
#
# Indices 1 2 3 4 5 6 
#
# 1 0.011614 -0.000204 -0.010910 0.000000 0.000000 0.000000
# 2 -0.000204 0.010234 -0.000990 0.000000 0.000000 0.000000
# 3 -0.010910 -0.000990 0.027033 0.000000 0.000000 0.000000
# 4 0.000000 0.000000 0.000000 0.037812 0.000000 0.000000
# 5 0.000000 0.000000 0.000000 0.000000 0.028601 0.000000
# 6 0.000000 0.000000 0.000000 0.000000 0.000000 0.022177
#
#
# Mechanical properties :
#
#
# Convention : Reuss Voigt Hill
#
# Bulk Modulus (GPa) = 40.53114 49.05229 44.79172
# Shear Modulus (GPa) = 29.42825 36.38401 32.90613
#
# Velocity S-wave (km/s) = 3.60592 4.00949 3.81305
# Velocity P-wave (km/s) = 5.93678 6.56568 6.25913
#
# Compressibility (1/GPa) = 0.02467239
#
# Stress axis : x y z
#
# Youngs Moduli (GPa) = 86.10404 97.71124 36.99204
#
# Poissons Ratio (x) = 0.01990 0.40360
# Poissons Ratio (y) = 0.01753 0.03663
# Poissons Ratio (z) = 0.93943 0.09676
#
# Static dielectric constant tensor:
#      x y z
#    x 4.485680 0.000000 0.000000 
#    y 0.000000 4.364460 0.000000 
#    z 0.000000 0.000000 3.548070 
# 
# 
# High freq. dielectric constant tensor:
#      x y z
#    x 1.923560 0.000000 0.000000 
#    y 0.000000 1.904930 0.000000 
#    z 0.000000 0.000000 1.847460 
# 
# From -- ./inp_files/27881.got.cif
#   From: 2010.03.12/outbox.cif.g09.slc.cpg/sg23_14_cif.got.tgz:27881.got - 2010.04.14 02:50:06.
