data_PCOD8164536
_publ_section_title
;
Structure prediction by ZEFSAII (Michael W. Deem and Ramdas Pophale) SiO2 
 PCOD8164536
Probable space group: I 2 2 2
;
_chemical_formula_sum "Si O2"
_cell_formula_units_Z 32
_cell_length_a 6.852069
_cell_length_b 23.413630
_cell_length_c 8.860688
_cell_angle_alpha 90.000000
_cell_angle_beta 90.000000
_cell_angle_gamma 90.000000
_cell_volume 1421.536199
_symmetry_space_group_name_H-M "I 2 2 2"
_symmetry_group_IT_number 23
_symmetry_cell_setting 'orthorhombic'
loop_
_space_group_symop_operation_xyz
x,y,z
-x,-y,z
x,-y,-z
-x,y,-z
1/2+x,1/2+y,1/2+z
1/2-x,1/2-y,1/2+z
1/2+x,1/2-y,1/2-z
1/2-x,1/2+y,1/2-z
loop_
_atom_site_type_symbol
_atom_site_label
_atom_site_fract_x
_atom_site_fract_y
_atom_site_fract_z
Si Si1 0.311408 0.213879 0.903324
Si Si2 0.500000 0.000000 0.000000
Si Si3 0.000000 0.874175 0.000000
Si Si4 0.787486 0.065334 0.767726
Si Si5 0.430464 0.172784 0.345696
Si Si6 0.000000 0.000000 0.500000
O O1 0.373887 0.188819 0.743176
O O2 0.190131 0.270284 0.875821
O O3 0.189827 0.165491 0.989327
O O4 0.500000 0.230161 0.000000
O O5 0.639414 0.966142 0.116976
O O6 0.016036 0.917300 0.857485
O O7 0.694070 0.126038 0.736671
O O8 0.853134 0.034416 0.612065
O O9 0.500000 0.144439 0.500000
#
# Coordination Sequence:
#
# PCOD8164536 Si02
#       6
#     8   2   4   8   8   2
#     4  12  24  48  71 117 152 201 245 292 370 489
#     4  12  28  56  80 106 146 210 280 306 372 468
#     4  12  24  51  78 108 148 211 250 290 386 482
#     4  12  28  49  78 108 148 199 254 322 379 442
#     4  12  26  42  75 110 155 191 238 306 379 443
#     4  12  32  48  72 118 148 184 264 348 378 412
#
# _framework density 22.510857999999999
#
# number of rings (size 3 to 8) (size 9 to 14) (size 15 to 20)
#    0.000    0.000    3.750    6.000    8.750    0.000 
#    0.000    0.000    0.000    0.000    0.000    0.000 
#    0.000    0.000    0.000    0.000    0.000    0.000 
#
# Total GULP energy -198283.183659 kJ/mol
# GULP energy per Si atom -12392.698979 kJ/mol
# Density = 2.245962 g / cm^3
# Si number density = 22.510858 Si / 1000 Ang^3
#
#
#
# Elastic Constant Matrix: (Units=GPa)
#
#
# Indices 1 2 3 4 5 6 
#
# 1 95.2824 36.2939 53.3587 0.0006 0.0028 -0.0011
# 2 36.2939 101.2383 63.8531 0.0005 0.0018 -0.0002
# 3 53.3587 63.8531 167.9986 -0.0009 -0.0057 0.0113
# 4 0.0006 0.0005 -0.0009 45.9126 0.0008 0.0020
# 5 0.0028 0.0018 -0.0057 0.0008 16.9015 0.0046
# 6 -0.0011 -0.0002 0.0113 0.0020 0.0046 19.3369
#
#
#
# Elastic Compliance Matrix: (Units=1/GPa)
#
#
# Indices 1 2 3 4 5 6 
#
# 1 0.013333 -0.002774 -0.003180 0.000000 -0.000003 0.000003
# 2 -0.002774 0.013569 -0.004276 0.000000 -0.000002 0.000002
# 3 -0.003180 -0.004276 0.008588 0.000000 0.000004 -0.000005
# 4 0.000000 0.000000 0.000000 0.021781 -0.000001 -0.000002
# 5 -0.000003 -0.000002 0.000004 -0.000001 0.059166 -0.000014
# 6 0.000003 0.000002 -0.000005 -0.000002 -0.000014 0.051714
#
#
# Mechanical properties :
#
#
# Convention : Reuss Voigt Hill
#
# Bulk Modulus (GPa) = 66.53932 74.61452 70.57692
# Shear Modulus (GPa) = 25.82348 30.49779 28.16064
#
# Velocity S-wave (km/s) = 3.39064 3.68476 3.54076
# Velocity P-wave (km/s) = 6.70459 7.16388 6.93804
#
# Compressibility (1/GPa) = 0.01502871
#
# Stress axis : x y z
#
# Youngs Moduli (GPa) = 75.00346 73.69548 116.44218
#
# Poissons Ratio (x) = 0.20442 0.37033
# Poissons Ratio (y) = 0.20805 0.49796
# Poissons Ratio (z) = 0.23854 0.31515
#
# Static dielectric constant tensor:
#      x y z
#    x 4.090400 0.000000 0.000000 
#    y 0.000000 5.209290 0.000020 
#    z 0.000000 0.000020 4.644880 
# 
# 
# High freq. dielectric constant tensor:
#      x y z
#    x 1.894820 0.000000 0.000000 
#    y 0.000000 1.895640 0.000000 
#    z 0.000000 0.000000 1.918100 
# 
# From -- ./inp_files/880.got.cif
#   From: 2010.03.12/outbox.cif.g09.slc.cpg/sg23_1_cif.got.tgz:880.got - 2010.04.14 02:50:06.
