data_PCOD8164253
_publ_section_title
;
Structure prediction by ZEFSAII (Michael W. Deem and Ramdas Pophale) SiO2 
 PCOD8164253
Probable space group: I 2 2 2
;
_chemical_formula_sum "Si O2"
_cell_formula_units_Z 32
_cell_length_a 11.019398
_cell_length_b 15.644307
_cell_length_c 7.670556
_cell_angle_alpha 90.000000
_cell_angle_beta 90.000000
_cell_angle_gamma 90.000000
_cell_volume 1322.333633
_symmetry_space_group_name_H-M "I 2 2 2"
_symmetry_group_IT_number 23
_symmetry_cell_setting 'orthorhombic'
loop_
_space_group_symop_operation_xyz
x,y,z
-x,-y,z
x,-y,-z
-x,y,-z
1/2+x,1/2+y,1/2+z
1/2-x,1/2-y,1/2+z
1/2+x,1/2-y,1/2-z
1/2-x,1/2+y,1/2-z
loop_
_atom_site_type_symbol
_atom_site_label
_atom_site_fract_x
_atom_site_fract_y
_atom_site_fract_z
Si Si1 0.640365 0.825008 0.510476
Si Si2 0.288778 0.500000 0.500000
Si Si3 0.855906 0.932097 0.355209
Si Si4 0.500000 0.708749 0.000000
Si Si5 0.292136 0.820567 0.088411
O O1 0.500000 0.850721 0.500000
O O2 0.722794 0.893588 0.404211
O O3 0.671316 0.823584 0.712711
O O4 0.664105 0.729430 0.433718
O O5 0.366455 0.482933 0.673621
O O6 0.206589 0.583354 0.520739
O O7 0.954403 0.854448 0.344725
O O8 0.894275 0.000000 0.500000
O O9 0.614161 0.769846 0.040247
#
# Coordination Sequence:
#
# PCOD8164253 Si02
#       5
#     8   4   8   4   8
#     4  11  26  47  76 111 156 207 259 322 405 485
#     4  12  26  49  75 114 156 206 263 323 390 476
#     4  11  24  50  74 111 155 200 263 327 391 467
#     4  10  25  45  78 106 152 210 250 323 395 464
#     4  11  25  47  75 111 155 202 263 320 398 470
#
# _framework density 24.199639999999999
#
# number of rings (size 3 to 8) (size 9 to 14) (size 15 to 20)
#    0.000    1.000    2.500    3.375   10.500    1.000 
#    0.000    3.125    0.000    0.000    0.000    0.000 
#    0.000    0.000    0.000    0.000    0.000    0.000 
#
# Total GULP energy -198231.982658 kJ/mol
# GULP energy per Si atom -12389.498916 kJ/mol
# Density = 2.414456 g / cm^3
# Si number density = 24.199640 Si / 1000 Ang^3
#
#
#
# Elastic Constant Matrix: (Units=GPa)
#
#
# Indices 1 2 3 4 5 6 
#
# 1 95.3438 36.7015 36.1454 0.0000 0.0000 0.0000
# 2 36.7015 179.6217 50.5187 0.0000 0.0000 0.0000
# 3 36.1454 50.5187 163.0839 -0.0001 0.0000 -0.0001
# 4 0.0000 0.0000 -0.0001 34.4540 0.0000 0.0000
# 5 0.0000 0.0000 0.0000 0.0000 10.6732 0.0000
# 6 0.0000 0.0000 -0.0001 0.0000 0.0000 32.4400
#
#
#
# Elastic Compliance Matrix: (Units=1/GPa)
#
#
# Indices 1 2 3 4 5 6 
#
# 1 0.011995 -0.001866 -0.002081 0.000000 0.000000 0.000000
# 2 -0.001866 0.006389 -0.001566 0.000000 0.000000 0.000000
# 3 -0.002081 -0.001566 0.007078 0.000000 0.000000 0.000000
# 4 0.000000 0.000000 0.000000 0.029024 0.000000 0.000000
# 5 0.000000 0.000000 0.000000 0.000000 0.093693 0.000000
# 6 0.000000 0.000000 0.000000 0.000000 0.000000 0.030826
#
#
# Mechanical properties :
#
#
# Convention : Reuss Voigt Hill
#
# Bulk Modulus (GPa) = 69.26106 76.08674 72.67390
# Shear Modulus (GPa) = 25.66184 36.49235 31.07709
#
# Velocity S-wave (km/s) = 3.25995 3.88747 3.58746
# Velocity P-wave (km/s) = 6.54618 7.18745 6.87430
#
# Compressibility (1/GPa) = 0.01443813
#
# Stress axis : x y z
#
# Youngs Moduli (GPa) = 83.36556 156.52403 141.28449
#
# Poissons Ratio (x) = 0.29204 0.29396
# Poissons Ratio (y) = 0.15554 0.22119
# Poissons Ratio (z) = 0.17345 0.24504
#
# Static dielectric constant tensor:
#      x y z
#    x 4.529010 0.000000 0.000000 
#    y 0.000000 4.789790 0.000000 
#    z 0.000000 0.000000 4.602060 
# 
# 
# High freq. dielectric constant tensor:
#      x y z
#    x 1.949300 0.000000 0.000000 
#    y 0.000000 1.979620 0.000000 
#    z 0.000000 0.000000 1.960560 
# 
# From -- ./inp_files/7987.got.cif
#   From: 2010.03.12/outbox.cif.g09.slc.cpg/sg23_4_cif.got.tgz:7987.got - 2010.04.14 02:50:06.
