data_PCOD8164649
_publ_section_title
;
Structure prediction by ZEFSAII (Michael W. Deem and Ramdas Pophale) SiO2 
 PCOD8164649
Probable space group: I 21 21 21
;
_chemical_formula_sum "Si O2"
_cell_formula_units_Z 44
_cell_length_a 15.745066
_cell_length_b 14.030773
_cell_length_c 10.548736
_cell_angle_alpha 90.000000
_cell_angle_beta 90.000000
_cell_angle_gamma 90.000000
_cell_volume 2330.378728
_symmetry_space_group_name_H-M "I 21 21 21"
_symmetry_group_IT_number 24
_symmetry_cell_setting 'orthorhombic'
loop_
_space_group_symop_operation_xyz
x,y,z
-x,1/2-y,z
x,-y,1/2-z
1/2-x,y,-z
1/2+x,1/2+y,1/2+z
1/2-x,-y,1/2+z
1/2+x,1/2-y,-z
-x,1/2+y,1/2-z
loop_
_atom_site_type_symbol
_atom_site_label
_atom_site_fract_x
_atom_site_fract_y
_atom_site_fract_z
Si Si1 0.802597 0.474818 0.382944
Si Si2 0.914601 0.059254 0.623709
Si Si3 0.494704 0.039069 0.886872
Si Si4 0.500000 0.750000 0.080386
Si Si5 0.750000 0.118765 0.500000
Si Si6 0.000000 0.750000 0.325596
Si Si7 0.363084 0.773520 0.883393
O O1 0.757687 0.500000 0.250000
O O2 0.750000 0.516940 0.500000
O O3 0.895228 0.519586 0.391841
O O4 0.799123 0.360881 0.380939
O O5 0.813871 0.059191 0.590021
O O6 0.953948 0.164169 0.657066
O O7 0.930136 0.000000 0.750000
O O8 0.960388 0.015439 0.501201
O O9 0.511119 0.152580 0.905830
O O10 0.529300 0.000000 0.750000
O O11 0.428589 0.798731 0.994538
O O12 0.809198 0.179057 0.406078
O O13 0.914346 0.737289 0.245886
#
# Coordination Sequence:
#
# PCOD8164649 Si02
#       7
#     8   8   8   4   4   4   8
#     4  11  21  37  59  92 124 157 205 251 310 360
#     4  11  24  40  63  93 126 161 203 256 309 364
#     4  11  21  40  65  91 120 162 208 252 302 367
#     4   9  18  37  62  86 110 158 214 246 290 364
#     4  10  22  36  62  86 122 164 206 246 296 372
#     4  11  20  35  66  92 114 158 210 260 298 360
#     4  10  17  35  62  87 111 159 215 244 284 364
#
# _framework density 18.881052
#
# number of rings (size 3 to 8) (size 9 to 14) (size 15 to 20)
#    0.000    1.455    6.364    2.182    0.000    3.636 
#    0.000    1.818    2.000    0.000    0.000    0.000 
#    0.000    0.000    0.000    0.000    0.000    0.000 
#
# Total GULP energy -272650.833108 kJ/mol
# GULP energy per Si atom -12393.219687 kJ/mol
# Density = 1.883808 g / cm^3
# Si number density = 18.881052 Si / 1000 Ang^3
#
#
#
# Elastic Constant Matrix: (Units=GPa)
#
#
# Indices 1 2 3 4 5 6 
#
# 1 73.9083 17.5891 46.4000 0.0000 0.0000 0.0000
# 2 17.5891 104.1907 40.8624 0.0000 0.0000 0.0000
# 3 46.4000 40.8624 123.1404 0.0000 0.0000 0.0000
# 4 0.0000 0.0000 0.0000 8.4559 0.0000 0.0000
# 5 0.0000 0.0000 0.0000 0.0000 21.7230 0.0000
# 6 0.0000 0.0000 0.0000 0.0000 0.0000 22.2850
#
#
#
# Elastic Compliance Matrix: (Units=1/GPa)
#
#
# Indices 1 2 3 4 5 6 
#
# 1 0.017739 -0.000429 -0.006542 0.000000 0.000000 0.000000
# 2 -0.000429 0.011044 -0.003503 0.000000 0.000000 0.000000
# 3 -0.006542 -0.003503 0.011748 0.000000 0.000000 0.000000
# 4 0.000000 0.000000 0.000000 0.118261 0.000000 0.000000
# 5 0.000000 0.000000 0.000000 0.000000 0.046034 0.000000
# 6 0.000000 0.000000 0.000000 0.000000 0.000000 0.044873
#
#
# Mechanical properties :
#
#
# Convention : Reuss Voigt Hill
#
# Bulk Modulus (GPa) = 51.06316 56.77137 53.91727
# Shear Modulus (GPa) = 18.03908 23.58530 20.81219
#
# Velocity S-wave (km/s) = 3.09432 3.53817 3.32366
# Velocity P-wave (km/s) = 6.31425 6.84286 6.58386
#
# Compressibility (1/GPa) = 0.01958359
#
# Stress axis : x y z
#
# Youngs Moduli (GPa) = 56.37148 90.54589 85.11840
#
# Poissons Ratio (x) = 0.03885 0.55684
# Poissons Ratio (y) = 0.02419 0.29818
# Poissons Ratio (z) = 0.36878 0.31720
#
# Static dielectric constant tensor:
#      x y z
#    x 3.723340 0.000000 0.000000 
#    y 0.000000 3.778580 0.000000 
#    z 0.000000 0.000000 3.396920 
# 
# 
# High freq. dielectric constant tensor:
#      x y z
#    x 1.732060 0.000000 0.000000 
#    y 0.000000 1.740570 0.000000 
#    z 0.000000 0.000000 1.709030 
# 
# From -- ./inp_files/20706.got.cif
#   From: 2010.03.12/outbox.cif.g09.slc.cpg/sg24_11_cif.got.tgz:20706.got - 2010.04.14 03:06:53.
