data_PCOD8164655
_publ_section_title
;
Structure prediction by ZEFSAII (Michael W. Deem and Ramdas Pophale) SiO2 
 PCOD8164655
Probable space group: I 21 21 21
;
_chemical_formula_sum "Si O2"
_cell_formula_units_Z 56
_cell_length_a 22.493786
_cell_length_b 8.881180
_cell_length_c 17.559129
_cell_angle_alpha 90.000000
_cell_angle_beta 90.000000
_cell_angle_gamma 90.000000
_cell_volume 3507.811122
_symmetry_space_group_name_H-M "I 21 21 21"
_symmetry_group_IT_number 24
_symmetry_cell_setting 'orthorhombic'
loop_
_space_group_symop_operation_xyz
x,y,z
-x,1/2-y,z
x,-y,1/2-z
1/2-x,y,-z
1/2+x,1/2+y,1/2+z
1/2-x,-y,1/2+z
1/2+x,1/2-y,-z
-x,1/2+y,1/2-z
loop_
_atom_site_type_symbol
_atom_site_label
_atom_site_fract_x
_atom_site_fract_y
_atom_site_fract_z
Si Si1 0.229301 0.671177 0.665304
Si Si2 0.816544 0.666743 0.968762
Si Si3 0.564389 0.178782 0.750000
Si Si4 0.816544 0.333257 0.968762
Si Si5 0.851570 0.322207 0.369995
Si Si6 0.351570 0.177793 0.869995
Si Si7 0.270699 0.671177 0.165304
O O1 0.179307 0.723027 0.604066
O O2 0.287411 0.774343 0.661204
O O3 0.201765 0.685255 0.750000
O O4 0.247840 0.500000 0.647242
O O5 0.834758 0.500000 0.941419
O O6 0.820694 0.776973 0.895934
O O7 0.750000 0.666418 0.000000
O O8 0.857991 0.717520 0.039765
O O9 0.500000 0.250000 0.750000
O O10 0.597722 0.232665 0.674083
O O11 0.597722 0.232665 0.825917
O O12 0.560234 0.000000 0.750000
O O13 0.750000 0.333586 0.000000
O O14 0.857991 0.282480 0.039765
O O15 0.858550 0.500000 0.355910
O O16 0.787410 0.274345 0.338796
#
# Coordination Sequence:
#
# PCOD8164655 Si02
#       7
#     8   8   8   8   8   8   8
#     4  10  18  26  40  65  93 121 152 184 220 265
#     4   8  16  28  42  61  84 115 151 182 220 267
#     4  12  24  36  50  68  88 116 154 192 231 270
#     4   8  16  28  42  61  84 115 151 182 220 267
#     4  10  19  32  47  62  85 117 151 189 228 267
#     4  10  19  32  47  62  85 117 151 189 228 267
#     4  10  18  26  40  65  93 121 152 184 220 265
#
# _framework density 15.964371
#
# number of rings (size 3 to 8) (size 9 to 14) (size 15 to 20)
#    0.000    2.286    1.429    4.714    0.000    8.000 
#    0.000    0.000    0.000    0.000    0.000    0.000 
#    0.000    1.143    0.000    3.714    0.000    5.429 
#
# Total GULP energy -347029.505141 kJ/mol
# GULP energy per Si atom -12393.910898 kJ/mol
# Density = 1.592804 g / cm^3
# Si number density = 15.964371 Si / 1000 Ang^3
#
#
#
# Elastic Constant Matrix: (Units=GPa)
#
#
# Indices 1 2 3 4 5 6 
#
# 1 49.9082 32.1698 43.9354 0.0000 0.0000 0.0000
# 2 32.1698 113.4057 68.5760 0.0000 0.0000 0.0000
# 3 43.9354 68.5760 139.2479 0.0000 0.0000 0.0000
# 4 0.0000 0.0000 0.0000 29.1696 0.0000 0.0000
# 5 0.0000 0.0000 0.0000 0.0000 11.3533 0.0000
# 6 0.0000 0.0000 0.0000 0.0000 0.0000 19.1189
#
#
#
# Elastic Compliance Matrix: (Units=1/GPa)
#
#
# Indices 1 2 3 4 5 6 
#
# 1 0.028858 -0.003817 -0.007225 0.000000 0.000000 0.000000
# 2 -0.003817 0.013062 -0.005229 0.000000 0.000000 0.000000
# 3 -0.007225 -0.005229 0.012036 0.000000 0.000000 0.000000
# 4 0.000000 0.000000 0.000000 0.034282 0.000000 0.000000
# 5 0.000000 0.000000 0.000000 0.000000 0.088080 0.000000
# 6 0.000000 0.000000 0.000000 0.000000 0.000000 0.052304
#
#
# Mechanical properties :
#
#
# Convention : Reuss Voigt Hill
#
# Bulk Modulus (GPa) = 46.69741 65.76935 56.23338
# Shear Modulus (GPa) = 18.63562 22.45372 20.54467
#
# Velocity S-wave (km/s) = 3.42032 3.75439 3.59124
# Velocity P-wave (km/s) = 6.70169 7.75119 7.24547
#
# Compressibility (1/GPa) = 0.02141447
#
# Stress axis : x y z
#
# Youngs Moduli (GPa) = 34.65259 76.55596 83.08306
#
# Poissons Ratio (x) = 0.29221 0.60031
# Poissons Ratio (y) = 0.13227 0.43441
# Poissons Ratio (z) = 0.25038 0.40028
#
# Static dielectric constant tensor:
#      x y z
#    x 2.589790 0.000000 0.000000 
#    y 0.000000 3.189830 0.000000 
#    z 0.000000 0.000000 3.729950 
# 
# 
# High freq. dielectric constant tensor:
#      x y z
#    x 1.535380 0.000000 0.000000 
#    y 0.000000 1.629470 0.000000 
#    z 0.000000 0.000000 1.630640 
# 
# From -- ./inp_files/31376.got.cif
#   From: 2010.03.12/outbox.cif.g09.slc.cpg/sg24_16_cif.got.tgz:31376.got - 2010.04.14 03:06:53.
