data_PCOD8164668
_publ_section_title
;
Structure prediction by ZEFSAII (Michael W. Deem and Ramdas Pophale) SiO2 
 PCOD8164668
Probable space group: I 21 21 21
;
_chemical_formula_sum "Si O2"
_cell_formula_units_Z 48
_cell_length_a 9.160719
_cell_length_b 20.319078
_cell_length_c 13.877107
_cell_angle_alpha 90.000000
_cell_angle_beta 90.000000
_cell_angle_gamma 90.000000
_cell_volume 2583.048115
_symmetry_space_group_name_H-M "I 21 21 21"
_symmetry_group_IT_number 24
_symmetry_cell_setting 'orthorhombic'
loop_
_space_group_symop_operation_xyz
x,y,z
-x,1/2-y,z
x,-y,1/2-z
1/2-x,y,-z
1/2+x,1/2+y,1/2+z
1/2-x,-y,1/2+z
1/2+x,1/2-y,-z
-x,1/2+y,1/2-z
loop_
_atom_site_type_symbol
_atom_site_label
_atom_site_fract_x
_atom_site_fract_y
_atom_site_fract_z
Si Si1 0.335103 0.523617 0.900810
Si Si2 0.099833 0.094854 0.458177
Si Si3 0.597345 0.807517 0.053001
Si Si4 0.591133 0.314363 0.718386
Si Si5 0.327680 0.606235 0.715404
Si Si6 0.653937 0.770458 0.271491
O O1 0.509014 0.534000 0.914390
O O2 0.282491 0.577454 0.821085
O O3 0.314293 0.449819 0.864330
O O4 0.250000 0.534925 0.000000
O O5 0.250000 0.066400 0.500000
O O6 0.141457 0.149358 0.378563
O O7 0.997050 0.126019 0.541287
O O8 0.500000 0.750000 0.005058
O O9 0.628755 0.790063 0.161934
O O10 0.750000 0.816223 0.000000
O O11 0.500000 0.250000 0.688698
O O12 0.491433 0.363830 0.781429
O O13 0.734243 0.291311 0.778178
O O14 0.218716 0.663855 0.679626
O O15 0.500000 0.750000 0.320761
#
# Coordination Sequence:
#
# PCOD8164668 Si02
#       6
#     8   8   8   8   8   8
#     4  10  20  35  54  72  98 137 174 205 242 295
#     4  11  19  28  44  70 102 133 166 202 243 300
#     4  11  18  25  41  70 106 136 159 194 247 308
#     4   9  17  29  46  68  99 135 162 194 250 307
#     4   9  19  35  52  73 101 135 169 200 247 307
#     4  10  18  28  47  74  99 125 161 209 254 291
#
# _framework density 18.582697
#
# number of rings (size 3 to 8) (size 9 to 14) (size 15 to 20)
#    0.000    2.000    0.000    8.500    0.000    0.000 
#    0.000    2.500    0.000    9.000    0.000    0.000 
#    0.000    0.000    0.000    0.000    0.000    0.000 
#
# Total GULP energy -297468.347299 kJ/mol
# GULP energy per Si atom -12394.514471 kJ/mol
# Density = 1.854040 g / cm^3
# Si number density = 18.582697 Si / 1000 Ang^3
#
#
#
# Elastic Constant Matrix: (Units=GPa)
#
#
# Indices 1 2 3 4 5 6 
#
# 1 127.0355 48.1394 17.8457 0.0000 0.0000 0.0000
# 2 48.1394 97.8961 20.9082 0.0000 0.0000 0.0000
# 3 17.8457 20.9082 32.2234 0.0000 0.0000 0.0000
# 4 0.0000 0.0000 0.0000 13.4271 0.0000 0.0000
# 5 0.0000 0.0000 0.0000 0.0000 4.4925 0.0000
# 6 0.0000 0.0000 0.0000 0.0000 0.0000 17.3201
#
#
#
# Elastic Compliance Matrix: (Units=1/GPa)
#
#
# Indices 1 2 3 4 5 6 
#
# 1 0.009871 -0.004280 -0.002690 0.000000 0.000000 0.000000
# 2 -0.004280 0.013714 -0.006528 0.000000 0.000000 0.000000
# 3 -0.002690 -0.006528 0.036759 0.000000 0.000000 0.000000
# 4 0.000000 0.000000 0.000000 0.074476 0.000000 0.000000
# 5 0.000000 0.000000 0.000000 0.000000 0.222593 0.000000
# 6 0.000000 0.000000 0.000000 0.000000 0.000000 0.057736
#
#
# Mechanical properties :
#
#
# Convention : Reuss Voigt Hill
#
# Bulk Modulus (GPa) = 29.98638 47.88241 38.93439
# Shear Modulus (GPa) = 11.03118 18.39873 14.71495
#
# Velocity S-wave (km/s) = 2.43909 3.15000 2.81706
# Velocity P-wave (km/s) = 4.90958 6.24925 5.61948
#
# Compressibility (1/GPa) = 0.03334848
#
# Stress axis : x y z
#
# Youngs Moduli (GPa) = 101.30205 72.92033 27.20439
#
# Poissons Ratio (x) = 0.31207 0.07318
# Poissons Ratio (y) = 0.43354 0.17759
# Poissons Ratio (z) = 0.27251 0.47602
#
# Static dielectric constant tensor:
#      x y z
#    x 3.984300 0.000000 0.000000 
#    y 0.000000 3.555160 0.000000 
#    z 0.000000 0.000000 2.978790 
# 
# 
# High freq. dielectric constant tensor:
#      x y z
#    x 1.728130 0.000000 0.000000 
#    y 0.000000 1.717630 0.000000 
#    z 0.000000 0.000000 1.665270 
# 
# From -- ./inp_files/12985.got.cif
#   From: 2010.03.12/outbox.cif.g09.slc.cpg/sg24_7_cif.got.tgz:12985.got - 2010.04.14 03:06:53.
