data_PCOD8164862
_publ_section_title
;
Structure prediction by ZEFSAII (Michael W. Deem and Ramdas Pophale) SiO2 
 PCOD8164862
Probable space group: I 21 21 21
;
_chemical_formula_sum "Si O2"
_cell_formula_units_Z 52
_cell_length_a 18.735114
_cell_length_b 23.721918
_cell_length_c 6.133742
_cell_angle_alpha 90.000000
_cell_angle_beta 90.000000
_cell_angle_gamma 90.000000
_cell_volume 2726.036365
_symmetry_space_group_name_H-M "I 21 21 21"
_symmetry_group_IT_number 24
_symmetry_cell_setting 'orthorhombic'
loop_
_space_group_symop_operation_xyz
x,y,z
-x,1/2-y,z
x,-y,1/2-z
1/2-x,y,-z
1/2+x,1/2+y,1/2+z
1/2-x,-y,1/2+z
1/2+x,1/2-y,-z
-x,1/2+y,1/2-z
loop_
_atom_site_type_symbol
_atom_site_label
_atom_site_fract_x
_atom_site_fract_y
_atom_site_fract_z
Si Si1 0.366979 0.289878 0.813839
Si Si2 0.318529 0.190171 0.120848
Si Si3 0.577659 0.896393 0.487717
Si Si4 0.000000 0.250000 0.446717
Si Si5 0.750000 0.757714 0.000000
Si Si6 0.511905 0.447821 0.629134
Si Si7 0.920174 0.000000 0.750000
Si Si8 0.551331 0.642024 0.183309
O O1 0.367555 0.345996 0.962506
O O2 0.443738 0.283406 0.701628
O O3 0.303488 0.297122 0.638394
O O4 0.352583 0.236407 0.962985
O O5 0.297174 0.217902 0.348263
O O6 0.377052 0.141857 0.169215
O O7 0.250000 0.162656 0.000000
O O8 0.544087 0.917285 0.713090
O O9 0.621699 0.946948 0.361284
O O10 0.515373 0.875350 0.328650
O O11 0.040837 0.205388 0.597224
O O12 0.553431 0.500000 0.750000
O O13 0.469425 0.477022 0.438437
O O14 0.563540 0.400914 0.520540
#
# Coordination Sequence:
#
# PCOD8164862 Si02
#       8
#     8   8   8   4   4   8   4   8
#     4  11  21  34  52  80 117 155 188 238 282 353
#     4  10  22  36  51  74 120 154 193 224 276 352
#     4  10  19  32  54  81 116 142 185 236 297 334
#     4  12  20  32  54  86 118 148 188 236 294 348
#     4  10  22  38  50  72 122 154 194 220 274 346
#     4   9  18  33  51  80 117 139 180 237 295 338
#     4   8  18  32  50  78 118 134 178 236 292 342
#     4  11  20  32  52  82 117 150 188 241 290 340
#
# _framework density 19.075313000000001
#
# number of rings (size 3 to 8) (size 9 to 14) (size 15 to 20)
#    0.000    1.846    3.077    1.846    0.000    0.000 
#    0.000    0.000    0.000    0.000    0.000    0.000 
#  357.692    0.000    0.000    0.000    0.000    0.000 
#
# Total GULP energy -322204.254599 kJ/mol
# GULP energy per Si atom -12392.471331 kJ/mol
# Density = 1.903190 g / cm^3
# Si number density = 19.075313 Si / 1000 Ang^3
#
#
#
# Elastic Constant Matrix: (Units=GPa)
#
#
# Indices 1 2 3 4 5 6 
#
# 1 65.1115 21.7744 21.9756 0.0000 0.0000 0.0000
# 2 21.7744 91.5445 33.3721 0.0000 0.0000 0.0000
# 3 21.9756 33.3721 92.3462 0.0000 0.0000 0.0000
# 4 0.0000 0.0000 0.0000 41.1753 0.0000 0.0000
# 5 0.0000 0.0000 0.0000 0.0000 31.8068 0.0000
# 6 0.0000 0.0000 0.0000 0.0000 0.0000 292.0183
#
#
#
# Elastic Compliance Matrix: (Units=1/GPa)
#
#
# Indices 1 2 3 4 5 6 
#
# 1 0.017399 -0.003028 -0.003046 0.000000 0.000000 0.000000
# 2 -0.003028 0.013108 -0.004016 0.000000 0.000000 0.000000
# 3 -0.003046 -0.004016 0.013005 0.000000 0.000000 0.000000
# 4 0.000000 0.000000 0.000000 0.024286 0.000000 0.000000
# 5 0.000000 0.000000 0.000000 0.000000 0.031440 0.000000
# 6 0.000000 0.000000 0.000000 0.000000 0.000000 0.003424
#
#
# Mechanical properties :
#
#
# Convention : Reuss Voigt Hill
#
# Bulk Modulus (GPa) = 42.86137 44.80516 43.83326
# Shear Modulus (GPa) = 38.27866 84.45875 61.36870
#
# Velocity S-wave (km/s) = 4.48449 6.66128 5.67817
# Velocity P-wave (km/s) = 7.02371 9.09412 8.12513
#
# Compressibility (1/GPa) = 0.02333103
#
# Stress axis : x y z
#
# Youngs Moduli (GPa) = 57.47459 76.28900 76.89255
#
# Poissons Ratio (x) = 0.23100 0.23423
# Poissons Ratio (y) = 0.17403 0.30883
# Poissons Ratio (z) = 0.17508 0.30641
#
# Static dielectric constant tensor:
#      x y z
#    x 3.342110 0.000000 0.000000 
#    y 0.000000 3.748840 0.000000 
#    z 0.000000 0.000000 0.128000 
# 
# 
# High freq. dielectric constant tensor:
#      x y z
#    x 1.695120 0.000000 0.000000 
#    y 0.000000 1.738800 0.000000 
#    z 0.000000 0.000000 1.772850 
# 
# From -- ./inp_files/5728.got.cif
#   From: 2010.03.12/outbox.cif.g09.slc.cpg/sg24_3_cif.got.tgz:5728.got - 2010.04.14 03:06:53.
