data_PCOD8164176
_publ_section_title
;
Structure prediction by ZEFSAII (Michael W. Deem and Ramdas Pophale) SiO2 
 PCOD8164176
Probable space group: I 2 2 2
;
_chemical_formula_sum "Si O2"
_cell_formula_units_Z 38
_cell_length_a 28.172722
_cell_length_b 6.368221
_cell_length_c 11.015051
_cell_angle_alpha 90.000000
_cell_angle_beta 90.000000
_cell_angle_gamma 90.000000
_cell_volume 1976.211620
_symmetry_space_group_name_H-M "I 2 2 2"
_symmetry_group_IT_number 23
_symmetry_cell_setting 'orthorhombic'
loop_
_space_group_symop_operation_xyz
x,y,z
-x,-y,z
x,-y,-z
-x,y,-z
1/2+x,1/2+y,1/2+z
1/2-x,1/2-y,1/2+z
1/2+x,1/2-y,1/2-z
1/2-x,1/2+y,1/2-z
loop_
_atom_site_type_symbol
_atom_site_label
_atom_site_fract_x
_atom_site_fract_y
_atom_site_fract_z
Si Si1 0.453063 0.121783 0.381272
Si Si2 0.801064 0.987892 0.860726
Si Si3 0.153355 0.000000 0.500000
Si Si4 0.368928 0.792110 0.793273
Si Si5 0.195687 0.327786 0.328739
Si Si6 0.500000 0.500000 0.500000
O O1 0.417114 0.132519 0.269767
O O2 0.466090 0.359413 0.416068
O O3 0.500000 0.000000 0.335851
O O4 0.432144 0.000000 0.500000
O O5 0.834041 0.809193 0.804631
O O6 0.746635 0.931267 0.840871
O O7 0.810326 0.215566 0.801568
O O8 0.815179 0.000000 0.000000
O O9 0.120754 0.126476 0.597158
O O10 0.189441 0.157066 0.433993
O O11 0.344443 0.998070 0.847409
#
# Coordination Sequence:
#
# PCOD8164176 Si02
#       6
#     8   8   4   8   8   2
#     4   9  21  38  63  93 123 159 195 259 323 362
#     4  11  24  35  58  90 123 166 207 253 300 356
#     4  10  24  40  62  83 120 172 205 248 316 348
#     4  11  23  39  63  89 126 164 208 251 303 375
#     4  11  23  41  57  87 125 166 206 253 301 357
#     4   8  18  40  64  88 132 148 194 256 318 370
#
# _framework density 19.228711000000001
#
# number of rings (size 3 to 8) (size 9 to 14) (size 15 to 20)
#    0.000    1.895    2.105    1.895    7.368    5.053 
#    0.000    0.000    0.000    9.474    0.000    0.000 
#    0.000    0.000    0.000    0.000    0.000    0.000 
#
# Total GULP energy -235628.065270 kJ/mol
# GULP energy per Si atom -12401.477119 kJ/mol
# Density = 1.918495 g / cm^3
# Si number density = 19.228711 Si / 1000 Ang^3
#
#
#
# Elastic Constant Matrix: (Units=GPa)
#
#
# Indices 1 2 3 4 5 6 
#
# 1 103.5089 43.0441 46.5785 0.0000 0.0000 0.0000
# 2 43.0441 126.9799 53.7275 0.0000 0.0000 0.0000
# 3 46.5785 53.7275 131.4978 0.0000 0.0000 0.0000
# 4 0.0000 0.0000 0.0000 29.9539 0.0000 0.0000
# 5 0.0000 0.0000 0.0000 0.0000 -43.7852 0.0000
# 6 0.0000 0.0000 0.0000 0.0000 0.0000 22.9357
#
#
#
# Elastic Compliance Matrix: (Units=1/GPa)
#
#
# Indices 1 2 3 4 5 6 
#
# 1 0.012267 -0.002805 -0.003199 0.000000 0.000000 0.000000
# 2 -0.002805 0.010163 -0.003159 0.000000 0.000000 0.000000
# 3 -0.003199 -0.003159 0.010029 0.000000 0.000000 0.000000
# 4 0.000000 0.000000 0.000000 0.033385 0.000000 0.000000
# 5 0.000000 0.000000 0.000000 0.000000 -0.022839 0.000000
# 6 0.000000 0.000000 0.000000 0.000000 0.000000 0.043600
#
#
# Mechanical properties :
#
#
# Convention : Reuss Voigt Hill
#
# Bulk Modulus (GPa) = 70.75774 72.07632 71.41703
# Shear Modulus (GPa) = 45.60375 16.39665 31.00020
#
# Velocity S-wave (km/s) = 4.87524 2.92330 4.01956
# Velocity P-wave (km/s) = 8.28061 6.99709 7.66576
#
# Compressibility (1/GPa) = 0.01413273
#
# Stress axis : x y z
#
# Youngs Moduli (GPa) = 81.51990 98.40079 99.71570
#
# Poissons Ratio (x) = 0.27598 0.31901
# Poissons Ratio (y) = 0.22863 0.31498
# Poissons Ratio (z) = 0.26080 0.31083
#
# Static dielectric constant tensor:
#      x y z
#    x 3.249290 0.000000 0.000000 
#    y 0.000000 3.818030 0.000000 
#    z 0.000000 0.000000 3.622050 
# 
# 
# High freq. dielectric constant tensor:
#      x y z
#    x 1.721140 0.000000 0.000000 
#    y 0.000000 1.770680 0.000000 
#    z 0.000000 0.000000 1.749110 
# 
# From -- ./inp_files/1737.got.cif
#   From: 2010.03.12/outbox.cif.g09.slc.cpg/sg23_1_cif.got.tgz:1737.got - 2010.04.14 02:50:06.
