data_PCOD8164251
_publ_section_title
;
Structure prediction by ZEFSAII (Michael W. Deem and Ramdas Pophale) SiO2 
 PCOD8164251
Probable space group: I 2 2 2
;
_chemical_formula_sum "Si O2"
_cell_formula_units_Z 64
_cell_length_a 9.602203
_cell_length_b 10.685028
_cell_length_c 30.156541
_cell_angle_alpha 90.000000
_cell_angle_beta 90.000000
_cell_angle_gamma 90.000000
_cell_volume 3094.055314
_symmetry_space_group_name_H-M "I 2 2 2"
_symmetry_group_IT_number 23
_symmetry_cell_setting 'orthorhombic'
loop_
_space_group_symop_operation_xyz
x,y,z
-x,-y,z
x,-y,-z
-x,y,-z
1/2+x,1/2+y,1/2+z
1/2-x,1/2-y,1/2+z
1/2+x,1/2-y,1/2-z
1/2-x,1/2+y,1/2-z
loop_
_atom_site_type_symbol
_atom_site_label
_atom_site_fract_x
_atom_site_fract_y
_atom_site_fract_z
Si Si1 0.482401 0.648662 0.448766
Si Si2 0.485552 0.146828 0.951125
Si Si3 0.898538 0.181826 0.677996
Si Si4 0.165338 0.021706 0.168399
Si Si5 0.641815 0.919469 0.761632
Si Si6 0.700309 0.592089 0.175917
Si Si7 0.737541 0.694825 0.396011
Si Si8 0.262426 0.766867 0.894135
O O1 0.500000 0.500000 0.439376
O O2 0.500000 0.680571 0.500000
O O3 0.585713 0.725631 0.416172
O O4 0.331267 0.700243 0.436474
O O5 0.326189 0.169673 0.939600
O O6 0.582443 0.205763 0.912445
O O7 0.500000 0.000000 0.953404
O O8 0.500000 0.207728 0.000000
O O9 0.862926 0.287636 0.713254
O O10 0.813296 0.197987 0.632077
O O11 0.065632 0.183917 0.675965
O O12 0.844420 0.045532 0.690482
O O13 0.235586 0.003087 0.216517
O O14 0.234399 0.926556 0.134391
O O15 0.209281 0.155324 0.148834
O O16 0.000000 0.000000 0.172753
O O17 0.680646 0.876750 0.711850
O O18 0.500000 0.000000 0.762646
O O19 0.753311 0.623671 0.125345
#
# Coordination Sequence:
#
# PCOD8164251 Si02
#       8
#     8   8   8   8   8   8   8   8
#     4  11  21  37  62 101 142 173 218 288 358 404
#     4  11  21  33  59  98 132 165 219 286 338 398
#     4  10  25  45  65  93 131 175 220 270 334 405
#     4  11  22  38  62  94 130 179 213 265 343 405
#     4  11  27  43  71 100 127 166 228 283 333 398
#     4  11  26  44  67  91 132 177 217 277 334 397
#     4  11  19  39  61  88 132 172 218 263 335 406
#     4  12  21  38  64  93 133 177 222 266 346 408
#
# _framework density 20.684828
#
# number of rings (size 3 to 8) (size 9 to 14) (size 15 to 20)
#    0.000    1.000    5.000    1.500    7.000    3.000 
#    0.000    0.000    0.000    4.500    0.000    0.000 
#    0.000    0.000    0.000    0.000    0.000    0.000 
#
# Total GULP energy -396436.026512 kJ/mol
# GULP energy per Si atom -12388.625829 kJ/mol
# Density = 2.063775 g / cm^3
# Si number density = 20.684828 Si / 1000 Ang^3
#
#
#
# Elastic Constant Matrix: (Units=GPa)
#
#
# Indices 1 2 3 4 5 6 
#
# 1 97.9660 22.4159 35.0830 0.0000 0.0000 0.0000
# 2 22.4159 67.0320 32.1972 0.0000 0.0000 0.0000
# 3 35.0830 32.1972 116.9344 0.0000 0.0000 0.0000
# 4 0.0000 0.0000 0.0000 26.1973 0.0000 0.0000
# 5 0.0000 0.0000 0.0000 0.0000 43.9493 0.0000
# 6 0.0000 0.0000 0.0000 0.0000 0.0000 24.4407
#
#
#
# Elastic Compliance Matrix: (Units=1/GPa)
#
#
# Indices 1 2 3 4 5 6 
#
# 1 0.011814 -0.002591 -0.002831 0.000000 0.000000 0.000000
# 2 -0.002591 0.017760 -0.004113 0.000000 0.000000 0.000000
# 3 -0.002831 -0.004113 0.010534 0.000000 0.000000 0.000000
# 4 0.000000 0.000000 0.000000 0.038172 0.000000 0.000000
# 5 0.000000 0.000000 0.000000 0.000000 0.022753 0.000000
# 6 0.000000 0.000000 0.000000 0.000000 0.000000 0.040915
#
#
# Mechanical properties :
#
#
# Convention : Reuss Voigt Hill
#
# Bulk Modulus (GPa) = 47.53224 51.25829 49.39527
# Shear Modulus (GPa) = 29.75634 31.73323 30.74478
#
# Velocity S-wave (km/s) = 3.79695 3.92105 3.85950
# Velocity P-wave (km/s) = 6.50012 6.73305 6.61761
#
# Compressibility (1/GPa) = 0.02103835
#
# Stress axis : x y z
#
# Youngs Moduli (GPa) = 84.64287 56.30579 94.93371
#
# Poissons Ratio (x) = 0.14588 0.26877
# Poissons Ratio (y) = 0.21930 0.39045
# Poissons Ratio (z) = 0.23964 0.23158
#
# Static dielectric constant tensor:
#      x y z
#    x 3.841680 0.000000 0.000000 
#    y 0.000000 3.526100 0.000000 
#    z 0.000000 0.000000 3.918950 
# 
# 
# High freq. dielectric constant tensor:
#      x y z
#    x 1.824330 0.000000 0.000000 
#    y 0.000000 1.775180 0.000000 
#    z 0.000000 0.000000 1.818040 
# 
# From -- ./inp_files/30348.got.cif
#   From: 2010.03.12/outbox.cif.g09.slc.cpg/sg23_16_cif.got.tgz:30348.got - 2010.04.14 02:50:06.
