data_PCOD8164762
_publ_section_title
;
Structure prediction by ZEFSAII (Michael W. Deem and Ramdas Pophale) SiO2 
 PCOD8164762
Probable space group: I 21 21 21
;
_chemical_formula_sum "Si O2"
_cell_formula_units_Z 48
_cell_length_a 20.896772
_cell_length_b 15.615016
_cell_length_c 7.812895
_cell_angle_alpha 90.000000
_cell_angle_beta 90.000000
_cell_angle_gamma 90.000000
_cell_volume 2549.374430
_symmetry_space_group_name_H-M "I 21 21 21"
_symmetry_group_IT_number 24
_symmetry_cell_setting 'orthorhombic'
loop_
_space_group_symop_operation_xyz
x,y,z
-x,1/2-y,z
x,-y,1/2-z
1/2-x,y,-z
1/2+x,1/2+y,1/2+z
1/2-x,-y,1/2+z
1/2+x,1/2-y,-z
-x,1/2+y,1/2-z
loop_
_atom_site_type_symbol
_atom_site_label
_atom_site_fract_x
_atom_site_fract_y
_atom_site_fract_z
Si Si1 0.939469 0.688541 0.582184
Si Si2 0.488331 0.098403 0.771484
Si Si3 0.881699 0.166844 0.105930
Si Si4 0.179692 0.495234 0.049278
Si Si5 0.821420 0.184606 0.450073
Si Si6 0.436589 0.805663 0.041461
O O1 0.948495 0.611226 0.447330
O O2 0.882278 0.750799 0.517907
O O3 0.928033 0.649589 0.771621
O O4 0.000000 0.750000 0.586080
O O5 0.552549 0.156115 0.783358
O O6 0.443959 0.125748 0.610967
O O7 0.507833 0.000000 0.750000
O O8 0.868644 0.081069 0.990807
O O9 0.825148 0.181381 0.243364
O O10 0.171631 0.500000 0.250000
O O11 0.164311 0.589076 0.970687
O O12 0.250000 0.465009 0.000000
O O13 0.750000 0.214379 0.500000
O O14 0.872961 0.249958 0.521984
O O15 0.500000 0.750000 0.042165
#
# Coordination Sequence:
#
# PCOD8164762 Si02
#       6
#     8   8   8   8   8   8
#     4   9  20  34  52  84 110 144 194 233 282 348
#     4  11  20  35  60  81 111 148 193 249 296 332
#     4  10  18  35  53  80 120 157 192 232 282 350
#     4   9  19  31  50  78 120 156 191 222 273 343
#     4  10  19  33  54  84 114 153 192 227 282 349
#     4  11  20  36  59  80 115 150 186 243 291 337
#
# _framework density 18.828149
#
# number of rings (size 3 to 8) (size 9 to 14) (size 15 to 20)
#    0.000    2.000    3.333    2.000    0.000    4.667 
#    0.000    0.000    0.000    0.000    4.333    0.000 
#    0.000    0.000    0.000    0.000    0.000    0.000 
#
# Total GULP energy -297388.968041 kJ/mol
# GULP energy per Si atom -12391.207002 kJ/mol
# Density = 1.878529 g / cm^3
# Si number density = 18.828149 Si / 1000 Ang^3
#
#
#
# Elastic Constant Matrix: (Units=GPa)
#
#
# Indices 1 2 3 4 5 6 
#
# 1 88.0637 23.6422 23.9492 0.0000 0.0000 0.0000
# 2 23.6422 37.9176 26.6823 0.0000 0.0000 0.0000
# 3 23.9492 26.6823 112.4248 0.0000 0.0000 0.0000
# 4 0.0000 0.0000 0.0000 -157.6395 0.0000 0.0000
# 5 0.0000 0.0000 0.0000 0.0000 23.7464 0.0000
# 6 0.0000 0.0000 0.0000 0.0000 0.0000 32.3680
#
#
#
# Elastic Compliance Matrix: (Units=1/GPa)
#
#
# Indices 1 2 3 4 5 6 
#
# 1 0.013745 -0.007815 -0.001073 0.000000 0.000000 0.000000
# 2 -0.007815 0.036104 -0.006904 0.000000 0.000000 0.000000
# 3 -0.001073 -0.006904 0.010762 0.000000 0.000000 0.000000
# 4 0.000000 0.000000 0.000000 -0.006344 0.000000 0.000000
# 5 0.000000 0.000000 0.000000 0.000000 0.042112 0.000000
# 6 0.000000 0.000000 0.000000 0.000000 0.000000 0.030895
#
#
# Mechanical properties :
#
#
# Convention : Reuss Voigt Hill
#
# Bulk Modulus (GPa) = 34.45109 42.99486 38.72297
# Shear Modulus (GPa) = 29.66748 -9.36287 10.15231
#
# Velocity S-wave (km/s) = 3.97381 -2.23240 2.32461
# Velocity P-wave (km/s) = 6.27633 4.02991 5.27411
#
# Compressibility (1/GPa) = 0.02902666
#
# Stress axis : x y z
#
# Youngs Moduli (GPa) = 72.75143 27.69768 92.91934
#
# Poissons Ratio (x) = 0.21646 0.09973
# Poissons Ratio (y) = 0.56857 0.64151
# Poissons Ratio (z) = 0.07808 0.19122
#
# Static dielectric constant tensor:
#      x y z
#    x 3.306930 0.000000 0.000000 
#    y 0.000000 3.485990 0.000000 
#    z 0.000000 0.000000 3.799930 
# 
# 
# High freq. dielectric constant tensor:
#      x y z
#    x 1.705600 0.000000 0.000000 
#    y 0.000000 1.703160 0.000000 
#    z 0.000000 0.000000 1.733910 
# 
# From -- ./inp_files/15096.got.cif
#   From: 2010.03.12/outbox.cif.g09.slc.cpg/sg24_8_cif.got.tgz:15096.got - 2010.04.14 03:06:53.
