data_PCOD8164580
_publ_section_title
;
Structure prediction by ZEFSAII (Michael W. Deem and Ramdas Pophale) SiO2 
 PCOD8164580
Probable space group: I 21 21 21
;
_chemical_formula_sum "Si O2"
_cell_formula_units_Z 48
_cell_length_a 4.961157
_cell_length_b 23.275235
_cell_length_c 27.585341
_cell_angle_alpha 90.000000
_cell_angle_beta 90.000000
_cell_angle_gamma 90.000000
_cell_volume 3185.337118
_symmetry_space_group_name_H-M "I 21 21 21"
_symmetry_group_IT_number 24
_symmetry_cell_setting 'orthorhombic'
loop_
_space_group_symop_operation_xyz
x,y,z
-x,1/2-y,z
x,-y,1/2-z
1/2-x,y,-z
1/2+x,1/2+y,1/2+z
1/2-x,-y,1/2+z
1/2+x,1/2-y,-z
-x,1/2+y,1/2-z
loop_
_atom_site_type_symbol
_atom_site_label
_atom_site_fract_x
_atom_site_fract_y
_atom_site_fract_z
Si Si1 0.745183 0.210175 0.214839
Si Si2 0.359548 0.401314 0.732837
Si Si3 0.499668 0.683696 0.467062
Si Si4 0.412715 0.625812 0.366799
Si Si5 0.159121 0.039437 0.702755
Si Si6 0.431124 0.062863 0.834702
O O1 0.500000 0.250000 0.229780
O O2 0.777837 0.164513 0.258618
O O3 0.707629 0.179111 0.163182
O O4 0.000000 0.250000 0.208808
O O5 0.645598 0.405061 0.705646
O O6 0.399915 0.432295 0.784666
O O7 0.142832 0.435792 0.699216
O O8 0.500000 0.750000 0.450609
O O9 0.750000 0.667539 0.500000
O O10 0.501641 0.644208 0.419958
O O11 0.250000 0.668215 0.500000
O O12 0.682978 0.607323 0.338156
O O13 0.174048 0.577191 0.372589
O O14 0.180102 0.000000 0.750000
O O15 0.281398 0.999345 0.659312
#
# Coordination Sequence:
#
# PCOD8164580 Si02
#       6
#     8   8   8   8   8   8
#     4  11  20  29  40  57  79 104 134 167 205 242
#     4  10  18  27  39  56  77 102 127 155 196 243
#     4  10  21  34  47  61  78 105 138 172 217 268
#     4  11  20  32  45  61  80 100 132 175 219 259
#     4  10  16  27  41  56  77  98 122 154 195 248
#     4  10  19  29  44  63  78  99 127 163 212 256
#
# _framework density 15.069048
#
# number of rings (size 3 to 8) (size 9 to 14) (size 15 to 20)
#    0.000    1.667    0.000   11.000    0.000    2.000 
#    0.000    0.000    0.000    0.000    0.000    0.000 
#    0.000    0.000    0.000    0.000    0.000    0.000 
#
# Total GULP energy -297313.489176 kJ/mol
# GULP energy per Si atom -12388.062049 kJ/mol
# Density = 1.503475 g / cm^3
# Si number density = 15.069048 Si / 1000 Ang^3
#
#
#
# Elastic Constant Matrix: (Units=GPa)
#
#
# Indices 1 2 3 4 5 6 
#
# 1 120.9409 30.6500 24.5463 0.0000 0.0000 0.0000
# 2 30.6500 57.6687 29.8556 0.0000 0.0000 0.0000
# 3 24.5463 29.8556 34.2448 0.0000 0.0000 0.0000
# 4 0.0000 0.0000 0.0000 15.8833 0.0000 0.0000
# 5 0.0000 0.0000 0.0000 0.0000 29.5449 0.0000
# 6 0.0000 0.0000 0.0000 0.0000 0.0000 38.7522
#
#
#
# Elastic Compliance Matrix: (Units=1/GPa)
#
#
# Indices 1 2 3 4 5 6 
#
# 1 0.009936 -0.002905 -0.004590 0.000000 0.000000 0.000000
# 2 -0.002905 0.032455 -0.026213 0.000000 0.000000 0.000000
# 3 -0.004590 -0.026213 0.055345 0.000000 0.000000 0.000000
# 4 0.000000 0.000000 0.000000 0.062959 0.000000 0.000000
# 5 0.000000 0.000000 0.000000 0.000000 0.033847 0.000000
# 6 0.000000 0.000000 0.000000 0.000000 0.000000 0.025805
#
#
# Mechanical properties :
#
#
# Convention : Reuss Voigt Hill
#
# Bulk Modulus (GPa) = 32.98068 42.55090 37.76579
# Shear Modulus (GPa) = 16.78588 25.35625 21.07107
#
# Velocity S-wave (km/s) = 3.34118 4.10649 3.74344
# Velocity P-wave (km/s) = 6.06783 7.12621 6.61821
#
# Compressibility (1/GPa) = 0.03032078
#
# Stress axis : x y z
#
# Youngs Moduli (GPa) = 100.64221 30.81176 18.06854
#
# Poissons Ratio (x) = 0.08950 0.08293
# Poissons Ratio (y) = 0.29235 0.47363
# Poissons Ratio (z) = 0.46191 0.80768
#
# Static dielectric constant tensor:
#      x y z
#    x 3.291090 0.000000 0.000000 
#    y 0.000000 3.121130 0.000000 
#    z 0.000000 0.000000 2.503060 
# 
# 
# High freq. dielectric constant tensor:
#      x y z
#    x 1.614960 0.000000 0.000000 
#    y 0.000000 1.564680 0.000000 
#    z 0.000000 0.000000 1.503420 
# 
# From -- ./inp_files/38024.got.cif
#   From: 2010.03.12/outbox.cif.g09.slc.cpg/sg24_20_cif.got.tgz:38024.got - 2010.04.14 03:06:53.
