data_PCOD8164682
_publ_section_title
;
Structure prediction by ZEFSAII (Michael W. Deem and Ramdas Pophale) SiO2 
 PCOD8164682
Probable space group: I 21 21 21
;
_chemical_formula_sum "Si O2"
_cell_formula_units_Z 64
_cell_length_a 21.667778
_cell_length_b 18.956525
_cell_length_c 9.164887
_cell_angle_alpha 90.000000
_cell_angle_beta 90.000000
_cell_angle_gamma 90.000000
_cell_volume 3764.438617
_symmetry_space_group_name_H-M "I 21 21 21"
_symmetry_group_IT_number 24
_symmetry_cell_setting 'orthorhombic'
loop_
_space_group_symop_operation_xyz
x,y,z
-x,1/2-y,z
x,-y,1/2-z
1/2-x,y,-z
1/2+x,1/2+y,1/2+z
1/2-x,-y,1/2+z
1/2+x,1/2-y,-z
-x,1/2+y,1/2-z
loop_
_atom_site_type_symbol
_atom_site_label
_atom_site_fract_x
_atom_site_fract_y
_atom_site_fract_z
Si Si1 0.003637 0.423600 0.692897
Si Si2 0.618619 0.430411 0.823072
Si Si3 0.433390 0.712020 0.200564
Si Si4 0.982030 0.630722 0.127250
Si Si5 0.876622 0.433162 0.839977
Si Si6 0.688895 0.714424 0.688798
Si Si7 0.910624 0.773133 0.115328
Si Si8 0.176193 0.787635 0.644773
O O1 0.025794 0.500000 0.750000
O O2 0.052386 0.367128 0.756544
O O3 0.996564 0.416518 0.516534
O O4 0.937688 0.405747 0.761105
O O5 0.647848 0.500000 0.750000
O O6 0.550943 0.415359 0.752567
O O7 0.665976 0.366375 0.793083
O O8 0.608085 0.450023 0.991904
O O9 0.500000 0.750000 0.182484
O O10 0.386452 0.750579 0.306230
O O11 0.397166 0.702038 0.048534
O O12 0.044111 0.668604 0.189595
O O13 0.937537 0.695320 0.088906
O O14 0.850091 0.500000 0.750000
O O15 0.826677 0.371727 0.835810
O O16 0.650594 0.768533 0.787921
O O17 0.760493 0.728604 0.731661
O O18 0.680619 0.735751 0.521773
#
# Coordination Sequence:
#
# PCOD8164682 Si02
#       8
#     8   8   8   8   8   8   8   8
#     4  10  18  30  48  73 102 130 159 203 261 306
#     4  10  19  30  46  69  99 136 173 208 247 298
#     4  11  18  32  52  77 101 127 169 217 260 301
#     4   9  16  30  48  70 100 129 161 210 248 295
#     4  10  19  30  46  68  98 135 170 209 249 293
#     4   9  21  35  49  70 101 136 176 211 249 302
#     4   9  16  32  52  73  96 131 163 212 257 292
#     4  10  20  36  50  71 102 135 175 215 249 302
#
# _framework density 17.001207000000001
#
# number of rings (size 3 to 8) (size 9 to 14) (size 15 to 20)
#    0.000    2.250    3.750    1.500    0.000    3.000 
#    2.250    0.000    0.000    0.000    0.000    7.875 
#    0.000    0.000    0.000    0.000    0.000    0.000 
#
# Total GULP energy -396418.370212 kJ/mol
# GULP energy per Si atom -12388.074069 kJ/mol
# Density = 1.696251 g / cm^3
# Si number density = 17.001207 Si / 1000 Ang^3
#
#
#
# Elastic Constant Matrix: (Units=GPa)
#
#
# Indices 1 2 3 4 5 6 
#
# 1 98.9748 34.5017 42.7539 0.0000 0.0000 0.0000
# 2 34.5017 63.2307 31.9306 0.0000 0.0000 0.0000
# 3 42.7539 31.9306 76.4164 0.0000 0.0000 0.0000
# 4 0.0000 0.0000 0.0000 27.3591 0.0000 0.0000
# 5 0.0000 0.0000 0.0000 0.0000 23.2997 0.0000
# 6 0.0000 0.0000 0.0000 0.0000 0.0000 14.7259
#
#
#
# Elastic Compliance Matrix: (Units=1/GPa)
#
#
# Indices 1 2 3 4 5 6 
#
# 1 0.014387 -0.004798 -0.006045 0.000000 0.000000 0.000000
# 2 -0.004798 0.021645 -0.006360 0.000000 0.000000 0.000000
# 3 -0.006045 -0.006360 0.019126 0.000000 0.000000 0.000000
# 4 0.000000 0.000000 0.000000 0.036551 0.000000 0.000000
# 5 0.000000 0.000000 0.000000 0.000000 0.042919 0.000000
# 6 0.000000 0.000000 0.000000 0.000000 0.000000 0.067908
#
#
# Mechanical properties :
#
#
# Convention : Reuss Voigt Hill
#
# Bulk Modulus (GPa) = 48.18666 50.77716 49.48191
# Shear Modulus (GPa) = 20.50378 21.70597 21.10488
#
# Velocity S-wave (km/s) = 3.47655 3.57701 3.52714
# Velocity P-wave (km/s) = 6.67231 6.85505 6.76430
#
# Compressibility (1/GPa) = 0.02075263
#
# Stress axis : x y z
#
# Youngs Moduli (GPa) = 69.50638 46.20070 52.28604
#
# Poissons Ratio (x) = 0.22167 0.31605
# Poissons Ratio (y) = 0.33348 0.33253
# Poissons Ratio (z) = 0.42014 0.29383
#
# Static dielectric constant tensor:
#      x y z
#    x 3.132970 0.000000 0.000000 
#    y 0.000000 3.215210 0.000000 
#    z 0.000000 0.000000 3.221580 
# 
# 
# High freq. dielectric constant tensor:
#      x y z
#    x 1.633380 0.000000 0.000000 
#    y 0.000000 1.643020 0.000000 
#    z 0.000000 0.000000 1.656480 
# 
# From -- ./inp_files/15476.got.cif
#   From: 2010.03.12/outbox.cif.g09.slc.cpg/sg24_8_cif.got.tgz:15476.got - 2010.04.14 03:06:53.
