data_PCOD8164672
_publ_section_title
;
Structure prediction by ZEFSAII (Michael W. Deem and Ramdas Pophale) SiO2 
 PCOD8164672
Probable space group: I 21 21 21
;
_chemical_formula_sum "Si O2"
_cell_formula_units_Z 64
_cell_length_a 9.072622
_cell_length_b 14.510550
_cell_length_c 27.461070
_cell_angle_alpha 90.000000
_cell_angle_beta 90.000000
_cell_angle_gamma 90.000000
_cell_volume 3615.215132
_symmetry_space_group_name_H-M "I 21 21 21"
_symmetry_group_IT_number 24
_symmetry_cell_setting 'orthorhombic'
loop_
_space_group_symop_operation_xyz
x,y,z
-x,1/2-y,z
x,-y,1/2-z
1/2-x,y,-z
1/2+x,1/2+y,1/2+z
1/2-x,-y,1/2+z
1/2+x,1/2-y,-z
-x,1/2+y,1/2-z
loop_
_atom_site_type_symbol
_atom_site_label
_atom_site_fract_x
_atom_site_fract_y
_atom_site_fract_z
Si Si1 0.871648 0.078089 0.208844
Si Si2 0.943863 0.147143 0.815714
Si Si3 0.571128 0.520669 0.861826
Si Si4 0.575752 0.343224 0.555716
Si Si5 0.413482 0.160282 0.282595
Si Si6 0.920835 0.343844 0.555398
Si Si7 0.412808 0.167730 0.720238
Si Si8 0.099216 0.988964 0.866481
O O1 0.731321 0.137953 0.192404
O O2 0.996924 0.143441 0.231141
O O3 0.832064 0.000000 0.250000
O O4 0.940104 0.044395 0.157073
O O5 0.000000 0.250000 0.829182
O O6 0.015991 0.115599 0.765184
O O7 0.996638 0.077623 0.858045
O O8 0.517054 0.574394 0.910041
O O9 0.602206 0.584950 0.816280
O O10 0.731490 0.475334 0.873289
O O11 0.500000 0.250000 0.573286
O O12 0.748375 0.326792 0.562453
O O13 0.534499 0.366582 0.500088
O O14 0.500000 0.250000 0.301744
O O15 0.252599 0.197199 0.266545
O O16 0.414183 0.082440 0.322683
O O17 0.963561 0.434152 0.586510
O O18 0.000000 0.250000 0.573310
O O19 0.500000 0.250000 0.693487
#
# Coordination Sequence:
#
# PCOD8164672 Si02
#       8
#     8   8   8   8   8   8   8   8
#     4  10  20  33  48  68  94 127 167 205 242 287
#     4  11  22  34  48  68  92 124 166 208 250 287
#     4   9  19  31  47  70  95 130 164 193 240 287
#     4   9  17  31  49  73 105 130 157 194 232 290
#     4  10  19  30  47  71  99 131 162 194 239 290
#     4   9  18  31  50  76 102 132 160 189 239 290
#     4  10  18  29  45  67  98 130 161 197 234 281
#     4  10  19  33  49  69  99 130 162 202 240 288
#
# _framework density 17.702957999999999
#
# number of rings (size 3 to 8) (size 9 to 14) (size 15 to 20)
#    0.000    2.250    0.000    4.125    0.000    4.000 
#    0.000    0.000    0.000    0.000    0.000    7.875 
#    0.000    0.000    0.000    0.000    0.000    0.000 
#
# Total GULP energy -396582.252570 kJ/mol
# GULP energy per Si atom -12393.195393 kJ/mol
# Density = 1.766266 g / cm^3
# Si number density = 17.702958 Si / 1000 Ang^3
#
#
#
# Elastic Constant Matrix: (Units=GPa)
#
#
# Indices 1 2 3 4 5 6 
#
# 1 107.6998 48.2883 32.4990 0.0000 0.0000 0.0000
# 2 48.2883 83.0618 34.9756 0.0000 0.0000 0.0000
# 3 32.4990 34.9756 80.3682 0.0000 0.0000 0.0000
# 4 0.0000 0.0000 0.0000 -3.6721 0.0000 0.0000
# 5 0.0000 0.0000 0.0000 0.0000 20.0803 0.0000
# 6 0.0000 0.0000 0.0000 0.0000 0.0000 31.2370
#
#
#
# Elastic Compliance Matrix: (Units=1/GPa)
#
#
# Indices 1 2 3 4 5 6 
#
# 1 0.012924 -0.006505 -0.002395 0.000000 0.000000 0.000000
# 2 -0.006505 0.018014 -0.005209 0.000000 0.000000 0.000000
# 3 -0.002395 -0.005209 0.015678 0.000000 0.000000 0.000000
# 4 0.000000 0.000000 0.000000 -0.272324 0.000000 0.000000
# 5 0.000000 0.000000 0.000000 0.000000 0.049800 0.000000
# 6 0.000000 0.000000 0.000000 0.000000 0.000000 0.032013
#
#
# Mechanical properties :
#
#
# Convention : Reuss Voigt Hill
#
# Bulk Modulus (GPa) = 54.35397 55.85063 55.10230
# Shear Modulus (GPa) = -45.64485 19.88683 -12.87901
#
# Velocity S-wave (km/s) = -5.08328 3.35530 -2.70016
# Velocity P-wave (km/s) = 1.91911 6.82846 4.63384
#
# Compressibility (1/GPa) = 0.01839792
#
# Stress axis : x y z
#
# Youngs Moduli (GPa) = 77.37250 55.51091 63.78197
#
# Poissons Ratio (x) = 0.36110 0.15278
# Poissons Ratio (y) = 0.50331 0.33226
# Poissons Ratio (z) = 0.18534 0.28917
#
# Static dielectric constant tensor:
#      x y z
#    x 3.655430 0.000000 0.000000 
#    y 0.000000 3.233280 0.000000 
#    z 0.000000 0.000000 3.284310 
# 
# 
# High freq. dielectric constant tensor:
#      x y z
#    x 1.695220 0.000000 0.000000 
#    y 0.000000 1.665990 0.000000 
#    z 0.000000 0.000000 1.661790 
# 
# From -- ./inp_files/28298.got.cif
#   From: 2010.03.12/outbox.cif.g09.slc.cpg/sg24_15_cif.got.tgz:28298.got - 2010.04.14 03:06:53.
