data_PCOD8164150
_publ_section_title
;
Structure prediction by ZEFSAII (Michael W. Deem and Ramdas Pophale) SiO2 
 PCOD8164150
Probable space group: I 2 2 2
;
_chemical_formula_sum "Si O2"
_cell_formula_units_Z 36
_cell_length_a 22.242991
_cell_length_b 7.609949
_cell_length_c 9.271104
_cell_angle_alpha 90.000000
_cell_angle_beta 90.000000
_cell_angle_gamma 90.000000
_cell_volume 1569.301483
_symmetry_space_group_name_H-M "I 2 2 2"
_symmetry_group_IT_number 23
_symmetry_cell_setting 'orthorhombic'
loop_
_space_group_symop_operation_xyz
x,y,z
-x,-y,z
x,-y,-z
-x,y,-z
1/2+x,1/2+y,1/2+z
1/2-x,1/2-y,1/2+z
1/2+x,1/2-y,1/2-z
1/2-x,1/2+y,1/2-z
loop_
_atom_site_type_symbol
_atom_site_label
_atom_site_fract_x
_atom_site_fract_y
_atom_site_fract_z
Si Si1 0.500000 0.000000 0.313913
Si Si2 0.120458 0.648815 0.766583
Si Si3 0.423290 0.312215 0.449487
Si Si4 0.703103 0.299104 0.038453
Si Si5 0.182291 0.296401 0.779197
O O1 0.445325 0.925909 0.218050
O O2 0.526107 0.834590 0.409695
O O3 0.144009 0.765665 0.634982
O O4 0.166223 0.496724 0.813138
O O5 0.115399 0.754630 0.913392
O O6 0.451617 0.500000 0.500000
O O7 0.374939 0.328800 0.318038
O O8 0.760745 0.233781 0.128165
O O9 0.707348 0.500000 0.000000
O O10 0.697820 0.195967 0.889587
#
# Coordination Sequence:
#
# PCOD8164150 Si02
#       5
#     4   8   8   8   8
#     4  10  23  44  69  98 133 174 223 274 329 388
#     4  11  23  42  66  93 130 172 217 273 332 392
#     4  11  22  41  70 100 130 173 223 273 326 393
#     4  12  24  40  64  97 131 170 220 274 334 402
#     4  11  23  41  64  95 133 172 213 273 339 396
#
# _framework density 22.940142000000002
#
# number of rings (size 3 to 8) (size 9 to 14) (size 15 to 20)
#    0.000    0.889    0.000   10.000    0.000    3.556 
#    0.000   11.111    0.000    5.333    0.000    0.000 
#    0.000    0.000    0.000    0.000    0.000    0.000 
#
# Total GULP energy -223044.373534 kJ/mol
# GULP energy per Si atom -12391.354085 kJ/mol
# Density = 2.288793 g / cm^3
# Si number density = 22.940142 Si / 1000 Ang^3
#
#
#
# Elastic Constant Matrix: (Units=GPa)
#
#
# Indices 1 2 3 4 5 6 
#
# 1 153.8206 23.7318 66.8947 0.0000 0.0000 0.0000
# 2 23.7318 110.5766 9.2321 0.0000 0.0000 0.0000
# 3 66.8947 9.2321 115.2942 0.0000 0.0000 0.0000
# 4 0.0000 0.0000 0.0000 27.1161 0.0000 0.0000
# 5 0.0000 0.0000 0.0000 0.0000 41.7638 0.0000
# 6 0.0000 0.0000 0.0000 0.0000 0.0000 22.9897
#
#
#
# Elastic Compliance Matrix: (Units=1/GPa)
#
#
# Indices 1 2 3 4 5 6 
#
# 1 0.008934 -0.001495 -0.005064 0.000000 0.000000 0.000000
# 2 -0.001495 0.009354 0.000118 0.000000 0.000000 0.000000
# 3 -0.005064 0.000118 0.011602 0.000000 0.000000 0.000000
# 4 0.000000 0.000000 0.000000 0.036879 0.000000 0.000000
# 5 0.000000 0.000000 0.000000 0.000000 0.023944 0.000000
# 6 0.000000 0.000000 0.000000 0.000000 0.000000 0.043498
#
#
# Mechanical properties :
#
#
# Convention : Reuss Voigt Hill
#
# Bulk Modulus (GPa) = 58.78973 64.37872 61.58423
# Shear Modulus (GPa) = 32.73080 37.02943 34.88011
#
# Velocity S-wave (km/s) = 3.78139 4.02204 3.90357
# Velocity P-wave (km/s) = 6.68941 7.04938 6.87176
#
# Compressibility (1/GPa) = 0.01700977
#
# Stress axis : x y z
#
# Youngs Moduli (GPa) = 111.93364 106.90144 86.19141
#
# Poissons Ratio (x) = 0.15977 0.43646
# Poissons Ratio (y) = 0.16730 -0.01018
# Poissons Ratio (z) = 0.56681 -0.01263
#
# Static dielectric constant tensor:
#      x y z
#    x 4.438440 0.000000 0.000000 
#    y 0.000000 4.011910 0.000000 
#    z 0.000000 0.000000 5.253010 
# 
# 
# High freq. dielectric constant tensor:
#      x y z
#    x 1.925130 0.000000 0.000000 
#    y 0.000000 1.906660 0.000000 
#    z 0.000000 0.000000 1.893370 
# 
# From -- ./inp_files/11655.got.cif
#   From: 2010.03.12/outbox.cif.g09.slc.cpg/sg23_6_cif.got.tgz:11655.got - 2010.04.14 02:50:06.
