data_PCOD8164004
_publ_section_title
;
Structure prediction by ZEFSAII (Michael W. Deem and Ramdas Pophale) SiO2 
 PCOD8164004
Probable space group: I 2 2 2
;
_chemical_formula_sum "Si O2"
_cell_formula_units_Z 58
_cell_length_a 8.510112
_cell_length_b 18.366911
_cell_length_c 17.886484
_cell_angle_alpha 90.000000
_cell_angle_beta 90.000000
_cell_angle_gamma 90.000000
_cell_volume 2795.737396
_symmetry_space_group_name_H-M "I 2 2 2"
_symmetry_group_IT_number 23
_symmetry_cell_setting 'orthorhombic'
loop_
_space_group_symop_operation_xyz
x,y,z
-x,-y,z
x,-y,-z
-x,y,-z
1/2+x,1/2+y,1/2+z
1/2-x,1/2-y,1/2+z
1/2+x,1/2-y,1/2-z
1/2-x,1/2+y,1/2-z
loop_
_atom_site_type_symbol
_atom_site_label
_atom_site_fract_x
_atom_site_fract_y
_atom_site_fract_z
Si Si1 0.091966 0.718204 0.675096
Si Si2 0.623875 0.678480 0.560316
Si Si3 0.853089 0.402238 0.873724
Si Si4 0.378551 0.709798 0.940675
Si Si5 0.000000 0.500000 0.000000
Si Si6 0.677991 0.521298 0.579126
Si Si7 0.437807 0.772958 0.671809
Si Si8 0.353808 0.948216 0.209823
O O1 0.250454 0.765679 0.666861
O O2 0.122097 0.632977 0.680569
O O3 0.980311 0.733673 0.606181
O O4 0.992372 0.744401 0.745238
O O5 0.500000 0.650731 0.500000
O O6 0.740505 0.739392 0.524317
O O7 0.712197 0.607255 0.590956
O O8 0.524412 0.711188 0.626652
O O9 0.699394 0.354380 0.892402
O O10 0.810333 0.448196 0.798779
O O11 0.007154 0.352893 0.856588
O O12 0.889706 0.451927 0.945780
O O13 0.500000 0.674774 0.000000
O O14 0.500000 0.500000 0.568915
O O15 0.764828 0.500000 0.500000
O O16 0.723785 0.480376 0.655181
O O17 0.500000 0.000000 0.197239
#
# Coordination Sequence:
#
# PCOD8164004 Si02
#       8
#     8   8   8   8   2   8   8   8
#     4  11  22  41  65  97 131 170 219 276 332 392
#     4  11  21  39  60  93 130 176 221 268 335 383
#     4  10  25  46  70  98 126 179 223 277 348 407
#     4  11  25  40  66 100 129 166 226 286 331 396
#     4  12  24  48  78  92 134 172 220 280 340 432
#     4  11  23  39  60  94 136 183 223 265 320 405
#     4  10  22  39  69  95 127 172 222 279 328 396
#     4  11  23  43  64  95 136 176 221 266 336 406
#
# _framework density 20.745868000000002
#
# number of rings (size 3 to 8) (size 9 to 14) (size 15 to 20)
#    0.000    1.241    2.069    4.966    7.724    1.379 
#    0.000    1.724    0.000    0.000    0.000    0.000 
#    0.000    0.000    0.000    0.000    0.000    0.000 
#
# Total GULP energy -359436.053507 kJ/mol
# GULP energy per Si atom -12394.346673 kJ/mol
# Density = 2.069865 g / cm^3
# Si number density = 20.745868 Si / 1000 Ang^3
#
#
#
# Elastic Constant Matrix: (Units=GPa)
#
#
# Indices 1 2 3 4 5 6 
#
# 1 95.8446 28.1112 35.4645 0.0000 0.0000 0.0000
# 2 28.1112 78.8506 45.3935 0.0000 0.0000 0.0000
# 3 35.4645 45.3935 128.3220 0.0000 0.0000 0.0000
# 4 0.0000 0.0000 0.0000 49.0337 0.0000 0.0000
# 5 0.0000 0.0000 0.0000 0.0000 40.8266 0.0000
# 6 0.0000 0.0000 0.0000 0.0000 0.0000 24.6147
#
#
#
# Elastic Compliance Matrix: (Units=1/GPa)
#
#
# Indices 1 2 3 4 5 6 
#
# 1 0.012168 -0.003016 -0.002296 0.000000 0.000000 0.000000
# 2 -0.003016 0.016673 -0.005064 0.000000 0.000000 0.000000
# 3 -0.002296 -0.005064 0.010219 0.000000 0.000000 0.000000
# 4 0.000000 0.000000 0.000000 0.020394 0.000000 0.000000
# 5 0.000000 0.000000 0.000000 0.000000 0.024494 0.000000
# 6 0.000000 0.000000 0.000000 0.000000 0.000000 0.040626
#
#
# Mechanical properties :
#
#
# Convention : Reuss Voigt Hill
#
# Bulk Modulus (GPa) = 54.62483 57.88396 56.25440
# Shear Modulus (GPa) = 33.01873 35.83152 34.42513
#
# Velocity S-wave (km/s) = 3.99379 4.16043 4.07796
# Velocity P-wave (km/s) = 6.90324 7.14429 7.02480
#
# Compressibility (1/GPa) = 0.01830669
#
# Stress axis : x y z
#
# Youngs Moduli (GPa) = 82.18469 59.97688 97.85769
#
# Poissons Ratio (x) = 0.18091 0.22466
# Poissons Ratio (y) = 0.24789 0.49559
# Poissons Ratio (z) = 0.18868 0.30375
#
# Static dielectric constant tensor:
#      x y z
#    x 3.650050 0.000000 0.000000 
#    y 0.000000 3.861460 0.000000 
#    z 0.000000 0.000000 3.928260 
# 
# 
# High freq. dielectric constant tensor:
#      x y z
#    x 1.803070 0.000000 0.000000 
#    y 0.000000 1.812850 0.000000 
#    z 0.000000 0.000000 1.827910 
# 
# From -- ./inp_files/23893.got.cif
#   From: 2010.03.12/outbox.cif.g09.slc.cpg/sg23_12_cif.got.tgz:23893.got - 2010.04.14 02:50:06.
