data_PCOD8164371
_publ_section_title
;
Structure prediction by ZEFSAII (Michael W. Deem and Ramdas Pophale) SiO2 
 PCOD8164371
Probable space group: I 2 2 2
;
_chemical_formula_sum "Si O2"
_cell_formula_units_Z 48
_cell_length_a 14.605080
_cell_length_b 8.821333
_cell_length_c 18.830041
_cell_angle_alpha 90.000000
_cell_angle_beta 90.000000
_cell_angle_gamma 90.000000
_cell_volume 2425.992325
_symmetry_space_group_name_H-M "I 2 2 2"
_symmetry_group_IT_number 23
_symmetry_cell_setting 'orthorhombic'
loop_
_space_group_symop_operation_xyz
x,y,z
-x,-y,z
x,-y,-z
-x,y,-z
1/2+x,1/2+y,1/2+z
1/2-x,1/2-y,1/2+z
1/2+x,1/2-y,1/2-z
1/2-x,1/2+y,1/2-z
loop_
_atom_site_type_symbol
_atom_site_label
_atom_site_fract_x
_atom_site_fract_y
_atom_site_fract_z
Si Si1 0.202320 0.654206 0.466939
Si Si2 0.190429 0.431809 0.068825
Si Si3 0.972767 0.161869 0.708153
Si Si4 0.154549 0.662977 0.310439
Si Si5 0.326847 0.133094 0.719242
Si Si6 0.380607 0.606254 0.059568
O O1 0.240207 0.500000 0.500000
O O2 0.289936 0.757767 0.450924
O O3 0.148064 0.627215 0.393811
O O4 0.135464 0.729448 0.524991
O O5 0.135495 0.432348 0.143254
O O6 0.284728 0.525605 0.080883
O O7 0.136142 0.500000 0.000000
O O8 0.890349 0.233204 0.752307
O O9 0.944650 0.128304 0.627098
O O10 0.055668 0.279568 0.713920
O O11 0.000000 0.000000 0.742733
O O12 0.226683 0.795364 0.292453
O O13 0.180186 0.505885 0.272935
O O14 0.428756 0.500000 0.000000
#
# Coordination Sequence:
#
# PCOD8164371 Si02
#       6
#     8   8   8   8   8   8
#     4   9  17  30  51  81 115 144 179 225 274 332
#     4   8  17  35  57  81 106 145 190 230 284 346
#     4  12  23  37  57  85 118 156 193 230 277 334
#     4  11  23  37  56  85 117 153 189 229 282 338
#     4  11  22  39  58  82 116 151 190 237 284 337
#     4   9  18  34  54  79 117 159 187 217 270 347
#
# _framework density 19.785719
#
# number of rings (size 3 to 8) (size 9 to 14) (size 15 to 20)
#    0.000    2.333    0.000    6.500    0.000    3.667 
#    0.000    1.667    0.000    2.000    0.000    1.167 
#    0.000    0.000    0.000    0.000    0.000    0.000 
#
# Total GULP energy -297460.027384 kJ/mol
# GULP energy per Si atom -12394.167808 kJ/mol
# Density = 1.974069 g / cm^3
# Si number density = 19.785719 Si / 1000 Ang^3
#
#
#
# Elastic Constant Matrix: (Units=GPa)
#
#
# Indices 1 2 3 4 5 6 
#
# 1 48.9778 16.4717 31.7044 0.0000 0.0000 0.0000
# 2 16.4717 130.1637 53.7094 0.0000 0.0000 0.0000
# 3 31.7044 53.7094 112.9271 0.0000 0.0000 0.0000
# 4 0.0000 0.0000 0.0000 41.4502 0.0000 0.0000
# 5 0.0000 0.0000 0.0000 0.0000 18.3412 0.0000
# 6 0.0000 0.0000 0.0000 0.0000 0.0000 25.9009
#
#
#
# Elastic Compliance Matrix: (Units=1/GPa)
#
#
# Indices 1 2 3 4 5 6 
#
# 1 0.024964 -0.000332 -0.006851 0.000000 0.000000 0.000000
# 2 -0.000332 0.009563 -0.004455 0.000000 0.000000 0.000000
# 3 -0.006851 -0.004455 0.012897 0.000000 0.000000 0.000000
# 4 0.000000 0.000000 0.000000 0.024125 0.000000 0.000000
# 5 0.000000 0.000000 0.000000 0.000000 0.054522 0.000000
# 6 0.000000 0.000000 0.000000 0.000000 0.000000 0.038609
#
#
# Mechanical properties :
#
#
# Convention : Reuss Voigt Hill
#
# Bulk Modulus (GPa) = 41.41058 55.09329 48.25194
# Shear Modulus (GPa) = 25.50953 29.81732 27.66342
#
# Velocity S-wave (km/s) = 3.59456 3.88624 3.74324
# Velocity P-wave (km/s) = 6.18084 6.93127 6.56679
#
# Compressibility (1/GPa) = 0.02414842
#
# Stress axis : x y z
#
# Youngs Moduli (GPa) = 40.05822 104.57045 77.53517
#
# Poissons Ratio (x) = 0.03475 0.53116
# Poissons Ratio (y) = 0.01331 0.34541
# Poissons Ratio (z) = 0.27442 0.46585
#
# Static dielectric constant tensor:
#      x y z
#    x 3.149530 0.000000 0.000000 
#    y 0.000000 3.740770 0.000000 
#    z 0.000000 0.000000 3.903430 
# 
# 
# High freq. dielectric constant tensor:
#      x y z
#    x 1.727280 0.000000 0.000000 
#    y 0.000000 1.785430 0.000000 
#    z 0.000000 0.000000 1.781820 
# 
# From -- ./inp_files/24723.got.cif
#   From: 2010.03.12/outbox.cif.g09.slc.cpg/sg23_13_cif.got.tgz:24723.got - 2010.04.14 02:50:06.
