data_PCOD8164196
_publ_section_title
;
Structure prediction by ZEFSAII (Michael W. Deem and Ramdas Pophale) SiO2 
 PCOD8164196
Probable space group: I 2 2 2
;
_chemical_formula_sum "Si O2"
_cell_formula_units_Z 40
_cell_length_a 7.554365
_cell_length_b 12.608103
_cell_length_c 18.555954
_cell_angle_alpha 90.000000
_cell_angle_beta 90.000000
_cell_angle_gamma 90.000000
_cell_volume 1767.384329
_symmetry_space_group_name_H-M "I 2 2 2"
_symmetry_group_IT_number 23
_symmetry_cell_setting 'orthorhombic'
loop_
_space_group_symop_operation_xyz
x,y,z
-x,-y,z
x,-y,-z
-x,y,-z
1/2+x,1/2+y,1/2+z
1/2-x,1/2-y,1/2+z
1/2+x,1/2-y,1/2-z
1/2-x,1/2+y,1/2-z
loop_
_atom_site_type_symbol
_atom_site_label
_atom_site_fract_x
_atom_site_fract_y
_atom_site_fract_z
Si Si1 0.599345 0.326933 0.608719
Si Si2 0.500000 0.000000 0.820890
Si Si3 0.972290 0.697420 0.423438
Si Si4 0.500000 0.000000 0.500000
Si Si5 0.206084 0.338094 0.099785
Si Si6 0.500000 0.500000 0.500000
Si Si7 0.169218 0.064591 0.744234
O O1 0.424988 0.261168 0.592550
O O2 0.615303 0.427818 0.554548
O O3 0.597206 0.359972 0.692263
O O4 0.773678 0.257302 0.590290
O O5 0.493049 0.891402 0.864389
O O6 0.678623 0.011975 0.774760
O O7 0.100944 0.798877 0.424045
O O8 0.000000 0.640639 0.500000
O O9 0.630924 0.931839 0.550306
O O10 0.230010 0.371548 0.182252
O O11 0.000000 0.000000 0.713742
#
# Coordination Sequence:
#
# PCOD8164196 Si02
#       7
#     8   4   8   2   8   2   8
#     4  11  26  44  74 110 149 190 243 315 383 446
#     4  10  24  42  68 108 146 186 230 310 383 439
#     4  11  24  41  72 107 141 184 248 305 373 445
#     4  12  28  56  74 100 156 216 258 316 364 438
#     4  12  28  49  73 103 150 199 254 303 371 443
#     4  12  22  48  78 106 152 192 238 316 398 454
#     4  11  25  45  71 106 145 191 245 302 374 442
#
# _framework density 22.632314999999998
#
# number of rings (size 3 to 8) (size 9 to 14) (size 15 to 20)
#    0.000    0.800    1.000    5.100   14.000    4.800 
#    0.000    1.000    0.000    0.000    0.000    0.000 
#    0.000    0.000    0.000    0.000    0.000    0.000 
#
# Total GULP energy -247934.879365 kJ/mol
# GULP energy per Si atom -12396.743968 kJ/mol
# Density = 2.258080 g / cm^3
# Si number density = 22.632315 Si / 1000 Ang^3
#
#
#
# Elastic Constant Matrix: (Units=GPa)
#
#
# Indices 1 2 3 4 5 6 
#
# 1 156.1027 49.7791 40.3505 0.0000 0.0000 0.0000
# 2 49.7791 85.8427 48.1397 0.0000 0.0000 0.0000
# 3 40.3505 48.1397 132.8425 0.0000 0.0000 0.0000
# 4 0.0000 0.0000 0.0000 -7.7772 0.0000 0.0000
# 5 0.0000 0.0000 0.0000 0.0000 38.4441 0.0000
# 6 0.0000 0.0000 0.0000 0.0000 0.0000 36.1571
#
#
#
# Elastic Compliance Matrix: (Units=1/GPa)
#
#
# Indices 1 2 3 4 5 6 
#
# 1 0.007951 -0.004087 -0.000934 0.000000 0.000000 0.000000
# 2 -0.004087 0.016721 -0.004818 0.000000 0.000000 0.000000
# 3 -0.000934 -0.004818 0.009557 0.000000 0.000000 0.000000
# 4 0.000000 0.000000 0.000000 -0.128581 0.000000 0.000000
# 5 0.000000 0.000000 0.000000 0.000000 0.026012 0.000000
# 6 0.000000 0.000000 0.000000 0.000000 0.000000 0.027657
#
#
# Mechanical properties :
#
#
# Convention : Reuss Voigt Hill
#
# Bulk Modulus (GPa) = 68.72172 72.36962 70.54567
# Shear Modulus (GPa) = -309.49987 29.13271 -140.18358
#
# Velocity S-wave (km/s) = -11.70676 3.59167 -7.87871
# Velocity P-wave (km/s) = 12.34101 7.01754 7.17826
#
# Compressibility (1/GPa) = 0.01455144
#
# Stress axis : x y z
#
# Youngs Moduli (GPa) = 125.77553 59.80523 104.63102
#
# Poissons Ratio (x) = 0.24441 0.09773
# Poissons Ratio (y) = 0.51401 0.50412
# Poissons Ratio (z) = 0.11748 0.28814
#
# Static dielectric constant tensor:
#      x y z
#    x 4.498110 0.000000 0.000000 
#    y 0.000000 3.817710 0.000000 
#    z 0.000000 0.000000 4.460460 
# 
# 
# High freq. dielectric constant tensor:
#      x y z
#    x 1.916600 0.000000 0.000000 
#    y 0.000000 1.867920 0.000000 
#    z 0.000000 0.000000 1.909890 
# 
# From -- ./inp_files/23588.got.cif
#   From: 2010.03.12/outbox.cif.g09.slc.cpg/sg23_12_cif.got.tgz:23588.got - 2010.04.14 02:50:06.
