data_PCOD8164608
_publ_section_title
;
Structure prediction by ZEFSAII (Michael W. Deem and Ramdas Pophale) SiO2 
 PCOD8164608
Probable space group: I 21 21 21
;
_chemical_formula_sum "Si O2"
_cell_formula_units_Z 48
_cell_length_a 9.906424
_cell_length_b 29.157308
_cell_length_c 8.708277
_cell_angle_alpha 90.000000
_cell_angle_beta 90.000000
_cell_angle_gamma 90.000000
_cell_volume 2515.339272
_symmetry_space_group_name_H-M "I 21 21 21"
_symmetry_group_IT_number 24
_symmetry_cell_setting 'orthorhombic'
loop_
_space_group_symop_operation_xyz
x,y,z
-x,1/2-y,z
x,-y,1/2-z
1/2-x,y,-z
1/2+x,1/2+y,1/2+z
1/2-x,-y,1/2+z
1/2+x,1/2-y,-z
-x,1/2+y,1/2-z
loop_
_atom_site_type_symbol
_atom_site_label
_atom_site_fract_x
_atom_site_fract_y
_atom_site_fract_z
Si Si1 0.269711 0.309890 0.678726
Si Si2 0.121161 0.372289 0.893835
Si Si3 0.436255 0.547969 0.833710
Si Si4 0.482189 0.861389 0.693444
Si Si5 0.854363 0.727689 0.360887
Si Si6 0.882062 0.951694 0.820474
O O1 0.250000 0.314190 0.500000
O O2 0.146661 0.329018 0.782144
O O3 0.392687 0.343153 0.711510
O O4 0.295662 0.257411 0.721156
O O5 0.059892 0.413244 0.792094
O O6 0.250000 0.386821 0.000000
O O7 0.003055 0.359399 0.010235
O O8 0.472252 0.500000 0.750000
O O9 0.534611 0.586498 0.756077
O O10 0.277776 0.558624 0.818369
O O11 0.459247 0.548196 0.016585
O O12 0.361492 0.824224 0.709320
O O13 0.750000 0.730602 0.500000
O O14 0.000000 0.750000 0.408993
O O15 0.916530 0.000000 0.750000
#
# Coordination Sequence:
#
# PCOD8164608 Si02
#       6
#     8   8   8   8   8   8
#     4  10  18  31  50  74 105 139 178 224 277 325
#     4  10  17  28  46  70 102 141 178 216 270 326
#     4  10  18  28  45  71 108 145 181 226 274 326
#     4  10  19  32  50  74 105 144 181 224 274 329
#     4  10  21  39  59  82 111 146 188 232 277 334
#     4  10  18  25  43  73 108 147 183 219 273 334
#
# _framework density 19.082912
#
# number of rings (size 3 to 8) (size 9 to 14) (size 15 to 20)
#    0.000    2.000    3.333    4.500    2.333    0.000 
#    0.000    9.167    0.000    0.000    0.000    4.667 
#    0.000    0.000    0.000    0.000    0.000    0.000 
#
# Total GULP energy -297315.621474 kJ/mol
# GULP energy per Si atom -12388.150895 kJ/mol
# Density = 1.903948 g / cm^3
# Si number density = 19.082912 Si / 1000 Ang^3
#
#
#
# Elastic Constant Matrix: (Units=GPa)
#
#
# Indices 1 2 3 4 5 6 
#
# 1 20.7416 28.1316 24.1327 0.0182 0.0158 0.0176
# 2 28.1316 160.6081 75.6408 0.0040 0.0002 0.0020
# 3 24.1327 75.6408 172.6241 0.0555 0.0260 0.0506
# 4 0.0182 0.0040 0.0555 32.9208 0.0131 0.0204
# 5 0.0158 0.0002 0.0260 0.0131 4.0324 0.0116
# 6 0.0176 0.0020 0.0506 0.0204 0.0116 3.4780
#
#
#
# Elastic Compliance Matrix: (Units=1/GPa)
#
#
# Indices 1 2 3 4 5 6 
#
# 1 0.066892 -0.009214 -0.005314 -0.000027 -0.000227 -0.000255
# 2 -0.009214 0.009115 -0.002706 0.000008 0.000053 0.000081
# 3 -0.005314 -0.002706 0.007721 -0.000010 -0.000029 -0.000084
# 4 -0.000027 0.000008 -0.000010 0.030376 -0.000098 -0.000178
# 5 -0.000227 0.000053 -0.000029 -0.000098 0.247995 -0.000828
# 6 -0.000255 0.000081 -0.000084 -0.000178 -0.000828 0.287528
#
#
# Mechanical properties :
#
#
# Convention : Reuss Voigt Hill
#
# Bulk Modulus (GPa) = 20.30010 67.75375 44.02693
# Shear Modulus (GPa) = 7.13762 23.15749 15.14755
#
# Velocity S-wave (km/s) = 1.93609 3.48734 2.82046
# Velocity P-wave (km/s) = 3.95713 7.19704 5.80759
#
# Compressibility (1/GPa) = 0.04926083
#
# Stress axis : x y z
#
# Youngs Moduli (GPa) = 14.94945 109.71498 129.50898
#
# Poissons Ratio (x) = 1.01090 0.68821
# Poissons Ratio (y) = 0.13774 0.35042
# Poissons Ratio (z) = 0.07944 0.29686
#
# Static dielectric constant tensor:
#      x y z
#    x 2.891700 0.000020 -0.000010 
#    y 0.000020 4.017490 0.000030 
#    z -0.000010 0.000030 3.613300 
# 
# 
# High freq. dielectric constant tensor:
#      x y z
#    x 1.658210 0.000000 0.000000 
#    y 0.000000 1.761360 0.000000 
#    z 0.000000 0.000000 1.753900 
# 
# From -- ./inp_files/11405.got.cif
#   From: 2010.03.12/outbox.cif.g09.slc.cpg/sg24_6_cif.got.tgz:11405.got - 2010.04.14 03:06:53.
