data_PCOD8164949
_publ_section_title
;
Structure prediction by ZEFSAII (Michael W. Deem and Ramdas Pophale) SiO2 
 PCOD8164949
Probable space group: I 21 21 21
;
_chemical_formula_sum "Si O2"
_cell_formula_units_Z 56
_cell_length_a 16.325339
_cell_length_b 18.626996
_cell_length_c 8.121850
_cell_angle_alpha 90.000000
_cell_angle_beta 90.000000
_cell_angle_gamma 90.000000
_cell_volume 2469.789807
_symmetry_space_group_name_H-M "I 21 21 21"
_symmetry_group_IT_number 24
_symmetry_cell_setting 'orthorhombic'
loop_
_space_group_symop_operation_xyz
x,y,z
-x,1/2-y,z
x,-y,1/2-z
1/2-x,y,-z
1/2+x,1/2+y,1/2+z
1/2-x,-y,1/2+z
1/2+x,1/2-y,-z
-x,1/2+y,1/2-z
loop_
_atom_site_type_symbol
_atom_site_label
_atom_site_fract_x
_atom_site_fract_y
_atom_site_fract_z
Si Si1 0.571841 0.344344 0.877024
Si Si2 0.703225 0.714322 0.829731
Si Si3 0.956886 0.820983 0.863587
Si Si4 0.407317 0.648769 0.807129
Si Si5 0.494871 0.937826 0.368947
Si Si6 0.837939 0.921421 0.469790
Si Si7 0.659415 0.234055 0.107836
O O1 0.638136 0.347955 0.726975
O O2 0.481400 0.324752 0.809840
O O3 0.562395 0.422187 0.971109
O O4 0.597199 0.284110 0.008690
O O5 0.653383 0.787045 0.856115
O O6 0.758691 0.723592 0.664373
O O7 0.750000 0.692399 0.000000
O O8 0.010717 0.863073 0.730455
O O9 0.873872 0.793429 0.782169
O O10 0.000000 0.750000 0.934823
O O11 0.941241 0.876143 0.014876
O O12 0.362262 0.579495 0.724998
O O13 0.589794 0.955108 0.418918
O O14 0.460558 0.000000 0.250000
O O15 0.750000 0.960701 0.500000
O O16 0.825415 0.836005 0.497458
#
# Coordination Sequence:
#
# PCOD8164949 Si02
#       7
#     8   8   8   8   8   8   8
#     4  11  22  38  59  85 129 177 218 262 334 396
#     4  12  22  33  53  95 141 158 204 268 346 391
#     4  11  21  35  60  91 128 156 203 274 329 388
#     4  11  22  34  55  91 132 164 202 260 327 396
#     4  10  24  42  62  86 121 173 234 268 321 397
#     4  10  19  35  59  85 127 170 212 255 331 393
#     4  11  20  33  55  93 127 161 205 260 327 400
#
# _framework density 22.673994
#
# number of rings (size 3 to 8) (size 9 to 14) (size 15 to 20)
#    0.000    1.143    5.714    1.714    4.000    0.000 
#    0.000    4.286    0.000    0.000    0.000   14.000 
#    0.000    0.000    0.000    0.000    0.000    0.000 
#
# Total GULP energy -346875.422586 kJ/mol
# GULP energy per Si atom -12388.407949 kJ/mol
# Density = 2.262239 g / cm^3
# Si number density = 22.673994 Si / 1000 Ang^3
#
#
#
# Elastic Constant Matrix: (Units=GPa)
#
#
# Indices 1 2 3 4 5 6 
#
# 1 83.8394 13.8830 29.7756 0.0000 0.0000 0.0000
# 2 13.8830 38.2525 10.1475 0.0000 0.0000 0.0000
# 3 29.7756 10.1475 108.0431 0.0000 0.0000 0.0000
# 4 0.0000 0.0000 0.0000 21.9468 0.0000 0.0000
# 5 0.0000 0.0000 0.0000 0.0000 43.5996 0.0000
# 6 0.0000 0.0000 0.0000 0.0000 0.0000 10.8089
#
#
#
# Elastic Compliance Matrix: (Units=1/GPa)
#
#
# Indices 1 2 3 4 5 6 
#
# 1 0.013824 -0.004109 -0.003424 0.000000 0.000000 0.000000
# 2 -0.004109 0.028031 -0.001500 0.000000 0.000000 0.000000
# 3 -0.003424 -0.001500 0.010340 0.000000 0.000000 0.000000
# 4 0.000000 0.000000 0.000000 0.045565 0.000000 0.000000
# 5 0.000000 0.000000 0.000000 0.000000 0.022936 0.000000
# 6 0.000000 0.000000 0.000000 0.000000 0.000000 0.092516
#
#
# Mechanical properties :
#
#
# Convention : Reuss Voigt Hill
#
# Bulk Modulus (GPa) = 29.30042 37.52746 33.41394
# Shear Modulus (GPa) = 20.60543 27.02635 23.81589
#
# Velocity S-wave (km/s) = 3.01785 3.45621 3.24444
# Velocity P-wave (km/s) = 5.00937 5.70211 5.36693
#
# Compressibility (1/GPa) = 0.03412920
#
# Stress axis : x y z
#
# Youngs Moduli (GPa) = 72.33831 35.67442 96.71131
#
# Poissons Ratio (x) = 0.14658 0.33112
# Poissons Ratio (y) = 0.29723 0.14510
# Poissons Ratio (z) = 0.24767 0.05352
#
# Static dielectric constant tensor:
#      x y z
#    x 4.279930 0.000000 0.000000 
#    y 0.000000 3.362630 0.000000 
#    z 0.000000 0.000000 4.442800 
# 
# 
# High freq. dielectric constant tensor:
#      x y z
#    x 1.893010 0.000000 0.000000 
#    y 0.000000 1.822420 0.000000 
#    z 0.000000 0.000000 1.924090 
# 
# From -- ./inp_files/14554.got.cif
#   From: 2010.03.12/outbox.cif.g09.slc.cpg/sg24_8_cif.got.tgz:14554.got - 2010.04.14 03:06:53.
