data_PCOD8164523
_publ_section_title
;
Structure prediction by ZEFSAII (Michael W. Deem and Ramdas Pophale) SiO2 
 PCOD8164523
Probable space group: I 2 2 2
;
_chemical_formula_sum "Si O2"
_cell_formula_units_Z 40
_cell_length_a 14.650166
_cell_length_b 5.254341
_cell_length_c 23.168939
_cell_angle_alpha 90.000000
_cell_angle_beta 90.000000
_cell_angle_gamma 90.000000
_cell_volume 1783.474673
_symmetry_space_group_name_H-M "I 2 2 2"
_symmetry_group_IT_number 23
_symmetry_cell_setting 'orthorhombic'
loop_
_space_group_symop_operation_xyz
x,y,z
-x,-y,z
x,-y,-z
-x,y,-z
1/2+x,1/2+y,1/2+z
1/2-x,1/2-y,1/2+z
1/2+x,1/2-y,1/2-z
1/2-x,1/2+y,1/2-z
loop_
_atom_site_type_symbol
_atom_site_label
_atom_site_fract_x
_atom_site_fract_y
_atom_site_fract_z
Si Si1 0.557440 0.250000 0.192935
Si Si2 0.754340 0.750000 0.848442
Si Si3 0.351683 0.750000 0.315582
Si Si4 0.735226 0.750000 0.481182
Si Si5 0.558147 0.250000 0.436793
O O1 0.500000 0.500000 0.178247
O O2 0.645149 0.250000 0.151152
O O3 0.585713 0.250000 0.259587
O O4 0.500000 0.000000 0.178247
O O5 0.788839 0.500882 0.815017
O O6 0.792044 0.750000 0.914031
O O7 0.788839 0.999120 0.815017
O O8 0.417850 0.750000 0.369777
O O9 0.792661 0.500000 0.500000
O O10 0.646426 0.750000 0.522420
O O11 0.792661 0.000000 0.500000
O O12 0.500000 0.500000 0.450942
O O13 0.500000 0.000000 0.450942
#
# Coordination Sequence:
#
# PCOD8164523 Si02
#       5
#     8   8   8   8   8
#     4  12  26  46  70 100 132 169 223 285 332 373
#     4  12  24  45  69  94 134 180 223 263 324 399
#     4  12  23  44  66 102 133 179 212 260 330 413
#     4  12  23  43  60  94 132 184 219 260 317 388
#     4  12  24  38  59  95 139 169 207 259 323 393
#
# _framework density 22.428127
#
# number of rings (size 3 to 8) (size 9 to 14) (size 15 to 20)
#    0.000    0.000    4.000    7.200    0.000    2.400 
#    0.000    0.000    0.000    3.600    0.000    0.000 
#    0.000    0.000    0.000    0.000    0.000    0.000 
#
# Total GULP energy -247999.363967 kJ/mol
# GULP energy per Si atom -12399.968198 kJ/mol
# Density = 2.237708 g / cm^3
# Si number density = 22.428127 Si / 1000 Ang^3
#
#
#
# Elastic Constant Matrix: (Units=GPa)
#
#
# Indices 1 2 3 4 5 6 
#
# 1 82.3644 44.1392 12.5810 0.0000 0.0000 0.0000
# 2 44.1392 236.0704 3.7278 0.0000 0.0000 0.0000
# 3 12.5810 3.7278 87.3640 0.0000 0.0000 0.0000
# 4 0.0000 0.0000 0.0000 -15.5105 0.0000 0.0000
# 5 0.0000 0.0000 0.0000 0.0000 23.1112 0.0000
# 6 0.0000 0.0000 0.0000 0.0000 0.0000 43.7721
#
#
#
# Elastic Compliance Matrix: (Units=1/GPa)
#
#
# Indices 1 2 3 4 5 6 
#
# 1 0.013794 -0.002550 -0.001878 0.000000 0.000000 0.000000
# 2 -0.002550 0.004710 0.000166 0.000000 0.000000 0.000000
# 3 -0.001878 0.000166 0.011710 0.000000 0.000000 0.000000
# 4 0.000000 0.000000 0.000000 -0.064472 0.000000 0.000000
# 5 0.000000 0.000000 0.000000 0.000000 0.043269 0.000000
# 6 0.000000 0.000000 0.000000 0.000000 0.000000 0.022846
#
#
# Mechanical properties :
#
#
# Convention : Reuss Voigt Hill
#
# Bulk Modulus (GPa) = 46.10000 58.52162 52.31081
# Shear Modulus (GPa) = 105.02203 33.29794 69.15999
#
# Velocity S-wave (km/s) = 6.85038 3.85730 5.55907
# Velocity P-wave (km/s) = 9.11973 6.78144 8.03609
#
# Compressibility (1/GPa) = 0.02169197
#
# Stress axis : x y z
#
# Youngs Moduli (GPa) = 72.49380 212.30982 85.39949
#
# Poissons Ratio (x) = 0.54129 0.16035
# Poissons Ratio (y) = 0.18483 -0.01419
# Poissons Ratio (z) = 0.13612 -0.03528
#
# Static dielectric constant tensor:
#      x y z
#    x 3.771870 0.000000 0.000000 
#    y 0.000000 15.812200 0.000000 
#    z 0.000000 0.000000 4.086090 
# 
# 
# High freq. dielectric constant tensor:
#      x y z
#    x 1.844910 0.000000 0.000000 
#    y 0.000000 1.928500 0.000000 
#    z 0.000000 0.000000 1.895010 
# 
# From -- ./inp_files/29361.got.cif
#   From: 2010.03.12/outbox.cif.g09.slc.cpg/sg23_15_cif.got.tgz:29361.got - 2010.04.14 02:50:06.
