data_PCOD8164534
_publ_section_title
;
Structure prediction by ZEFSAII (Michael W. Deem and Ramdas Pophale) SiO2 
 PCOD8164534
Probable space group: I 2 2 2
;
_chemical_formula_sum "Si O2"
_cell_formula_units_Z 26
_cell_length_a 29.306300
_cell_length_b 7.078056
_cell_length_c 4.854917
_cell_angle_alpha 90.000000
_cell_angle_beta 90.000000
_cell_angle_gamma 90.000000
_cell_volume 1007.063359
_symmetry_space_group_name_H-M "I 2 2 2"
_symmetry_group_IT_number 23
_symmetry_cell_setting 'orthorhombic'
loop_
_space_group_symop_operation_xyz
x,y,z
-x,-y,z
x,-y,-z
-x,y,-z
1/2+x,1/2+y,1/2+z
1/2-x,1/2-y,1/2+z
1/2+x,1/2-y,1/2-z
1/2-x,1/2+y,1/2-z
loop_
_atom_site_type_symbol
_atom_site_label
_atom_site_fract_x
_atom_site_fract_y
_atom_site_fract_z
Si Si1 0.429529 0.293666 0.593672
Si Si2 0.270743 0.672815 0.815868
Si Si3 0.129728 0.290650 0.589861
Si Si4 0.500000 0.000000 0.500000
O O1 0.448042 0.500000 0.500000
O O2 0.394317 0.324545 0.842821
O O3 0.469715 0.146981 0.683924
O O4 0.404896 0.191073 0.340862
O O5 0.252295 0.659264 0.501630
O O6 0.252462 0.500000 0.000000
O O7 0.325408 0.680517 0.812827
O O8 0.143862 0.500000 0.500000
#
# Coordination Sequence:
#
# PCOD8164534 Si02
#       4
#     8   8   8   2
#     4  12  26  46  73 103 139 186 232 291 350 419
#     4  12  25  43  67 101 137 183 232 286 346 414
#     4  12  24  47  70 101 141 184 231 288 353 414
#     4  12  26  50  72 108 140 182 246 286 364 408
#
# _framework density 25.817643
#
# number of rings (size 3 to 8) (size 9 to 14) (size 15 to 20)
#    0.000    0.000    3.077    7.846    0.000    2.462 
#    0.000    3.077    0.000    0.000    0.000    0.000 
#    0.000    0.000    0.000    0.000    0.000    0.000 
#
# Total GULP energy -161189.008688 kJ/mol
# GULP energy per Si atom -12399.154514 kJ/mol
# Density = 2.575888 g / cm^3
# Si number density = 25.817643 Si / 1000 Ang^3
#
#
#
# Elastic Constant Matrix: (Units=GPa)
#
#
# Indices 1 2 3 4 5 6 
#
# 1 123.8139 22.8462 17.6107 -0.0003 -0.0002 -0.0006
# 2 22.8462 67.2111 -33.9168 -0.0007 -0.0003 -0.0013
# 3 17.6107 -33.9168 113.2098 -0.0007 -0.0004 -0.0013
# 4 -0.0003 -0.0007 -0.0007 33.2588 -0.0004 -0.0012
# 5 -0.0002 -0.0003 -0.0004 -0.0004 17.5796 -0.0006
# 6 -0.0006 -0.0013 -0.0013 -0.0012 -0.0006 -4.3948
#
#
#
# Elastic Compliance Matrix: (Units=1/GPa)
#
#
# Indices 1 2 3 4 5 6 
#
# 1 0.009327 -0.004598 -0.002828 0.000000 0.000000 0.000001
# 2 -0.004598 0.019795 0.006646 0.000001 0.000000 -0.000007
# 3 -0.002828 0.006646 0.011264 0.000000 0.000000 -0.000005
# 4 0.000000 0.000001 0.000000 0.030067 0.000001 -0.000009
# 5 0.000000 0.000000 0.000000 0.000001 0.056884 -0.000008
# 6 0.000001 -0.000007 -0.000005 -0.000009 -0.000008 -0.227541
#
#
# Mechanical properties :
#
#
# Convention : Reuss Voigt Hill
#
# Bulk Modulus (GPa) = 25.75642 35.25724 30.50683
# Shear Modulus (GPa) = -58.34265 29.13503 -14.60381
#
# Velocity S-wave (km/s) = -4.75889 3.36295 -2.38092
# Velocity P-wave (km/s) = 4.49423 5.36331 2.06967
#
# Compressibility (1/GPa) = 0.03882527
#
# Stress axis : x y z
#
# Youngs Moduli (GPa) = 107.21181 50.51785 88.77735
#
# Poissons Ratio (x) = 0.23227 0.25110
# Poissons Ratio (y) = 0.49294 -0.58998
# Poissons Ratio (z) = 0.30324 -0.33572
#
# Static dielectric constant tensor:
#      x y z
#    x 4.378120 0.000000 0.000000 
#    y 0.000000 4.810040 0.000010 
#    z 0.000000 0.000010 5.291290 
# 
# 
# High freq. dielectric constant tensor:
#      x y z
#    x 2.022950 0.000000 0.000000 
#    y 0.000000 2.066520 0.000000 
#    z 0.000000 0.000000 2.023310 
# 
# From -- ./inp_files/4701.got.cif
#   From: 2010.03.12/outbox.cif.g09.slc.cpg/sg23_3_cif.got.tgz:4701.got - 2010.04.14 02:50:06.
