data_PCOD8164521
_publ_section_title
;
Structure prediction by ZEFSAII (Michael W. Deem and Ramdas Pophale) SiO2 
 PCOD8164521
Probable space group: I 2 2 2
;
_chemical_formula_sum "Si O2"
_cell_formula_units_Z 34
_cell_length_a 19.038781
_cell_length_b 17.980082
_cell_length_c 4.905947
_cell_angle_alpha 90.000000
_cell_angle_beta 90.000000
_cell_angle_gamma 90.000000
_cell_volume 1679.398104
_symmetry_space_group_name_H-M "I 2 2 2"
_symmetry_group_IT_number 23
_symmetry_cell_setting 'orthorhombic'
loop_
_space_group_symop_operation_xyz
x,y,z
-x,-y,z
x,-y,-z
-x,y,-z
1/2+x,1/2+y,1/2+z
1/2-x,1/2-y,1/2+z
1/2+x,1/2-y,1/2-z
1/2-x,1/2+y,1/2-z
loop_
_atom_site_type_symbol
_atom_site_label
_atom_site_fract_x
_atom_site_fract_y
_atom_site_fract_z
Si Si1 0.000000 0.000000 0.500000
Si Si2 0.078892 0.204966 0.078819
Si Si3 0.788223 0.285940 0.762587
Si Si4 0.747506 0.951521 0.730008
Si Si5 0.892138 0.890365 0.591636
O O1 0.049730 0.050433 0.693185
O O2 0.129200 0.271106 0.180429
O O3 0.079014 0.140280 0.303816
O O4 0.116626 0.175133 0.808631
O O5 0.000000 0.232205 0.000000
O O6 0.762383 0.234027 0.515210
O O7 0.788612 0.373515 0.691153
O O8 0.818719 0.932024 0.567590
O O9 0.705009 0.000000 0.500000
O O10 0.759050 0.000000 0.000000
#
# Coordination Sequence:
#
# PCOD8164521 Si02
#       5
#     2   8   8   8   8
#     4  12  24  34  52  90 132 170 188 234 320 390
#     4  12  23  41  60  90 122 168 218 261 313 377
#     4  12  23  41  66  91 125 172 223 272 318 386
#     4  12  24  39  61  91 128 168 215 269 331 384
#     4  12  24  36  58  86 129 171 205 246 306 399
#
# _framework density 20.245349000000001
#
# number of rings (size 3 to 8) (size 9 to 14) (size 15 to 20)
#    0.000    0.000    8.235    2.824    0.000    0.941 
#    0.000    0.000    0.000    0.706    0.000    1.647 
#    0.000    0.000    0.000    0.000    0.000    0.000 
#
# Total GULP energy -210714.013212 kJ/mol
# GULP energy per Si atom -12394.941954 kJ/mol
# Density = 2.019927 g / cm^3
# Si number density = 20.245349 Si / 1000 Ang^3
#
#
#
# Elastic Constant Matrix: (Units=GPa)
#
#
# Indices 1 2 3 4 5 6 
#
# 1 97.5602 52.9089 27.2835 0.0000 0.0000 0.0000
# 2 52.9089 125.6130 28.8475 0.0000 0.0000 0.0000
# 3 27.2835 28.8475 107.3959 0.0000 0.0000 0.0000
# 4 0.0000 0.0000 0.0000 29.5525 0.0000 0.0000
# 5 0.0000 0.0000 0.0000 0.0000 21.5232 0.0000
# 6 0.0000 0.0000 0.0000 0.0000 0.0000 27.6046
#
#
#
# Elastic Compliance Matrix: (Units=1/GPa)
#
#
# Indices 1 2 3 4 5 6 
#
# 1 0.013698 -0.005297 -0.002057 0.000000 0.000000 0.000000
# 2 -0.005297 0.010533 -0.001483 0.000000 0.000000 0.000000
# 3 -0.002057 -0.001483 0.010232 0.000000 0.000000 0.000000
# 4 0.000000 0.000000 0.000000 0.033838 0.000000 0.000000
# 5 0.000000 0.000000 0.000000 0.000000 0.046461 0.000000
# 6 0.000000 0.000000 0.000000 0.000000 0.000000 0.036226
#
#
# Mechanical properties :
#
#
# Convention : Reuss Voigt Hill
#
# Bulk Modulus (GPa) = 59.56714 60.96099 60.26406
# Shear Modulus (GPa) = 28.69268 30.50470 29.59869
#
# Velocity S-wave (km/s) = 3.76872 3.88590 3.82776
# Velocity P-wave (km/s) = 6.95875 7.09296 7.02618
#
# Compressibility (1/GPa) = 0.01678778
#
# Stress axis : x y z
#
# Youngs Moduli (GPa) = 73.00224 94.94050 97.72880
#
# Poissons Ratio (x) = 0.50293 0.20103
# Poissons Ratio (y) = 0.38672 0.14498
# Poissons Ratio (z) = 0.15017 0.14084
#
# Static dielectric constant tensor:
#      x y z
#    x 3.590600 0.000000 0.000000 
#    y 0.000000 3.724010 0.000000 
#    z 0.000000 0.000000 3.780160 
# 
# 
# High freq. dielectric constant tensor:
#      x y z
#    x 1.769550 0.000000 0.000000 
#    y 0.000000 1.785420 0.000000 
#    z 0.000000 0.000000 1.801810 
# 
# From -- ./inp_files/3735.got.cif
#   From: 2010.03.12/outbox.cif.g09.slc.cpg/sg23_2_cif.got.tgz:3735.got - 2010.04.14 02:50:06.
