data_PCOD8164326
_publ_section_title
;
Structure prediction by ZEFSAII (Michael W. Deem and Ramdas Pophale) SiO2 
 PCOD8164326
Probable space group: I 2 2 2
;
_chemical_formula_sum "Si O2"
_cell_formula_units_Z 64
_cell_length_a 12.014140
_cell_length_b 9.379424
_cell_length_c 26.179387
_cell_angle_alpha 90.000000
_cell_angle_beta 90.000000
_cell_angle_gamma 90.000000
_cell_volume 2950.042891
_symmetry_space_group_name_H-M "I 2 2 2"
_symmetry_group_IT_number 23
_symmetry_cell_setting 'orthorhombic'
loop_
_space_group_symop_operation_xyz
x,y,z
-x,-y,z
x,-y,-z
-x,y,-z
1/2+x,1/2+y,1/2+z
1/2-x,1/2-y,1/2+z
1/2+x,1/2-y,1/2-z
1/2-x,1/2+y,1/2-z
loop_
_atom_site_type_symbol
_atom_site_label
_atom_site_fract_x
_atom_site_fract_y
_atom_site_fract_z
Si Si1 0.436272 0.138721 0.875196
Si Si2 0.632472 0.976357 0.709852
Si Si3 0.560143 0.135209 0.392504
Si Si4 0.706087 0.150562 0.481507
Si Si5 0.412636 0.612175 0.640455
Si Si6 0.950448 0.151986 0.446661
Si Si7 0.269949 0.229972 0.792171
Si Si8 0.739333 0.405269 0.550165
O O1 0.527879 0.239566 0.900790
O O2 0.372409 0.232958 0.832662
O O3 0.354235 0.083431 0.919569
O O4 0.500000 0.000000 0.851660
O O5 0.642954 0.924848 0.651332
O O6 0.682871 0.843930 0.741492
O O7 0.500000 0.000000 0.723229
O O8 0.711293 0.116516 0.718473
O O9 0.623620 0.216101 0.438485
O O10 0.468843 0.235107 0.366551
O O11 0.500000 0.000000 0.417673
O O12 0.820475 0.131124 0.452001
O O13 0.716180 0.244949 0.531982
O O14 0.660062 0.000000 0.500000
O O15 0.500000 0.500000 0.661852
O O16 0.320237 0.623622 0.683795
O O17 0.361413 0.551759 0.587532
O O18 0.000000 0.211052 0.500000
O O19 0.000000 0.000000 0.432086
O O20 0.744804 0.500000 0.500000
#
# Coordination Sequence:
#
# PCOD8164326 Si02
#       8
#     8   8   8   8   8   8   8   8
#     4  11  24  42  66  97 138 178 229 273 341 403
#     4  11  25  50  76 101 137 171 225 287 358 416
#     4  11  24  44  67  94 135 181 217 284 344 403
#     4  12  23  36  64  95 130 179 237 268 329 398
#     4  11  24  43  66  96 137 175 224 275 340 400
#     4  11  21  38  60  90 136 183 225 281 329 385
#     4  11  26  48  74 100 131 174 223 286 348 427
#     4  11  23  38  60  95 135 184 225 272 320 395
#
# _framework density 21.694599
#
# number of rings (size 3 to 8) (size 9 to 14) (size 15 to 20)
#    0.000    0.875    5.000    2.625    5.250    4.000 
#    2.250    0.000    0.000    0.000    0.000    0.000 
#    0.000    0.000    0.000    0.000    0.000    0.000 
#
# Total GULP energy -396706.488933 kJ/mol
# GULP energy per Si atom -12397.077779 kJ/mol
# Density = 2.164522 g / cm^3
# Si number density = 21.694599 Si / 1000 Ang^3
#
#
#
# Elastic Constant Matrix: (Units=GPa)
#
#
# Indices 1 2 3 4 5 6 
#
# 1 75.6698 15.3007 35.6039 0.0000 0.0000 0.0000
# 2 15.3007 72.9094 16.3899 0.0000 0.0000 0.0000
# 3 35.6039 16.3899 78.8969 0.0000 0.0000 0.0000
# 4 0.0000 0.0000 0.0000 20.3256 0.0000 0.0000
# 5 0.0000 0.0000 0.0000 0.0000 35.5486 0.0000
# 6 0.0000 0.0000 0.0000 0.0000 0.0000 38.6010
#
#
#
# Elastic Compliance Matrix: (Units=1/GPa)
#
#
# Indices 1 2 3 4 5 6 
#
# 1 0.017035 -0.001937 -0.007285 0.000000 0.000000 0.000000
# 2 -0.001937 0.014608 -0.002160 0.000000 0.000000 0.000000
# 3 -0.007285 -0.002160 0.016411 0.000000 0.000000 0.000000
# 4 0.000000 0.000000 0.000000 0.049199 0.000000 0.000000
# 5 0.000000 0.000000 0.000000 0.000000 0.028130 0.000000
# 6 0.000000 0.000000 0.000000 0.000000 0.000000 0.025906
#
#
# Mechanical properties :
#
#
# Convention : Reuss Voigt Hill
#
# Bulk Modulus (GPa) = 39.54350 40.22945 39.88648
# Shear Modulus (GPa) = 27.39972 29.57381 28.48677
#
# Velocity S-wave (km/s) = 3.55769 3.69614 3.62758
# Velocity P-wave (km/s) = 5.92816 6.06623 5.99759
#
# Compressibility (1/GPa) = 0.02528860
#
# Stress axis : x y z
#
# Youngs Moduli (GPa) = 58.70379 68.45631 60.93478
#
# Poissons Ratio (x) = 0.13262 0.44390
# Poissons Ratio (y) = 0.11372 0.13164
# Poissons Ratio (z) = 0.42765 0.14789
#
# Static dielectric constant tensor:
#      x y z
#    x 4.235870 0.000000 0.000000 
#    y 0.000000 3.898640 0.000000 
#    z 0.000000 0.000000 3.906180 
# 
# 
# High freq. dielectric constant tensor:
#      x y z
#    x 1.860850 0.000000 0.000000 
#    y 0.000000 1.850610 0.000000 
#    z 0.000000 0.000000 1.845890 
# 
# From -- ./inp_files/30496.got.cif
#   From: 2010.03.12/outbox.cif.g09.slc.cpg/sg23_16_cif.got.tgz:30496.got - 2010.04.14 02:50:06.
