data_PCOD8164430
_publ_section_title
;
Structure prediction by ZEFSAII (Michael W. Deem and Ramdas Pophale) SiO2 
 PCOD8164430
Probable space group: I 2 2 2
;
_chemical_formula_sum "Si O2"
_cell_formula_units_Z 40
_cell_length_a 8.810722
_cell_length_b 25.548776
_cell_length_c 7.275106
_cell_angle_alpha 90.000000
_cell_angle_beta 90.000000
_cell_angle_gamma 90.000000
_cell_volume 1637.649370
_symmetry_space_group_name_H-M "I 2 2 2"
_symmetry_group_IT_number 23
_symmetry_cell_setting 'orthorhombic'
loop_
_space_group_symop_operation_xyz
x,y,z
-x,-y,z
x,-y,-z
-x,y,-z
1/2+x,1/2+y,1/2+z
1/2-x,1/2-y,1/2+z
1/2+x,1/2-y,1/2-z
1/2-x,1/2+y,1/2-z
loop_
_atom_site_type_symbol
_atom_site_label
_atom_site_fract_x
_atom_site_fract_y
_atom_site_fract_z
Si Si1 0.669811 0.904294 0.480519
Si Si2 0.014918 0.776572 0.301835
Si Si3 0.790768 0.679675 0.692741
Si Si4 0.176072 0.869336 0.156313
Si Si5 0.944383 0.943231 0.299656
O O1 0.500000 0.926145 0.500000
O O2 0.679308 0.847162 0.388797
O O3 0.728276 0.900232 0.690456
O O4 0.762664 0.942292 0.337794
O O5 0.061722 0.716146 0.333260
O O6 0.145009 0.808329 0.195308
O O7 0.000000 0.804111 0.500000
O O8 0.855528 0.782015 0.195823
O O9 0.769456 0.634188 0.535735
O O10 0.010408 0.900026 0.155071
O O11 0.000000 0.926647 0.500000
O O12 0.000000 0.000000 0.232988
#
# Coordination Sequence:
#
# PCOD8164430 Si02
#       5
#     8   8   8   8   8
#     4  11  25  43  67 105 142 176 235 293 356 425
#     4  12  24  43  61  94 138 189 244 281 351 418
#     4  12  27  42  66  96 143 192 235 302 348 419
#     4  11  23  45  66  99 140 181 239 292 351 428
#     4   9  19  44  76 104 138 182 232 296 364 440
#
# _framework density 24.425253000000001
#
# number of rings (size 3 to 8) (size 9 to 14) (size 15 to 20)
#    0.000    1.000    4.000    2.400    5.600    0.000 
#    0.000   10.000    0.000    0.000    0.000   11.200 
#    0.000    0.000    0.000    0.000    0.000    0.000 
#
# Total GULP energy -247787.738542 kJ/mol
# GULP energy per Si atom -12389.386927 kJ/mol
# Density = 2.436966 g / cm^3
# Si number density = 24.425253 Si / 1000 Ang^3
#
#
#
# Elastic Constant Matrix: (Units=GPa)
#
#
# Indices 1 2 3 4 5 6 
#
# 1 141.0093 40.1388 29.0590 -0.0239 0.0012 -0.0004
# 2 40.1388 101.0089 20.0747 0.0039 0.0015 0.0005
# 3 29.0590 20.0747 109.8358 -0.0772 0.0047 0.0017
# 4 -0.0239 0.0039 -0.0772 18.7731 -0.0004 -0.0003
# 5 0.0012 0.0015 0.0047 -0.0004 27.1781 -0.0065
# 6 -0.0004 0.0005 0.0017 -0.0003 -0.0065 30.0547
#
#
#
# Elastic Compliance Matrix: (Units=1/GPa)
#
#
# Indices 1 2 3 4 5 6 
#
# 1 0.008274 -0.002960 -0.001648 0.000004 0.000000 0.000000
# 2 -0.002960 0.011333 -0.001288 -0.000011 0.000000 0.000000
# 3 -0.001648 -0.001288 0.009776 0.000038 -0.000002 -0.000001
# 4 0.000004 -0.000011 0.000038 0.053268 0.000001 0.000001
# 5 0.000000 0.000000 -0.000002 0.000001 0.036794 0.000008
# 6 0.000000 0.000000 -0.000001 0.000001 0.000008 0.033273
#
#
# Mechanical properties :
#
#
# Convention : Reuss Voigt Hill
#
# Bulk Modulus (GPa) = 56.85149 58.93321 57.89235
# Shear Modulus (GPa) = 29.34733 32.70663 31.02698
#
# Velocity S-wave (km/s) = 3.47005 3.66327 3.56797
# Velocity P-wave (km/s) = 6.27545 6.48638 6.38178
#
# Compressibility (1/GPa) = 0.01758969
#
# Stress axis : x y z
#
# Youngs Moduli (GPa) = 120.86013 88.24171 102.29204
#
# Poissons Ratio (x) = 0.26123 0.16857
# Poissons Ratio (y) = 0.35779 0.13175
# Poissons Ratio (z) = 0.19917 0.11366
#
# Static dielectric constant tensor:
#      x y z
#    x 4.548030 0.000000 0.000000 
#    y 0.000000 3.886700 -0.000010 
#    z 0.000000 -0.000010 4.396830 
# 
# 
# High freq. dielectric constant tensor:
#      x y z
#    x 1.963200 0.000000 0.000000 
#    y 0.000000 1.933180 0.000000 
#    z 0.000000 0.000000 1.981390 
# 
# From -- ./inp_files/7210.got.cif
#   From: 2010.03.12/outbox.cif.g09.slc.cpg/sg23_4_cif.got.tgz:7210.got - 2010.04.14 02:50:06.
