data_PCOD8164883
_publ_section_title
;
Structure prediction by ZEFSAII (Michael W. Deem and Ramdas Pophale) SiO2 
 PCOD8164883
Probable space group: I 21 21 21
;
_chemical_formula_sum "Si O2"
_cell_formula_units_Z 64
_cell_length_a 17.316377
_cell_length_b 21.938931
_cell_length_c 8.889023
_cell_angle_alpha 90.000000
_cell_angle_beta 90.000000
_cell_angle_gamma 90.000000
_cell_volume 3376.964729
_symmetry_space_group_name_H-M "I 21 21 21"
_symmetry_group_IT_number 24
_symmetry_cell_setting 'orthorhombic'
loop_
_space_group_symop_operation_xyz
x,y,z
-x,1/2-y,z
x,-y,1/2-z
1/2-x,y,-z
1/2+x,1/2+y,1/2+z
1/2-x,-y,1/2+z
1/2+x,1/2-y,-z
-x,1/2+y,1/2-z
loop_
_atom_site_type_symbol
_atom_site_label
_atom_site_fract_x
_atom_site_fract_y
_atom_site_fract_z
Si Si1 0.965446 0.885410 0.414183
Si Si2 0.471003 0.371880 0.565364
Si Si3 0.824984 0.531095 0.910177
Si Si4 0.376024 0.833573 0.085516
Si Si5 0.325740 0.713306 0.930359
Si Si6 0.004314 0.005501 0.571732
Si Si7 0.171047 0.294702 0.079632
Si Si8 0.431905 0.796019 0.407806
O O1 0.981075 0.890157 0.238061
O O2 0.884518 0.852275 0.442554
O O3 0.036347 0.850374 0.490029
O O4 0.959789 0.951657 0.487912
O O5 0.547311 0.337114 0.514357
O O6 0.399662 0.327564 0.532531
O O7 0.459003 0.432943 0.469495
O O8 0.816101 0.500000 0.750000
O O9 0.826090 0.604642 0.910905
O O10 0.906092 0.508321 0.982934
O O11 0.750000 0.508277 0.000000
O O12 0.396704 0.822655 0.257794
O O13 0.328527 0.778287 0.014489
O O14 0.315788 0.722150 0.752880
O O15 0.250000 0.680251 0.000000
O O16 0.000303 0.000000 0.750000
O O17 0.250000 0.313158 0.000000
O O18 0.135590 0.235414 0.002048
O O19 0.500000 0.750000 0.365251
#
# Coordination Sequence:
#
# PCOD8164883 Si02
#       8
#     8   8   8   8   8   8   8   8
#     4  10  20  37  58  82 111 145 189 233 279 339
#     4  10  21  36  58  83 110 145 185 234 284 336
#     4  10  22  38  54  78 111 145 182 225 272 322
#     4  11  21  36  58  83 111 147 190 230 279 340
#     4  11  22  37  56  82 115 145 184 233 285 344
#     4  10  21  38  59  82 108 144 191 234 278 337
#     4  10  22  37  55  82 115 149 183 232 290 340
#     4  10  19  33  56  82 111 146 183 227 280 336
#
# _framework density 18.951930000000001
#
# number of rings (size 3 to 8) (size 9 to 14) (size 15 to 20)
#    0.000    1.750    0.000    5.625    0.000    7.000 
#    0.000    6.875    0.000    0.000    0.000    0.000 
#    0.000    0.000    0.000    0.000    0.000    0.000 
#
# Total GULP energy -396858.050867 kJ/mol
# GULP energy per Si atom -12401.814090 kJ/mol
# Density = 1.890879 g / cm^3
# Si number density = 18.951930 Si / 1000 Ang^3
#
#
#
# Elastic Constant Matrix: (Units=GPa)
#
#
# Indices 1 2 3 4 5 6 
#
# 1 98.6310 35.2930 59.0216 0.0000 0.0000 0.0000
# 2 35.2930 94.6275 41.2544 0.0000 0.0000 0.0000
# 3 59.0216 41.2544 110.7292 0.0000 0.0000 0.0000
# 4 0.0000 0.0000 0.0000 39.9631 0.0000 0.0000
# 5 0.0000 0.0000 0.0000 0.0000 33.3708 0.0000
# 6 0.0000 0.0000 0.0000 0.0000 0.0000 15.4947
#
#
#
# Elastic Compliance Matrix: (Units=1/GPa)
#
#
# Indices 1 2 3 4 5 6 
#
# 1 0.015399 -0.002585 -0.007245 0.000000 0.000000 0.000000
# 2 -0.002585 0.013051 -0.003485 0.000000 0.000000 0.000000
# 3 -0.007245 -0.003485 0.014191 0.000000 0.000000 0.000000
# 4 0.000000 0.000000 0.000000 0.025023 0.000000 0.000000
# 5 0.000000 0.000000 0.000000 0.000000 0.029966 0.000000
# 6 0.000000 0.000000 0.000000 0.000000 0.000000 0.064538
#
#
# Mechanical properties :
#
#
# Convention : Reuss Voigt Hill
#
# Bulk Modulus (GPa) = 62.45240 63.90286 63.17763
# Shear Modulus (GPa) = 25.75518 28.99366 27.37442
#
# Velocity S-wave (km/s) = 3.69043 3.91558 3.80467
# Velocity P-wave (km/s) = 7.15427 7.36437 7.26008
#
# Compressibility (1/GPa) = 0.01601219
#
# Stress axis : x y z
#
# Youngs Moduli (GPa) = 64.93798 76.62261 70.46608
#
# Poissons Ratio (x) = 0.19805 0.51054
# Poissons Ratio (y) = 0.16785 0.24555
# Poissons Ratio (z) = 0.47049 0.26700
#
# Static dielectric constant tensor:
#      x y z
#    x 3.471320 0.000000 0.000000 
#    y 0.000000 3.496470 0.000000 
#    z 0.000000 0.000000 3.577230 
# 
# 
# High freq. dielectric constant tensor:
#      x y z
#    x 1.735600 0.000000 0.000000 
#    y 0.000000 1.737910 0.000000 
#    z 0.000000 0.000000 1.750130 
# 
# From -- ./inp_files/13381.got.cif
#   From: 2010.03.12/outbox.cif.g09.slc.cpg/sg24_7_cif.got.tgz:13381.got - 2010.04.14 03:06:53.
