data_PCOD8164330
_publ_section_title
;
Structure prediction by ZEFSAII (Michael W. Deem and Ramdas Pophale) SiO2 
 PCOD8164330
Probable space group: I 2 2 2
;
_chemical_formula_sum "Si O2"
_cell_formula_units_Z 58
_cell_length_a 17.630039
_cell_length_b 9.487271
_cell_length_c 16.359180
_cell_angle_alpha 90.000000
_cell_angle_beta 90.000000
_cell_angle_gamma 90.000000
_cell_volume 2736.252115
_symmetry_space_group_name_H-M "I 2 2 2"
_symmetry_group_IT_number 23
_symmetry_cell_setting 'orthorhombic'
loop_
_space_group_symop_operation_xyz
x,y,z
-x,-y,z
x,-y,-z
-x,y,-z
1/2+x,1/2+y,1/2+z
1/2-x,1/2-y,1/2+z
1/2+x,1/2-y,1/2-z
1/2-x,1/2+y,1/2-z
loop_
_atom_site_type_symbol
_atom_site_label
_atom_site_fract_x
_atom_site_fract_y
_atom_site_fract_z
Si Si1 0.615931 0.339076 0.778729
Si Si2 0.019827 0.358563 0.270171
Si Si3 0.749740 0.170934 0.582757
Si Si4 0.591664 0.393424 0.137680
Si Si5 0.343971 0.970603 0.314942
Si Si6 0.256865 0.540990 0.663610
Si Si7 0.000000 0.000000 0.500000
Si Si8 0.756629 0.245856 0.397023
O O1 0.558109 0.220644 0.742637
O O2 0.564455 0.467444 0.812954
O O3 0.666643 0.406262 0.707715
O O4 0.661138 0.272755 0.855443
O O5 0.075411 0.253128 0.317099
O O6 0.066804 0.430739 0.194092
O O7 0.000000 0.500000 0.323731
O O8 0.818574 0.082419 0.622571
O O9 0.767626 0.330593 0.607088
O O10 0.751197 0.168340 0.484733
O O11 0.673347 0.099658 0.621091
O O12 0.550007 0.390585 0.051320
O O13 0.307432 0.010998 0.227198
O O14 0.305603 0.825933 0.340787
O O15 0.268879 0.409514 0.602147
#
# Coordination Sequence:
#
# PCOD8164330 Si02
#       8
#     8   8   8   8   8   8   2   8
#     4  11  23  41  68  92 134 182 226 272 342 416
#     4  12  24  42  63  99 131 173 225 276 334 400
#     4  12  23  39  63  98 134 173 216 282 337 393
#     4  12  23  39  62  90 132 179 219 261 333 426
#     4  11  22  41  66  90 132 175 230 273 325 403
#     4  11  21  39  62  95 129 170 222 278 329 392
#     4  12  24  40  58  92 136 184 206 252 352 436
#     4  11  23  39  65  98 130 173 224 280 337 402
#
# _framework density 21.196878000000002
#
# number of rings (size 3 to 8) (size 9 to 14) (size 15 to 20)
#    0.000    0.552    5.517    5.793    0.000    0.000 
#    0.000    0.345    0.000    5.793    0.000    3.862 
#    0.000    0.000    0.000    0.000    0.000    0.000 
#
# Total GULP energy -359404.453673 kJ/mol
# GULP energy per Si atom -12393.257023 kJ/mol
# Density = 2.114863 g / cm^3
# Si number density = 21.196878 Si / 1000 Ang^3
#
#
#
# Elastic Constant Matrix: (Units=GPa)
#
#
# Indices 1 2 3 4 5 6 
#
# 1 112.0359 39.0864 42.3377 0.0000 0.0000 0.0000
# 2 39.0864 144.8722 28.4391 0.0000 0.0000 0.0000
# 3 42.3377 28.4391 66.5077 0.0000 0.0000 0.0000
# 4 0.0000 0.0000 0.0000 25.8791 0.0000 0.0000
# 5 0.0000 0.0000 0.0000 0.0000 21.5537 0.0000
# 6 0.0000 0.0000 0.0000 0.0000 0.0000 33.7688
#
#
#
# Elastic Compliance Matrix: (Units=1/GPa)
#
#
# Indices 1 2 3 4 5 6 
#
# 1 0.012230 -0.001934 -0.006959 0.000000 0.000000 0.000000
# 2 -0.001934 0.007841 -0.002122 0.000000 0.000000 0.000000
# 3 -0.006959 -0.002122 0.020373 0.000000 0.000000 0.000000
# 4 0.000000 0.000000 0.000000 0.038641 0.000000 0.000000
# 5 0.000000 0.000000 0.000000 0.000000 0.046396 0.000000
# 6 0.000000 0.000000 0.000000 0.000000 0.000000 0.029613
#
#
# Mechanical properties :
#
#
# Convention : Reuss Voigt Hill
#
# Bulk Modulus (GPa) = 54.30189 60.34911 57.32550
# Shear Modulus (GPa) = 27.28360 30.47715 28.88038
#
# Velocity S-wave (km/s) = 3.59158 3.79596 3.69519
# Velocity P-wave (km/s) = 6.54773 6.90978 6.73119
#
# Compressibility (1/GPa) = 0.01841557
#
# Stress axis : x y z
#
# Youngs Moduli (GPa) = 81.76695 127.53700 49.08493
#
# Poissons Ratio (x) = 0.24661 0.34156
# Poissons Ratio (y) = 0.15811 0.10415
# Poissons Ratio (z) = 0.56898 0.27062
#
# Static dielectric constant tensor:
#      x y z
#    x 3.882890 0.000000 0.000000 
#    y 0.000000 4.082050 0.000000 
#    z 0.000000 0.000000 3.651570 
# 
# 
# High freq. dielectric constant tensor:
#      x y z
#    x 1.829000 0.000000 0.000000 
#    y 0.000000 1.863880 0.000000 
#    z 0.000000 0.000000 1.793960 
# 
# From -- ./inp_files/23891.got.cif
#   From: 2010.03.12/outbox.cif.g09.slc.cpg/sg23_12_cif.got.tgz:23891.got - 2010.04.14 02:50:06.
