data_PCOD8164606
_publ_section_title
;
Structure prediction by ZEFSAII (Michael W. Deem and Ramdas Pophale) SiO2 
 PCOD8164606
Probable space group: I 21 21 21
;
_chemical_formula_sum "Si O2"
_cell_formula_units_Z 64
_cell_length_a 9.217424
_cell_length_b 14.649884
_cell_length_c 27.280641
_cell_angle_alpha 90.000000
_cell_angle_beta 90.000000
_cell_angle_gamma 90.000000
_cell_volume 3683.819325
_symmetry_space_group_name_H-M "I 21 21 21"
_symmetry_group_IT_number 24
_symmetry_cell_setting 'orthorhombic'
loop_
_space_group_symop_operation_xyz
x,y,z
-x,1/2-y,z
x,-y,1/2-z
1/2-x,y,-z
1/2+x,1/2+y,1/2+z
1/2-x,-y,1/2+z
1/2+x,1/2-y,-z
-x,1/2+y,1/2-z
loop_
_atom_site_type_symbol
_atom_site_label
_atom_site_fract_x
_atom_site_fract_y
_atom_site_fract_z
Si Si1 0.860121 0.075311 0.207145
Si Si2 0.946798 0.149060 0.817557
Si Si3 0.566362 0.522067 0.862081
Si Si4 0.578000 0.340923 0.555857
Si Si5 0.362807 0.096942 0.268506
Si Si6 0.917062 0.341419 0.556420
Si Si7 0.425590 0.164389 0.722898
Si Si8 0.106405 0.989495 0.867309
O O1 0.724886 0.133501 0.187198
O O2 0.974700 0.144234 0.230487
O O3 0.821185 0.000000 0.250000
O O4 0.935059 0.041356 0.156305
O O5 0.000000 0.250000 0.833390
O O6 0.000503 0.125804 0.763206
O O7 0.010869 0.079413 0.858079
O O8 0.518703 0.575930 0.910994
O O9 0.591879 0.585826 0.815958
O O10 0.724956 0.477204 0.872588
O O11 0.500000 0.250000 0.573957
O O12 0.747507 0.323071 0.563687
O O13 0.540222 0.362849 0.499592
O O14 0.241655 0.176566 0.260061
O O15 0.414472 0.085158 0.324192
O O16 0.296902 0.000000 0.250000
O O17 0.955557 0.434089 0.585883
O O18 0.000000 0.250000 0.574832
O O19 0.500000 0.250000 0.696116
#
# Coordination Sequence:
#
# PCOD8164606 Si02
#       8
#     8   8   8   8   8   8   8   8
#     4  10  19  30  45  67  93 121 160 201 235 275
#     4  11  21  32  46  67  92 122 159 201 242 277
#     4   9  18  31  47  66  92 126 157 191 234 278
#     4   9  17  31  49  73 100 122 154 194 230 278
#     4   9  17  31  45  59  89 125 154 188 230 278
#     4   9  18  31  50  74  99 128 155 185 232 286
#     4  10  17  27  44  66  91 123 157 189 228 276
#     4   9  18  33  48  66  95 129 159 187 231 288
#
# _framework density 17.373273999999999
#
# number of rings (size 3 to 8) (size 9 to 14) (size 15 to 20)
#    0.000    2.500    0.000    4.875    0.000    1.500 
#    0.000    3.750    0.000    0.000    0.000    7.875 
#    0.000    0.000    0.000    0.000    0.000    0.000 
#
# Total GULP energy -396472.183695 kJ/mol
# GULP energy per Si atom -12389.755740 kJ/mol
# Density = 1.733373 g / cm^3
# Si number density = 17.373274 Si / 1000 Ang^3
#
#
#
# Elastic Constant Matrix: (Units=GPa)
#
#
# Indices 1 2 3 4 5 6 
#
# 1 76.1069 34.1667 29.6922 0.0000 0.0000 0.0000
# 2 34.1667 69.3133 32.1545 0.0000 0.0000 0.0000
# 3 29.6922 32.1545 75.1735 0.0000 0.0000 0.0000
# 4 0.0000 0.0000 0.0000 -6.9047 0.0000 0.0000
# 5 0.0000 0.0000 0.0000 0.0000 19.9156 0.0000
# 6 0.0000 0.0000 0.0000 0.0000 0.0000 25.0578
#
#
#
# Elastic Compliance Matrix: (Units=1/GPa)
#
#
# Indices 1 2 3 4 5 6 
#
# 1 0.017830 -0.006889 -0.004096 0.000000 0.000000 0.000000
# 2 -0.006889 0.020660 -0.006116 0.000000 0.000000 0.000000
# 3 -0.004096 -0.006116 0.017537 0.000000 0.000000 0.000000
# 4 0.000000 0.000000 0.000000 -0.144829 0.000000 0.000000
# 5 0.000000 0.000000 0.000000 0.000000 0.050212 0.000000
# 6 0.000000 0.000000 0.000000 0.000000 0.000000 0.039908
#
#
# Mechanical properties :
#
#
# Convention : Reuss Voigt Hill
#
# Bulk Modulus (GPa) = 45.81936 45.84674 45.83305
# Shear Modulus (GPa) = 116.83815 15.91908 66.37862
#
# Velocity S-wave (km/s) = 8.20961 3.03032 6.18791
# Velocity P-wave (km/s) = 10.78398 6.22016 8.80297
#
# Compressibility (1/GPa) = 0.02182484
#
# Stress axis : x y z
#
# Youngs Moduli (GPa) = 56.08521 48.40203 57.02390
#
# Poissons Ratio (x) = 0.33344 0.23356
# Poissons Ratio (y) = 0.38636 0.34877
# Poissons Ratio (z) = 0.22972 0.29604
#
# Static dielectric constant tensor:
#      x y z
#    x 3.372150 0.000000 0.000000 
#    y 0.000000 3.220730 0.000000 
#    z 0.000000 0.000000 3.255770 
# 
# 
# High freq. dielectric constant tensor:
#      x y z
#    x 1.677140 0.000000 0.000000 
#    y 0.000000 1.648020 0.000000 
#    z 0.000000 0.000000 1.650440 
# 
# From -- ./inp_files/13458.got.cif
#   From: 2010.03.12/outbox.cif.g09.slc.cpg/sg24_7_cif.got.tgz:13458.got - 2010.04.14 03:06:53.
