data_PCOD8164823
_publ_section_title
;
Structure prediction by ZEFSAII (Michael W. Deem and Ramdas Pophale) SiO2 
 PCOD8164823
Probable space group: I 21 21 21
;
_chemical_formula_sum "Si O2"
_cell_formula_units_Z 48
_cell_length_a 9.858148
_cell_length_b 10.768080
_cell_length_c 24.239302
_cell_angle_alpha 90.000000
_cell_angle_beta 90.000000
_cell_angle_gamma 90.000000
_cell_volume 2573.082535
_symmetry_space_group_name_H-M "I 21 21 21"
_symmetry_group_IT_number 24
_symmetry_cell_setting 'orthorhombic'
loop_
_space_group_symop_operation_xyz
x,y,z
-x,1/2-y,z
x,-y,1/2-z
1/2-x,y,-z
1/2+x,1/2+y,1/2+z
1/2-x,-y,1/2+z
1/2+x,1/2-y,-z
-x,1/2+y,1/2-z
loop_
_atom_site_type_symbol
_atom_site_label
_atom_site_fract_x
_atom_site_fract_y
_atom_site_fract_z
Si Si1 0.902666 0.639404 0.513417
Si Si2 0.084725 0.434172 0.307941
Si Si3 0.575073 0.623898 0.274723
Si Si4 0.290005 0.182043 0.690139
Si Si5 0.678763 0.480208 0.120355
Si Si6 0.026777 0.107600 0.106024
O O1 0.750000 0.690714 0.500000
O O2 0.885955 0.531119 0.559406
O O3 0.975661 0.578960 0.459850
O O4 0.000000 0.750000 0.535310
O O5 0.116365 0.500000 0.250000
O O6 0.201981 0.330938 0.317865
O O7 0.940075 0.369928 0.306846
O O8 0.085746 0.528912 0.360094
O O9 0.500000 0.750000 0.259981
O O10 0.502457 0.500000 0.250000
O O11 0.723350 0.639921 0.247633
O O12 0.583271 0.600971 0.339868
O O13 0.198766 0.123617 0.639950
O O14 0.824316 0.418301 0.127579
O O15 0.000000 0.250000 0.117705
#
# Coordination Sequence:
#
# PCOD8164823 Si02
#       6
#     8   8   8   8   8   8
#     4   9  17  31  53  82 108 138 178 229 274 327
#     4  10  19  29  51  78 111 144 169 219 280 331
#     4  10  20  34  49  71 104 139 183 222 261 327
#     4   9  19  33  48  76 107 139 182 218 265 336
#     4   9  17  32  53  73 101 145 174 216 270 326
#     4   9  18  30  48  82 112 130 173 224 268 322
#
# _framework density 18.654668999999998
#
# number of rings (size 3 to 8) (size 9 to 14) (size 15 to 20)
#    0.000    2.667    0.000    3.000    4.667    0.667 
#    0.000    0.000    3.667    0.000   78.000    0.000 
#    0.000    0.000    0.000    0.000    0.000    0.000 
#
# Total GULP energy -297337.595869 kJ/mol
# GULP energy per Si atom -12389.066495 kJ/mol
# Density = 1.861221 g / cm^3
# Si number density = 18.654669 Si / 1000 Ang^3
#
#
#
# Elastic Constant Matrix: (Units=GPa)
#
#
# Indices 1 2 3 4 5 6 
#
# 1 31.6904 33.4310 26.8104 0.0000 0.0000 0.0000
# 2 33.4310 146.4516 75.5168 0.0000 0.0000 0.0000
# 3 26.8104 75.5168 127.7688 0.0000 0.0000 0.0000
# 4 0.0000 0.0000 0.0000 24.3017 0.0000 0.0000
# 5 0.0000 0.0000 0.0000 0.0000 16.0338 0.0000
# 6 0.0000 0.0000 0.0000 0.0000 0.0000 28.7588
#
#
#
# Elastic Compliance Matrix: (Units=1/GPa)
#
#
# Indices 1 2 3 4 5 6 
#
# 1 0.043426 -0.007500 -0.004679 0.000000 0.000000 0.000000
# 2 -0.007500 0.011117 -0.004997 0.000000 0.000000 0.000000
# 3 -0.004679 -0.004997 0.011762 0.000000 0.000000 0.000000
# 4 0.000000 0.000000 0.000000 0.041149 0.000000 0.000000
# 5 0.000000 0.000000 0.000000 0.000000 0.062368 0.000000
# 6 0.000000 0.000000 0.000000 0.000000 0.000000 0.034772
#
#
# Mechanical properties :
#
#
# Convention : Reuss Voigt Hill
#
# Bulk Modulus (GPa) = 31.29674 64.15858 47.72766
# Shear Modulus (GPa) = 20.03223 25.16236 22.59729
#
# Velocity S-wave (km/s) = 3.28051 3.67665 3.48422
# Velocity P-wave (km/s) = 5.58232 7.24508 6.46736
#
# Compressibility (1/GPa) = 0.03195221
#
# Stress axis : x y z
#
# Youngs Moduli (GPa) = 23.02760 89.95410 85.02084
#
# Poissons Ratio (x) = 0.67466 0.39785
# Poissons Ratio (y) = 0.17271 0.42482
# Poissons Ratio (z) = 0.10776 0.44947
#
# Static dielectric constant tensor:
#      x y z
#    x 3.241280 0.000000 0.000000 
#    y 0.000000 3.708520 0.000000 
#    z 0.000000 0.000000 3.542280 
# 
# 
# High freq. dielectric constant tensor:
#      x y z
#    x 1.700590 0.000000 0.000000 
#    y 0.000000 1.715530 0.000000 
#    z 0.000000 0.000000 1.723860 
# 
# From -- ./inp_files/11295.got.cif
#   From: 2010.03.12/outbox.cif.g09.slc.cpg/sg24_6_cif.got.tgz:11295.got - 2010.04.14 03:06:53.
