data_PCOD8164845
_publ_section_title
;
Structure prediction by ZEFSAII (Michael W. Deem and Ramdas Pophale) SiO2 
 PCOD8164845
Probable space group: I 21 21 21
;
_chemical_formula_sum "Si O2"
_cell_formula_units_Z 44
_cell_length_a 18.837330
_cell_length_b 5.176061
_cell_length_c 25.010239
_cell_angle_alpha 90.000000
_cell_angle_beta 90.000000
_cell_angle_gamma 90.000000
_cell_volume 2438.577564
_symmetry_space_group_name_H-M "I 21 21 21"
_symmetry_group_IT_number 24
_symmetry_cell_setting 'orthorhombic'
loop_
_space_group_symop_operation_xyz
x,y,z
-x,1/2-y,z
x,-y,1/2-z
1/2-x,y,-z
1/2+x,1/2+y,1/2+z
1/2-x,-y,1/2+z
1/2+x,1/2-y,-z
-x,1/2+y,1/2-z
loop_
_atom_site_type_symbol
_atom_site_label
_atom_site_fract_x
_atom_site_fract_y
_atom_site_fract_z
Si Si1 0.000000 0.250000 0.335381
Si Si2 0.708540 0.950964 0.417814
Si Si3 0.396063 0.046290 0.581992
Si Si4 0.139085 0.453193 0.026555
Si Si5 0.099064 0.500000 0.250000
Si Si6 0.244328 0.048681 0.637334
Si Si7 0.306105 0.000000 0.750000
O O1 0.045945 0.056219 0.371331
O O2 0.050194 0.435498 0.300614
O O3 0.647122 0.943526 0.462541
O O4 0.784313 0.950607 0.446306
O O5 0.700347 0.704287 0.379390
O O6 0.699232 0.204269 0.381476
O O7 0.404003 0.291406 0.542824
O O8 0.319895 0.048826 0.609155
O O9 0.406755 0.790104 0.546780
O O10 0.146031 0.750349 0.264411
O O11 0.254809 0.062314 0.700764
#
# Coordination Sequence:
#
# PCOD8164845 Si02
#       7
#     4   8   8   8   4   8   4
#     4  12  26  38  50  68  94 138 184 218 256 270
#     4   9  17  31  51  68  89 111 148 199 260 305
#     4  10  21  32  48  66  91 119 165 209 251 285
#     4   9  18  32  49  70  86 111 149 207 259 302
#     4  12  27  38  50  62  94 140 184 220 245 280
#     4  10  19  32  48  69  91 122 157 201 248 294
#     4  12  23  38  50  70  98 132 174 214 249 280
#
# _framework density 18.043303999999999
#
# number of rings (size 3 to 8) (size 9 to 14) (size 15 to 20)
#    0.000    1.818    1.818    2.727    5.091    6.545 
#    0.000    0.000    0.000    0.000    0.000    0.000 
#    0.000    0.000    0.000    0.000    0.000   50.909 
#
# Total GULP energy -272840.620861 kJ/mol
# GULP energy per Si atom -12401.846403 kJ/mol
# Density = 1.800224 g / cm^3
# Si number density = 18.043304 Si / 1000 Ang^3
#
#
#
# Elastic Constant Matrix: (Units=GPa)
#
#
# Indices 1 2 3 4 5 6 
#
# 1 20.2786 20.0138 36.7463 0.0000 0.0000 0.0000
# 2 20.0138 156.6053 74.8860 0.0000 0.0000 0.0000
# 3 36.7463 74.8860 144.7375 0.0000 0.0000 0.0000
# 4 0.0000 0.0000 0.0000 30.7547 0.0000 0.0000
# 5 0.0000 0.0000 0.0000 0.0000 -25.8646 0.0000
# 6 0.0000 0.0000 0.0000 0.0000 0.0000 8.9896
#
#
#
# Elastic Compliance Matrix: (Units=1/GPa)
#
#
# Indices 1 2 3 4 5 6 
#
# 1 0.091401 -0.000777 -0.022803 0.000000 0.000000 0.000000
# 2 -0.000777 0.008491 -0.004196 0.000000 0.000000 0.000000
# 3 -0.022803 -0.004196 0.014869 0.000000 0.000000 0.000000
# 4 0.000000 0.000000 0.000000 0.032515 0.000000 0.000000
# 5 0.000000 0.000000 0.000000 0.000000 -0.038663 0.000000
# 6 0.000000 0.000000 0.000000 0.000000 0.000000 0.111240
#
#
# Mechanical properties :
#
#
# Convention : Reuss Voigt Hill
#
# Bulk Modulus (GPa) = 16.88915 64.99038 40.93976
# Shear Modulus (GPa) = 16.94096 15.44096 16.19096
#
# Velocity S-wave (km/s) = 3.06748 2.92853 2.99881
# Velocity P-wave (km/s) = 4.68258 6.89437 5.89317
#
# Compressibility (1/GPa) = 0.05920963
#
# Stress axis : x y z
#
# Youngs Moduli (GPa) = 10.94078 117.76833 67.25196
#
# Poissons Ratio (x) = 0.09147 1.53357
# Poissons Ratio (y) = 0.00850 0.28220
# Poissons Ratio (z) = 0.24949 0.49417
#
# Static dielectric constant tensor:
#      x y z
#    x 2.838090 0.000000 0.000000 
#    y 0.000000 3.752490 0.000000 
#    z 0.000000 0.000000 3.430130 
# 
# 
# High freq. dielectric constant tensor:
#      x y z
#    x 1.626620 0.000000 0.000000 
#    y 0.000000 1.723710 0.000000 
#    z 0.000000 0.000000 1.695450 
# 
# From -- ./inp_files/32115.got.cif
#   From: 2010.03.12/outbox.cif.g09.slc.cpg/sg24_17_cif.got.tgz:32115.got - 2010.04.14 03:06:53.
