data_PCOD8164080
_publ_section_title
;
Structure prediction by ZEFSAII (Michael W. Deem and Ramdas Pophale) SiO2 
 PCOD8164080
Probable space group: I 2 2 2
;
_chemical_formula_sum "Si O2"
_cell_formula_units_Z 42
_cell_length_a 19.201986
_cell_length_b 8.671815
_cell_length_c 11.131760
_cell_angle_alpha 90.000000
_cell_angle_beta 90.000000
_cell_angle_gamma 90.000000
_cell_volume 1853.616930
_symmetry_space_group_name_H-M "I 2 2 2"
_symmetry_group_IT_number 23
_symmetry_cell_setting 'orthorhombic'
loop_
_space_group_symop_operation_xyz
x,y,z
-x,-y,z
x,-y,-z
-x,y,-z
1/2+x,1/2+y,1/2+z
1/2-x,1/2-y,1/2+z
1/2+x,1/2-y,1/2-z
1/2-x,1/2+y,1/2-z
loop_
_atom_site_type_symbol
_atom_site_label
_atom_site_fract_x
_atom_site_fract_y
_atom_site_fract_z
Si Si1 0.537340 0.252932 0.170035
Si Si2 0.823705 0.792879 0.207303
Si Si3 0.500000 0.000000 0.000000
Si Si4 0.000000 0.000000 0.500000
Si Si5 0.586504 0.231064 0.656841
Si Si6 0.000000 0.500000 0.000000
Si Si7 0.279976 0.964773 0.640385
Si Si8 0.361814 0.500000 0.500000
O O1 0.593945 0.260154 0.275505
O O2 0.458748 0.257707 0.223127
O O3 0.548585 0.102197 0.087344
O O4 0.549746 0.397405 0.083296
O O5 0.793195 0.891824 0.317681
O O6 0.786573 0.628417 0.205655
O O7 0.814361 0.886375 0.081908
O O8 0.549090 0.103345 0.579189
O O9 0.662081 0.158718 0.684578
O O10 0.591018 0.394276 0.587375
O O11 0.281668 0.000000 0.500000
#
# Coordination Sequence:
#
# PCOD8164080 Si02
#       8
#     8   8   2   2   8   2   8   4
#     4  11  24  44  69 103 139 187 238 303 357 446
#     4  12  27  47  73 106 143 195 248 304 386 453
#     4  10  22  46  70 100 142 186 250 280 374 438
#     4  10  24  42  62 100 144 182 228 284 370 414
#     4  12  23  44  73 106 144 184 248 314 379 438
#     4  12  22  38  70 102 144 182 230 318 376 436
#     4  12  26  50  71 108 148 197 245 309 376 460
#     4  12  24  45  73 110 141 193 250 314 384 451
#
# _framework density 22.658404999999998
#
# number of rings (size 3 to 8) (size 9 to 14) (size 15 to 20)
#    0.000    0.381    2.857    6.286    1.333    2.667 
#    6.857    0.952    0.000    0.000    0.000    0.000 
#    0.000    0.000    0.000    0.000    0.000    0.000 
#
# Total GULP energy -260434.829860 kJ/mol
# GULP energy per Si atom -12401.658565 kJ/mol
# Density = 2.260683 g / cm^3
# Si number density = 22.658405 Si / 1000 Ang^3
#
#
#
# Elastic Constant Matrix: (Units=GPa)
#
#
# Indices 1 2 3 4 5 6 
#
# 1 89.0011 33.0944 39.3429 0.0000 0.0000 0.0000
# 2 33.0944 166.2305 49.3544 0.0000 0.0000 0.0000
# 3 39.3429 49.3544 105.8845 0.0000 0.0000 0.0000
# 4 0.0000 0.0000 0.0000 10.9552 0.0000 0.0000
# 5 0.0000 0.0000 0.0000 0.0000 24.3520 0.0000
# 6 0.0000 0.0000 0.0000 0.0000 0.0000 31.9360
#
#
#
# Elastic Compliance Matrix: (Units=1/GPa)
#
#
# Indices 1 2 3 4 5 6 
#
# 1 0.013724 -0.001414 -0.004440 0.000000 0.000000 0.000000
# 2 -0.001414 0.007128 -0.002797 0.000000 0.000000 0.000000
# 3 -0.004440 -0.002797 0.012398 0.000000 0.000000 0.000000
# 4 0.000000 0.000000 0.000000 0.091281 0.000000 0.000000
# 5 0.000000 0.000000 0.000000 0.000000 0.041064 0.000000
# 6 0.000000 0.000000 0.000000 0.000000 0.000000 0.031313
#
#
# Mechanical properties :
#
#
# Convention : Reuss Voigt Hill
#
# Bulk Modulus (GPa) = 62.70660 67.18883 64.94772
# Shear Modulus (GPa) = 22.77633 29.40360 26.08997
#
# Velocity S-wave (km/s) = 3.17394 3.60626 3.39698
# Velocity P-wave (km/s) = 6.41613 6.85984 6.64169
#
# Compressibility (1/GPa) = 0.01594728
#
# Stress axis : x y z
#
# Youngs Moduli (GPa) = 72.86244 140.29841 80.65908
#
# Poissons Ratio (x) = 0.19838 0.35816
# Poissons Ratio (y) = 0.10303 0.22560
# Poissons Ratio (z) = 0.32354 0.39240
#
# Static dielectric constant tensor:
#      x y z
#    x 3.857080 0.000000 0.000000 
#    y 0.000000 4.568230 0.000000 
#    z 0.000000 0.000000 4.018390 
# 
# 
# High freq. dielectric constant tensor:
#      x y z
#    x 1.865570 0.000000 0.000000 
#    y 0.000000 1.926730 0.000000 
#    z 0.000000 0.000000 1.897980 
# 
# From -- ./inp_files/17919.got.cif
#   From: 2010.03.12/outbox.cif.g09.slc.cpg/sg23_9_cif.got.tgz:17919.got - 2010.04.14 02:50:06.
