data_PCOD8164243
_publ_section_title
;
Structure prediction by ZEFSAII (Michael W. Deem and Ramdas Pophale) SiO2 
 PCOD8164243
Probable space group: I 2 2 2
;
_chemical_formula_sum "Si O2"
_cell_formula_units_Z 48
_cell_length_a 8.691109
_cell_length_b 10.432119
_cell_length_c 23.385949
_cell_angle_alpha 90.000000
_cell_angle_beta 90.000000
_cell_angle_gamma 90.000000
_cell_volume 2120.326432
_symmetry_space_group_name_H-M "I 2 2 2"
_symmetry_group_IT_number 23
_symmetry_cell_setting 'orthorhombic'
loop_
_space_group_symop_operation_xyz
x,y,z
-x,-y,z
x,-y,-z
-x,y,-z
1/2+x,1/2+y,1/2+z
1/2-x,1/2-y,1/2+z
1/2+x,1/2-y,1/2-z
1/2-x,1/2+y,1/2-z
loop_
_atom_site_type_symbol
_atom_site_label
_atom_site_fract_x
_atom_site_fract_y
_atom_site_fract_z
Si Si1 0.034161 0.648122 0.278360
Si Si2 0.399800 0.625666 0.078221
Si Si3 0.735215 0.234636 0.677403
Si Si4 0.342531 0.182430 0.102918
Si Si5 0.665722 0.435585 0.583551
Si Si6 0.330019 0.214122 0.505992
O O1 0.103057 0.675591 0.216506
O O2 0.152308 0.694799 0.328340
O O3 0.000000 0.500000 0.287060
O O4 0.875440 0.724734 0.282098
O O5 0.500000 0.500000 0.080755
O O6 0.289480 0.624073 0.133516
O O7 0.496007 0.760282 0.078588
O O8 0.296871 0.619144 0.020931
O O9 0.669461 0.353558 0.641597
O O10 0.206434 0.266661 0.073434
O O11 0.309000 0.035107 0.085462
O O12 0.500000 0.500000 0.581328
O O13 0.682592 0.349935 0.526882
O O14 0.500000 0.154415 0.500000
#
# Coordination Sequence:
#
# PCOD8164243 Si02
#       6
#     8   8   8   8   8   8
#     4  11  24  43  65 101 137 178 230 279 344 419
#     4  10  25  49  67  96 144 190 241 279 341 422
#     4  10  25  42  69  98 133 182 230 287 350 402
#     4  11  23  42  69 101 140 180 224 281 346 413
#     4  11  22  42  70 104 143 170 224 292 353 407
#     4  11  23  40  72 107 138 179 228 286 355 409
#
# _framework density 22.638023
#
# number of rings (size 3 to 8) (size 9 to 14) (size 15 to 20)
#    0.000    1.333    3.333    1.000    2.333    4.000 
#    3.000    1.667    0.000    0.000    0.000    0.000 
#    0.000    0.000    0.000    0.000    0.000    0.000 
#
# Total GULP energy -297529.596859 kJ/mol
# GULP energy per Si atom -12397.066536 kJ/mol
# Density = 2.258650 g / cm^3
# Si number density = 22.638023 Si / 1000 Ang^3
#
#
#
# Elastic Constant Matrix: (Units=GPa)
#
#
# Indices 1 2 3 4 5 6 
#
# 1 77.6879 32.2014 42.5082 0.0000 0.0000 0.0000
# 2 32.2014 83.6246 35.4598 0.0000 0.0000 0.0000
# 3 42.5082 35.4598 120.7062 0.0000 0.0000 0.0000
# 4 0.0000 0.0000 0.0000 22.8283 0.0000 0.0000
# 5 0.0000 0.0000 0.0000 0.0000 48.1332 0.0000
# 6 0.0000 0.0000 0.0000 0.0000 0.0000 32.5996
#
#
#
# Elastic Compliance Matrix: (Units=1/GPa)
#
#
# Indices 1 2 3 4 5 6 
#
# 1 0.017419 -0.004691 -0.004756 0.000000 0.000000 0.000000
# 2 -0.004691 0.014923 -0.002732 0.000000 0.000000 0.000000
# 3 -0.004756 -0.002732 0.010762 0.000000 0.000000 0.000000
# 4 0.000000 0.000000 0.000000 0.043805 0.000000 0.000000
# 5 0.000000 0.000000 0.000000 0.000000 0.020776 0.000000
# 6 0.000000 0.000000 0.000000 0.000000 0.000000 0.030675
#
#
# Mechanical properties :
#
#
# Convention : Reuss Voigt Hill
#
# Bulk Modulus (GPa) = 53.34488 55.81750 54.58119
# Shear Modulus (GPa) = 29.59167 32.16885 30.88026
#
# Velocity S-wave (km/s) = 3.61940 3.77372 3.69736
# Velocity P-wave (km/s) = 6.40954 6.61044 6.51077
#
# Compressibility (1/GPa) = 0.01874594
#
# Stress axis : x y z
#
# Youngs Moduli (GPa) = 57.40947 67.01109 92.91838
#
# Poissons Ratio (x) = 0.31432 0.44194
# Poissons Ratio (y) = 0.26929 0.25386
# Poissons Ratio (z) = 0.27305 0.18308
#
# Static dielectric constant tensor:
#      x y z
#    x 4.236770 0.000000 0.000000 
#    y 0.000000 3.968300 0.000000 
#    z 0.000000 0.000000 4.162850 
# 
# 
# High freq. dielectric constant tensor:
#      x y z
#    x 1.899000 0.000000 0.000000 
#    y 0.000000 1.880780 0.000000 
#    z 0.000000 0.000000 1.896280 
# 
# From -- ./inp_files/27989.got.cif
#   From: 2010.03.12/outbox.cif.g09.slc.cpg/sg23_14_cif.got.tgz:27989.got - 2010.04.14 02:50:06.
