data_PCOD8164730
_publ_section_title
;
Structure prediction by ZEFSAII (Michael W. Deem and Ramdas Pophale) SiO2 
 PCOD8164730
Probable space group: I 21 21 21
;
_chemical_formula_sum "Si O2"
_cell_formula_units_Z 64
_cell_length_a 17.119205
_cell_length_b 11.914322
_cell_length_c 17.886353
_cell_angle_alpha 90.000000
_cell_angle_beta 90.000000
_cell_angle_gamma 90.000000
_cell_volume 3648.167109
_symmetry_space_group_name_H-M "I 21 21 21"
_symmetry_group_IT_number 24
_symmetry_cell_setting 'orthorhombic'
loop_
_space_group_symop_operation_xyz
x,y,z
-x,1/2-y,z
x,-y,1/2-z
1/2-x,y,-z
1/2+x,1/2+y,1/2+z
1/2-x,-y,1/2+z
1/2+x,1/2-y,-z
-x,1/2+y,1/2-z
loop_
_atom_site_type_symbol
_atom_site_label
_atom_site_fract_x
_atom_site_fract_y
_atom_site_fract_z
Si Si1 0.184690 0.626487 0.936597
Si Si2 0.656338 0.500000 0.014140
Si Si3 0.184690 0.626486 0.563403
Si Si4 0.789291 0.738079 0.164929
Si Si5 0.589791 0.267344 0.540651
Si Si6 0.710709 0.261921 0.835072
Si Si7 0.589791 0.732657 0.540650
Si Si8 0.284426 0.000000 0.167247
O O1 0.162834 0.500001 0.914057
O O2 0.214258 0.691704 0.863276
O O3 0.250000 0.631437 0.000000
O O4 0.108809 0.687517 0.970152
O O5 0.613241 0.606387 0.979780
O O6 0.613241 0.393612 0.979781
O O7 0.750000 0.499999 0.000000
O O8 0.647479 0.500001 0.104680
O O9 0.250000 0.631437 0.500000
O O10 0.214258 0.691703 0.636724
O O11 0.108808 0.687515 0.529848
O O12 0.864286 0.769598 0.115307
O O13 0.807057 0.772480 0.250000
O O14 0.771757 0.606549 0.156969
O O15 0.500000 0.250000 0.559905
O O16 0.635714 0.230402 0.884693
O O17 0.728244 0.393450 0.843031
O O18 0.500000 0.750000 0.559905
O O19 0.323423 0.000000 0.250000
#
# Coordination Sequence:
#
# PCOD8164730 Si02
#       8
#     8   8   8   8   8   8   8   8
#     4   9  18  34  53  74 102 142 189 224 260 325
#     4  12  18  38  62  80 107 150 201 234 262 330
#     4   9  18  34  53  74 102 142 189 224 260 325
#     4  10  19  34  56  81 109 145 186 230 277 330
#     4  11  22  33  54  86 116 144 180 233 287 330
#     4  10  19  34  56  81 109 145 186 230 277 330
#     4  11  22  33  54  86 116 144 180 233 287 330
#     4  10  18  32  60  86 102 132 194 248 268 305
#
# _framework density 17.543056
#
# number of rings (size 3 to 8) (size 9 to 14) (size 15 to 20)
#    0.000    1.750    5.000    0.750    1.750    1.000 
#    0.000    0.000    0.000    3.000    0.000    0.000 
#    0.000    0.000    0.000    0.000    0.000    0.000 
#
# Total GULP energy -396759.679050 kJ/mol
# GULP energy per Si atom -12398.739970 kJ/mol
# Density = 1.750313 g / cm^3
# Si number density = 17.543056 Si / 1000 Ang^3
#
#
#
# Elastic Constant Matrix: (Units=GPa)
#
#
# Indices 1 2 3 4 5 6 
#
# 1 68.6636 33.9802 52.0884 0.0000 0.0000 0.0000
# 2 33.9802 123.0731 37.5459 0.0000 0.0000 0.0000
# 3 52.0884 37.5459 132.3935 0.0000 0.0000 0.0000
# 4 0.0000 0.0000 0.0000 19.2902 0.0000 0.0000
# 5 0.0000 0.0000 0.0000 0.0000 18.2944 0.0000
# 6 0.0000 0.0000 0.0000 0.0000 0.0000 21.7050
#
#
#
# Elastic Compliance Matrix: (Units=1/GPa)
#
#
# Indices 1 2 3 4 5 6 
#
# 1 0.022277 -0.003806 -0.007685 0.000000 0.000000 0.000000
# 2 -0.003806 0.009545 -0.001209 0.000000 0.000000 0.000000
# 3 -0.007685 -0.001209 0.010920 0.000000 0.000000 0.000000
# 4 0.000000 0.000000 0.000000 0.051840 0.000000 0.000000
# 5 0.000000 0.000000 0.000000 0.000000 0.054661 0.000000
# 6 0.000000 0.000000 0.000000 0.000000 0.000000 0.046072
#
#
# Mechanical properties :
#
#
# Convention : Reuss Voigt Hill
#
# Bulk Modulus (GPa) = 57.66831 63.48436 60.57634
# Shear Modulus (GPa) = 22.07522 25.22563 23.65042
#
# Velocity S-wave (km/s) = 3.55116 3.79611 3.67568
# Velocity P-wave (km/s) = 7.05395 7.44851 7.25391
#
# Compressibility (1/GPa) = 0.01734055
#
# Stress axis : x y z
#
# Youngs Moduli (GPa) = 44.88835 104.76589 91.57568
#
# Poissons Ratio (x) = 0.39876 0.70379
# Poissons Ratio (y) = 0.17085 0.11075
# Poissons Ratio (z) = 0.34498 0.12671
#
# Static dielectric constant tensor:
#      x y z
#    x 2.910630 0.000000 0.000000 
#    y 0.000000 3.409280 0.000000 
#    z 0.000000 0.000000 3.502860 
# 
# 
# High freq. dielectric constant tensor:
#      x y z
#    x 1.636480 0.000000 0.000000 
#    y 0.000000 1.690590 0.000000 
#    z 0.000000 0.000000 1.681520 
# 
# From -- ./inp_files/30904.got.cif
#   From: 2010.03.12/outbox.cif.g09.slc.cpg/sg24_16_cif.got.tgz:30904.got - 2010.04.14 03:06:53.
