data_PCOD8164909
_publ_section_title
;
Structure prediction by ZEFSAII (Michael W. Deem and Ramdas Pophale) SiO2 
 PCOD8164909
Probable space group: I 21 21 21
;
_chemical_formula_sum "Si O2"
_cell_formula_units_Z 48
_cell_length_a 9.510350
_cell_length_b 8.790404
_cell_length_c 31.073796
_cell_angle_alpha 90.000000
_cell_angle_beta 90.000000
_cell_angle_gamma 90.000000
_cell_volume 2597.763711
_symmetry_space_group_name_H-M "I 21 21 21"
_symmetry_group_IT_number 24
_symmetry_cell_setting 'orthorhombic'
loop_
_space_group_symop_operation_xyz
x,y,z
-x,1/2-y,z
x,-y,1/2-z
1/2-x,y,-z
1/2+x,1/2+y,1/2+z
1/2-x,-y,1/2+z
1/2+x,1/2-y,-z
-x,1/2+y,1/2-z
loop_
_atom_site_type_symbol
_atom_site_label
_atom_site_fract_x
_atom_site_fract_y
_atom_site_fract_z
Si Si1 0.724243 0.578993 0.630002
Si Si2 0.287384 0.438647 0.862499
Si Si3 0.517923 0.929808 0.109661
Si Si4 0.590474 0.100643 0.483874
Si Si5 0.997744 0.067554 0.427806
Si Si6 0.483104 0.926546 0.704075
O O1 0.721791 0.760099 0.628007
O O2 0.879293 0.515215 0.625174
O O3 0.637586 0.508220 0.590581
O O4 0.652377 0.529314 0.675067
O O5 0.359850 0.514901 0.903287
O O6 0.375675 0.481882 0.819934
O O7 0.135017 0.513519 0.856520
O O8 0.500000 0.750000 0.113700
O O9 0.573284 0.984530 0.062133
O O10 0.500000 0.250000 0.475833
O O11 0.750000 0.136665 0.500000
O O12 0.516307 0.009032 0.522823
O O13 0.000000 0.250000 0.426235
O O14 0.500000 0.750000 0.711604
O O15 0.463821 0.000000 0.750000
#
# Coordination Sequence:
#
# PCOD8164909 Si02
#       6
#     8   8   8   8   8   8
#     4  10  22  37  56  84 115 153 178 231 296 339
#     4  10  20  39  56  81 119 146 182 231 293 339
#     4  11  22  36  57  82 112 150 201 237 276 333
#     4  10  21  34  53  80 116 151 195 250 288 318
#     4  10  19  34  57  78 108 149 197 237 272 330
#     4   9  20  38  62  86 111 142 180 226 283 347
#
# _framework density 18.477430999999999
#
# number of rings (size 3 to 8) (size 9 to 14) (size 15 to 20)
#    0.000    2.000    1.667    3.000    7.000    4.000 
#    0.000    5.833    0.000    0.000    0.000    0.000 
#    0.000    0.000    0.000    0.000    0.000    0.000 
#
# Total GULP energy -297423.493165 kJ/mol
# GULP energy per Si atom -12392.645549 kJ/mol
# Density = 1.843538 g / cm^3
# Si number density = 18.477431 Si / 1000 Ang^3
#
#
#
# Elastic Constant Matrix: (Units=GPa)
#
#
# Indices 1 2 3 4 5 6 
#
# 1 162.5137 42.0616 65.2739 0.0000 0.0000 0.0000
# 2 42.0616 68.6863 41.4157 0.0000 0.0000 0.0000
# 3 65.2739 41.4157 131.4407 0.0000 0.0000 0.0000
# 4 0.0000 0.0000 0.0000 22.1218 0.0000 0.0000
# 5 0.0000 0.0000 0.0000 0.0000 14.9748 0.0000
# 6 0.0000 0.0000 0.0000 0.0000 0.0000 35.4037
#
#
#
# Elastic Compliance Matrix: (Units=1/GPa)
#
#
# Indices 1 2 3 4 5 6 
#
# 1 0.008211 -0.003172 -0.003078 0.000000 0.000000 0.000000
# 2 -0.003172 0.019199 -0.004474 0.000000 0.000000 0.000000
# 3 -0.003078 -0.004474 0.010546 0.000000 0.000000 0.000000
# 4 0.000000 0.000000 0.000000 0.045204 0.000000 0.000000
# 5 0.000000 0.000000 0.000000 0.000000 0.066779 0.000000
# 6 0.000000 0.000000 0.000000 0.000000 0.000000 0.028246
#
#
# Mechanical properties :
#
#
# Convention : Reuss Voigt Hill
#
# Bulk Modulus (GPa) = 60.57786 73.34926 66.96356
# Shear Modulus (GPa) = 24.37408 28.75937 26.56673
#
# Velocity S-wave (km/s) = 3.63592 3.94948 3.79594
# Velocity P-wave (km/s) = 7.10510 7.78336 7.45195
#
# Compressibility (1/GPa) = 0.01650768
#
# Stress axis : x y z
#
# Youngs Moduli (GPa) = 121.79442 52.08540 94.82000
#
# Poissons Ratio (x) = 0.16522 0.29185
# Poissons Ratio (y) = 0.38634 0.42425
# Poissons Ratio (z) = 0.37487 0.23304
#
# Static dielectric constant tensor:
#      x y z
#    x 3.584850 0.000000 0.000000 
#    y 0.000000 3.308290 0.000000 
#    z 0.000000 0.000000 3.736240 
# 
# 
# High freq. dielectric constant tensor:
#      x y z
#    x 1.729670 0.000000 0.000000 
#    y 0.000000 1.705870 0.000000 
#    z 0.000000 0.000000 1.711830 
# 
# From -- ./inp_files/9746.got.cif
#   From: 2010.03.12/outbox.cif.g09.slc.cpg/sg24_5_cif.got.tgz:9746.got - 2010.04.14 03:06:53.
