data_PCOD8164189
_publ_section_title
;
Structure prediction by ZEFSAII (Michael W. Deem and Ramdas Pophale) SiO2 
 PCOD8164189
Probable space group: I 2 2 2
;
_chemical_formula_sum "Si O2"
_cell_formula_units_Z 38
_cell_length_a 25.449960
_cell_length_b 6.079844
_cell_length_c 9.999728
_cell_angle_alpha 90.000000
_cell_angle_beta 90.000000
_cell_angle_gamma 90.000000
_cell_volume 1547.275779
_symmetry_space_group_name_H-M "I 2 2 2"
_symmetry_group_IT_number 23
_symmetry_cell_setting 'orthorhombic'
loop_
_space_group_symop_operation_xyz
x,y,z
-x,-y,z
x,-y,-z
-x,y,-z
1/2+x,1/2+y,1/2+z
1/2-x,1/2-y,1/2+z
1/2+x,1/2-y,1/2-z
1/2-x,1/2+y,1/2-z
loop_
_atom_site_type_symbol
_atom_site_label
_atom_site_fract_x
_atom_site_fract_y
_atom_site_fract_z
Si Si1 0.449700 0.641627 0.314167
Si Si2 0.636735 0.310843 0.651921
Si Si3 0.200565 0.930139 0.642190
Si Si4 0.000000 0.500000 0.000000
Si Si5 0.698998 0.000000 0.500000
Si Si6 0.621930 0.077024 0.148382
O O1 0.500000 0.500000 0.270089
O O2 0.410461 0.471503 0.387900
O O3 0.462965 0.842981 0.412265
O O4 0.421064 0.734584 0.182167
O O5 0.683026 0.428562 0.732414
O O6 0.661252 0.215279 0.511789
O O7 0.614973 0.114309 0.743764
O O8 0.263420 0.979529 0.631069
O O9 0.181161 0.677829 0.661333
O O10 0.173851 0.000000 0.500000
O O11 0.609330 0.000000 0.000000
#
# Coordination Sequence:
#
# PCOD8164189 Si02
#       6
#     8   8   8   2   4   8
#     4  11  27  48  79 105 147 195 254 328 398 471
#     4  11  24  45  72 113 148 198 260 311 381 470
#     4   9  21  42  69 105 150 204 243 310 370 454
#     4  12  26  54  78 102 148 204 250 340 416 454
#     4  10  24  41  74 111 151 206 250 315 384 458
#     4  11  22  45  76 104 153 196 248 310 384 463
#
# _framework density 24.559294000000001
#
# number of rings (size 3 to 8) (size 9 to 14) (size 15 to 20)
#    0.632    0.842    2.105    1.579    2.947    5.053 
#    0.000   13.158    4.632    0.000    0.000    0.000 
#    0.000    0.000    0.000    0.000    0.000    0.000 
#
# Total GULP energy -235420.792127 kJ/mol
# GULP energy per Si atom -12390.568007 kJ/mol
# Density = 2.450340 g / cm^3
# Si number density = 24.559294 Si / 1000 Ang^3
#
#
#
# Elastic Constant Matrix: (Units=GPa)
#
#
# Indices 1 2 3 4 5 6 
#
# 1 161.5694 86.5569 50.3907 0.0000 0.0000 0.0000
# 2 86.5569 162.4532 62.9145 0.0000 0.0000 0.0000
# 3 50.3907 62.9145 99.6981 0.0000 0.0000 0.0000
# 4 0.0000 0.0000 0.0000 38.9369 0.0000 0.0000
# 5 0.0000 0.0000 0.0000 0.0000 25.2130 0.0000
# 6 0.0000 0.0000 0.0000 0.0000 0.0000 37.6544
#
#
#
# Elastic Compliance Matrix: (Units=1/GPa)
#
#
# Indices 1 2 3 4 5 6 
#
# 1 0.008955 -0.003995 -0.002005 0.000000 0.000000 0.000000
# 2 -0.003995 0.009929 -0.004246 0.000000 0.000000 0.000000
# 3 -0.002005 -0.004246 0.013723 0.000000 0.000000 0.000000
# 4 0.000000 0.000000 0.000000 0.025683 0.000000 0.000000
# 5 0.000000 0.000000 0.000000 0.000000 0.039662 0.000000
# 6 0.000000 0.000000 0.000000 0.000000 0.000000 0.026557
#
#
# Mechanical properties :
#
#
# Convention : Reuss Voigt Hill
#
# Bulk Modulus (GPa) = 82.54715 91.49389 87.02052
# Shear Modulus (GPa) = 33.54824 35.28476 34.41650
#
# Velocity S-wave (km/s) = 3.69997 3.79452 3.74754
# Velocity P-wave (km/s) = 7.20676 7.51884 7.36445
#
# Compressibility (1/GPa) = 0.01211429
#
# Stress axis : x y z
#
# Youngs Moduli (GPa) = 111.67348 100.72003 72.86787
#
# Poissons Ratio (x) = 0.40233 0.14611
# Poissons Ratio (y) = 0.44609 0.30943
# Poissons Ratio (z) = 0.22393 0.42770
#
# Static dielectric constant tensor:
#      x y z
#    x 4.446090 0.000000 0.000000 
#    y 0.000000 4.835280 0.000000 
#    z 0.000000 0.000000 4.172720 
# 
# 
# High freq. dielectric constant tensor:
#      x y z
#    x 1.975280 0.000000 0.000000 
#    y 0.000000 1.991450 0.000000 
#    z 0.000000 0.000000 1.969930 
# 
# From -- ./inp_files/18713.got.cif
#   From: 2010.03.12/outbox.cif.g09.slc.cpg/sg23_10_cif.got.tgz:18713.got - 2010.04.14 02:50:06.
