data_PCOD8164610
_publ_section_title
;
Structure prediction by ZEFSAII (Michael W. Deem and Ramdas Pophale) SiO2 
 PCOD8164610
Probable space group: I 21 21 21
;
_chemical_formula_sum "Si O2"
_cell_formula_units_Z 32
_cell_length_a 7.975936
_cell_length_b 33.972332
_cell_length_c 5.203915
_cell_angle_alpha 90.000000
_cell_angle_beta 90.000000
_cell_angle_gamma 90.000000
_cell_volume 1410.058771
_symmetry_space_group_name_H-M "I 21 21 21"
_symmetry_group_IT_number 24
_symmetry_cell_setting 'orthorhombic'
loop_
_space_group_symop_operation_xyz
x,y,z
-x,1/2-y,z
x,-y,1/2-z
1/2-x,y,-z
1/2+x,1/2+y,1/2+z
1/2-x,-y,1/2+z
1/2+x,1/2-y,-z
-x,1/2+y,1/2-z
loop_
_atom_site_type_symbol
_atom_site_label
_atom_site_fract_x
_atom_site_fract_y
_atom_site_fract_z
Si Si1 0.578466 0.045749 0.256552
Si Si2 0.938242 0.167461 0.095510
Si Si3 0.947876 0.079476 0.237973
Si Si4 0.939221 0.707289 0.907268
O O1 0.748166 0.071521 0.249038
O O2 0.472772 0.060450 0.503833
O O3 0.625149 0.000000 0.250000
O O4 0.471721 0.056252 0.003538
O O5 0.992465 0.125036 0.204309
O O6 0.950280 0.195481 0.344283
O O7 0.750000 0.167582 0.000000
O O8 0.048659 0.179654 0.846619
O O9 0.000000 0.750000 0.815596
O O10 0.750000 0.706967 0.000000
#
# Coordination Sequence:
#
# PCOD8164610 Si02
#       4
#     8   8   8   8
#     4  10  17  28  47  79 136 175 199 250 319 380
#     4  12  23  40  68  96 129 171 211 273 331 393
#     4  10  18  29  48  82 122 165 206 244 320 373
#     4  12  27  47  67  93 127 167 221 269 337 404
#
# _framework density 22.694089999999999
#
# number of rings (size 3 to 8) (size 9 to 14) (size 15 to 20)
#    0.000    1.000    2.500    9.000    3.500    0.000 
#    0.000    0.000    0.000    0.000    0.000    0.000 
#    0.000   90.000    0.000    0.000    0.000    0.000 
#
# Total GULP energy -198272.008718 kJ/mol
# GULP energy per Si atom -12392.000545 kJ/mol
# Density = 2.264244 g / cm^3
# Si number density = 22.694090 Si / 1000 Ang^3
#
#
#
# Elastic Constant Matrix: (Units=GPa)
#
#
# Indices 1 2 3 4 5 6 
#
# 1 30.4209 24.9237 14.7667 -0.0428 -0.1059 -0.0185
# 2 24.9237 150.2081 72.9069 0.2643 -0.0177 0.2801
# 3 14.7667 72.9069 244.3646 0.1686 0.0040 0.0852
# 4 -0.0428 0.2643 0.1686 41.4756 0.0838 0.3095
# 5 -0.1059 -0.0177 0.0040 0.0838 8.9882 0.0574
# 6 -0.0185 0.2801 0.0852 0.3095 0.0574 14.6100
#
#
#
# Elastic Compliance Matrix: (Units=1/GPa)
#
#
# Indices 1 2 3 4 5 6 
#
# 1 0.038096 -0.006085 -0.000487 0.000078 0.000435 0.000164
# 2 -0.006085 0.008757 -0.002245 -0.000052 -0.000052 -0.000161
# 3 -0.000487 -0.002245 0.004791 -0.000006 -0.000012 0.000015
# 4 0.000078 -0.000052 -0.000006 0.024115 -0.000221 -0.000509
# 5 0.000435 -0.000052 -0.000012 -0.000221 0.111267 -0.000431
# 6 0.000164 -0.000161 0.000015 -0.000509 -0.000431 0.068462
#
#
# Mechanical properties :
#
#
# Convention : Reuss Voigt Hill
#
# Bulk Modulus (GPa) = 29.40256 72.24313 50.82284
# Shear Modulus (GPa) = 17.57721 33.84118 25.70920
#
# Velocity S-wave (km/s) = 2.78605 3.86578 3.36945
# Velocity P-wave (km/s) = 4.83049 7.19918 6.13033
#
# Compressibility (1/GPa) = 0.03401065
#
# Stress axis : x y z
#
# Youngs Moduli (GPa) = 26.24961 114.19232 208.70622
#
# Poissons Ratio (x) = 0.69490 0.10156
# Poissons Ratio (y) = 0.15974 0.46852
# Poissons Ratio (z) = 0.01277 0.25635
#
# Static dielectric constant tensor:
#      x y z
#    x 3.382390 -0.000310 -0.023000 
#    y -0.000310 4.166050 -0.040710 
#    z -0.023000 -0.040710 -27.495840 
# 
# 
# High freq. dielectric constant tensor:
#      x y z
#    x 1.827410 -0.000010 -0.000010 
#    y -0.000010 1.901890 -0.000020 
#    z -0.000010 -0.000020 1.942900 
# 
# From -- ./inp_files/1281.got.cif
#   From: 2010.03.12/outbox.cif.g09.slc.cpg/sg24_1_cif.got.tgz:1281.got - 2010.04.14 03:06:53.
