data_PCOD8164112
_publ_section_title
;
Structure prediction by ZEFSAII (Michael W. Deem and Ramdas Pophale) SiO2 
 PCOD8164112
Probable space group: I 2 2 2
;
_chemical_formula_sum "Si O2"
_cell_formula_units_Z 40
_cell_length_a 23.483772
_cell_length_b 8.746854
_cell_length_c 9.143489
_cell_angle_alpha 90.000000
_cell_angle_beta 90.000000
_cell_angle_gamma 90.000000
_cell_volume 1878.156075
_symmetry_space_group_name_H-M "I 2 2 2"
_symmetry_group_IT_number 23
_symmetry_cell_setting 'orthorhombic'
loop_
_space_group_symop_operation_xyz
x,y,z
-x,-y,z
x,-y,-z
-x,y,-z
1/2+x,1/2+y,1/2+z
1/2-x,1/2-y,1/2+z
1/2+x,1/2-y,1/2-z
1/2-x,1/2+y,1/2-z
loop_
_atom_site_type_symbol
_atom_site_label
_atom_site_fract_x
_atom_site_fract_y
_atom_site_fract_z
Si Si1 0.559174 0.188302 0.677723
Si Si2 0.859329 0.104687 0.363727
Si Si3 0.931035 0.337838 0.837741
Si Si4 0.817626 0.820756 0.217849
Si Si5 0.728169 0.824661 0.989674
O O1 0.589761 0.315131 0.775868
O O2 0.569959 0.213059 0.506464
O O3 0.493011 0.207540 0.722437
O O4 0.580061 0.014755 0.701465
O O5 0.818972 0.237091 0.418578
O O6 0.881604 0.000000 0.500000
O O7 0.822210 0.000330 0.253360
O O8 0.880520 0.247584 0.759092
O O9 0.791638 0.798505 0.056015
O O10 0.772453 0.738341 0.325181
O O11 0.710576 0.000000 0.000000
#
# Coordination Sequence:
#
# PCOD8164112 Si02
#       5
#     8   8   8   8   8
#     4   9  19  40  65  95 125 161 207 254 321 376
#     4  10  23  41  62  92 128 162 212 262 312 378
#     4   9  20  38  67  95 123 162 208 259 309 384
#     4  11  24  40  62  95 125 162 210 256 315 366
#     4  11  24  42  61  87 127 169 211 253 309 374
#
# _framework density 21.297484000000001
#
# number of rings (size 3 to 8) (size 9 to 14) (size 15 to 20)
#    0.000    2.000    0.000    3.600    5.600    0.800 
#    7.200    9.000    0.000   10.800    0.000    0.000 
#    0.000    0.000    0.000    0.000    0.000    0.000 
#
# Total GULP energy -247909.713601 kJ/mol
# GULP energy per Si atom -12395.485680 kJ/mol
# Density = 2.124901 g / cm^3
# Si number density = 21.297484 Si / 1000 Ang^3
#
#
#
# Elastic Constant Matrix: (Units=GPa)
#
#
# Indices 1 2 3 4 5 6 
#
# 1 91.1112 59.8780 44.9756 0.0000 0.0000 0.0000
# 2 59.8780 133.0503 41.4279 0.0000 0.0000 0.0000
# 3 44.9756 41.4279 70.1923 0.0000 0.0000 0.0000
# 4 0.0000 0.0000 0.0000 37.3825 0.0000 0.0000
# 5 0.0000 0.0000 0.0000 0.0000 40.6734 0.0000
# 6 0.0000 0.0000 0.0000 0.0000 0.0000 28.7908
#
#
#
# Elastic Compliance Matrix: (Units=1/GPa)
#
#
# Indices 1 2 3 4 5 6 
#
# 1 0.019208 -0.005896 -0.008828 0.000000 0.000000 0.000000
# 2 -0.005896 0.011018 -0.002725 0.000000 0.000000 0.000000
# 3 -0.008828 -0.002725 0.021511 0.000000 0.000000 0.000000
# 4 0.000000 0.000000 0.000000 0.026750 0.000000 0.000000
# 5 0.000000 0.000000 0.000000 0.000000 0.024586 0.000000
# 6 0.000000 0.000000 0.000000 0.000000 0.000000 0.034733
#
#
# Mechanical properties :
#
#
# Convention : Reuss Voigt Hill
#
# Bulk Modulus (GPa) = 59.38273 65.21297 62.29785
# Shear Modulus (GPa) = 28.03994 31.24085 29.64039
#
# Velocity S-wave (km/s) = 3.63241 3.83414 3.73464
# Velocity P-wave (km/s) = 6.74801 7.09136 6.92181
#
# Compressibility (1/GPa) = 0.01683991
#
# Stress axis : x y z
#
# Youngs Moduli (GPa) = 52.06210 90.76277 46.48708
#
# Poissons Ratio (x) = 0.53510 0.41038
# Poissons Ratio (y) = 0.30694 0.12668
# Poissons Ratio (z) = 0.45959 0.24734
#
# Static dielectric constant tensor:
#      x y z
#    x 3.743620 0.000000 0.000000 
#    y 0.000000 3.926130 0.000000 
#    z 0.000000 0.000000 3.853550 
# 
# 
# High freq. dielectric constant tensor:
#      x y z
#    x 1.832580 0.000000 0.000000 
#    y 0.000000 1.844970 0.000000 
#    z 0.000000 0.000000 1.830120 
# 
# From -- ./inp_files/6885.got.cif
#   From: 2010.03.12/outbox.cif.g09.slc.cpg/sg23_4_cif.got.tgz:6885.got - 2010.04.14 02:50:06.
