data_PCOD8164819
_publ_section_title
;
Structure prediction by ZEFSAII (Michael W. Deem and Ramdas Pophale) SiO2 
 PCOD8164819
Probable space group: I 21 21 21
;
_chemical_formula_sum "Si O2"
_cell_formula_units_Z 32
_cell_length_a 8.035477
_cell_length_b 10.027843
_cell_length_c 15.229341
_cell_angle_alpha 90.000000
_cell_angle_beta 90.000000
_cell_angle_gamma 90.000000
_cell_volume 1227.157481
_symmetry_space_group_name_H-M "I 21 21 21"
_symmetry_group_IT_number 24
_symmetry_cell_setting 'orthorhombic'
loop_
_space_group_symop_operation_xyz
x,y,z
-x,1/2-y,z
x,-y,1/2-z
1/2-x,y,-z
1/2+x,1/2+y,1/2+z
1/2-x,-y,1/2+z
1/2+x,1/2-y,-z
-x,1/2+y,1/2-z
loop_
_atom_site_type_symbol
_atom_site_label
_atom_site_fract_x
_atom_site_fract_y
_atom_site_fract_z
Si Si1 0.250000 0.366356 0.500000
Si Si2 0.528705 0.455730 0.918503
Si Si3 0.686751 0.304334 0.652869
Si Si4 0.000000 0.250000 0.946602
Si Si5 0.263446 0.368616 0.195007
O O1 0.410533 0.452422 0.522404
O O2 0.201077 0.272609 0.581809
O O3 0.679697 0.538202 0.871943
O O4 0.423616 0.391805 0.838812
O O5 0.602594 0.345820 0.985719
O O6 0.500000 0.250000 0.649220
O O7 0.766662 0.267264 0.747070
O O8 0.880119 0.157941 0.888275
O O9 0.321505 0.500000 0.250000
#
# Coordination Sequence:
#
# PCOD8164819 Si02
#       5
#     4   8   8   4   8
#     4  10  18  44  70  98 138 188 238 282 352 420
#     4  11  23  46  71 100 144 194 233 290 354 432
#     4  10  22  42  74 102 133 189 242 286 347 427
#     4  12  26  46  72 106 152 186 228 300 360 418
#     4  12  23  48  72 107 141 189 236 297 358 419
#
# _framework density 26.076522000000001
#
# number of rings (size 3 to 8) (size 9 to 14) (size 15 to 20)
#    0.000    1.000    7.500    0.000    1.750    0.000 
#   15.750    2.500    0.000    0.000    0.000    0.000 
#    0.000    0.000    0.000    0.000    0.000    0.000 
#
# Total GULP energy -198276.998609 kJ/mol
# GULP energy per Si atom -12392.312413 kJ/mol
# Density = 2.601717 g / cm^3
# Si number density = 26.076522 Si / 1000 Ang^3
#
#
#
# Elastic Constant Matrix: (Units=GPa)
#
#
# Indices 1 2 3 4 5 6 
#
# 1 19.4823 27.4671 11.3303 0.0000 0.0000 0.0000
# 2 27.4671 160.6944 96.1614 0.0000 0.0000 0.0000
# 3 11.3303 96.1614 168.7453 0.0000 0.0000 0.0000
# 4 0.0000 0.0000 0.0000 67.8328 0.0000 0.0000
# 5 0.0000 0.0000 0.0000 0.0000 12.0320 0.0000
# 6 0.0000 0.0000 0.0000 0.0000 0.0000 33.4222
#
#
#
# Elastic Compliance Matrix: (Units=1/GPa)
#
#
# Indices 1 2 3 4 5 6 
#
# 1 0.068715 -0.013633 0.003155 0.000000 0.000000 0.000000
# 2 -0.013633 0.012148 -0.006007 0.000000 0.000000 0.000000
# 3 0.003155 -0.006007 0.009138 0.000000 0.000000 0.000000
# 4 0.000000 0.000000 0.000000 0.014742 0.000000 0.000000
# 5 0.000000 0.000000 0.000000 0.000000 0.083112 0.000000
# 6 0.000000 0.000000 0.000000 0.000000 0.000000 0.029920
#
#
# Mechanical properties :
#
#
# Convention : Reuss Voigt Hill
#
# Bulk Modulus (GPa) = 17.53476 68.75996 43.14736
# Shear Modulus (GPa) = 18.53530 36.92159 27.72844
#
# Velocity S-wave (km/s) = 2.66898 3.76692 3.26444
# Velocity P-wave (km/s) = 4.02950 6.73390 5.54898
#
# Compressibility (1/GPa) = 0.05702960
#
# Stress axis : x y z
#
# Youngs Moduli (GPa) = 14.55293 82.31671 109.43785
#
# Poissons Ratio (x) = 1.12226 -0.34531
# Poissons Ratio (y) = 0.19841 0.65744
# Poissons Ratio (z) = -0.04592 0.49451
#
# Static dielectric constant tensor:
#      x y z
#    x 4.189260 0.000000 0.000000 
#    y 0.000000 5.399800 0.000000 
#    z 0.000000 0.000000 5.173780 
# 
# 
# High freq. dielectric constant tensor:
#      x y z
#    x 1.987750 0.000000 0.000000 
#    y 0.000000 2.054490 0.000000 
#    z 0.000000 0.000000 2.069800 
# 
# From -- ./inp_files/24376.got.cif
#   From: 2010.03.12/outbox.cif.g09.slc.cpg/sg24_13_cif.got.tgz:24376.got - 2010.04.14 03:06:53.
