data_PCOD8164114
_publ_section_title
;
Structure prediction by ZEFSAII (Michael W. Deem and Ramdas Pophale) SiO2 
 PCOD8164114
Probable space group: I 2 2 2
;
_chemical_formula_sum "Si O2"
_cell_formula_units_Z 58
_cell_length_a 11.436364
_cell_length_b 8.542541
_cell_length_c 27.416163
_cell_angle_alpha 90.000000
_cell_angle_beta 90.000000
_cell_angle_gamma 90.000000
_cell_volume 2678.438723
_symmetry_space_group_name_H-M "I 2 2 2"
_symmetry_group_IT_number 23
_symmetry_cell_setting 'orthorhombic'
loop_
_space_group_symop_operation_xyz
x,y,z
-x,-y,z
x,-y,-z
-x,y,-z
1/2+x,1/2+y,1/2+z
1/2-x,1/2-y,1/2+z
1/2+x,1/2-y,1/2-z
1/2-x,1/2+y,1/2-z
loop_
_atom_site_type_symbol
_atom_site_label
_atom_site_fract_x
_atom_site_fract_y
_atom_site_fract_z
Si Si1 0.129267 0.679036 0.014832
Si Si2 0.384009 0.409869 0.293980
Si Si3 0.500000 0.000000 0.000000
Si Si4 0.205576 0.850875 0.105710
Si Si5 0.156411 0.153268 0.649800
Si Si6 0.602154 0.295537 0.168554
Si Si7 0.257821 0.697772 0.261987
Si Si8 0.297124 0.154844 0.056433
O O1 0.152616 0.711260 0.072339
O O2 0.147325 0.500000 0.000000
O O3 0.224933 0.782231 0.988602
O O4 0.000000 0.735145 0.000000
O O5 0.500000 0.500000 0.276033
O O6 0.389491 0.381037 0.351662
O O7 0.271859 0.516251 0.277409
O O8 0.364313 0.243828 0.265987
O O9 0.576702 0.891375 0.035473
O O10 0.329879 0.812897 0.130305
O O11 0.223990 0.008874 0.076088
O O12 0.259014 0.203814 0.687471
O O13 0.191681 0.207350 0.595961
O O14 0.034953 0.238622 0.663978
O O15 0.139184 0.969408 0.652674
O O16 0.638040 0.259025 0.224363
#
# Coordination Sequence:
#
# PCOD8164114 Si02
#       8
#     8   8   2   8   8   8   8   8
#     4  11  26  47  70  97 134 178 229 281 340 406
#     4  11  24  42  67  97 135 175 223 276 333 397
#     4  12  24  44  64 104 140 164 222 282 336 404
#     4  11  23  43  67 100 133 171 224 278 337 402
#     4  11  22  40  66  92 130 180 222 272 337 391
#     4  10  23  41  63  94 134 175 221 275 329 397
#     4  11  21  40  64  93 129 172 220 269 322 398
#     4  12  24  42  70  98 136 174 223 278 338 406
#
# _framework density 21.654406000000002
#
# number of rings (size 3 to 8) (size 9 to 14) (size 15 to 20)
#    0.000    0.966    4.138    2.483    1.931    0.552 
#    0.000    2.069    0.000    0.000    0.000    0.000 
#    0.000    0.000    0.000    0.000    0.000    0.000 
#
# Total GULP energy -359466.892026 kJ/mol
# GULP energy per Si atom -12395.410070 kJ/mol
# Density = 2.160512 g / cm^3
# Si number density = 21.654406 Si / 1000 Ang^3
#
#
#
# Elastic Constant Matrix: (Units=GPa)
#
#
# Indices 1 2 3 4 5 6 
#
# 1 82.7427 30.8093 31.2373 0.0000 0.0000 0.0000
# 2 30.8093 80.6789 38.9192 0.0000 0.0000 0.0000
# 3 31.2373 38.9192 140.0573 0.0000 0.0000 0.0000
# 4 0.0000 0.0000 0.0000 38.4953 0.0000 0.0000
# 5 0.0000 0.0000 0.0000 0.0000 29.2653 0.0000
# 6 0.0000 0.0000 0.0000 0.0000 0.0000 34.3639
#
#
#
# Elastic Compliance Matrix: (Units=1/GPa)
#
#
# Indices 1 2 3 4 5 6 
#
# 1 0.014542 -0.004606 -0.001963 0.000000 0.000000 0.000000
# 2 -0.004606 0.015772 -0.003356 0.000000 0.000000 0.000000
# 3 -0.001963 -0.003356 0.008510 0.000000 0.000000 0.000000
# 4 0.000000 0.000000 0.000000 0.025977 0.000000 0.000000
# 5 0.000000 0.000000 0.000000 0.000000 0.034170 0.000000
# 6 0.000000 0.000000 0.000000 0.000000 0.000000 0.029100
#
#
# Mechanical properties :
#
#
# Convention : Reuss Voigt Hill
#
# Bulk Modulus (GPa) = 52.70187 56.15671 54.42929
# Shear Modulus (GPa) = 32.41548 33.92578 33.17063
#
# Velocity S-wave (km/s) = 3.87324 3.96244 3.91809
# Velocity P-wave (km/s) = 6.66282 6.85011 6.75711
#
# Compressibility (1/GPa) = 0.01897466
#
# Stress axis : x y z
#
# Youngs Moduli (GPa) = 68.76653 63.40155 117.50503
#
# Poissons Ratio (x) = 0.29203 0.23071
# Poissons Ratio (y) = 0.31674 0.39430
# Poissons Ratio (z) = 0.13501 0.21275
#
# Static dielectric constant tensor:
#      x y z
#    x 3.864070 0.000000 0.000000 
#    y 0.000000 3.940090 0.000000 
#    z 0.000000 0.000000 4.161010 
# 
# 
# High freq. dielectric constant tensor:
#      x y z
#    x 1.835290 0.000000 0.000000 
#    y 0.000000 1.847120 0.000000 
#    z 0.000000 0.000000 1.872390 
# 
# From -- ./inp_files/29457.got.cif
#   From: 2010.03.12/outbox.cif.g09.slc.cpg/sg23_15_cif.got.tgz:29457.got - 2010.04.14 02:50:06.
