data_PCOD8164737
_publ_section_title
;
Structure prediction by ZEFSAII (Michael W. Deem and Ramdas Pophale) SiO2 
 PCOD8164737
Probable space group: I 21 21 21
;
_chemical_formula_sum "Si O2"
_cell_formula_units_Z 60
_cell_length_a 29.523264
_cell_length_b 12.098356
_cell_length_c 7.801350
_cell_angle_alpha 90.000000
_cell_angle_beta 90.000000
_cell_angle_gamma 90.000000
_cell_volume 2786.509271
_symmetry_space_group_name_H-M "I 21 21 21"
_symmetry_group_IT_number 24
_symmetry_cell_setting 'orthorhombic'
loop_
_space_group_symop_operation_xyz
x,y,z
-x,1/2-y,z
x,-y,1/2-z
1/2-x,y,-z
1/2+x,1/2+y,1/2+z
1/2-x,-y,1/2+z
1/2+x,1/2-y,-z
-x,1/2+y,1/2-z
loop_
_atom_site_type_symbol
_atom_site_label
_atom_site_fract_x
_atom_site_fract_y
_atom_site_fract_z
Si Si1 0.750000 0.229975 0.000000
Si Si2 0.377796 0.172742 0.571882
Si Si3 0.586724 0.753820 0.592951
Si Si4 0.122278 0.399437 0.589240
Si Si5 0.062856 0.017641 0.047075
Si Si6 0.661477 0.108622 0.040648
Si Si7 0.960582 0.022906 0.051332
Si Si8 0.722785 0.380337 0.678292
O O1 0.712271 0.145146 0.067206
O O2 0.763227 0.298058 0.168368
O O3 0.414761 0.220409 0.707456
O O4 0.366124 0.273281 0.449310
O O5 0.331108 0.126006 0.650196
O O6 0.403207 0.074159 0.466085
O O7 0.578408 0.640399 0.487696
O O8 0.637764 0.800262 0.577544
O O9 0.551034 0.846453 0.531416
O O10 0.156281 0.480328 0.477012
O O11 0.130971 0.401815 0.790264
O O12 0.070753 0.438450 0.554303
O O13 0.011360 0.000287 0.986086
O O14 0.067887 0.000000 0.250000
O O15 0.954268 0.000000 0.250000
O O16 0.736104 0.500000 0.750000
O O17 0.750000 0.356156 0.500000
#
# Coordination Sequence:
#
# PCOD8164737 Si02
#       8
#     4   8   8   8   8   8   8   8
#     4  12  24  46  68 100 136 176 230 282 338 410
#     4  11  21  39  63  93 128 166 219 276 328 400
#     4  10  18  36  61  86 128 164 209 266 330 383
#     4  10  22  42  62  90 129 169 212 271 339 396
#     4   9  20  32  59  96 124 162 215 271 323 393
#     4  10  23  42  64  89 127 174 212 274 338 399
#     4  10  18  33  62  93 121 165 219 269 323 397
#     4  12  25  43  69 100 134 180 228 277 345 416
#
# _framework density 21.532319000000001
#
# number of rings (size 3 to 8) (size 9 to 14) (size 15 to 20)
#    0.000    1.600    3.333    2.400    0.000    0.533 
#    6.000    0.667   20.533    0.000    0.000    0.000 
#    0.000    0.000    0.000    0.000    0.000    0.000 
#
# Total GULP energy -371669.866387 kJ/mol
# GULP energy per Si atom -12388.995546 kJ/mol
# Density = 2.148331 g / cm^3
# Si number density = 21.532319 Si / 1000 Ang^3
#
#
#
# Elastic Constant Matrix: (Units=GPa)
#
#
# Indices 1 2 3 4 5 6 
#
# 1 130.5207 65.6548 17.2570 0.0000 0.0000 0.0000
# 2 65.6548 165.2684 24.6493 0.0000 0.0000 0.0000
# 3 17.2570 24.6493 50.9787 0.0000 0.0000 0.0000
# 4 0.0000 0.0000 0.0000 20.9125 0.0000 0.0000
# 5 0.0000 0.0000 0.0000 0.0000 13.7748 0.0000
# 6 0.0000 0.0000 0.0000 0.0000 0.0000 32.4104
#
#
#
# Elastic Compliance Matrix: (Units=1/GPa)
#
#
# Indices 1 2 3 4 5 6 
#
# 1 0.009684 -0.003619 -0.001528 0.000000 0.000000 0.000000
# 2 -0.003619 0.007874 -0.002582 0.000000 0.000000 0.000000
# 3 -0.001528 -0.002582 0.021382 0.000000 0.000000 0.000000
# 4 0.000000 0.000000 0.000000 0.047818 0.000000 0.000000
# 5 0.000000 0.000000 0.000000 0.000000 0.072596 0.000000
# 6 0.000000 0.000000 0.000000 0.000000 0.000000 0.030854
#
#
# Mechanical properties :
#
#
# Convention : Reuss Voigt Hill
#
# Bulk Modulus (GPa) = 42.58794 62.43222 52.51008
# Shear Modulus (GPa) = 23.41979 29.36663 26.39321
#
# Velocity S-wave (km/s) = 3.30154 3.69703 3.50487
# Velocity P-wave (km/s) = 5.86133 6.87616 6.38893
#
# Compressibility (1/GPa) = 0.02348082
#
# Stress axis : x y z
#
# Youngs Moduli (GPa) = 103.26055 127.00620 46.76877
#
# Poissons Ratio (x) = 0.45967 0.07148
# Poissons Ratio (y) = 0.37372 0.12075
# Poissons Ratio (z) = 0.15781 0.32792
#
# Static dielectric constant tensor:
#      x y z
#    x 3.844360 0.000000 0.000000 
#    y 0.000000 4.783470 0.000000 
#    z 0.000000 0.000000 3.594370 
# 
# 
# High freq. dielectric constant tensor:
#      x y z
#    x 1.839380 0.000000 0.000000 
#    y 0.000000 1.871070 0.000000 
#    z 0.000000 0.000000 1.816230 
# 
# From -- ./inp_files/16449.got.cif
#   From: 2010.03.12/outbox.cif.g09.slc.cpg/sg24_9_cif.got.tgz:16449.got - 2010.04.14 03:06:53.
