data_PCOD8164950
_publ_section_title
;
Structure prediction by ZEFSAII (Michael W. Deem and Ramdas Pophale) SiO2 
 PCOD8164950
Probable space group: I 21 21 21
;
_chemical_formula_sum "Si O2"
_cell_formula_units_Z 48
_cell_length_a 9.676133
_cell_length_b 11.264033
_cell_length_c 21.699682
_cell_angle_alpha 90.000000
_cell_angle_beta 90.000000
_cell_angle_gamma 90.000000
_cell_volume 2365.097847
_symmetry_space_group_name_H-M "I 21 21 21"
_symmetry_group_IT_number 24
_symmetry_cell_setting 'orthorhombic'
loop_
_space_group_symop_operation_xyz
x,y,z
-x,1/2-y,z
x,-y,1/2-z
1/2-x,y,-z
1/2+x,1/2+y,1/2+z
1/2-x,-y,1/2+z
1/2+x,1/2-y,-z
-x,1/2+y,1/2-z
loop_
_atom_site_type_symbol
_atom_site_label
_atom_site_fract_x
_atom_site_fract_y
_atom_site_fract_z
Si Si1 0.589072 0.368321 0.000927
Si Si2 0.716739 0.013972 0.677013
Si Si3 0.514447 0.890758 0.369386
Si Si4 0.768343 0.604991 0.709326
Si Si5 0.074401 0.009828 0.122486
Si Si6 0.845211 0.270982 0.315659
O O1 0.500000 0.250000 0.988555
O O2 0.557563 0.469379 0.950114
O O3 0.750000 0.332365 0.000000
O O4 0.545515 0.432983 0.064837
O O5 0.568636 0.965580 0.657017
O O6 0.719372 0.152100 0.654153
O O7 0.736199 0.000000 0.750000
O O8 0.832005 0.939545 0.640191
O O9 0.500000 0.750000 0.369585
O O10 0.423094 0.930931 0.310774
O O11 0.701703 0.500000 0.750000
O O12 0.675572 0.614219 0.647803
O O13 0.753874 0.716205 0.755091
O O14 0.146561 0.880535 0.135721
O O15 0.000000 0.250000 0.290767
#
# Coordination Sequence:
#
# PCOD8164950 Si02
#       6
#     8   8   8   8   8   8
#     4  11  25  42  65  92 125 168 221 278 333 395
#     4  11  22  38  64  96 129 165 212 270 328 404
#     4  11  24  38  57  91 129 161 210 268 327 389
#     4  10  19  35  59  86 119 162 204 258 327 390
#     4  10  21  38  65  87 126 167 213 266 321 392
#     4   9  19  37  62  93 125 163 219 268 325 402
#
# _framework density 20.295145000000002
#
# number of rings (size 3 to 8) (size 9 to 14) (size 15 to 20)
#    0.000    1.667    1.667    4.000    4.667    2.000 
#    0.000    2.500   11.000    0.000    0.000    0.000 
#    0.000    0.000    0.000    0.000    0.000    0.000 
#
# Total GULP energy -297364.918647 kJ/mol
# GULP energy per Si atom -12390.204944 kJ/mol
# Density = 2.024895 g / cm^3
# Si number density = 20.295145 Si / 1000 Ang^3
#
#
#
# Elastic Constant Matrix: (Units=GPa)
#
#
# Indices 1 2 3 4 5 6 
#
# 1 110.2902 36.6613 32.8195 0.0000 0.0000 0.0000
# 2 36.6613 87.1040 38.3917 0.0000 0.0000 0.0000
# 3 32.8195 38.3917 116.6822 0.0000 0.0000 0.0000
# 4 0.0000 0.0000 0.0000 20.2585 0.0000 0.0000
# 5 0.0000 0.0000 0.0000 0.0000 33.3396 0.0000
# 6 0.0000 0.0000 0.0000 0.0000 0.0000 35.5075
#
#
#
# Elastic Compliance Matrix: (Units=1/GPa)
#
#
# Indices 1 2 3 4 5 6 
#
# 1 0.010860 -0.003772 -0.001814 0.000000 0.000000 0.000000
# 2 -0.003772 0.014738 -0.003788 0.000000 0.000000 0.000000
# 3 -0.001814 -0.003788 0.010327 0.000000 0.000000 0.000000
# 4 0.000000 0.000000 0.000000 0.049362 0.000000 0.000000
# 5 0.000000 0.000000 0.000000 0.000000 0.029994 0.000000
# 6 0.000000 0.000000 0.000000 0.000000 0.000000 0.028163
#
#
# Mechanical properties :
#
#
# Convention : Reuss Voigt Hill
#
# Bulk Modulus (GPa) = 58.21500 58.86903 58.54201
# Shear Modulus (GPa) = 29.77649 31.56804 30.67227
#
# Velocity S-wave (km/s) = 3.83453 3.94820 3.89178
# Velocity P-wave (km/s) = 6.95351 7.06072 7.00732
#
# Compressibility (1/GPa) = 0.01717770
#
# Stress axis : x y z
#
# Youngs Moduli (GPa) = 92.07734 67.85336 96.83460
#
# Poissons Ratio (x) = 0.25592 0.17564
# Poissons Ratio (y) = 0.34728 0.36683
# Poissons Ratio (z) = 0.16701 0.25705
#
# Static dielectric constant tensor:
#      x y z
#    x 3.776580 0.000000 0.000000 
#    y 0.000000 3.727500 0.000000 
#    z 0.000000 0.000000 3.932620 
# 
# 
# High freq. dielectric constant tensor:
#      x y z
#    x 1.798150 0.000000 0.000000 
#    y 0.000000 1.779820 0.000000 
#    z 0.000000 0.000000 1.787430 
# 
# From -- ./inp_files/18600.got.cif
#   From: 2010.03.12/outbox.cif.g09.slc.cpg/sg24_10_cif.got.tgz:18600.got - 2010.04.14 03:06:53.
