data_PCOD8164394
_publ_section_title
;
Structure prediction by ZEFSAII (Michael W. Deem and Ramdas Pophale) SiO2 
 PCOD8164394
Probable space group: I 2 2 2
;
_chemical_formula_sum "Si O2"
_cell_formula_units_Z 32
_cell_length_a 19.062763
_cell_length_b 8.582690
_cell_length_c 7.870938
_cell_angle_alpha 90.000000
_cell_angle_beta 90.000000
_cell_angle_gamma 90.000000
_cell_volume 1287.762477
_symmetry_space_group_name_H-M "I 2 2 2"
_symmetry_group_IT_number 23
_symmetry_cell_setting 'orthorhombic'
loop_
_space_group_symop_operation_xyz
x,y,z
-x,-y,z
x,-y,-z
-x,y,-z
1/2+x,1/2+y,1/2+z
1/2-x,1/2-y,1/2+z
1/2+x,1/2-y,1/2-z
1/2-x,1/2+y,1/2-z
loop_
_atom_site_type_symbol
_atom_site_label
_atom_site_fract_x
_atom_site_fract_y
_atom_site_fract_z
Si Si1 0.029861 0.717712 0.685372
Si Si2 0.901336 0.426082 0.183798
Si Si3 0.333011 0.366856 0.779352
Si Si4 0.293178 0.702056 0.838500
O O1 0.075998 0.558629 0.680728
O O2 0.083160 0.852341 0.751413
O O3 0.000000 0.759026 0.500000
O O4 0.964793 0.700948 0.816345
O O5 0.829842 0.345659 0.242085
O O6 0.890862 0.500000 0.000000
O O7 0.308569 0.542013 0.737539
O O8 0.289752 0.244552 0.661971
O O9 0.319869 0.316899 0.972592
#
# Coordination Sequence:
#
# PCOD8164394 Si02
#       4
#     8   8   8   8
#     4  11  22  43  71 105 141 191 242 294 361 432
#     4  11  24  43  71 105 145 190 239 297 361 432
#     4  11  26  46  71 109 143 193 245 302 370 433
#     4  11  26  46  73 106 147 191 243 307 363 438
#
# _framework density 24.849304
#
# number of rings (size 3 to 8) (size 9 to 14) (size 15 to 20)
#    0.000    1.000    2.500    4.500    7.000    4.000 
#    4.500    0.000    0.000    6.000    0.000    0.000 
#    0.000    0.000    0.000    0.000    0.000    0.000 
#
# Total GULP energy -198406.426519 kJ/mol
# GULP energy per Si atom -12400.401657 kJ/mol
# Density = 2.479275 g / cm^3
# Si number density = 24.849304 Si / 1000 Ang^3
#
#
#
# Elastic Constant Matrix: (Units=GPa)
#
#
# Indices 1 2 3 4 5 6 
#
# 1 108.8637 11.5431 3.9443 0.0000 0.0000 0.0000
# 2 11.5431 74.2803 3.4608 0.0000 0.0000 0.0000
# 3 3.9443 3.4608 47.3779 0.0000 0.0000 0.0000
# 4 0.0000 0.0000 0.0000 25.2415 0.0000 0.0000
# 5 0.0000 0.0000 0.0000 0.0000 39.1183 0.0000
# 6 0.0000 0.0000 0.0000 0.0000 0.0000 48.3091
#
#
#
# Elastic Compliance Matrix: (Units=1/GPa)
#
#
# Indices 1 2 3 4 5 6 
#
# 1 0.009361 -0.001423 -0.000675 0.000000 0.000000 0.000000
# 2 -0.001423 0.013725 -0.000884 0.000000 0.000000 0.000000
# 3 -0.000675 -0.000884 0.021228 0.000000 0.000000 0.000000
# 4 0.000000 0.000000 0.000000 0.039617 0.000000 0.000000
# 5 0.000000 0.000000 0.000000 0.000000 0.025564 0.000000
# 6 0.000000 0.000000 0.000000 0.000000 0.000000 0.020700
#
#
# Mechanical properties :
#
#
# Convention : Reuss Voigt Hill
#
# Bulk Modulus (GPa) = 26.07674 29.82427 27.95050
# Shear Modulus (GPa) = 33.56994 36.63868 35.10431
#
# Velocity S-wave (km/s) = 3.67950 3.84400 3.76265
# Velocity P-wave (km/s) = 5.34494 5.63293 5.49082
#
# Compressibility (1/GPa) = 0.03834836
#
# Stress axis : x y z
#
# Youngs Moduli (GPa) = 106.82418 72.86036 47.10828
#
# Poissons Ratio (x) = 0.10370 0.03182
# Poissons Ratio (y) = 0.15204 0.04165
# Poissons Ratio (z) = 0.07215 0.06441
#
# Static dielectric constant tensor:
#      x y z
#    x 4.932480 0.000000 0.000000 
#    y 0.000000 4.543100 0.000000 
#    z 0.000000 0.000000 4.097900 
# 
# 
# High freq. dielectric constant tensor:
#      x y z
#    x 2.009800 0.000000 0.000000 
#    y 0.000000 1.976690 0.000000 
#    z 0.000000 0.000000 1.966370 
# 
# From -- ./inp_files/11609.got.cif
#   From: 2010.03.12/outbox.cif.g09.slc.cpg/sg23_6_cif.got.tgz:11609.got - 2010.04.14 02:50:06.
