data_PCOD8164575
_publ_section_title
;
Structure prediction by ZEFSAII (Michael W. Deem and Ramdas Pophale) SiO2 
 PCOD8164575
Probable space group: I 21 21 21
;
_chemical_formula_sum "Si O2"
_cell_formula_units_Z 56
_cell_length_a 13.290727
_cell_length_b 11.174667
_cell_length_c 23.087512
_cell_angle_alpha 90.000000
_cell_angle_beta 90.000000
_cell_angle_gamma 90.000000
_cell_volume 3428.944547
_symmetry_space_group_name_H-M "I 21 21 21"
_symmetry_group_IT_number 24
_symmetry_cell_setting 'orthorhombic'
loop_
_space_group_symop_operation_xyz
x,y,z
-x,1/2-y,z
x,-y,1/2-z
1/2-x,y,-z
1/2+x,1/2+y,1/2+z
1/2-x,-y,1/2+z
1/2+x,1/2-y,-z
-x,1/2+y,1/2-z
loop_
_atom_site_type_symbol
_atom_site_label
_atom_site_fract_x
_atom_site_fract_y
_atom_site_fract_z
Si Si1 0.477916 0.887250 0.030476
Si Si2 0.324419 0.999557 0.950725
Si Si3 0.000000 0.750000 0.712857
Si Si4 0.077874 0.000000 0.750000
Si Si5 0.108121 0.244172 0.094974
Si Si6 0.636852 0.914702 0.488716
Si Si7 0.154116 0.988750 0.875650
Si Si8 0.330414 0.741173 0.379050
O O1 0.500000 0.750000 0.033468
O O2 0.439029 0.922550 0.094539
O O3 0.575601 0.963187 0.015059
O O4 0.396606 0.902302 0.979579
O O5 0.260542 0.935085 0.898714
O O6 0.387647 0.108694 0.926315
O O7 0.250000 0.050581 0.000000
O O8 0.985536 0.625069 0.748337
O O9 0.101665 0.720322 0.677498
O O10 0.148361 0.987245 0.806301
O O11 0.209011 0.278184 0.132168
O O12 0.000000 0.250000 0.129485
O O13 0.902574 0.169116 0.039945
O O14 0.750000 0.954978 0.500000
O O15 0.627411 0.844990 0.428282
O O16 0.152949 0.123930 0.900310
#
# Coordination Sequence:
#
# PCOD8164575 Si02
#       8
#     8   8   4   4   8   8   8   8
#     4  11  21  30  45  67 106 143 169 198 248 311
#     4   9  17  31  48  69  98 133 164 206 254 306
#     4  10  20  34  54  72 104 124 170 214 264 314
#     4  10  20  34  56  78  98 132 172 222 266 306
#     4  10  16  25  49  74  96 123 162 206 251 303
#     4  10  18  27  43  70 100 126 161 197 248 295
#     4   9  19  33  51  73  96 127 171 210 256 305
#     4   9  18  31  48  74  97 128 157 211 264 294
#
# _framework density 16.331555999999999
#
# number of rings (size 3 to 8) (size 9 to 14) (size 15 to 20)
#    0.000    2.286    1.429    4.714    2.000    1.714 
#    0.000    0.000    0.000    0.000    0.000   18.000 
#    0.000    0.000    0.000    0.000    0.000    0.000 
#
# Total GULP energy -346878.942382 kJ/mol
# GULP energy per Si atom -12388.533657 kJ/mol
# Density = 1.629438 g / cm^3
# Si number density = 16.331556 Si / 1000 Ang^3
#
#
#
# Elastic Constant Matrix: (Units=GPa)
#
#
# Indices 1 2 3 4 5 6 
#
# 1 113.0623 38.7171 40.1555 0.0000 0.0000 0.0000
# 2 38.7171 92.6908 30.2633 0.0000 0.0000 0.0000
# 3 40.1555 30.2633 77.4824 0.0000 0.0000 0.0000
# 4 0.0000 0.0000 0.0000 16.3819 0.0000 0.0000
# 5 0.0000 0.0000 0.0000 0.0000 20.1490 0.0000
# 6 0.0000 0.0000 0.0000 0.0000 0.0000 15.9602
#
#
#
# Elastic Compliance Matrix: (Units=1/GPa)
#
#
# Indices 1 2 3 4 5 6 
#
# 1 0.011670 -0.003324 -0.004750 0.000000 0.000000 0.000000
# 2 -0.003324 0.013312 -0.003477 0.000000 0.000000 0.000000
# 3 -0.004750 -0.003477 0.016726 0.000000 0.000000 0.000000
# 4 0.000000 0.000000 0.000000 0.061043 0.000000 0.000000
# 5 0.000000 0.000000 0.000000 0.000000 0.049630 0.000000
# 6 0.000000 0.000000 0.000000 0.000000 0.000000 0.062656
#
#
# Mechanical properties :
#
#
# Convention : Reuss Voigt Hill
#
# Bulk Modulus (GPa) = 53.74361 55.72303 54.73332
# Shear Modulus (GPa) = 20.46330 22.10485 21.28407
#
# Velocity S-wave (km/s) = 3.54360 3.68299 3.61397
# Velocity P-wave (km/s) = 7.05139 7.23048 7.14150
#
# Compressibility (1/GPa) = 0.01860686
#
# Stress axis : x y z
#
# Youngs Moduli (GPa) = 85.69146 75.11972 59.78805
#
# Poissons Ratio (x) = 0.24968 0.28398
# Poissons Ratio (y) = 0.28481 0.20788
# Poissons Ratio (z) = 0.40701 0.26119
#
# Static dielectric constant tensor:
#      x y z
#    x 3.479950 0.000000 0.000000 
#    y 0.000000 2.947350 0.000000 
#    z 0.000000 0.000000 2.901230 
# 
# 
# High freq. dielectric constant tensor:
#      x y z
#    x 1.640330 0.000000 0.000000 
#    y 0.000000 1.615790 0.000000 
#    z 0.000000 0.000000 1.593900 
# 
# From -- ./inp_files/33424.got.cif
#   From: 2010.03.12/outbox.cif.g09.slc.cpg/sg24_17_cif.got.tgz:33424.got - 2010.04.14 03:06:53.
