data_PCOD8164008
_publ_section_title
;
Structure prediction by ZEFSAII (Michael W. Deem and Ramdas Pophale) SiO2 
 PCOD8164008
Probable space group: I 2 2 2
;
_chemical_formula_sum "Si O2"
_cell_formula_units_Z 58
_cell_length_a 14.155225
_cell_length_b 7.365982
_cell_length_c 28.407379
_cell_angle_alpha 90.000000
_cell_angle_beta 90.000000
_cell_angle_gamma 90.000000
_cell_volume 2961.955952
_symmetry_space_group_name_H-M "I 2 2 2"
_symmetry_group_IT_number 23
_symmetry_cell_setting 'orthorhombic'
loop_
_space_group_symop_operation_xyz
x,y,z
-x,-y,z
x,-y,-z
-x,y,-z
1/2+x,1/2+y,1/2+z
1/2-x,1/2-y,1/2+z
1/2+x,1/2-y,1/2-z
1/2-x,1/2+y,1/2-z
loop_
_atom_site_type_symbol
_atom_site_label
_atom_site_fract_x
_atom_site_fract_y
_atom_site_fract_z
Si Si1 0.327248 0.708992 0.802346
Si Si2 0.336980 0.718750 0.621674
Si Si3 0.478059 0.787385 0.234865
Si Si4 0.280282 0.877685 0.209717
Si Si5 0.527212 0.208710 0.339695
Si Si6 0.000000 0.000000 0.000000
Si Si7 0.713735 0.118053 0.388119
Si Si8 0.317328 0.582084 0.453411
O O1 0.439030 0.680830 0.792688
O O2 0.265931 0.614779 0.761435
O O3 0.302902 0.618958 0.852759
O O4 0.303091 0.919992 0.805815
O O5 0.288907 0.716880 0.672869
O O6 0.448769 0.688601 0.629163
O O7 0.300091 0.565237 0.587271
O O8 0.315163 0.914312 0.598385
O O9 0.376818 0.758484 0.209858
O O10 0.470385 0.706535 0.287518
O O11 0.500000 0.000000 0.237364
O O12 0.629317 0.231685 0.363080
O O13 0.500000 0.000000 0.336165
O O14 0.928994 0.881782 0.033376
O O15 0.731657 0.229939 0.436611
O O16 0.265856 0.500000 0.500000
#
# Coordination Sequence:
#
# PCOD8164008 Si02
#       8
#     8   8   8   8   8   2   8   8
#     4  11  20  34  52  79 114 155 198 239 281 343
#     4  11  21  36  57  80 113 156 194 231 289 343
#     4   9  18  31  49  74 114 156 195 236 276 327
#     4  11  20  34  52  79 114 155 198 239 281 343
#     4   9  17  30  49  77 113 153 192 225 275 337
#     4   8  20  40  62  84 124 136 204 248 278 360
#     4  11  21  36  57  80 113 156 194 231 289 343
#     4  10  22  40  56  83 112 148 193 244 287 340
#
# _framework density 19.581655999999999
#
# number of rings (size 3 to 8) (size 9 to 14) (size 15 to 20)
#    0.414    1.379    4.138    1.655    0.000    0.552 
#    0.000    4.828    0.000    0.000    0.000    1.931 
#    0.000    2.207    0.000    0.000    0.000    0.000 
#
# Total GULP energy -359517.062243 kJ/mol
# GULP energy per Si atom -12397.140077 kJ/mol
# Density = 1.953709 g / cm^3
# Si number density = 19.581656 Si / 1000 Ang^3
#
#
#
# Elastic Constant Matrix: (Units=GPa)
#
#
# Indices 1 2 3 4 5 6 
#
# 1 71.8509 -1.6494 5.5035 0.0000 0.0000 0.0000
# 2 -1.6494 44.8736 17.7148 0.0000 0.0000 0.0000
# 3 5.5035 17.7148 78.3691 0.0000 0.0000 0.0000
# 4 0.0000 0.0000 0.0000 24.4844 0.0000 0.0000
# 5 0.0000 0.0000 0.0000 0.0000 27.4368 0.0000
# 6 0.0000 0.0000 0.0000 0.0000 0.0000 17.1278
#
#
#
# Elastic Compliance Matrix: (Units=1/GPa)
#
#
# Indices 1 2 3 4 5 6 
#
# 1 0.014033 0.000994 -0.001210 0.000000 0.000000 0.000000
# 2 0.000994 0.024539 -0.005617 0.000000 0.000000 0.000000
# 3 -0.001210 -0.005617 0.014115 0.000000 0.000000 0.000000
# 4 0.000000 0.000000 0.000000 0.040842 0.000000 0.000000
# 5 0.000000 0.000000 0.000000 0.000000 0.036447 0.000000
# 6 0.000000 0.000000 0.000000 0.000000 0.000000 0.058385
#
#
# Mechanical properties :
#
#
# Convention : Reuss Voigt Hill
#
# Bulk Modulus (GPa) = 24.37820 26.47017 25.42419
# Shear Modulus (GPa) = 23.39722 25.37810 24.38766
#
# Velocity S-wave (km/s) = 3.46042 3.60393 3.53290
# Velocity P-wave (km/s) = 5.33315 5.55562 5.44552
#
# Compressibility (1/GPa) = 0.04102025
#
# Stress axis : x y z
#
# Youngs Moduli (GPa) = 71.25957 40.75215 70.84816
#
# Poissons Ratio (x) = -0.04049 0.08573
# Poissons Ratio (y) = -0.07080 0.39792
# Poissons Ratio (z) = 0.08623 0.22889
#
# Static dielectric constant tensor:
#      x y z
#    x 3.593390 0.000000 0.000000 
#    y 0.000000 3.385480 0.000000 
#    z 0.000000 0.000000 3.434430 
# 
# 
# High freq. dielectric constant tensor:
#      x y z
#    x 1.736780 0.000000 0.000000 
#    y 0.000000 1.764460 0.000000 
#    z 0.000000 0.000000 1.737250 
# 
# From -- ./inp_files/29634.got.cif
#   From: 2010.03.12/outbox.cif.g09.slc.cpg/sg23_15_cif.got.tgz:29634.got - 2010.04.14 02:50:06.
