data_PCOD8164567
_publ_section_title
;
Structure prediction by ZEFSAII (Michael W. Deem and Ramdas Pophale) SiO2 
 PCOD8164567
Probable space group: I 2 2 2
;
_chemical_formula_sum "Si O2"
_cell_formula_units_Z 24
_cell_length_a 9.000000
_cell_length_b 30.000000
_cell_length_c 9.000000
_cell_angle_alpha 90.000000
_cell_angle_beta 90.000000
_cell_angle_gamma 90.000000
_cell_volume 2430.000000
_symmetry_space_group_name_H-M "I 2 2 2"
_symmetry_group_IT_number 23
_symmetry_cell_setting 'orthorhombic'
loop_
_space_group_symop_operation_xyz
x,y,z
-x,-y,z
x,-y,-z
-x,y,-z
1/2+x,1/2+y,1/2+z
1/2-x,1/2-y,1/2+z
1/2+x,1/2-y,1/2-z
1/2-x,1/2+y,1/2-z
loop_
_atom_site_type_symbol
_atom_site_label
_atom_site_fract_x
_atom_site_fract_y
_atom_site_fract_z
Si Si1 0.152785 0.087959 0.308162
Si Si2 0.183967 0.922591 0.344525
Si Si3 0.675657 0.994549 0.173361
Si Si4 0.140533 0.336435 0.104404
Si Si5 0.508518 0.771161 0.172416
Si Si6 0.702935 0.308227 0.176436
O O1 0.175348 0.073759 0.478204
O O2 0.258942 0.054389 0.215745
O O3 0.193772 0.139829 0.271007
O O4 0.978376 0.083258 0.270095
O O5 0.289248 0.879818 0.315016
O O6 0.248992 0.967371 0.273188
O O7 0.500000 0.000000 0.202196
O O8 0.713186 0.000000 0.000000
O O9 0.099516 0.303807 0.237456
O O10 0.258292 0.310253 0.999479
O O11 0.000000 0.350280 0.000000
O O12 0.451381 0.719641 0.194677
O O13 0.674485 0.779669 0.233118
O O14 0.500000 0.784468 0.000000
#
# Coordination Sequence:
#
# PCOD8164567 Si02
#       6
#     8   8   8   8   8   8
#     4  10  23  42  65  97 122 165 218 260 309 373
#     4  10  22  40  70  91 124 167 213 260 307 376
#     4  11  26  43  64  94 133 164 201 259 326 385
#     4   9  21  40  62  95 128 168 214 259 309 370
#     4  11  23  38  63  90 127 169 207 263 315 367
#     4  10  23  40  65  91 129 164 214 261 309 372
#
# _framework density 9.8765429999999999
#
# number of rings (size 3 to 8) (size 9 to 14) (size 15 to 20)
#    0.000    1.833    0.000    2.000   14.000    4.667 
#    0.000    0.000    3.667    0.000    0.000    0.000 
#    0.000    0.000    0.000    0.000    0.000    0.000 
#
# Total GULP energy -297490.581771 kJ/mol
# GULP energy per Si atom -12395.440907 kJ/mol
# Density = 0.985406 g / cm^3
# Si number density = 9.876543 Si / 1000 Ang^3
#
#
#
# Elastic Constant Matrix: (Units=GPa)
#
#
# Indices 1 2 3 4 5 6 
#
# 1 129.8061 78.5857 33.5265 0.0006 0.0001 0.0001
# 2 78.5857 183.8182 61.9229 0.0011 0.0001 0.0001
# 3 33.5265 61.9229 90.0120 0.0047 0.0007 0.0004
# 4 0.0006 0.0011 0.0047 34.0999 0.0002 0.0003
# 5 0.0001 0.0001 0.0007 0.0002 29.0387 0.0009
# 6 0.0001 0.0001 0.0004 0.0003 0.0009 54.1250
#
#
#
# Elastic Compliance Matrix: (Units=1/GPa)
#
#
# Indices 1 2 3 4 5 6 
#
# 1 0.010472 -0.004117 -0.001068 0.000000 0.000000 0.000000
# 2 -0.004117 0.008700 -0.004451 0.000000 0.000000 0.000000
# 3 -0.001068 -0.004451 0.014570 -0.000002 0.000000 0.000000
# 4 0.000000 0.000000 -0.000002 0.029326 0.000000 0.000000
# 5 0.000000 0.000000 0.000000 0.000000 0.034437 -0.000001
# 6 0.000000 0.000000 0.000000 0.000000 -0.000001 0.018476
#
#
# Mechanical properties :
#
#
# Convention : Reuss Voigt Hill
#
# Bulk Modulus (GPa) = 69.11680 83.52294 76.31987
# Shear Modulus (GPa) = 35.69468 38.75947 37.22708
#
# Velocity S-wave (km/s) = 4.25554 4.43448 4.34593
# Velocity P-wave (km/s) = 7.69497 8.28219 7.99398
#
# Compressibility (1/GPa) = 0.01446826
#
# Stress axis : x y z
#
# Youngs Moduli (GPa) = 95.48983 114.94316 68.63493
#
# Poissons Ratio (x) = 0.47325 0.07331
# Poissons Ratio (y) = 0.39316 0.30553
# Poissons Ratio (z) = 0.10200 0.51167
#
# Static dielectric constant tensor:
#      x y z
#    x 3.982190 0.000000 0.000000 
#    y 0.000000 3.878970 0.000000 
#    z 0.000000 0.000000 3.608920 
# 
# 
# High freq. dielectric constant tensor:
#      x y z
#    x 1.797390 0.000000 0.000000 
#    y 0.000000 1.798080 0.000000 
#    z 0.000000 0.000000 1.767570 
# 
# From -- ./inp_files/7373.got.cif
#   From: 2010.03.12/outbox.ucp.g09.slc.cvg/sg23_4_cif.got.tgz:7373.got - 2010.05.04 21:03:00.
