data_PCOD8164110
_publ_section_title
;
Structure prediction by ZEFSAII (Michael W. Deem and Ramdas Pophale) SiO2 
 PCOD8164110
Probable space group: I 2 2 2
;
_chemical_formula_sum "Si O2"
_cell_formula_units_Z 64
_cell_length_a 8.557340
_cell_length_b 12.319649
_cell_length_c 30.113306
_cell_angle_alpha 90.000000
_cell_angle_beta 90.000000
_cell_angle_gamma 90.000000
_cell_volume 3174.647862
_symmetry_space_group_name_H-M "I 2 2 2"
_symmetry_group_IT_number 23
_symmetry_cell_setting 'orthorhombic'
loop_
_space_group_symop_operation_xyz
x,y,z
-x,-y,z
x,-y,-z
-x,y,-z
1/2+x,1/2+y,1/2+z
1/2-x,1/2-y,1/2+z
1/2+x,1/2-y,1/2-z
1/2-x,1/2+y,1/2-z
loop_
_atom_site_type_symbol
_atom_site_label
_atom_site_fract_x
_atom_site_fract_y
_atom_site_fract_z
Si Si1 0.397142 0.223974 0.389905
Si Si2 0.840509 0.379037 0.832262
Si Si3 0.398434 0.902015 0.230937
Si Si4 0.837251 0.059608 0.162185
Si Si5 0.141732 0.935264 0.622602
Si Si6 0.629954 0.078520 0.903466
Si Si7 0.939962 0.112462 0.950095
Si Si8 0.455424 0.748120 0.835946
O O1 0.516509 0.146563 0.364450
O O2 0.339453 0.320434 0.358502
O O3 0.252043 0.146829 0.406245
O O4 0.480996 0.278692 0.431835
O O5 0.906552 0.399428 0.783616
O O6 0.753354 0.483761 0.851082
O O7 0.727720 0.275483 0.829297
O O8 0.223843 0.921446 0.212312
O O9 0.475761 0.796227 0.209194
O O10 0.500000 0.000000 0.212565
O O11 0.719749 0.984108 0.135189
O O12 0.000000 0.000000 0.165743
O O13 0.051327 0.862352 0.658248
O O14 0.000000 0.000000 0.596037
O O15 0.752287 0.118138 0.941913
O O16 0.535665 0.177299 0.880358
O O17 0.500000 0.000000 0.925994
O O18 0.000000 0.000000 0.926037
O O19 0.000000 0.105400 0.000000
#
# Coordination Sequence:
#
# PCOD8164110 Si02
#       8
#     8   8   8   8   8   8   8   8
#     4  12  20  41  67  88 124 174 215 253 342 399
#     4  11  26  39  58  87 125 175 226 286 315 368
#     4  12  24  37  55  88 133 165 224 279 327 387
#     4  12  21  35  60  95 126 171 211 262 324 402
#     4  10  23  41  60  89 119 166 228 278 316 370
#     4  12  19  40  67  96 130 168 209 254 330 407
#     4  11  24  42  69 106 141 158 201 266 328 423
#     4  11  21  39  60  87 120 171 220 267 324 383
#
# _framework density 20.159714999999998
#
# number of rings (size 3 to 8) (size 9 to 14) (size 15 to 20)
#    0.000    0.625    7.500    1.125    1.750    2.500 
#    0.000    1.250    0.000    1.500    3.250    0.000 
#    0.000    0.000    0.000    0.000    0.000    0.000 
#
# Total GULP energy -396572.577712 kJ/mol
# GULP energy per Si atom -12392.893054 kJ/mol
# Density = 2.011383 g / cm^3
# Si number density = 20.159715 Si / 1000 Ang^3
#
#
#
# Elastic Constant Matrix: (Units=GPa)
#
#
# Indices 1 2 3 4 5 6 
#
# 1 115.7348 53.8949 37.7397 0.0000 0.0000 0.0000
# 2 53.8949 109.4270 26.9742 0.0000 0.0000 0.0000
# 3 37.7397 26.9742 67.6536 0.0000 0.0000 0.0000
# 4 0.0000 0.0000 0.0000 15.7310 0.0000 0.0000
# 5 0.0000 0.0000 0.0000 0.0000 19.0901 0.0000
# 6 0.0000 0.0000 0.0000 0.0000 0.0000 63.1075
#
#
#
# Elastic Compliance Matrix: (Units=1/GPa)
#
#
# Indices 1 2 3 4 5 6 
#
# 1 0.012596 -0.004959 -0.005049 0.000000 0.000000 0.000000
# 2 -0.004959 0.012087 -0.002053 0.000000 0.000000 0.000000
# 3 -0.005049 -0.002053 0.018416 0.000000 0.000000 0.000000
# 4 0.000000 0.000000 0.000000 0.063569 0.000000 0.000000
# 5 0.000000 0.000000 0.000000 0.000000 0.052383 0.000000
# 6 0.000000 0.000000 0.000000 0.000000 0.000000 0.015846
#
#
# Mechanical properties :
#
#
# Convention : Reuss Voigt Hill
#
# Bulk Modulus (GPa) = 52.69560 58.89257 55.79408
# Shear Modulus (GPa) = 24.34908 31.19947 27.77428
#
# Velocity S-wave (km/s) = 3.47912 3.93824 3.71578
# Velocity P-wave (km/s) = 6.50653 7.06796 6.79305
#
# Compressibility (1/GPa) = 0.01897692
#
# Stress axis : x y z
#
# Youngs Moduli (GPa) = 79.38761 82.73305 54.29941
#
# Poissons Ratio (x) = 0.41030 0.27418
# Poissons Ratio (y) = 0.39371 0.11146
# Poissons Ratio (z) = 0.40086 0.16983
#
# Static dielectric constant tensor:
#      x y z
#    x 4.202300 0.000000 0.000000 
#    y 0.000000 4.243100 0.000000 
#    z 0.000000 0.000000 3.136450 
# 
# 
# High freq. dielectric constant tensor:
#      x y z
#    x 1.813010 0.000000 0.000000 
#    y 0.000000 1.805610 0.000000 
#    z 0.000000 0.000000 1.730080 
# 
# From -- ./inp_files/30337.got.cif
#   From: 2010.03.12/outbox.cif.g09.slc.cpg/sg23_16_cif.got.tgz:30337.got - 2010.04.14 02:50:06.
