data_PCOD8164508
_publ_section_title
;
Structure prediction by ZEFSAII (Michael W. Deem and Ramdas Pophale) SiO2 
 PCOD8164508
Probable space group: I 2 2 2
;
_chemical_formula_sum "Si O2"
_cell_formula_units_Z 34
_cell_length_a 13.821169
_cell_length_b 4.830844
_cell_length_c 25.796910
_cell_angle_alpha 90.000000
_cell_angle_beta 90.000000
_cell_angle_gamma 90.000000
_cell_volume 1722.405800
_symmetry_space_group_name_H-M "I 2 2 2"
_symmetry_group_IT_number 23
_symmetry_cell_setting 'orthorhombic'
loop_
_space_group_symop_operation_xyz
x,y,z
-x,-y,z
x,-y,-z
-x,y,-z
1/2+x,1/2+y,1/2+z
1/2-x,1/2-y,1/2+z
1/2+x,1/2-y,1/2-z
1/2-x,1/2+y,1/2-z
loop_
_atom_site_type_symbol
_atom_site_label
_atom_site_fract_x
_atom_site_fract_y
_atom_site_fract_z
Si Si1 0.500000 0.000000 0.827094
Si Si2 0.207886 0.095572 0.220479
Si Si3 0.500000 0.000000 0.000000
Si Si4 0.836628 0.142982 0.550801
Si Si5 0.500000 0.500000 0.754424
Si Si6 0.813709 0.387660 0.382820
O O1 0.532121 0.251798 0.791055
O O2 0.593956 0.939966 0.861531
O O3 0.240535 0.310718 0.264287
O O4 0.237703 0.181663 0.162374
O O5 0.091705 0.075097 0.218911
O O6 0.437018 0.206103 0.964518
O O7 0.769891 0.390245 0.575279
O O8 0.788227 0.000000 0.500000
O O9 0.850902 0.896638 0.592051
#
# Coordination Sequence:
#
# PCOD8164508 Si02
#       6
#     4   8   2   8   4   8
#     4  12  23  34  59  92 122 166 211 236 305 364
#     4  12  23  43  61  92 126 163 213 256 300 370
#     4  12  24  40  58  84 134 150 218 256 296 384
#     4  12  25  39  55  86 123 169 202 258 304 365
#     4  12  22  42  62  88 126 170 202 260 300 352
#     4  12  24  38  60  87 127 170 206 244 311 372
#
# _framework density 19.739830000000001
#
# number of rings (size 3 to 8) (size 9 to 14) (size 15 to 20)
#    0.000    0.000    7.059    3.882    3.294    0.000 
#    0.000    0.000    0.000    0.000    0.000    4.941 
#    0.000    0.000    0.000    0.000    0.000    0.000 
#
# Total GULP energy -210744.893700 kJ/mol
# GULP energy per Si atom -12396.758453 kJ/mol
# Density = 1.969490 g / cm^3
# Si number density = 19.739830 Si / 1000 Ang^3
#
#
#
# Elastic Constant Matrix: (Units=GPa)
#
#
# Indices 1 2 3 4 5 6 
#
# 1 93.0467 23.8657 45.2323 0.0000 0.0000 0.0000
# 2 23.8657 113.2688 45.6803 0.0000 0.0000 0.0000
# 3 45.2323 45.6803 123.2274 0.0000 0.0000 0.0000
# 4 0.0000 0.0000 0.0000 40.0130 0.0000 0.0000
# 5 0.0000 0.0000 0.0000 0.0000 23.5122 0.0000
# 6 0.0000 0.0000 0.0000 0.0000 0.0000 18.1804
#
#
#
# Elastic Compliance Matrix: (Units=1/GPa)
#
#
# Indices 1 2 3 4 5 6 
#
# 1 0.013172 -0.000971 -0.004475 0.000000 0.000000 0.000000
# 2 -0.000971 0.010452 -0.003518 0.000000 0.000000 0.000000
# 3 -0.004475 -0.003518 0.011062 0.000000 0.000000 0.000000
# 4 0.000000 0.000000 0.000000 0.024992 0.000000 0.000000
# 5 0.000000 0.000000 0.000000 0.000000 0.042531 0.000000
# 6 0.000000 0.000000 0.000000 0.000000 0.000000 0.055004
#
#
# Mechanical properties :
#
#
# Convention : Reuss Voigt Hill
#
# Bulk Modulus (GPa) = 59.67368 62.12216 60.89792
# Shear Modulus (GPa) = 27.66613 30.65876 29.16244
#
# Velocity S-wave (km/s) = 3.74777 3.94527 3.84779
# Velocity P-wave (km/s) = 7.00168 7.23134 7.11744
#
# Compressibility (1/GPa) = 0.01675781
#
# Stress axis : x y z
#
# Youngs Moduli (GPa) = 75.92053 95.67603 90.39999
#
# Poissons Ratio (x) = 0.09285 0.40455
# Poissons Ratio (y) = 0.07368 0.31805
# Poissons Ratio (z) = 0.33975 0.33662
#
# Static dielectric constant tensor:
#      x y z
#    x 3.121860 0.000000 0.000000 
#    y 0.000000 3.892780 0.000000 
#    z 0.000000 0.000000 3.880720 
# 
# 
# High freq. dielectric constant tensor:
#      x y z
#    x 1.703510 0.000000 0.000000 
#    y 0.000000 1.801830 0.000000 
#    z 0.000000 0.000000 1.779570 
# 
# From -- ./inp_files/28466.got.cif
#   From: 2010.03.12/outbox.cif.g09.slc.cpg/sg23_15_cif.got.tgz:28466.got - 2010.04.14 02:50:06.
