data_PCOD8164200
_publ_section_title
;
Structure prediction by ZEFSAII (Michael W. Deem and Ramdas Pophale) SiO2 
 PCOD8164200
Probable space group: I 2 2 2
;
_chemical_formula_sum "Si O2"
_cell_formula_units_Z 64
_cell_length_a 20.757264
_cell_length_b 17.118734
_cell_length_c 9.079977
_cell_angle_alpha 90.000000
_cell_angle_beta 90.000000
_cell_angle_gamma 90.000000
_cell_volume 3226.461603
_symmetry_space_group_name_H-M "I 2 2 2"
_symmetry_group_IT_number 23
_symmetry_cell_setting 'orthorhombic'
loop_
_space_group_symop_operation_xyz
x,y,z
-x,-y,z
x,-y,-z
-x,y,-z
1/2+x,1/2+y,1/2+z
1/2-x,1/2-y,1/2+z
1/2+x,1/2-y,1/2-z
1/2-x,1/2+y,1/2-z
loop_
_atom_site_type_symbol
_atom_site_label
_atom_site_fract_x
_atom_site_fract_y
_atom_site_fract_z
Si Si1 0.252722 0.097813 0.260360
Si Si2 0.757254 0.076727 0.236308
Si Si3 0.232638 0.698335 0.969867
Si Si4 0.392325 0.574643 0.594237
Si Si5 0.321196 0.155030 0.989032
Si Si6 0.630553 0.689957 0.646886
Si Si7 0.929464 0.076334 0.426940
Si Si8 0.928130 0.231767 0.556549
O O1 0.284737 0.147749 0.388814
O O2 0.305503 0.104901 0.132164
O O3 0.181997 0.128058 0.213243
O O4 0.248784 0.007964 0.310312
O O5 0.771441 0.142332 0.358177
O O6 0.815934 0.074967 0.121427
O O7 0.692046 0.099244 0.150253
O O8 0.275978 0.769293 0.024002
O O9 0.166783 0.730652 0.899485
O O10 0.414086 0.500000 0.500000
O O11 0.406338 0.651074 0.493019
O O12 0.431244 0.572724 0.748975
O O13 0.393700 0.187184 0.986884
O O14 0.577410 0.714064 0.768641
O O15 0.894774 0.157027 0.474295
O O16 0.000000 0.079334 0.500000
O O17 0.894232 0.000000 0.500000
O O18 0.000000 0.242573 0.500000
#
# Coordination Sequence:
#
# PCOD8164200 Si02
#       8
#     8   8   8   8   8   8   8   8
#     4  11  22  35  58  92 132 164 206 258 334 394
#     4  12  21  36  57  96 129 168 200 259 332 399
#     4  11  21  34  59  91 130 163 202 261 327 383
#     4  12  22  37  63  91 127 168 209 260 319 380
#     4  11  20  38  59  87 129 165 208 269 314 387
#     4  11  22  38  58  94 128 164 218 264 319 390
#     4  10  24  43  62  87 122 169 224 264 309 372
#     4  11  23  43  64  86 124 171 223 268 312 383
#
# _framework density 19.835972000000002
#
# number of rings (size 3 to 8) (size 9 to 14) (size 15 to 20)
#    0.000    0.875    6.250    3.000    1.750    0.000 
#    0.000    8.750    0.000    1.500    0.000    0.000 
#    3.750    0.000    0.000    0.000    0.000    0.000 
#
# Total GULP energy -396693.258686 kJ/mol
# GULP energy per Si atom -12396.664334 kJ/mol
# Density = 1.979082 g / cm^3
# Si number density = 19.835972 Si / 1000 Ang^3
#
#
#
# Elastic Constant Matrix: (Units=GPa)
#
#
# Indices 1 2 3 4 5 6 
#
# 1 73.6033 26.1194 34.4713 0.0000 0.0000 0.0000
# 2 26.1194 84.4006 34.6606 0.0000 0.0000 0.0000
# 3 34.4713 34.6606 119.5598 0.0000 0.0000 0.0000
# 4 0.0000 0.0000 0.0000 36.5396 0.0000 0.0000
# 5 0.0000 0.0000 0.0000 0.0000 32.6973 0.0000
# 6 0.0000 0.0000 0.0000 0.0000 0.0000 14.3719
#
#
#
# Elastic Compliance Matrix: (Units=1/GPa)
#
#
# Indices 1 2 3 4 5 6 
#
# 1 0.016620 -0.003605 -0.003747 0.000000 0.000000 0.000000
# 2 -0.003605 0.014231 -0.003086 0.000000 0.000000 0.000000
# 3 -0.003747 -0.003086 0.010339 0.000000 0.000000 0.000000
# 4 0.000000 0.000000 0.000000 0.027368 0.000000 0.000000
# 5 0.000000 0.000000 0.000000 0.000000 0.030584 0.000000
# 6 0.000000 0.000000 0.000000 0.000000 0.000000 0.069580
#
#
# Mechanical properties :
#
#
# Convention : Reuss Voigt Hill
#
# Bulk Modulus (GPa) = 49.22560 52.00739 50.61650
# Shear Modulus (GPa) = 25.46219 28.87592 27.16906
#
# Velocity S-wave (km/s) = 3.58667 3.81955 3.70494
# Velocity P-wave (km/s) = 6.48248 6.76222 6.62382
#
# Compressibility (1/GPa) = 0.02031463
#
# Stress axis : x y z
#
# Youngs Moduli (GPa) = 60.16697 70.26773 96.72050
#
# Poissons Ratio (x) = 0.25330 0.36241
# Poissons Ratio (y) = 0.21689 0.29851
# Poissons Ratio (z) = 0.22544 0.21687
#
# Static dielectric constant tensor:
#      x y z
#    x 3.250310 0.000000 0.000000 
#    y 0.000000 4.090610 0.000000 
#    z 0.000000 0.000000 3.855120 
# 
# 
# High freq. dielectric constant tensor:
#      x y z
#    x 1.722960 0.000000 0.000000 
#    y 0.000000 1.776460 0.000000 
#    z 0.000000 0.000000 1.791790 
# 
# From -- ./inp_files/12182.got.cif
#   From: 2010.03.12/outbox.cif.g09.slc.cpg/sg23_7_cif.got.tgz:12182.got - 2010.04.14 02:50:06.
