data_PCOD8164066
_publ_section_title
;
Structure prediction by ZEFSAII (Michael W. Deem and Ramdas Pophale) SiO2 
 PCOD8164066
Probable space group: I 2 2 2
;
_chemical_formula_sum "Si O2"
_cell_formula_units_Z 48
_cell_length_a 13.749660
_cell_length_b 8.861827
_cell_length_c 16.434101
_cell_angle_alpha 90.000000
_cell_angle_beta 90.000000
_cell_angle_gamma 90.000000
_cell_volume 2002.447683
_symmetry_space_group_name_H-M "I 2 2 2"
_symmetry_group_IT_number 23
_symmetry_cell_setting 'orthorhombic'
loop_
_space_group_symop_operation_xyz
x,y,z
-x,-y,z
x,-y,-z
-x,y,-z
1/2+x,1/2+y,1/2+z
1/2-x,1/2-y,1/2+z
1/2+x,1/2-y,1/2-z
1/2-x,1/2+y,1/2-z
loop_
_atom_site_type_symbol
_atom_site_label
_atom_site_fract_x
_atom_site_fract_y
_atom_site_fract_z
Si Si1 0.765432 0.050191 0.409465
Si Si2 0.262557 0.839851 0.820817
Si Si3 0.465234 0.337968 0.699373
Si Si4 0.696569 0.111474 0.075917
Si Si5 0.565172 0.367432 0.122591
Si Si6 0.353732 0.185057 0.351559
O O1 0.835392 0.951350 0.350108
O O2 0.658749 0.990176 0.381000
O O3 0.793678 0.000000 0.500000
O O4 0.788381 0.225186 0.395361
O O5 0.147083 0.822627 0.819179
O O6 0.310314 0.782921 0.737941
O O7 0.303538 0.004721 0.843508
O O8 0.500000 0.500000 0.669311
O O9 0.488348 0.314043 0.795373
O O10 0.531454 0.219415 0.649033
O O11 0.598320 0.217022 0.071783
O O12 0.794192 0.213535 0.082094
O O13 0.701766 0.000000 0.000000
O O14 0.500000 0.500000 0.077400
#
# Coordination Sequence:
#
# PCOD8164066 Si02
#       6
#     8   8   8   8   8   8
#     4  11  24  43  65  97 144 195 227 295 382 447
#     4  12  21  41  71  99 139 190 247 308 368 439
#     4  11  21  39  69 105 132 178 249 310 360 429
#     4  11  23  43  70 105 147 190 240 304 384 456
#     4  10  22  43  71 103 141 182 240 307 375 438
#     4  11  23  42  67 102 138 186 249 300 373 441
#
# _framework density 23.970665
#
# number of rings (size 3 to 8) (size 9 to 14) (size 15 to 20)
#    0.000    1.000    5.000    5.000    0.000    1.000 
#    0.000    9.167    0.000    4.000    0.000    0.000 
#    0.000    0.000    0.000    0.000    0.000    0.000 
#
# Total GULP energy -297316.540327 kJ/mol
# GULP energy per Si atom -12388.189180 kJ/mol
# Density = 2.391611 g / cm^3
# Si number density = 23.970665 Si / 1000 Ang^3
#
#
#
# Elastic Constant Matrix: (Units=GPa)
#
#
# Indices 1 2 3 4 5 6 
#
# 1 95.3013 33.8538 16.4641 0.0000 0.0000 0.0000
# 2 33.8538 121.8516 20.2580 0.0000 0.0000 0.0000
# 3 16.4641 20.2580 53.8185 0.0000 0.0000 0.0000
# 4 0.0000 0.0000 0.0000 40.3890 0.0000 0.0000
# 5 0.0000 0.0000 0.0000 0.0000 20.9036 0.0000
# 6 0.0000 0.0000 0.0000 0.0000 0.0000 53.1417
#
#
#
# Elastic Compliance Matrix: (Units=1/GPa)
#
#
# Indices 1 2 3 4 5 6 
#
# 1 0.011966 -0.002897 -0.002570 0.000000 0.000000 0.000000
# 2 -0.002897 0.009456 -0.002673 0.000000 0.000000 0.000000
# 3 -0.002570 -0.002673 0.020373 0.000000 0.000000 0.000000
# 4 0.000000 0.000000 0.000000 0.024759 0.000000 0.000000
# 5 0.000000 0.000000 0.000000 0.000000 0.047839 0.000000
# 6 0.000000 0.000000 0.000000 0.000000 0.000000 0.018818
#
#
# Mechanical properties :
#
#
# Convention : Reuss Voigt Hill
#
# Bulk Modulus (GPa) = 39.19298 45.79147 42.49223
# Shear Modulus (GPa) = 31.64616 36.24655 33.94636
#
# Velocity S-wave (km/s) = 3.63740 3.89282 3.76728
# Velocity P-wave (km/s) = 5.83325 6.27296 6.05710
#
# Compressibility (1/GPa) = 0.02551477
#
# Stress axis : x y z
#
# Youngs Moduli (GPa) = 83.56845 105.75240 49.08365
#
# Poissons Ratio (x) = 0.30639 0.12615
# Poissons Ratio (y) = 0.24212 0.13120
# Poissons Ratio (z) = 0.21478 0.28268
#
# Static dielectric constant tensor:
#      x y z
#    x 4.404650 0.000000 0.000000 
#    y 0.000000 4.852000 0.000000 
#    z 0.000000 0.000000 3.989450 
# 
# 
# High freq. dielectric constant tensor:
#      x y z
#    x 1.937500 0.000000 0.000000 
#    y 0.000000 1.962920 0.000000 
#    z 0.000000 0.000000 1.930120 
# 
# From -- ./inp_files/24741.got.cif
#   From: 2010.03.12/outbox.cif.g09.slc.cpg/sg23_13_cif.got.tgz:24741.got - 2010.04.14 02:50:06.
