data_PCOD8164007
_publ_section_title
;
Structure prediction by ZEFSAII (Michael W. Deem and Ramdas Pophale) SiO2 
 PCOD8164007
Probable space group: I 2 2 2
;
_chemical_formula_sum "Si O2"
_cell_formula_units_Z 40
_cell_length_a 8.730396
_cell_length_b 12.877374
_cell_length_c 15.970334
_cell_angle_alpha 90.000000
_cell_angle_beta 90.000000
_cell_angle_gamma 90.000000
_cell_volume 1795.458004
_symmetry_space_group_name_H-M "I 2 2 2"
_symmetry_group_IT_number 23
_symmetry_cell_setting 'orthorhombic'
loop_
_space_group_symop_operation_xyz
x,y,z
-x,-y,z
x,-y,-z
-x,y,-z
1/2+x,1/2+y,1/2+z
1/2-x,1/2-y,1/2+z
1/2+x,1/2-y,1/2-z
1/2-x,1/2+y,1/2-z
loop_
_atom_site_type_symbol
_atom_site_label
_atom_site_fract_x
_atom_site_fract_y
_atom_site_fract_z
Si Si1 0.205393 0.846472 0.834627
Si Si2 0.645377 0.889043 0.455012
Si Si3 0.323300 0.803184 0.013165
Si Si4 0.155756 0.444886 0.336674
Si Si5 0.970642 0.684875 0.784465
O O1 0.341905 0.787662 0.784477
O O2 0.040687 0.795259 0.814595
O O3 0.216629 0.968949 0.811211
O O4 0.229156 0.839864 0.933541
O O5 0.500000 0.835714 0.500000
O O6 0.793597 0.818249 0.468977
O O7 0.604339 0.888425 0.356346
O O8 0.674220 0.000000 0.500000
O O9 0.270710 0.870720 0.093017
O O10 0.500000 0.819637 0.000000
O O11 0.000000 0.500000 0.371321
O O12 0.111539 0.379662 0.254520
#
# Coordination Sequence:
#
# PCOD8164007 Si02
#       5
#     8   8   8   8   8
#     4  11  24  39  69  94 137 170 225 270 333 386
#     4  11  26  44  68  90 133 177 222 262 330 399
#     4  12  22  43  68 101 130 171 224 278 324 396
#     4  10  22  39  71  95 132 173 220 269 338 393
#     4  11  23  44  66 101 127 181 222 271 326 402
#
# _framework density 22.278437
#
# number of rings (size 3 to 8) (size 9 to 14) (size 15 to 20)
#    0.000    1.000    6.000    1.800    8.400    0.400 
#    0.000    4.000    4.400    0.000    0.000    0.000 
#    0.000    0.000    0.000    0.000    0.000    0.000 
#
# Total GULP energy -247895.373052 kJ/mol
# GULP energy per Si atom -12394.768653 kJ/mol
# Density = 2.222773 g / cm^3
# Si number density = 22.278437 Si / 1000 Ang^3
#
#
#
# Elastic Constant Matrix: (Units=GPa)
#
#
# Indices 1 2 3 4 5 6 
#
# 1 18.8377 23.9523 -6.3353 0.0000 0.0000 0.0000
# 2 23.9523 118.2810 18.9635 0.0000 0.0000 0.0000
# 3 -6.3353 18.9635 98.5786 0.0000 0.0000 0.0000
# 4 0.0000 0.0000 0.0000 34.1206 0.0000 0.0000
# 5 0.0000 0.0000 0.0000 0.0000 21.2117 0.0000
# 6 0.0000 0.0000 0.0000 0.0000 0.0000 34.7763
#
#
#
# Elastic Compliance Matrix: (Units=1/GPa)
#
#
# Indices 1 2 3 4 5 6 
#
# 1 0.077498 -0.017017 0.008254 0.000000 0.000000 0.000000
# 2 -0.017017 0.012460 -0.003491 0.000000 0.000000 0.000000
# 3 0.008254 -0.003491 0.011346 0.000000 0.000000 0.000000
# 4 0.000000 0.000000 0.000000 0.029308 0.000000 0.000000
# 5 0.000000 0.000000 0.000000 0.000000 0.047144 0.000000
# 6 0.000000 0.000000 0.000000 0.000000 0.000000 0.028755
#
#
# Mechanical properties :
#
#
# Convention : Reuss Voigt Hill
#
# Bulk Modulus (GPa) = 13.02124 34.31759 23.66941
# Shear Modulus (GPa) = 19.48425 31.29616 25.39021
#
# Velocity S-wave (km/s) = 2.96054 3.75210 3.37957
# Velocity P-wave (km/s) = 4.18854 5.84879 5.08686
#
# Compressibility (1/GPa) = 0.07679759
#
# Stress axis : x y z
#
# Youngs Moduli (GPa) = 12.90351 80.25628 88.13568
#
# Poissons Ratio (x) = 1.36572 -0.72748
# Poissons Ratio (y) = 0.21958 0.30764
# Poissons Ratio (z) = -0.10651 0.28014
#
# Static dielectric constant tensor:
#      x y z
#    x 3.915890 0.000000 0.000000 
#    y 0.000000 4.105230 0.000000 
#    z 0.000000 0.000000 4.288080 
# 
# 
# High freq. dielectric constant tensor:
#      x y z
#    x 1.847520 0.000000 0.000000 
#    y 0.000000 1.876610 0.000000 
#    z 0.000000 0.000000 1.891290 
# 
# From -- ./inp_files/8223.got.cif
#   From: 2010.03.12/outbox.cif.g09.slc.cpg/sg23_5_cif.got.tgz:8223.got - 2010.04.14 02:50:06.
