data_PCOD8164933
_publ_section_title
;
Structure prediction by ZEFSAII (Michael W. Deem and Ramdas Pophale) SiO2 
 PCOD8164933
Probable space group: I 21 21 21
;
_chemical_formula_sum "Si O2"
_cell_formula_units_Z 44
_cell_length_a 7.107861
_cell_length_b 20.963059
_cell_length_c 16.170039
_cell_angle_alpha 90.000000
_cell_angle_beta 90.000000
_cell_angle_gamma 90.000000
_cell_volume 2409.376390
_symmetry_space_group_name_H-M "I 21 21 21"
_symmetry_group_IT_number 24
_symmetry_cell_setting 'orthorhombic'
loop_
_space_group_symop_operation_xyz
x,y,z
-x,1/2-y,z
x,-y,1/2-z
1/2-x,y,-z
1/2+x,1/2+y,1/2+z
1/2-x,-y,1/2+z
1/2+x,1/2-y,-z
-x,1/2+y,1/2-z
loop_
_atom_site_type_symbol
_atom_site_label
_atom_site_fract_x
_atom_site_fract_y
_atom_site_fract_z
Si Si1 0.755792 0.049628 0.593633
Si Si2 0.706207 0.770477 0.408468
Si Si3 0.246990 0.591246 0.646788
Si Si4 0.564316 0.429382 0.276912
Si Si5 0.500000 0.250000 0.775562
Si Si6 0.520813 0.614859 0.785157
O O1 0.750000 0.074201 0.500000
O O2 0.571971 0.079205 0.637155
O O3 0.946864 0.072896 0.637751
O O4 0.756311 0.972691 0.593097
O O5 0.500000 0.750000 0.383543
O O6 0.750000 0.743319 0.500000
O O7 0.747415 0.846479 0.410672
O O8 0.827079 0.736402 0.337422
O O9 0.437011 0.584783 0.701145
O O10 0.066013 0.600027 0.705649
O O11 0.621902 0.500000 0.250000
O O12 0.754455 0.390108 0.289095
O O13 0.467773 0.310156 0.715511
#
# Coordination Sequence:
#
# PCOD8164933 Si02
#       6
#     8   8   8   8   4   8
#     4  10  20  34  53  78 108 135 176 230 283 314
#     4  11  20  33  51  77 117 147 173 213 256 314
#     4   9  19  33  53  78 104 145 178 215 262 325
#     4   9  17  32  54  78 103 135 176 217 262 319
#     4  10  22  36  54  78 102 146 186 212 266 334
#     4  10  19  35  56  74 103 138 185 221 265 325
#
# _framework density 18.261987999999999
#
# number of rings (size 3 to 8) (size 9 to 14) (size 15 to 20)
#    0.000    2.182    0.909    4.364    0.000    0.727 
#    0.000    0.000    4.000    0.000    0.000    0.000 
#    0.000    0.000    0.000    0.000    0.000    0.000 
#
# Total GULP energy -272758.436834 kJ/mol
# GULP energy per Si atom -12398.110765 kJ/mol
# Density = 1.822042 g / cm^3
# Si number density = 18.261988 Si / 1000 Ang^3
#
#
#
# Elastic Constant Matrix: (Units=GPa)
#
#
# Indices 1 2 3 4 5 6 
#
# 1 120.8233 11.4930 30.7571 0.0000 0.0000 0.0000
# 2 11.4930 48.0576 18.7511 0.0000 0.0000 0.0000
# 3 30.7571 18.7511 87.5141 -0.0001 0.0000 0.0000
# 4 0.0000 0.0000 -0.0001 3.3116 0.0000 0.0000
# 5 0.0000 0.0000 0.0000 0.0000 10.2640 0.0000
# 6 0.0000 0.0000 0.0000 0.0000 0.0000 19.8568
#
#
#
# Elastic Compliance Matrix: (Units=1/GPa)
#
#
# Indices 1 2 3 4 5 6 
#
# 1 0.009135 -0.001017 -0.002993 0.000000 0.000000 0.000000
# 2 -0.001017 0.022820 -0.004532 0.000000 0.000000 0.000000
# 3 -0.002993 -0.004532 0.013450 0.000000 0.000000 0.000000
# 4 0.000000 0.000000 0.000000 0.301967 -0.000001 0.000000
# 5 0.000000 0.000000 0.000000 -0.000001 0.097428 0.000000
# 6 0.000000 0.000000 0.000000 0.000000 0.000000 0.050361
#
#
# Mechanical properties :
#
#
# Convention : Reuss Voigt Hill
#
# Bulk Modulus (GPa) = 35.30927 42.04415 38.67671
# Shear Modulus (GPa) = 9.58435 19.71272 14.64854
#
# Velocity S-wave (km/s) = 2.29339 3.28905 2.83527
# Velocity P-wave (km/s) = 5.13709 6.12344 5.65182
#
# Compressibility (1/GPa) = 0.02832118
#
# Stress axis : x y z
#
# Youngs Moduli (GPa) = 109.46778 43.82136 74.35178
#
# Poissons Ratio (x) = 0.04457 0.22251
# Poissons Ratio (y) = 0.11133 0.33697
# Poissons Ratio (z) = 0.32760 0.19860
#
# Static dielectric constant tensor:
#      x y z
#    x 3.398280 0.000000 0.000000 
#    y 0.000000 3.276250 0.000000 
#    z 0.000000 0.000000 3.140380 
# 
# 
# High freq. dielectric constant tensor:
#      x y z
#    x 1.714430 0.000000 0.000000 
#    y 0.000000 1.701570 0.000000 
#    z 0.000000 0.000000 1.688050 
# 
# From -- ./inp_files/6370.got.cif
#   From: 2010.03.12/outbox.cif.g09.slc.cpg/sg24_4_cif.got.tgz:6370.got - 2010.04.14 03:06:53.
