data_PCOD8164874
_publ_section_title
;
Structure prediction by ZEFSAII (Michael W. Deem and Ramdas Pophale) SiO2 
 PCOD8164874
Probable space group: I 21 21 21
;
_chemical_formula_sum "Si O2"
_cell_formula_units_Z 60
_cell_length_a 5.073993
_cell_length_b 19.513711
_cell_length_c 29.546628
_cell_angle_alpha 90.000000
_cell_angle_beta 90.000000
_cell_angle_gamma 90.000000
_cell_volume 2925.483526
_symmetry_space_group_name_H-M "I 21 21 21"
_symmetry_group_IT_number 24
_symmetry_cell_setting 'orthorhombic'
loop_
_space_group_symop_operation_xyz
x,y,z
-x,1/2-y,z
x,-y,1/2-z
1/2-x,y,-z
1/2+x,1/2+y,1/2+z
1/2-x,-y,1/2+z
1/2+x,1/2-y,-z
-x,1/2+y,1/2-z
loop_
_atom_site_type_symbol
_atom_site_label
_atom_site_fract_x
_atom_site_fract_y
_atom_site_fract_z
Si Si1 0.000000 0.250000 0.265504
Si Si2 0.722748 0.051676 0.451582
Si Si3 0.786354 0.395084 0.107751
Si Si4 0.305587 0.604262 0.450628
Si Si5 0.125653 0.816767 0.692419
Si Si6 0.439727 0.576483 0.242207
Si Si7 0.450569 0.884848 0.807891
Si Si8 0.231697 0.051180 0.396972
O O1 0.779980 0.283354 0.234142
O O2 0.088842 0.310680 0.299453
O O3 0.750000 0.090395 0.500000
O O4 0.507346 0.083644 0.416342
O O5 0.022603 0.049320 0.436669
O O6 0.617763 0.974626 0.459453
O O7 0.558749 0.363899 0.075078
O O8 0.805180 0.353266 0.154718
O O9 0.724073 0.474005 0.121638
O O10 0.061209 0.386064 0.082660
O O11 0.250000 0.638841 0.500000
O O12 0.922118 0.874648 0.712744
O O13 0.000000 0.750000 0.668354
O O14 0.544963 0.500000 0.250000
O O15 0.657001 0.611556 0.211028
O O16 0.158799 0.565394 0.217184
O O17 0.412063 0.901036 0.860354
#
# Coordination Sequence:
#
# PCOD8164874 Si02
#       8
#     4   8   8   8   8   8   8   8
#     4  10  24  42  58  80 112 160 204 234 294 348
#     4   9  17  31  53  82 120 149 177 222 289 354
#     4  10  21  32  58  84 112 145 192 242 289 344
#     4   9  18  34  54  83 114 147 182 232 298 355
#     4  11  23  40  58  82 113 154 203 243 287 355
#     4  11  23  38  59  83 113 151 193 250 310 346
#     4  11  22  38  58  81 117 151 195 244 288 355
#     4  10  19  33  52  87 115 146 185 236 287 337
#
# _framework density 20.509429999999998
#
# number of rings (size 3 to 8) (size 9 to 14) (size 15 to 20)
#    0.000    1.867    1.333    2.800    1.867    6.400 
#    0.000    0.000    0.000    1.600    0.000    1.867 
#    0.000    0.000    0.000    0.000    0.000    0.000 
#
# Total GULP energy -371651.038213 kJ/mol
# GULP energy per Si atom -12388.367940 kJ/mol
# Density = 2.046275 g / cm^3
# Si number density = 20.509430 Si / 1000 Ang^3
#
#
#
# Elastic Constant Matrix: (Units=GPa)
#
#
# Indices 1 2 3 4 5 6 
#
# 1 95.7910 13.1247 26.9276 0.0000 0.0000 0.0000
# 2 13.1247 78.1378 49.2487 0.0000 0.0000 0.0000
# 3 26.9276 49.2487 112.0425 0.0000 0.0000 0.0000
# 4 0.0000 0.0000 0.0000 12.3743 0.0000 0.0000
# 5 0.0000 0.0000 0.0000 0.0000 35.0861 0.0000
# 6 0.0000 0.0000 0.0000 0.0000 0.0000 19.3434
#
#
#
# Elastic Compliance Matrix: (Units=1/GPa)
#
#
# Indices 1 2 3 4 5 6 
#
# 1 0.011199 -0.000255 -0.002579 0.000000 0.000000 0.000000
# 2 -0.000255 0.017708 -0.007722 0.000000 0.000000 0.000000
# 3 -0.002579 -0.007722 0.012939 0.000000 0.000000 0.000000
# 4 0.000000 0.000000 0.000000 0.080813 0.000000 0.000000
# 5 0.000000 0.000000 0.000000 0.000000 0.028501 0.000000
# 6 0.000000 0.000000 0.000000 0.000000 0.000000 0.051697
#
#
# Mechanical properties :
#
#
# Convention : Reuss Voigt Hill
#
# Bulk Modulus (GPa) = 48.23265 51.61928 49.92597
# Shear Modulus (GPa) = 21.65598 26.47212 24.06405
#
# Velocity S-wave (km/s) = 3.25299 3.59657 3.42909
# Velocity P-wave (km/s) = 6.13821 6.51692 6.33040
#
# Compressibility (1/GPa) = 0.02073284
#
# Stress axis : x y z
#
# Youngs Moduli (GPa) = 89.29000 56.47179 77.28334
#
# Poissons Ratio (x) = 0.01443 0.19934
# Poissons Ratio (y) = 0.02281 0.59680
# Poissons Ratio (z) = 0.23031 0.43609
#
# Static dielectric constant tensor:
#      x y z
#    x 3.664490 0.000000 0.000000 
#    y 0.000000 4.214570 0.000000 
#    z 0.000000 0.000000 3.809720 
# 
# 
# High freq. dielectric constant tensor:
#      x y z
#    x 1.810860 0.000000 0.000000 
#    y 0.000000 1.757000 0.000000 
#    z 0.000000 0.000000 1.801550 
# 
# From -- ./inp_files/36581.got.cif
#   From: 2010.03.12/outbox.cif.g09.slc.cpg/sg24_19_cif.got.tgz:36581.got - 2010.04.14 03:06:53.
