data_PCOD8164233
_publ_section_title
;
Structure prediction by ZEFSAII (Michael W. Deem and Ramdas Pophale) SiO2 
 PCOD8164233
Probable space group: I 2 2 2
;
_chemical_formula_sum "Si O2"
_cell_formula_units_Z 32
_cell_length_a 8.876992
_cell_length_b 8.333882
_cell_length_c 18.947516
_cell_angle_alpha 90.000000
_cell_angle_beta 90.000000
_cell_angle_gamma 90.000000
_cell_volume 1401.733517
_symmetry_space_group_name_H-M "I 2 2 2"
_symmetry_group_IT_number 23
_symmetry_cell_setting 'orthorhombic'
loop_
_space_group_symop_operation_xyz
x,y,z
-x,-y,z
x,-y,-z
-x,y,-z
1/2+x,1/2+y,1/2+z
1/2-x,1/2-y,1/2+z
1/2+x,1/2-y,1/2-z
1/2-x,1/2+y,1/2-z
loop_
_atom_site_type_symbol
_atom_site_label
_atom_site_fract_x
_atom_site_fract_y
_atom_site_fract_z
Si Si1 0.288651 0.682940 0.662273
Si Si2 0.015360 0.181538 0.704445
Si Si3 0.849223 0.602345 0.589479
Si Si4 0.827444 0.319574 0.017531
O O1 0.426518 0.688537 0.715695
O O2 0.277639 0.510332 0.624329
O O3 0.309703 0.814247 0.601612
O O4 0.140559 0.722685 0.707291
O O5 0.123299 0.261881 0.647320
O O6 0.000000 0.000000 0.679008
O O7 0.782702 0.687861 0.519224
O O8 0.000000 0.500000 0.570758
O O9 0.778483 0.500000 0.000000
O O10 0.000000 0.281195 0.000000
#
# Coordination Sequence:
#
# PCOD8164233 Si02
#       4
#     8   8   8   8
#     4  11  25  43  70 104 134 185 222 284 344 407
#     4  11  24  43  68 102 139 181 227 279 343 409
#     4  10  24  46  71 102 137 181 233 287 344 412
#     4  11  26  46  72 103 140 182 233 290 348 411
#
# _framework density 22.828873000000002
#
# number of rings (size 3 to 8) (size 9 to 14) (size 15 to 20)
#    0.000    1.250    0.000    3.750    7.000    8.000 
#    9.000    6.250    0.000    0.000    0.000    0.000 
#    0.000    0.000    0.000    0.000    0.000    0.000 
#
# Total GULP energy -198453.700693 kJ/mol
# GULP energy per Si atom -12403.356293 kJ/mol
# Density = 2.277691 g / cm^3
# Si number density = 22.828873 Si / 1000 Ang^3
#
#
#
# Elastic Constant Matrix: (Units=GPa)
#
#
# Indices 1 2 3 4 5 6 
#
# 1 94.8999 32.8343 62.0083 0.0000 0.0000 0.0000
# 2 32.8343 130.5335 54.4778 0.0000 0.0000 0.0000
# 3 62.0083 54.4778 160.9960 0.0000 0.0000 0.0000
# 4 0.0000 0.0000 0.0000 31.4355 0.0000 0.0000
# 5 0.0000 0.0000 0.0000 0.0000 29.9003 0.0000
# 6 0.0000 0.0000 0.0000 0.0000 0.0000 34.4611
#
#
#
# Elastic Compliance Matrix: (Units=1/GPa)
#
#
# Indices 1 2 3 4 5 6 
#
# 1 0.014334 -0.001515 -0.005008 0.000000 0.000000 0.000000
# 2 -0.001515 0.009081 -0.002489 0.000000 0.000000 0.000000
# 3 -0.005008 -0.002489 0.008982 0.000000 0.000000 0.000000
# 4 0.000000 0.000000 0.000000 0.031811 0.000000 0.000000
# 5 0.000000 0.000000 0.000000 0.000000 0.033444 0.000000
# 6 0.000000 0.000000 0.000000 0.000000 0.000000 0.029018
#
#
# Mechanical properties :
#
#
# Convention : Reuss Voigt Hill
#
# Bulk Modulus (GPa) = 69.57881 76.11892 72.84887
# Shear Modulus (GPa) = 33.44770 34.96665 34.20717
#
# Velocity S-wave (km/s) = 3.83188 3.91792 3.87514
# Velocity P-wave (km/s) = 7.07971 7.34047 7.21127
#
# Compressibility (1/GPa) = 0.01437219
#
# Stress axis : x y z
#
# Youngs Moduli (GPa) = 69.76408 110.12133 111.32820
#
# Poissons Ratio (x) = 0.16689 0.55753
# Poissons Ratio (y) = 0.10573 0.27711
# Poissons Ratio (z) = 0.34938 0.27410
#
# Static dielectric constant tensor:
#      x y z
#    x 4.066700 0.000000 0.000000 
#    y 0.000000 4.251840 0.000000 
#    z 0.000000 0.000000 4.121160 
# 
# 
# High freq. dielectric constant tensor:
#      x y z
#    x 1.898200 0.000000 0.000000 
#    y 0.000000 1.913400 0.000000 
#    z 0.000000 0.000000 1.916080 
# 
# From -- ./inp_files/25932.got.cif
#   From: 2010.03.12/outbox.cif.g09.slc.cpg/sg23_13_cif.got.tgz:25932.got - 2010.04.14 02:50:06.
