data_PCOD8164475
_publ_section_title
;
Structure prediction by ZEFSAII (Michael W. Deem and Ramdas Pophale) SiO2 
 PCOD8164475
Probable space group: I 2 2 2
;
_chemical_formula_sum "Si O2"
_cell_formula_units_Z 40
_cell_length_a 22.441882
_cell_length_b 7.663971
_cell_length_c 9.144733
_cell_angle_alpha 90.000000
_cell_angle_beta 90.000000
_cell_angle_gamma 90.000000
_cell_volume 1572.838593
_symmetry_space_group_name_H-M "I 2 2 2"
_symmetry_group_IT_number 23
_symmetry_cell_setting 'orthorhombic'
loop_
_space_group_symop_operation_xyz
x,y,z
-x,-y,z
x,-y,-z
-x,y,-z
1/2+x,1/2+y,1/2+z
1/2-x,1/2-y,1/2+z
1/2+x,1/2-y,1/2-z
1/2-x,1/2+y,1/2-z
loop_
_atom_site_type_symbol
_atom_site_label
_atom_site_fract_x
_atom_site_fract_y
_atom_site_fract_z
Si Si1 0.864105 0.607356 0.355505
Si Si2 0.817651 0.197220 0.137599
Si Si3 0.977653 0.198010 0.652279
Si Si4 0.564726 0.877622 0.362916
Si Si5 0.723545 0.678726 0.675487
O O1 0.845398 0.500000 0.500000
O O2 0.904838 0.478824 0.265958
O O3 0.804235 0.667337 0.274647
O O4 0.906087 0.781627 0.365084
O O5 0.886706 0.228984 0.094791
O O6 0.792333 0.327314 0.265249
O O7 0.812063 0.000538 0.195645
O O8 0.777485 0.233293 0.993867
O O9 0.003326 0.297920 0.797276
O O10 0.000000 0.282145 0.500000
O O11 0.000000 0.000000 0.665275
O O12 0.549906 0.000000 0.500000
#
# Coordination Sequence:
#
# PCOD8164475 Si02
#       5
#     8   8   8   8   8
#     4  12  25  45  72 106 146 193 247 300 367 439
#     4  11  26  47  71 107 146 194 247 302 371 437
#     4  11  25  46  74 108 150 197 248 300 367 444
#     4  12  25  47  74 106 147 193 245 308 368 434
#     4  11  26  46  74 104 149 194 246 304 367 445
#
# _framework density 25.431725
#
# number of rings (size 3 to 8) (size 9 to 14) (size 15 to 20)
#    0.000    0.600    4.000    3.000    5.600    1.600 
#    0.000    1.000    0.000    0.000    0.000    0.000 
#    0.000    0.000    0.000    0.000    0.000    0.000 
#
# Total GULP energy -247897.570842 kJ/mol
# GULP energy per Si atom -12394.878542 kJ/mol
# Density = 2.537384 g / cm^3
# Si number density = 25.431725 Si / 1000 Ang^3
#
#
#
# Elastic Constant Matrix: (Units=GPa)
#
#
# Indices 1 2 3 4 5 6 
#
# 1 95.9362 5.9763 16.5706 0.0000 0.0000 0.0000
# 2 5.9763 98.2667 43.6712 0.0000 0.0000 0.0000
# 3 16.5706 43.6712 147.9703 0.0000 0.0000 0.0000
# 4 0.0000 0.0000 0.0000 48.0575 0.0000 0.0000
# 5 0.0000 0.0000 0.0000 0.0000 38.1647 0.0000
# 6 0.0000 0.0000 0.0000 0.0000 0.0000 27.7206
#
#
#
# Elastic Compliance Matrix: (Units=1/GPa)
#
#
# Indices 1 2 3 4 5 6 
#
# 1 0.010631 -0.000135 -0.001151 0.000000 0.000000 0.000000
# 2 -0.000135 0.011714 -0.003442 0.000000 0.000000 0.000000
# 3 -0.001151 -0.003442 0.007903 0.000000 0.000000 0.000000
# 4 0.000000 0.000000 0.000000 0.020808 0.000000 0.000000
# 5 0.000000 0.000000 0.000000 0.000000 0.026202 0.000000
# 6 0.000000 0.000000 0.000000 0.000000 0.000000 0.036074
#
#
# Mechanical properties :
#
#
# Convention : Reuss Voigt Hill
#
# Bulk Modulus (GPa) = 48.09528 52.73437 50.41483
# Shear Modulus (GPa) = 38.54469 41.18555 39.86512
#
# Velocity S-wave (km/s) = 3.89731 4.02861 3.96351
# Velocity P-wave (km/s) = 6.26136 6.51309 6.38846
#
# Compressibility (1/GPa) = 0.02079206
#
# Stress axis : x y z
#
# Youngs Moduli (GPa) = 94.06669 85.36527 126.53635
#
# Poissons Ratio (x) = 0.01154 0.14559
# Poissons Ratio (y) = 0.01272 0.43556
# Poissons Ratio (z) = 0.10823 0.29384
#
# Static dielectric constant tensor:
#      x y z
#    x 5.801310 0.000000 0.000000 
#    y 0.000000 5.231620 0.000000 
#    z 0.000000 0.000000 4.853280 
# 
# 
# High freq. dielectric constant tensor:
#      x y z
#    x 2.031600 0.000000 0.000000 
#    y 0.000000 2.017300 0.000000 
#    z 0.000000 0.000000 2.023210 
# 
# From -- ./inp_files/12419.got.cif
#   From: 2010.03.12/outbox.cif.g09.slc.cpg/sg23_7_cif.got.tgz:12419.got - 2010.04.14 02:50:06.
