data_PCOD8164676
_publ_section_title
;
Structure prediction by ZEFSAII (Michael W. Deem and Ramdas Pophale) SiO2 
 PCOD8164676
Probable space group: I 21 21 21
;
_chemical_formula_sum "Si O2"
_cell_formula_units_Z 64
_cell_length_a 26.384913
_cell_length_b 14.607036
_cell_length_c 10.160228
_cell_angle_alpha 90.000000
_cell_angle_beta 90.000000
_cell_angle_gamma 90.000000
_cell_volume 3915.806473
_symmetry_space_group_name_H-M "I 21 21 21"
_symmetry_group_IT_number 24
_symmetry_cell_setting 'orthorhombic'
loop_
_space_group_symop_operation_xyz
x,y,z
-x,1/2-y,z
x,-y,1/2-z
1/2-x,y,-z
1/2+x,1/2+y,1/2+z
1/2-x,-y,1/2+z
1/2+x,1/2-y,-z
-x,1/2+y,1/2-z
loop_
_atom_site_type_symbol
_atom_site_label
_atom_site_fract_x
_atom_site_fract_y
_atom_site_fract_z
Si Si1 0.077209 0.499258 0.604058
Si Si2 0.359669 0.660217 0.481587
Si Si3 0.818031 0.108728 0.253238
Si Si4 0.538676 0.507664 0.394978
Si Si5 0.701183 0.107933 0.264789
Si Si6 0.127756 0.331629 0.508696
Si Si7 0.549988 0.304648 0.407748
Si Si8 0.946973 0.704259 0.591990
O O1 0.101979 0.500000 0.750000
O O2 0.108552 0.567167 0.513437
O O3 0.080954 0.399363 0.541030
O O4 0.020327 0.532597 0.616099
O O5 0.329843 0.661704 0.618195
O O6 0.319119 0.660861 0.363569
O O7 0.398669 0.743465 0.465637
O O8 0.759963 0.129260 0.286278
O O9 0.853331 0.156776 0.360959
O O10 0.828596 0.000000 0.250000
O O11 0.562619 0.500000 0.250000
O O12 0.547380 0.409439 0.463616
O O13 0.560283 0.599727 0.463955
O O14 0.673786 0.147172 0.393366
O O15 0.692788 0.000000 0.250000
O O16 0.102194 0.232736 0.528851
O O17 0.500000 0.250000 0.456135
O O18 0.553577 0.297686 0.250250
O O19 0.000000 0.750000 0.544002
#
# Coordination Sequence:
#
# PCOD8164676 Si02
#       8
#     8   8   8   8   8   8   8   8
#     4  11  16  27  50  77 101 131 168 204 245 292
#     4  12  19  33  51  74 105 140 166 202 254 303
#     4  11  24  34  47  75 107 135 169 212 253 305
#     4   9  18  28  47  80 108 127 170 217 241 282
#     4  11  20  34  53  73  99 135 175 210 249 301
#     4  12  19  33  51  74 105 140 166 202 254 303
#     4  10  18  29  51  79 103 132 171 208 247 297
#     4  10  18  29  51  79 103 132 171 208 247 297
#
# _framework density 16.344014000000001
#
# number of rings (size 3 to 8) (size 9 to 14) (size 15 to 20)
#    0.000    1.250    7.500    0.750    0.000    2.000 
#    0.000    0.625    0.000    0.750    0.000    5.250 
#    0.000    0.000    0.000    0.000    0.000    0.000 
#
# Total GULP energy -396616.261661 kJ/mol
# GULP energy per Si atom -12394.258177 kJ/mol
# Density = 1.630681 g / cm^3
# Si number density = 16.344014 Si / 1000 Ang^3
#
#
#
# Elastic Constant Matrix: (Units=GPa)
#
#
# Indices 1 2 3 4 5 6 
#
# 1 69.9623 39.7418 16.0286 0.0000 0.0000 0.0000
# 2 39.7418 108.4868 14.9879 0.0000 0.0000 0.0000
# 3 16.0286 14.9879 59.7773 0.0000 0.0000 0.0000
# 4 0.0000 0.0000 0.0000 15.5946 0.0000 0.0000
# 5 0.0000 0.0000 0.0000 0.0000 20.1003 0.0000
# 6 0.0000 0.0000 0.0000 0.0000 0.0000 26.3002
#
#
#
# Elastic Compliance Matrix: (Units=1/GPa)
#
#
# Indices 1 2 3 4 5 6 
#
# 1 0.018699 -0.006378 -0.003415 0.000000 0.000000 0.000000
# 2 -0.006378 0.011724 -0.001229 0.000000 0.000000 0.000000
# 3 -0.003415 -0.001229 0.017953 0.000000 0.000000 0.000000
# 4 0.000000 0.000000 0.000000 0.064125 0.000000 0.000000
# 5 0.000000 0.000000 0.000000 0.000000 0.049750 0.000000
# 6 0.000000 0.000000 0.000000 0.000000 0.000000 0.038023
#
#
# Mechanical properties :
#
#
# Convention : Reuss Voigt Hill
#
# Bulk Modulus (GPa) = 37.97789 42.19367 40.08578
# Shear Modulus (GPa) = 21.63616 23.56355 22.59985
#
# Velocity S-wave (km/s) = 3.64235 3.80112 3.72258
# Velocity P-wave (km/s) = 6.40125 6.71839 6.56173
#
# Compressibility (1/GPa) = 0.02633111
#
# Stress axis : x y z
#
# Youngs Moduli (GPa) = 53.47931 85.29473 55.70224
#
# Poissons Ratio (x) = 0.54402 0.19021
# Poissons Ratio (y) = 0.34110 0.06848
# Poissons Ratio (z) = 0.18262 0.10486
#
# Static dielectric constant tensor:
#      x y z
#    x 3.033740 0.000000 0.000000 
#    y 0.000000 3.107800 0.000000 
#    z 0.000000 0.000000 2.788750 
# 
# 
# High freq. dielectric constant tensor:
#      x y z
#    x 1.626440 0.000000 0.000000 
#    y 0.000000 1.615710 0.000000 
#    z 0.000000 0.000000 1.596560 
# 
# From -- ./inp_files/13459.got.cif
#   From: 2010.03.12/outbox.cif.g09.slc.cpg/sg24_7_cif.got.tgz:13459.got - 2010.04.14 03:06:53.
