data_PCOD8164839
_publ_section_title
;
Structure prediction by ZEFSAII (Michael W. Deem and Ramdas Pophale) SiO2 
 PCOD8164839
Probable space group: I 21 21 21
;
_chemical_formula_sum "Si O2"
_cell_formula_units_Z 64
_cell_length_a 12.286413
_cell_length_b 18.145902
_cell_length_c 14.677395
_cell_angle_alpha 90.000000
_cell_angle_beta 90.000000
_cell_angle_gamma 90.000000
_cell_volume 3272.296539
_symmetry_space_group_name_H-M "I 21 21 21"
_symmetry_group_IT_number 24
_symmetry_cell_setting 'orthorhombic'
loop_
_space_group_symop_operation_xyz
x,y,z
-x,1/2-y,z
x,-y,1/2-z
1/2-x,y,-z
1/2+x,1/2+y,1/2+z
1/2-x,-y,1/2+z
1/2+x,1/2-y,-z
-x,1/2+y,1/2-z
loop_
_atom_site_type_symbol
_atom_site_label
_atom_site_fract_x
_atom_site_fract_y
_atom_site_fract_z
Si Si1 0.895646 0.339599 0.180335
Si Si2 0.047932 0.979208 0.651966
Si Si3 0.587855 0.121055 0.932010
Si Si4 0.281642 0.969679 0.597021
Si Si5 0.002721 0.034509 0.463611
Si Si6 0.777071 0.808395 0.287090
Si Si7 0.953863 0.173645 0.353656
Si Si8 0.940461 0.827007 0.624792
O O1 0.825503 0.412674 0.170768
O O2 0.813787 0.271572 0.177888
O O3 0.979656 0.332936 0.096373
O O4 0.964603 0.346561 0.272338
O O5 0.174643 0.002191 0.644660
O O6 0.028919 0.891454 0.641633
O O7 0.999710 0.000000 0.750000
O O8 0.990389 0.027452 0.573131
O O9 0.682563 0.131348 0.859228
O O10 0.563423 0.034148 0.923508
O O11 0.622307 0.150038 0.031725
O O12 0.250000 0.931028 0.500000
O O13 0.371843 0.031632 0.572120
O O14 0.951609 0.111617 0.431469
O O15 0.830337 0.820578 0.186824
O O16 0.646005 0.817443 0.291391
O O17 0.000000 0.250000 0.396690
O O18 0.000000 0.750000 0.612655
#
# Coordination Sequence:
#
# PCOD8164839 Si02
#       8
#     8   8   8   8   8   8   8   8
#     4   9  17  29  50  82 116 140 180 230 288 331
#     4  10  22  38  54  80 113 146 186 231 275 335
#     4   9  18  30  51  82 112 144 182 233 293 345
#     4   9  18  31  53  84 112 143 177 223 286 347
#     4   9  19  36  56  83 110 141 184 230 288 342
#     4  10  19  31  49  80 113 149 192 231 276 339
#     4   9  19  35  55  83 110 140 187 247 285 320
#     4  11  21  35  53  75 113 156 191 227 283 348
#
# _framework density 19.558129000000001
#
# number of rings (size 3 to 8) (size 9 to 14) (size 15 to 20)
#    0.000    2.500    0.000    3.750    1.750    5.000 
#    2.250    0.625    0.000    0.000    0.000    0.000 
#    0.000    0.000    0.000    0.000    0.000    0.000 
#
# Total GULP energy -396530.913108 kJ/mol
# GULP energy per Si atom -12391.591035 kJ/mol
# Density = 1.951361 g / cm^3
# Si number density = 19.558129 Si / 1000 Ang^3
#
#
#
# Elastic Constant Matrix: (Units=GPa)
#
#
# Indices 1 2 3 4 5 6 
#
# 1 54.4864 21.0748 9.0798 0.0000 0.0000 0.0000
# 2 21.0748 111.1673 51.5271 0.0000 0.0000 0.0000
# 3 9.0798 51.5271 75.0559 0.0000 0.0000 0.0000
# 4 0.0000 0.0000 0.0000 28.4718 0.0000 0.0000
# 5 0.0000 0.0000 0.0000 0.0000 15.8923 0.0000
# 6 0.0000 0.0000 0.0000 0.0000 0.0000 12.9762
#
#
#
# Elastic Compliance Matrix: (Units=1/GPa)
#
#
# Indices 1 2 3 4 5 6 
#
# 1 0.019809 -0.003879 0.000267 0.000000 0.000000 0.000000
# 2 -0.003879 0.013953 -0.009110 0.000000 0.000000 0.000000
# 3 0.000267 -0.009110 0.019545 0.000000 0.000000 0.000000
# 4 0.000000 0.000000 0.000000 0.035122 0.000000 0.000000
# 5 0.000000 0.000000 0.000000 0.000000 0.062924 0.000000
# 6 0.000000 0.000000 0.000000 0.000000 0.000000 0.077064
#
#
# Mechanical properties :
#
#
# Convention : Reuss Voigt Hill
#
# Bulk Modulus (GPa) = 35.88973 44.89700 40.39337
# Shear Modulus (GPa) = 19.00054 22.06992 20.53523
#
# Velocity S-wave (km/s) = 3.12026 3.36285 3.24382
# Velocity P-wave (km/s) = 5.60102 6.17121 5.89302
#
# Compressibility (1/GPa) = 0.02786312
#
# Stress axis : x y z
#
# Youngs Moduli (GPa) = 50.48184 71.66740 51.16324
#
# Poissons Ratio (x) = 0.27799 -0.01364
# Poissons Ratio (y) = 0.19581 0.46609
# Poissons Ratio (z) = -0.01346 0.65289
#
# Static dielectric constant tensor:
#      x y z
#    x 3.539930 0.000000 0.000000 
#    y 0.000000 3.354400 0.000000 
#    z 0.000000 0.000000 3.401980 
# 
# 
# High freq. dielectric constant tensor:
#      x y z
#    x 1.750040 0.000000 0.000000 
#    y 0.000000 1.744460 0.000000 
#    z 0.000000 0.000000 1.740380 
# 
# From -- ./inp_files/26023.got.cif
#   From: 2010.03.12/outbox.cif.g09.slc.cpg/sg24_14_cif.got.tgz:26023.got - 2010.04.14 03:06:53.
