data_PCOD8164951
_publ_section_title
;
Structure prediction by ZEFSAII (Michael W. Deem and Ramdas Pophale) SiO2 
 PCOD8164951
Probable space group: I 21 21 21
;
_chemical_formula_sum "Si O2"
_cell_formula_units_Z 48
_cell_length_a 10.409881
_cell_length_b 14.049124
_cell_length_c 17.025734
_cell_angle_alpha 90.000000
_cell_angle_beta 90.000000
_cell_angle_gamma 90.000000
_cell_volume 2490.008643
_symmetry_space_group_name_H-M "I 21 21 21"
_symmetry_group_IT_number 24
_symmetry_cell_setting 'orthorhombic'
loop_
_space_group_symop_operation_xyz
x,y,z
-x,1/2-y,z
x,-y,1/2-z
1/2-x,y,-z
1/2+x,1/2+y,1/2+z
1/2-x,-y,1/2+z
1/2+x,1/2-y,-z
-x,1/2+y,1/2-z
loop_
_atom_site_type_symbol
_atom_site_label
_atom_site_fract_x
_atom_site_fract_y
_atom_site_fract_z
Si Si1 0.397922 0.556120 0.407174
Si Si2 0.617155 0.813421 0.829217
Si Si3 0.542993 0.500000 0.250000
Si Si4 0.379619 0.499384 0.576117
Si Si5 0.542310 0.588529 0.700937
Si Si6 0.789938 0.316077 0.760843
Si Si7 0.000000 0.750000 0.626852
O O1 0.454249 0.511547 0.327127
O O2 0.418687 0.490961 0.484552
O O3 0.243584 0.565353 0.403011
O O4 0.471516 0.656306 0.424804
O O5 0.500000 0.750000 0.862482
O O6 0.650185 0.893105 0.893317
O O7 0.575157 0.862207 0.747193
O O8 0.743679 0.748139 0.813531
O O9 0.630905 0.408325 0.267252
O O10 0.499097 0.550639 0.616846
O O11 0.596022 0.500000 0.750000
O O12 0.662277 0.658305 0.689678
O O13 0.875695 0.253616 0.817978
#
# Coordination Sequence:
#
# PCOD8164951 Si02
#       7
#     8   8   4   8   8   8   4
#     4  10  23  41  57  87 119 159 204 249 313 376
#     4   9  19  34  61  90 117 150 208 252 293 367
#     4  10  22  38  62  82 128 164 202 246 316 376
#     4  10  21  39  61  86 121 159 198 259 315 358
#     4   9  17  33  60  87 113 149 192 243 297 351
#     4  10  19  35  59  92 113 156 204 245 296 374
#     4  10  22  38  56  86 118 154 202 246 296 376
#
# _framework density 19.277041000000001
#
# number of rings (size 3 to 8) (size 9 to 14) (size 15 to 20)
#    0.000    2.333    0.833    1.000    8.167    0.000 
#   10.500    5.833    0.000    0.000    0.000    0.000 
#    0.000    0.000    0.000    0.000    0.000    0.000 
#
# Total GULP energy -297439.087674 kJ/mol
# GULP energy per Si atom -12393.295320 kJ/mol
# Density = 1.923317 g / cm^3
# Si number density = 19.277041 Si / 1000 Ang^3
#
#
#
# Elastic Constant Matrix: (Units=GPa)
#
#
# Indices 1 2 3 4 5 6 
#
# 1 86.8759 36.0369 59.4530 0.0000 0.0000 0.0000
# 2 36.0369 100.9096 51.1546 0.0000 0.0000 0.0000
# 3 59.4530 51.1546 126.6333 0.0000 0.0000 0.0000
# 4 0.0000 0.0000 0.0000 28.4361 0.0000 0.0000
# 5 0.0000 0.0000 0.0000 0.0000 13.4010 0.0000
# 6 0.0000 0.0000 0.0000 0.0000 0.0000 33.1948
#
#
#
# Elastic Compliance Matrix: (Units=1/GPa)
#
#
# Indices 1 2 3 4 5 6 
#
# 1 0.017494 -0.002621 -0.007155 0.000000 0.000000 0.000000
# 2 -0.002621 0.012854 -0.003962 0.000000 0.000000 0.000000
# 3 -0.007155 -0.003962 0.012856 0.000000 0.000000 0.000000
# 4 0.000000 0.000000 0.000000 0.035167 0.000000 0.000000
# 5 0.000000 0.000000 0.000000 0.000000 0.074622 0.000000
# 6 0.000000 0.000000 0.000000 0.000000 0.000000 0.030125
#
#
# Mechanical properties :
#
#
# Convention : Reuss Voigt Hill
#
# Bulk Modulus (GPa) = 63.57364 67.52308 65.54836
# Shear Modulus (GPa) = 23.16572 26.19132 24.67852
#
# Velocity S-wave (km/s) = 3.47035 3.69003 3.58187
# Velocity P-wave (km/s) = 7.00773 7.29786 7.15427
#
# Compressibility (1/GPa) = 0.01572979
#
# Stress axis : x y z
#
# Youngs Moduli (GPa) = 57.16276 77.79472 77.78198
#
# Poissons Ratio (x) = 0.20386 0.55650
# Poissons Ratio (y) = 0.14980 0.30820
# Poissons Ratio (z) = 0.40898 0.30825
#
# Static dielectric constant tensor:
#      x y z
#    x 3.548820 0.000000 0.000000 
#    y 0.000000 3.800140 0.000000 
#    z 0.000000 0.000000 3.230540 
# 
# 
# High freq. dielectric constant tensor:
#      x y z
#    x 1.754710 0.000000 0.000000 
#    y 0.000000 1.761140 0.000000 
#    z 0.000000 0.000000 1.717440 
# 
# From -- ./inp_files/29509.got.cif
#   From: 2010.03.12/outbox.cif.g09.slc.cpg/sg24_15_cif.got.tgz:29509.got - 2010.04.14 03:06:53.
