data_PCOD8164359
_publ_section_title
;
Structure prediction by ZEFSAII (Michael W. Deem and Ramdas Pophale) SiO2 
 PCOD8164359
Probable space group: I 2 2 2
;
_chemical_formula_sum "Si O2"
_cell_formula_units_Z 64
_cell_length_a 11.559293
_cell_length_b 12.835401
_cell_length_c 23.954351
_cell_angle_alpha 90.000000
_cell_angle_beta 90.000000
_cell_angle_gamma 90.000000
_cell_volume 3554.063004
_symmetry_space_group_name_H-M "I 2 2 2"
_symmetry_group_IT_number 23
_symmetry_cell_setting 'orthorhombic'
loop_
_space_group_symop_operation_xyz
x,y,z
-x,-y,z
x,-y,-z
-x,y,-z
1/2+x,1/2+y,1/2+z
1/2-x,1/2-y,1/2+z
1/2+x,1/2-y,1/2-z
1/2-x,1/2+y,1/2-z
loop_
_atom_site_type_symbol
_atom_site_label
_atom_site_fract_x
_atom_site_fract_y
_atom_site_fract_z
Si Si1 0.636726 0.000000 0.436386
Si Si2 0.129038 0.879860 0.727243
Si Si3 0.733551 0.687977 0.118661
Si Si4 0.766449 0.187977 0.618661
Si Si5 0.364295 0.382466 0.355014
Si Si6 0.500000 0.380009 0.065782
Si Si7 0.135705 0.882466 0.855014
Si Si8 0.870962 0.879860 0.727243
O O1 0.680150 0.898038 0.404980
O O2 0.500000 0.000000 0.435325
O O3 0.684235 0.000000 0.500000
O O4 0.680150 0.101962 0.404980
O O5 0.217852 0.824162 0.685350
O O6 0.171073 0.866733 0.790532
O O7 0.000000 0.832699 0.719691
O O8 0.125458 0.000000 0.710294
O O9 0.611189 0.680744 0.088024
O O10 0.790848 0.801211 0.107943
O O11 0.717852 0.675838 0.185350
O O12 0.709152 0.301211 0.607943
O O13 0.888811 0.180744 0.588024
O O14 0.500000 0.361031 0.363160
O O15 0.333952 0.500000 0.374312
O O16 0.328927 0.366733 0.290532
O O17 0.500000 0.500000 0.087117
O O18 0.500000 0.376301 0.000000
#
# Coordination Sequence:
#
# PCOD8164359 Si02
#       8
#     8   8   8   8   8   8   8   8
#     4  11  24  37  53  81 113 142 183 239 291 328
#     4   9  16  30  52  82 112 146 181 219 271 335
#     4  12  19  34  58  81 110 147 185 230 279 334
#     4  12  19  34  58  81 110 147 185 230 279 334
#     4   9  20  36  55  79 112 151 190 223 268 332
#     4  11  22  36  57  87 113 143 184 229 287 340
#     4   9  20  36  55  79 112 151 190 223 268 332
#     4   9  16  30  52  82 112 146 181 219 271 335
#
# _framework density 18.007559000000001
#
# number of rings (size 3 to 8) (size 9 to 14) (size 15 to 20)
#    0.000    1.750    3.750    3.750    0.000    0.000 
#    0.000    0.625    0.000    3.750    0.000    8.750 
#    0.000    0.000    0.000    0.000    0.000    0.000 
#
# Total GULP energy -396753.214034 kJ/mol
# GULP energy per Si atom -12398.537939 kJ/mol
# Density = 1.796657 g / cm^3
# Si number density = 18.007559 Si / 1000 Ang^3
#
#
#
# Elastic Constant Matrix: (Units=GPa)
#
#
# Indices 1 2 3 4 5 6 
#
# 1 91.9070 69.5522 36.8708 0.0000 0.0000 0.0000
# 2 69.5522 142.7148 47.0542 0.0000 0.0000 0.0000
# 3 36.8708 47.0542 49.7977 0.0000 0.0000 0.0000
# 4 0.0000 0.0000 0.0000 17.2726 0.0000 0.0000
# 5 0.0000 0.0000 0.0000 0.0000 14.6203 0.0000
# 6 0.0000 0.0000 0.0000 0.0000 0.0000 37.5727
#
#
#
# Elastic Compliance Matrix: (Units=1/GPa)
#
#
# Indices 1 2 3 4 5 6 
#
# 1 0.019105 -0.006750 -0.007767 0.000000 0.000000 0.000000
# 2 -0.006750 0.012562 -0.006873 0.000000 0.000000 0.000000
# 3 -0.007767 -0.006873 0.032327 0.000000 0.000000 0.000000
# 4 0.000000 0.000000 0.000000 0.057895 0.000000 0.000000
# 5 0.000000 0.000000 0.000000 0.000000 0.068398 0.000000
# 6 0.000000 0.000000 0.000000 0.000000 0.000000 0.026615
#
#
# Mechanical properties :
#
#
# Convention : Reuss Voigt Hill
#
# Bulk Modulus (GPa) = 47.13932 65.70822 56.42377
# Shear Modulus (GPa) = 18.74392 22.62261 20.68327
#
# Velocity S-wave (km/s) = 3.22979 3.54825 3.39276
# Velocity P-wave (km/s) = 6.33585 7.30447 6.83734
#
# Compressibility (1/GPa) = 0.02121371
#
# Stress axis : x y z
#
# Youngs Moduli (GPa) = 52.34345 79.60231 30.93426
#
# Poissons Ratio (x) = 0.53729 0.24028
# Poissons Ratio (y) = 0.35330 0.21261
# Poissons Ratio (z) = 0.40658 0.54709
#
# Static dielectric constant tensor:
#      x y z
#    x 3.391840 0.000000 0.000000 
#    y 0.000000 3.223340 0.000000 
#    z 0.000000 0.000000 3.289010 
# 
# 
# High freq. dielectric constant tensor:
#      x y z
#    x 1.696260 0.000000 0.000000 
#    y 0.000000 1.683920 0.000000 
#    z 0.000000 0.000000 1.688650 
# 
# From -- ./inp_files/18424.got.cif
#   From: 2010.03.12/outbox.cif.g09.slc.cpg/sg23_10_cif.got.tgz:18424.got - 2010.04.14 02:50:06.
