data_PCOD8164920
_publ_section_title
;
Structure prediction by ZEFSAII (Michael W. Deem and Ramdas Pophale) SiO2 
 PCOD8164920
Probable space group: I 21 21 21
;
_chemical_formula_sum "Si O2"
_cell_formula_units_Z 56
_cell_length_a 14.872975
_cell_length_b 21.343656
_cell_length_c 8.756607
_cell_angle_alpha 90.000000
_cell_angle_beta 90.000000
_cell_angle_gamma 90.000000
_cell_volume 2779.729394
_symmetry_space_group_name_H-M "I 21 21 21"
_symmetry_group_IT_number 24
_symmetry_cell_setting 'orthorhombic'
loop_
_space_group_symop_operation_xyz
x,y,z
-x,1/2-y,z
x,-y,1/2-z
1/2-x,y,-z
1/2+x,1/2+y,1/2+z
1/2-x,-y,1/2+z
1/2+x,1/2-y,-z
-x,1/2+y,1/2-z
loop_
_atom_site_type_symbol
_atom_site_label
_atom_site_fract_x
_atom_site_fract_y
_atom_site_fract_z
Si Si1 0.346774 0.654009 0.445568
Si Si2 0.624826 0.500000 0.750000
Si Si3 0.490098 0.887578 0.633937
Si Si4 0.177455 0.689837 0.886216
Si Si5 0.145511 0.799663 0.519989
Si Si6 0.750000 0.565962 0.000000
Si Si7 0.006374 0.316732 0.417854
Si Si8 0.650151 0.672586 0.148866
O O1 0.250000 0.629435 0.500000
O O2 0.428926 0.610765 0.508840
O O3 0.335311 0.648786 0.264385
O O4 0.367373 0.725136 0.498850
O O5 0.559487 0.547080 0.658760
O O6 0.683199 0.525196 0.893930
O O7 0.414349 0.834729 0.604579
O O8 0.533789 0.869326 0.796585
O O9 0.207900 0.762185 0.854338
O O10 0.250000 0.658430 0.000000
O O11 0.079983 0.690731 0.954250
O O12 0.250000 0.818135 0.500000
O O13 0.107002 0.826016 0.681837
O O14 0.790899 0.610585 0.868698
O O15 0.916893 0.333941 0.508097
O O16 0.000000 0.250000 0.331799
#
# Coordination Sequence:
#
# PCOD8164920 Si02
#       8
#     8   4   8   8   8   4   8   8
#     4  10  21  37  64  97 130 164 207 265 336 399
#     4  12  30  42  66  88 124 182 238 266 314 370
#     4  12  23  42  58  90 131 173 221 273 311 376
#     4  10  19  34  59  98 126 159 196 248 327 405
#     4  10  21  34  61  95 129 170 203 259 341 402
#     4  12  24  46  60  90 122 178 220 272 302 382
#     4  10  20  33  58  86 119 161 200 260 328 381
#     4  10  20  36  59  85 129 160 205 252 320 383
#
# _framework density 20.145847
#
# number of rings (size 3 to 8) (size 9 to 14) (size 15 to 20)
#    0.000    1.429    2.143    3.857    3.000    4.571 
#    0.000    0.000    0.000    2.571    0.000    0.000 
#    0.000    0.000    0.000    0.000    0.000    0.000 
#
# Total GULP energy -346939.593485 kJ/mol
# GULP energy per Si atom -12390.699767 kJ/mol
# Density = 2.009999 g / cm^3
# Si number density = 20.145847 Si / 1000 Ang^3
#
#
#
# Elastic Constant Matrix: (Units=GPa)
#
#
# Indices 1 2 3 4 5 6 
#
# 1 101.4723 44.4955 35.2898 0.0000 0.0000 0.0000
# 2 44.4955 77.0041 39.8459 0.0000 0.0000 0.0000
# 3 35.2898 39.8459 109.9109 0.0000 -0.0001 0.0000
# 4 0.0000 0.0000 0.0000 16.9694 0.0000 0.0000
# 5 0.0000 0.0000 -0.0001 0.0000 9.8544 0.0000
# 6 0.0000 0.0000 0.0000 0.0000 0.0000 34.9197
#
#
#
# Elastic Compliance Matrix: (Units=1/GPa)
#
#
# Indices 1 2 3 4 5 6 
#
# 1 0.013500 -0.006841 -0.001854 0.000000 0.000000 0.000000
# 2 -0.006841 0.019452 -0.004855 0.000000 0.000000 0.000000
# 3 -0.001854 -0.004855 0.011454 0.000000 0.000000 0.000000
# 4 0.000000 0.000000 0.000000 0.058930 0.000000 0.000000
# 5 0.000000 0.000000 0.000000 0.000000 0.101477 0.000000
# 6 0.000000 0.000000 0.000000 0.000000 0.000000 0.028637
#
#
# Mechanical properties :
#
#
# Convention : Reuss Voigt Hill
#
# Bulk Modulus (GPa) = 57.79068 58.62774 58.20921
# Shear Modulus (GPa) = 18.77452 23.59910 21.18681
#
# Velocity S-wave (km/s) = 3.05606 3.42630 3.24647
# Velocity P-wave (km/s) = 6.41881 6.69459 6.55815
#
# Compressibility (1/GPa) = 0.01730383
#
# Stress axis : x y z
#
# Youngs Moduli (GPa) = 74.07660 51.40962 87.30679
#
# Poissons Ratio (x) = 0.35169 0.16190
# Poissons Ratio (y) = 0.50675 0.42390
# Poissons Ratio (z) = 0.13736 0.24961
#
# Static dielectric constant tensor:
#      x y z
#    x 3.679810 0.000000 0.000000 
#    y 0.000000 3.413500 0.000000 
#    z 0.000000 0.000000 3.765310 
# 
# 
# High freq. dielectric constant tensor:
#      x y z
#    x 1.789880 0.000000 0.000000 
#    y 0.000000 1.738070 0.000000 
#    z 0.000000 0.000000 1.806400 
# 
# From -- ./inp_files/13210.got.cif
#   From: 2010.03.12/outbox.cif.g09.slc.cpg/sg24_7_cif.got.tgz:13210.got - 2010.04.14 03:06:53.
