data_PCOD8164774
_publ_section_title
;
Structure prediction by ZEFSAII (Michael W. Deem and Ramdas Pophale) SiO2 
 PCOD8164774
Probable space group: I 21 21 21
;
_chemical_formula_sum "Si O2"
_cell_formula_units_Z 48
_cell_length_a 17.578624
_cell_length_b 10.194022
_cell_length_c 12.139232
_cell_angle_alpha 90.000000
_cell_angle_beta 90.000000
_cell_angle_gamma 90.000000
_cell_volume 2175.312497
_symmetry_space_group_name_H-M "I 21 21 21"
_symmetry_group_IT_number 24
_symmetry_cell_setting 'orthorhombic'
loop_
_space_group_symop_operation_xyz
x,y,z
-x,1/2-y,z
x,-y,1/2-z
1/2-x,y,-z
1/2+x,1/2+y,1/2+z
1/2-x,-y,1/2+z
1/2+x,1/2-y,-z
-x,1/2+y,1/2-z
loop_
_atom_site_type_symbol
_atom_site_label
_atom_site_fract_x
_atom_site_fract_y
_atom_site_fract_z
Si Si1 0.085363 0.141927 0.622096
Si Si2 0.788726 0.653127 0.270170
Si Si3 0.565643 0.656737 0.586912
Si Si4 0.872400 0.649685 0.647086
Si Si5 0.981452 0.107957 0.437642
Si Si6 0.824539 0.185595 0.446803
O O1 0.080005 0.200869 0.745619
O O2 0.136474 0.220809 0.536131
O O3 0.000705 0.121901 0.569783
O O4 0.130707 0.006862 0.636494
O O5 0.782604 0.500000 0.250000
O O6 0.861250 0.685407 0.342212
O O7 0.714160 0.700954 0.337497
O O8 0.796100 0.731558 0.156630
O O9 0.500000 0.750000 0.631396
O O10 0.585977 0.701223 0.462413
O O11 0.536064 0.507035 0.606588
O O12 0.891153 0.078434 0.418655
O O13 0.000000 0.250000 0.380085
O O14 0.750000 0.116430 0.500000
#
# Coordination Sequence:
#
# PCOD8164774 Si02
#       6
#     8   8   8   8   8   8
#     4   9  17  33  58  91 118 146 199 261 301 332
#     4  12  21  35  64  90 122 154 202 259 304 347
#     4  11  26  41  58  89 128 165 195 240 307 371
#     4  10  18  36  59  90 119 154 199 257 302 351
#     4   9  20  38  62  88 119 156 206 249 287 350
#     4  11  20  35  57  91 120 157 198 249 299 355
#
# _framework density 22.065794
#
# number of rings (size 3 to 8) (size 9 to 14) (size 15 to 20)
#    0.000    1.667    3.333    3.500    0.000    5.333 
#    0.000    1.667    0.000    0.000    0.000    0.000 
#    0.000    0.000    0.000    0.000    0.000    0.000 
#
# Total GULP energy -297320.876475 kJ/mol
# GULP energy per Si atom -12388.369853 kJ/mol
# Density = 2.201557 g / cm^3
# Si number density = 22.065794 Si / 1000 Ang^3
#
#
#
# Elastic Constant Matrix: (Units=GPa)
#
#
# Indices 1 2 3 4 5 6 
#
# 1 166.2122 16.5825 21.9881 0.0000 0.0000 0.0000
# 2 16.5825 41.3266 11.0709 0.0000 0.0000 0.0000
# 3 21.9881 11.0709 63.4182 0.0000 0.0000 0.0000
# 4 0.0000 0.0000 0.0000 8.4641 0.0000 0.0000
# 5 0.0000 0.0000 0.0000 0.0000 32.1759 0.0000
# 6 0.0000 0.0000 0.0000 0.0000 0.0000 24.7117
#
#
#
# Elastic Compliance Matrix: (Units=1/GPa)
#
#
# Indices 1 2 3 4 5 6 
#
# 1 0.006474 -0.002094 -0.001879 0.000000 0.000000 0.000000
# 2 -0.002094 0.026062 -0.003823 0.000000 0.000000 0.000000
# 3 -0.001879 -0.003823 0.017087 0.000000 0.000000 0.000000
# 4 0.000000 0.000000 0.000000 0.118147 0.000000 0.000000
# 5 0.000000 0.000000 0.000000 0.000000 0.031079 0.000000
# 6 0.000000 0.000000 0.000000 0.000000 0.000000 0.040467
#
#
# Mechanical properties :
#
#
# Convention : Reuss Voigt Hill
#
# Bulk Modulus (GPa) = 29.38615 41.13778 35.26196
# Shear Modulus (GPa) = 18.77915 27.82469 23.30192
#
# Velocity S-wave (km/s) = 2.92045 3.55489 3.25317
# Velocity P-wave (km/s) = 4.97176 5.96099 5.48871
#
# Compressibility (1/GPa) = 0.03402964
#
# Stress axis : x y z
#
# Youngs Moduli (GPa) = 154.46580 38.36986 58.52308
#
# Poissons Ratio (x) = 0.08036 0.10997
# Poissons Ratio (y) = 0.32350 0.22376
# Poissons Ratio (z) = 0.29024 0.14671
#
# Static dielectric constant tensor:
#      x y z
#    x 4.607090 0.000000 0.000000 
#    y 0.000000 3.628120 0.000000 
#    z 0.000000 0.000000 4.300190 
# 
# 
# High freq. dielectric constant tensor:
#      x y z
#    x 1.888310 0.000000 0.000000 
#    y 0.000000 1.815490 0.000000 
#    z 0.000000 0.000000 1.874060 
# 
# From -- ./inp_files/21514.got.cif
#   From: 2010.03.12/outbox.cif.g09.slc.cpg/sg24_11_cif.got.tgz:21514.got - 2010.04.14 03:06:53.
