data_PCOD8164876
_publ_section_title
;
Structure prediction by ZEFSAII (Michael W. Deem and Ramdas Pophale) SiO2 
 PCOD8164876
Probable space group: I 21 21 21
;
_chemical_formula_sum "Si O2"
_cell_formula_units_Z 40
_cell_length_a 4.901207
_cell_length_b 24.362282
_cell_length_c 16.206016
_cell_angle_alpha 90.000000
_cell_angle_beta 90.000000
_cell_angle_gamma 90.000000
_cell_volume 1935.072649
_symmetry_space_group_name_H-M "I 21 21 21"
_symmetry_group_IT_number 24
_symmetry_cell_setting 'orthorhombic'
loop_
_space_group_symop_operation_xyz
x,y,z
-x,1/2-y,z
x,-y,1/2-z
1/2-x,y,-z
1/2+x,1/2+y,1/2+z
1/2-x,-y,1/2+z
1/2+x,1/2-y,-z
-x,1/2+y,1/2-z
loop_
_atom_site_type_symbol
_atom_site_label
_atom_site_fract_x
_atom_site_fract_y
_atom_site_fract_z
Si Si1 0.591278 0.877493 0.708436
Si Si2 0.486971 0.450019 0.943583
Si Si3 0.417838 0.188703 0.252373
Si Si4 0.408352 0.431726 0.623159
Si Si5 0.591025 0.634964 0.079549
O O1 0.465024 0.905534 0.627728
O O2 0.393213 0.827024 0.732627
O O3 0.635978 0.923325 0.779309
O O4 0.889023 0.850768 0.697581
O O5 0.374358 0.505448 0.902011
O O6 0.750000 0.459890 0.000000
O O7 0.250000 0.425363 0.000000
O O8 0.500000 0.250000 0.228361
O O9 0.451848 0.181485 0.351283
O O10 0.719808 0.415163 0.607979
O O11 0.204501 0.393893 0.567605
O O12 0.750000 0.661081 0.000000
#
# Coordination Sequence:
#
# PCOD8164876 Si02
#       5
#     8   8   8   8   8
#     4  10  22  39  59  83 113 147 191 236 275 341
#     4  12  23  36  58  86 117 147 183 233 287 337
#     4  10  21  39  61  81 106 151 197 236 284 331
#     4  10  20  35  56  82 116 156 183 209 269 344
#     4  10  19  33  54  84 119 147 181 224 267 327
#
# _framework density 20.671060000000001
#
# number of rings (size 3 to 8) (size 9 to 14) (size 15 to 20)
#    0.000    1.600    0.000    6.000    0.000    0.000 
#    0.000   14.000    0.000   12.000    0.000    0.000 
#    0.000    0.000    0.000    0.000    0.000    0.000 
#
# Total GULP energy -247867.410847 kJ/mol
# GULP energy per Si atom -12393.370542 kJ/mol
# Density = 2.062401 g / cm^3
# Si number density = 20.671060 Si / 1000 Ang^3
#
#
#
# Elastic Constant Matrix: (Units=GPa)
#
#
# Indices 1 2 3 4 5 6 
#
# 1 92.3590 17.8213 30.8839 0.0000 0.0000 0.0000
# 2 17.8213 68.5074 40.8256 0.0000 0.0000 0.0000
# 3 30.8839 40.8256 94.2822 0.0000 0.0000 0.0000
# 4 0.0000 0.0000 0.0000 14.6968 0.0000 0.0000
# 5 0.0000 0.0000 0.0000 0.0000 32.5852 0.0000
# 6 0.0000 0.0000 0.0000 0.0000 0.0000 18.8878
#
#
#
# Elastic Compliance Matrix: (Units=1/GPa)
#
#
# Indices 1 2 3 4 5 6 
#
# 1 0.012217 -0.001069 -0.003539 0.000000 0.000000 0.000000
# 2 -0.001069 0.019767 -0.008209 0.000000 0.000000 0.000000
# 3 -0.003539 -0.008209 0.015320 0.000000 0.000000 0.000000
# 4 0.000000 0.000000 0.000000 0.068042 0.000000 0.000000
# 5 0.000000 0.000000 0.000000 0.000000 0.030689 0.000000
# 6 0.000000 0.000000 0.000000 0.000000 0.000000 0.052944
#
#
# Mechanical properties :
#
#
# Convention : Reuss Voigt Hill
#
# Bulk Modulus (GPa) = 46.14689 48.24559 47.19624
# Shear Modulus (GPa) = 21.56678 24.27513 22.92096
#
# Velocity S-wave (km/s) = 3.23357 3.43060 3.33354
# Velocity P-wave (km/s) = 6.02612 6.25159 6.13989
#
# Compressibility (1/GPa) = 0.02166993
#
# Stress axis : x y z
#
# Youngs Moduli (GPa) = 81.85311 50.58871 65.27220
#
# Poissons Ratio (x) = 0.05409 0.23100
# Poissons Ratio (y) = 0.08751 0.53584
# Poissons Ratio (z) = 0.28968 0.41530
#
# Static dielectric constant tensor:
#      x y z
#    x 4.009140 0.000000 0.000000 
#    y 0.000000 3.287090 0.000000 
#    z 0.000000 0.000000 3.751080 
# 
# 
# High freq. dielectric constant tensor:
#      x y z
#    x 1.829060 0.000000 0.000000 
#    y 0.000000 1.774110 0.000000 
#    z 0.000000 0.000000 1.801410 
# 
# From -- ./inp_files/23731.got.cif
#   From: 2010.03.12/outbox.cif.g09.slc.cpg/sg24_12_cif.got.tgz:23731.got - 2010.04.14 03:06:53.
