data_PCOD8164673
_publ_section_title
;
Structure prediction by ZEFSAII (Michael W. Deem and Ramdas Pophale) SiO2 
 PCOD8164673
Probable space group: I 21 21 21
;
_chemical_formula_sum "Si O2"
_cell_formula_units_Z 64
_cell_length_a 21.452412
_cell_length_b 7.784723
_cell_length_c 22.528785
_cell_angle_alpha 90.000000
_cell_angle_beta 90.000000
_cell_angle_gamma 90.000000
_cell_volume 3762.331541
_symmetry_space_group_name_H-M "I 21 21 21"
_symmetry_group_IT_number 24
_symmetry_cell_setting 'orthorhombic'
loop_
_space_group_symop_operation_xyz
x,y,z
-x,1/2-y,z
x,-y,1/2-z
1/2-x,y,-z
1/2+x,1/2+y,1/2+z
1/2-x,-y,1/2+z
1/2+x,1/2-y,-z
-x,1/2+y,1/2-z
loop_
_atom_site_type_symbol
_atom_site_label
_atom_site_fract_x
_atom_site_fract_y
_atom_site_fract_z
Si Si1 0.636894 0.357708 0.376596
Si Si2 0.058664 0.645352 0.795966
Si Si3 0.959985 0.100761 0.900457
Si Si4 0.664840 0.705843 0.410776
Si Si5 0.457660 0.096808 0.482727
Si Si6 0.219056 0.388373 0.065009
Si Si7 0.152675 0.932891 0.461756
Si Si8 0.735404 0.262594 0.568332
O O1 0.614209 0.274074 0.314480
O O2 0.646151 0.561456 0.362400
O O3 0.586919 0.330516 0.430073
O O4 0.702345 0.270577 0.392907
O O5 0.082397 0.500000 0.750000
O O6 0.037886 0.559310 0.857096
O O7 0.000000 0.750000 0.769091
O O8 0.890415 0.156820 0.918243
O O9 0.000000 0.250000 0.868861
O O10 0.996373 0.051363 0.960115
O O11 0.726989 0.808121 0.392487
O O12 0.676953 0.589346 0.470178
O O13 0.500000 0.250000 0.509043
O O14 0.417557 0.007238 0.535312
O O15 0.159579 0.258050 0.067443
O O16 0.200783 0.581278 0.085741
O O17 0.250000 0.392804 0.000000
O O18 0.192283 0.069740 0.422904
O O19 0.750000 0.248852 0.500000
#
# Coordination Sequence:
#
# PCOD8164673 Si02
#       8
#     8   8   8   8   8   8   8   8
#     4  11  18  33  50  66  91 120 161 215 272 303
#     4  12  24  38  50  66  89 125 176 231 281 323
#     4  12  19  32  46  64  82 120 159 209 260 315
#     4  10  18  29  46  65  93 113 157 204 262 311
#     4  11  20  30  46  62  93 125 164 198 260 303
#     4   9  18  26  40  65  85 117 147 189 246 292
#     4  10  18  31  42  67  97 118 152 202 247 300
#     4  11  17  28  50  69  92 121 150 206 257 307
#
# _framework density 17.010728
#
# number of rings (size 3 to 8) (size 9 to 14) (size 15 to 20)
#    0.000    1.250    8.750    1.500    0.000    1.000 
#    0.000    0.000    0.000    0.000    0.000    0.000 
#    0.000    0.000    0.000    0.000    0.000    0.000 
#
# Total GULP energy -396476.922320 kJ/mol
# GULP energy per Si atom -12389.903822 kJ/mol
# Density = 1.697201 g / cm^3
# Si number density = 17.010728 Si / 1000 Ang^3
#
#
#
# Elastic Constant Matrix: (Units=GPa)
#
#
# Indices 1 2 3 4 5 6 
#
# 1 70.2238 35.5834 23.7364 0.0000 0.0000 0.0000
# 2 35.5834 115.1530 14.1764 0.0000 0.0000 0.0000
# 3 23.7364 14.1764 23.7504 0.0000 0.0000 0.0000
# 4 0.0000 0.0000 0.0000 15.4224 0.0000 0.0000
# 5 0.0000 0.0000 0.0000 0.0000 10.6411 0.0000
# 6 0.0000 0.0000 0.0000 0.0000 0.0000 27.2427
#
#
#
# Elastic Compliance Matrix: (Units=1/GPa)
#
#
# Indices 1 2 3 4 5 6 
#
# 1 0.023695 -0.004756 -0.020842 0.000000 0.000000 0.000000
# 2 -0.004756 0.010328 -0.001411 0.000000 0.000000 0.000000
# 3 -0.020842 -0.001411 0.063777 0.000000 0.000000 0.000000
# 4 0.000000 0.000000 0.000000 0.064841 0.000000 0.000000
# 5 0.000000 0.000000 0.000000 0.000000 0.093975 0.000000
# 6 0.000000 0.000000 0.000000 0.000000 0.000000 0.036707
#
#
# Mechanical properties :
#
#
# Convention : Reuss Voigt Hill
#
# Bulk Modulus (GPa) = 22.84119 39.56882 31.20501
# Shear Modulus (GPa) = 13.81464 19.70331 16.75897
#
# Velocity S-wave (km/s) = 2.85285 3.40705 3.14220
# Velocity P-wave (km/s) = 4.93035 6.22808 5.61682
#
# Compressibility (1/GPa) = 0.04378056
#
# Stress axis : x y z
#
# Youngs Moduli (GPa) = 42.20291 96.82875 15.67969
#
# Poissons Ratio (x) = 0.46053 0.32680
# Poissons Ratio (y) = 0.20072 0.02213
# Poissons Ratio (z) = 0.87960 0.13663
#
# Static dielectric constant tensor:
#      x y z
#    x 3.282600 0.000000 0.000000 
#    y 0.000000 3.840360 0.000000 
#    z 0.000000 0.000000 2.658000 
# 
# 
# High freq. dielectric constant tensor:
#      x y z
#    x 1.642650 0.000000 0.000000 
#    y 0.000000 1.693450 0.000000 
#    z 0.000000 0.000000 1.555030 
# 
# From -- ./inp_files/36115.got.cif
#   From: 2010.03.12/outbox.cif.g09.slc.cpg/sg24_19_cif.got.tgz:36115.got - 2010.04.14 03:06:53.
