data_PCOD8164515
_publ_section_title
;
Structure prediction by ZEFSAII (Michael W. Deem and Ramdas Pophale) SiO2 
 PCOD8164515
Probable space group: I 2 2 2
;
_chemical_formula_sum "Si O2"
_cell_formula_units_Z 24
_cell_length_a 24.844090
_cell_length_b 6.745602
_cell_length_c 7.089213
_cell_angle_alpha 90.000000
_cell_angle_beta 90.000000
_cell_angle_gamma 90.000000
_cell_volume 1188.069461
_symmetry_space_group_name_H-M "I 2 2 2"
_symmetry_group_IT_number 23
_symmetry_cell_setting 'orthorhombic'
loop_
_space_group_symop_operation_xyz
x,y,z
-x,-y,z
x,-y,-z
-x,y,-z
1/2+x,1/2+y,1/2+z
1/2-x,1/2-y,1/2+z
1/2+x,1/2-y,1/2-z
1/2-x,1/2+y,1/2-z
loop_
_atom_site_type_symbol
_atom_site_label
_atom_site_fract_x
_atom_site_fract_y
_atom_site_fract_z
Si Si1 0.000000 0.500000 0.000000
Si Si2 0.433841 0.338723 0.335983
Si Si3 0.500000 0.500000 0.000000
Si Si4 0.237573 0.500000 0.500000
Si Si5 0.818994 0.674187 0.856104
O O1 0.039586 0.370502 0.875912
O O2 0.447255 0.500000 0.500000
O O3 0.458618 0.385643 0.133347
O O4 0.369956 0.314637 0.317035
O O5 0.198846 0.429404 0.665021
O O6 0.272298 0.312303 0.436921
O O7 0.834163 0.500000 0.000000
#
# Coordination Sequence:
#
# PCOD8164515 Si02
#       5
#     2   8   2   4   8
#     4  12  22  46  72  96 138 188 226 278 360 396
#     4  12  26  46  72 105 143 183 234 294 348 411
#     4  12  26  46  72 108 142 172 238 302 332 424
#     4  12  26  44  72 108 138 182 240 288 346 420
#     4  12  26  44  74 104 142 186 234 291 350 414
#
# _framework density 20.200838999999998
#
# number of rings (size 3 to 8) (size 9 to 14) (size 15 to 20)
#    0.000    0.000   10.000    0.000    0.000    8.667 
#    0.000    0.000    0.000    0.000    0.000    0.000 
#    0.000    0.000    0.000    0.000    0.000    0.000 
#
# Total GULP energy -148791.579200 kJ/mol
# GULP energy per Si atom -12399.298267 kJ/mol
# Density = 2.015486 g / cm^3
# Si number density = 20.200839 Si / 1000 Ang^3
#
#
#
# Elastic Constant Matrix: (Units=GPa)
#
#
# Indices 1 2 3 4 5 6 
#
# 1 127.6351 42.3108 69.6889 0.0000 0.0000 0.0000
# 2 42.3108 110.7094 64.1242 0.0000 0.0000 0.0000
# 3 69.6889 64.1242 168.3240 0.0000 0.0000 0.0000
# 4 0.0000 0.0000 0.0000 42.7188 0.0000 0.0000
# 5 0.0000 0.0000 0.0000 0.0000 67.2204 0.0000
# 6 0.0000 0.0000 0.0000 0.0000 0.0000 56.1631
#
#
#
# Elastic Compliance Matrix: (Units=1/GPa)
#
#
# Indices 1 2 3 4 5 6 
#
# 1 0.010427 -0.001905 -0.003591 0.000000 0.000000 0.000000
# 2 -0.001905 0.011938 -0.003759 0.000000 0.000000 0.000000
# 3 -0.003591 -0.003759 0.008860 0.000000 0.000000 0.000000
# 4 0.000000 0.000000 0.000000 0.023409 0.000000 0.000000
# 5 0.000000 0.000000 0.000000 0.000000 0.014876 0.000000
# 6 0.000000 0.000000 0.000000 0.000000 0.000000 0.017805
#
#
# Mechanical properties :
#
#
# Convention : Reuss Voigt Hill
#
# Bulk Modulus (GPa) = 78.65216 84.32403 81.48809
# Shear Modulus (GPa) = 45.42778 48.59009 47.00894
#
# Velocity S-wave (km/s) = 4.74730 4.90976 4.82921
# Velocity P-wave (km/s) = 8.31076 8.60084 8.45704
#
# Compressibility (1/GPa) = 0.01271421
#
# Stress axis : x y z
#
# Youngs Moduli (GPa) = 95.90315 83.76568 112.86802
#
# Poissons Ratio (x) = 0.15957 0.40535
# Poissons Ratio (y) = 0.18269 0.42430
# Poissons Ratio (z) = 0.34442 0.31489
#
# Static dielectric constant tensor:
#      x y z
#    x 3.821840 0.000000 0.000000 
#    y 0.000000 3.737370 0.000000 
#    z 0.000000 0.000000 3.607600 
# 
# 
# High freq. dielectric constant tensor:
#      x y z
#    x 1.810760 0.000000 0.000000 
#    y 0.000000 1.800840 0.000000 
#    z 0.000000 0.000000 1.795580 
# 
# From -- ./inp_files/465.got.cif
#   From: 2010.03.12/outbox.cif.g09.slc.cpg/sg23_1_cif.got.tgz:465.got - 2010.04.14 02:50:06.
