data_PCOD8164689
_publ_section_title
;
Structure prediction by ZEFSAII (Michael W. Deem and Ramdas Pophale) SiO2 
 PCOD8164689
Probable space group: I 21 21 21
;
_chemical_formula_sum "Si O2"
_cell_formula_units_Z 60
_cell_length_a 27.744912
_cell_length_b 5.308416
_cell_length_c 21.205548
_cell_angle_alpha 90.000000
_cell_angle_beta 90.000000
_cell_angle_gamma 90.000000
_cell_volume 3123.185655
_symmetry_space_group_name_H-M "I 21 21 21"
_symmetry_group_IT_number 24
_symmetry_cell_setting 'orthorhombic'
loop_
_space_group_symop_operation_xyz
x,y,z
-x,1/2-y,z
x,-y,1/2-z
1/2-x,y,-z
1/2+x,1/2+y,1/2+z
1/2-x,-y,1/2+z
1/2+x,1/2-y,-z
-x,1/2+y,1/2-z
loop_
_atom_site_type_symbol
_atom_site_label
_atom_site_fract_x
_atom_site_fract_y
_atom_site_fract_z
Si Si1 0.391329 0.516097 0.076129
Si Si2 0.309567 0.500405 0.894696
Si Si3 0.029114 0.498432 0.676428
Si Si4 0.590086 0.509256 0.594880
Si Si5 0.653446 0.518881 0.467148
Si Si6 0.750000 0.239500 0.000000
Si Si7 0.920246 0.010226 0.442228
Si Si8 0.676350 0.496999 0.823965
O O1 0.420392 0.521019 0.140830
O O2 0.363348 0.253107 0.075504
O O3 0.356011 0.758300 0.070579
O O4 0.428662 0.518179 0.017068
O O5 0.270291 0.456808 0.948659
O O6 0.362619 0.507192 0.926238
O O7 0.302270 0.265999 0.847665
O O8 0.298854 0.760602 0.857331
O O9 0.041326 0.500000 0.750000
O O10 0.000000 0.250000 0.657191
O O11 0.000000 0.750000 0.656623
O O12 0.627432 0.512647 0.535353
O O13 0.556667 0.260599 0.589042
O O14 0.619106 0.500203 0.660276
O O15 0.556865 0.759193 0.589180
O O16 0.709875 0.563196 0.476518
O O17 0.684348 0.500000 0.750000
#
# Coordination Sequence:
#
# PCOD8164689 Si02
#       8
#     8   8   8   8   8   4   8   8
#     4  10  18  34  50  76 104 133 167 218 288 331
#     4  10  20  30  46  71  91 124 174 220 264 309
#     4  10  21  37  59  85 109 139 183 232 284 358
#     4   8  14  27  39  64  87 112 157 195 240 302
#     4  10  20  30  51  76 101 130 173 224 277 317
#     4  12  20  34  52  76 106 130 188 246 258 322
#     4   8  14  27  42  65  91 114 153 198 247 307
#     4  10  18  31  44  61  89 124 161 205 264 316
#
# _framework density 19.211155000000002
#
# number of rings (size 3 to 8) (size 9 to 14) (size 15 to 20)
#    0.000    2.400    4.000    1.200    0.000    2.133 
#    0.000    0.000    0.000    3.200    0.000    0.933 
#    0.000    0.000    0.000    0.000    0.000 1080.000 
#
# Total GULP energy -371671.010999 kJ/mol
# GULP energy per Si atom -12389.033700 kJ/mol
# Density = 1.916743 g / cm^3
# Si number density = 19.211155 Si / 1000 Ang^3
#
#
#
# Elastic Constant Matrix: (Units=GPa)
#
#
# Indices 1 2 3 4 5 6 
#
# 1 42.8556 21.1438 28.8990 0.0000 0.0000 0.0000
# 2 21.1438 197.0332 39.8405 0.0000 0.0000 0.0000
# 3 28.8990 39.8405 87.7910 0.0000 0.0000 0.0000
# 4 0.0000 0.0000 0.0000 20.7243 0.0000 0.0000
# 5 0.0000 0.0000 0.0000 0.0000 24.8052 0.0000
# 6 0.0000 0.0000 0.0000 0.0000 0.0000 13.0085
#
#
#
# Elastic Compliance Matrix: (Units=1/GPa)
#
#
# Indices 1 2 3 4 5 6 
#
# 1 0.030319 -0.001360 -0.009363 0.000000 0.000000 0.000000
# 2 -0.001360 0.005649 -0.002116 0.000000 0.000000 0.000000
# 3 -0.009363 -0.002116 0.015433 0.000000 0.000000 0.000000
# 4 0.000000 0.000000 0.000000 0.048252 0.000000 0.000000
# 5 0.000000 0.000000 0.000000 0.000000 0.040314 0.000000
# 6 0.000000 0.000000 0.000000 0.000000 0.000000 0.076873
#
#
# Mechanical properties :
#
#
# Convention : Reuss Voigt Hill
#
# Bulk Modulus (GPa) = 38.87609 56.38291 47.62950
# Shear Modulus (GPa) = 19.91291 27.56071 23.73681
#
# Velocity S-wave (km/s) = 3.22301 3.79175 3.51889
# Velocity P-wave (km/s) = 5.84213 6.97012 6.43091
#
# Compressibility (1/GPa) = 0.02572275
#
# Stress axis : x y z
#
# Youngs Moduli (GPa) = 32.98242 177.01972 64.79613
#
# Poissons Ratio (x) = 0.24081 0.60669
# Poissons Ratio (y) = 0.04487 0.13710
# Poissons Ratio (z) = 0.30882 0.37454
#
# Static dielectric constant tensor:
#      x y z
#    x 2.922920 0.000000 0.000000 
#    y 0.000000 5.246500 0.000000 
#    z 0.000000 0.000000 3.253280 
# 
# 
# High freq. dielectric constant tensor:
#      x y z
#    x 1.687920 0.000000 0.000000 
#    y 0.000000 1.792790 0.000000 
#    z 0.000000 0.000000 1.720300 
# 
# From -- ./inp_files/31734.got.cif
#   From: 2010.03.12/outbox.cif.g09.slc.cpg/sg24_16_cif.got.tgz:31734.got - 2010.04.14 03:06:53.
