data_PCOD8164291
_publ_section_title
;
Structure prediction by ZEFSAII (Michael W. Deem and Ramdas Pophale) SiO2 
 PCOD8164291
Probable space group: I 2 2 2
;
_chemical_formula_sum "Si O2"
_cell_formula_units_Z 64
_cell_length_a 8.718751
_cell_length_b 30.239823
_cell_length_c 14.660829
_cell_angle_alpha 90.000000
_cell_angle_beta 90.000000
_cell_angle_gamma 90.000000
_cell_volume 3865.378688
_symmetry_space_group_name_H-M "I 2 2 2"
_symmetry_group_IT_number 23
_symmetry_cell_setting 'orthorhombic'
loop_
_space_group_symop_operation_xyz
x,y,z
-x,-y,z
x,-y,-z
-x,y,-z
1/2+x,1/2+y,1/2+z
1/2-x,1/2-y,1/2+z
1/2+x,1/2-y,1/2-z
1/2-x,1/2+y,1/2-z
loop_
_atom_site_type_symbol
_atom_site_label
_atom_site_fract_x
_atom_site_fract_y
_atom_site_fract_z
Si Si1 0.182090 0.675143 0.500000
Si Si2 0.818604 0.772599 0.500000
Si Si3 0.180959 0.368485 0.683841
Si Si4 0.320263 0.550426 0.603814
Si Si5 0.181763 0.793115 0.300473
Si Si6 0.681763 0.706885 0.800473
Si Si7 0.179737 0.050426 0.103814
Si Si8 0.819041 0.631515 0.316159
O O1 0.253386 0.723793 0.500000
O O2 0.243081 0.650887 0.410974
O O3 0.243082 0.650887 0.589027
O O4 0.000000 0.676075 0.500000
O O5 0.764385 0.795780 0.593560
O O6 0.764385 0.795780 0.406440
O O7 0.000000 0.768940 0.500000
O O8 0.260748 0.339846 0.762081
O O9 0.233677 0.419603 0.679553
O O10 1.000000 0.365050 0.697260
O O11 0.500000 0.559455 0.610606
O O12 0.281639 0.500000 0.629401
O O13 0.263253 0.560119 0.500000
O O14 0.233678 0.580397 0.679552
O O15 0.250000 0.750000 0.250000
O O16 0.239252 0.839847 0.262082
O O17 0.000000 0.789167 0.291849
#
# Coordination Sequence:
#
# PCOD8164291 Si02
#       8
#     8   8   8   8   8   8   8   8
#     4   9  16  28  45  67  98 132 164 198 238 285
#     4   9  18  34  50  65  96 133 167 204 247 289
#     4  11  20  32  49  72 101 135 169 204 246 297
#     4   9  18  32  49  72 102 132 165 207 249 291
#     4  11  21  34  51  72  97 131 170 209 249 294
#     4  11  21  34  51  72  97 131 170 209 249 294
#     4   9  18  32  49  72 102 132 165 207 249 291
#     4  11  20  32  49  72 101 135 169 204 246 297
#
# _framework density 16.557241000000001
#
# number of rings (size 3 to 8) (size 9 to 14) (size 15 to 20)
#    0.000    2.000    3.750    2.250    0.000    0.500 
#    0.000    5.000    0.000    0.000    0.000    0.875 
#    0.000    7.000    0.000    0.000    0.000    0.000 
#
# Total GULP energy -396613.552453 kJ/mol
# GULP energy per Si atom -12394.173514 kJ/mol
# Density = 1.651956 g / cm^3
# Si number density = 16.557241 Si / 1000 Ang^3
#
#
#
# Elastic Constant Matrix: (Units=GPa)
#
#
# Indices 1 2 3 4 5 6 
#
# 1 56.1685 34.4200 37.0692 0.0000 0.0000 0.0000
# 2 34.4200 115.7015 58.1957 0.0000 0.0000 0.0000
# 3 37.0692 58.1957 116.2366 -0.0002 -0.0001 -0.0001
# 4 0.0000 0.0000 -0.0002 25.8552 0.0000 0.0000
# 5 0.0000 0.0000 -0.0001 0.0000 19.0081 0.0000
# 6 0.0000 0.0000 -0.0001 0.0000 0.0000 28.6469
#
#
#
# Elastic Compliance Matrix: (Units=1/GPa)
#
#
# Indices 1 2 3 4 5 6 
#
# 1 0.024131 -0.004421 -0.005482 0.000000 0.000000 0.000000
# 2 -0.004421 0.012362 -0.004779 0.000000 0.000000 0.000000
# 3 -0.005482 -0.004779 0.012744 0.000000 0.000000 0.000000
# 4 0.000000 0.000000 0.000000 0.038677 0.000000 0.000000
# 5 0.000000 0.000000 0.000000 0.000000 0.052609 0.000000
# 6 0.000000 0.000000 0.000000 0.000000 0.000000 0.034908
#
#
# Mechanical properties :
#
#
# Convention : Reuss Voigt Hill
#
# Bulk Modulus (GPa) = 50.32204 60.83073 55.57638
# Shear Modulus (GPa) = 23.64954 25.26347 24.45650
#
# Velocity S-wave (km/s) = 3.78345 3.91042 3.84746
# Velocity P-wave (km/s) = 7.03880 7.56359 7.30591
#
# Compressibility (1/GPa) = 0.01987201
#
# Stress axis : x y z
#
# Youngs Moduli (GPa) = 41.44058 80.89221 78.46676
#
# Poissons Ratio (x) = 0.35765 0.43016
# Poissons Ratio (y) = 0.18322 0.37501
# Poissons Ratio (z) = 0.22718 0.38661
#
# Static dielectric constant tensor:
#      x y z
#    x 2.943770 0.000000 0.000000 
#    y 0.000000 3.164530 0.000000 
#    z 0.000000 0.000000 3.197170 
# 
# 
# High freq. dielectric constant tensor:
#      x y z
#    x 1.628830 0.000000 0.000000 
#    y 0.000000 1.634840 0.000000 
#    z 0.000000 0.000000 1.614360 
# 
# From -- ./inp_files/20415.got.cif
#   From: 2010.03.12/outbox.cif.g09.slc.cpg/sg23_11_cif.got.tgz:20415.got - 2010.04.14 02:50:06.
