data_PCOD8164562
_publ_section_title
;
Structure prediction by ZEFSAII (Michael W. Deem and Ramdas Pophale) SiO2 
 PCOD8164562
Probable space group: I 2 2 2
;
_chemical_formula_sum "Si O2"
_cell_formula_units_Z 40
_cell_length_a 9.578999
_cell_length_b 13.481508
_cell_length_c 18.482322
_cell_angle_alpha 90.000000
_cell_angle_beta 90.000000
_cell_angle_gamma 90.000000
_cell_volume 2386.795080
_symmetry_space_group_name_H-M "I 2 2 2"
_symmetry_group_IT_number 23
_symmetry_cell_setting 'orthorhombic'
loop_
_space_group_symop_operation_xyz
x,y,z
-x,-y,z
x,-y,-z
-x,y,-z
1/2+x,1/2+y,1/2+z
1/2-x,1/2-y,1/2+z
1/2+x,1/2-y,1/2-z
1/2-x,1/2+y,1/2-z
loop_
_atom_site_type_symbol
_atom_site_label
_atom_site_fract_x
_atom_site_fract_y
_atom_site_fract_z
Si Si1 0.837616 0.278604 0.356946
Si Si2 0.661322 0.886190 0.290912
Si Si3 0.165934 0.388885 0.500000
Si Si4 0.338679 0.886190 0.290912
Si Si5 0.162384 0.721396 0.643054
O O1 0.808542 0.353514 0.291188
O O2 0.781080 0.331247 0.429138
O O3 0.753233 0.176904 0.346691
O O4 1.000000 0.251225 0.363185
O O5 0.500000 0.869908 0.310597
O O6 0.753233 0.823096 0.346691
O O7 0.705802 0.000000 0.298949
O O8 0.228790 0.500000 0.500000
O O9 0.218920 0.331247 0.429138
O O10 0.000000 0.395305 0.500000
O O11 0.308542 0.853514 0.208812
#
# Coordination Sequence:
#
# PCOD8164562 Si02
#       5
#     8   8   8   8   8
#     4   9  17  29  47  70  91 113 147 187 222 260
#     4   9  17  30  47  66  90 120 150 180 218 264
#     4   9  16  28  48  71  92 114 143 183 228 267
#     4   9  17  30  47  66  90 120 150 180 218 264
#     4   9  17  29  47  70  91 113 147 187 222 260
#
# _framework density 16.758875
#
# number of rings (size 3 to 8) (size 9 to 14) (size 15 to 20)
#    0.000    3.000    0.000    1.200    0.000    5.600 
#    0.000    2.000    0.000   10.800    0.000    0.000 
#    0.000    0.000    0.000    0.000    0.000    0.000 
#
# Total GULP energy -248020.066221 kJ/mol
# GULP energy per Si atom -12401.003311 kJ/mol
# Density = 1.672073 g / cm^3
# Si number density = 16.758875 Si / 1000 Ang^3
#
#
#
# Elastic Constant Matrix: (Units=GPa)
#
#
# Indices 1 2 3 4 5 6 
#
# 1 45.9532 61.5092 39.7108 0.0000 0.0000 0.0000
# 2 61.5092 173.2457 80.1676 0.0000 0.0000 0.0000
# 3 39.7108 80.1676 118.5897 0.0000 0.0000 0.0000
# 4 0.0000 0.0000 0.0000 25.4841 0.0000 0.0000
# 5 0.0000 0.0000 0.0000 0.0000 21.2859 0.0000
# 6 0.0000 0.0000 0.0000 0.0000 0.0000 30.4759
#
#
#
# Elastic Compliance Matrix: (Units=1/GPa)
#
#
# Indices 1 2 3 4 5 6 
#
# 1 0.044321 -0.012905 -0.006117 0.000000 0.000000 0.000000
# 2 -0.012905 0.012157 -0.003897 0.000000 0.000000 0.000000
# 3 -0.006117 -0.003897 0.013115 0.000000 0.000000 0.000000
# 4 0.000000 0.000000 0.000000 0.039240 0.000000 0.000000
# 5 0.000000 0.000000 0.000000 0.000000 0.046979 0.000000
# 6 0.000000 0.000000 0.000000 0.000000 0.000000 0.032813
#
#
# Mechanical properties :
#
#
# Convention : Reuss Voigt Hill
#
# Bulk Modulus (GPa) = 42.09665 77.84044 59.96855
# Shear Modulus (GPa) = 20.62843 25.87592 23.25217
#
# Velocity S-wave (km/s) = 3.51222 3.93366 3.72890
# Velocity P-wave (km/s) = 6.45144 8.19632 7.37566
#
# Compressibility (1/GPa) = 0.02375486
#
# Stress axis : x y z
#
# Youngs Moduli (GPa) = 22.56243 82.25515 76.24644
#
# Poissons Ratio (x) = 1.06151 0.46644
# Poissons Ratio (y) = 0.29117 0.29714
# Poissons Ratio (z) = 0.13803 0.32055
#
# Static dielectric constant tensor:
#      x y z
#    x 2.942300 0.000000 0.000000 
#    y 0.000000 3.226080 0.000000 
#    z 0.000000 0.000000 3.143670 
# 
# 
# High freq. dielectric constant tensor:
#      x y z
#    x 1.621240 0.000000 0.000000 
#    y 0.000000 1.651560 0.000000 
#    z 0.000000 0.000000 1.638830 
# 
# From -- ./inp_files/9595.got.cif
#   From: 2010.03.12/outbox.cif.g09.slc.cpg/sg23_5_cif.got.tgz:9595.got - 2010.04.14 02:50:06.
