data_PCOD8164588
_publ_section_title
;
Structure prediction by ZEFSAII (Michael W. Deem and Ramdas Pophale) SiO2 
 PCOD8164588
Probable space group: I 21 21 21
;
_chemical_formula_sum "Si O2"
_cell_formula_units_Z 60
_cell_length_a 24.906928
_cell_length_b 10.005407
_cell_length_c 13.312321
_cell_angle_alpha 90.000000
_cell_angle_beta 90.000000
_cell_angle_gamma 90.000000
_cell_volume 3317.483000
_symmetry_space_group_name_H-M "I 21 21 21"
_symmetry_group_IT_number 24
_symmetry_cell_setting 'orthorhombic'
loop_
_space_group_symop_operation_xyz
x,y,z
-x,1/2-y,z
x,-y,1/2-z
1/2-x,y,-z
1/2+x,1/2+y,1/2+z
1/2-x,-y,1/2+z
1/2+x,1/2-y,-z
-x,1/2+y,1/2-z
loop_
_atom_site_type_symbol
_atom_site_label
_atom_site_fract_x
_atom_site_fract_y
_atom_site_fract_z
Si Si1 0.438298 0.734626 0.984765
Si Si2 0.334461 0.354101 0.146238
Si Si3 0.376637 0.744143 0.557228
Si Si4 0.075979 0.998734 0.136475
Si Si5 0.213922 0.421859 0.147233
Si Si6 0.048042 0.472783 0.136975
Si Si7 0.750000 0.126590 0.500000
Si Si8 0.152660 0.334753 0.630323
O O1 0.500000 0.750000 0.021561
O O2 0.398470 0.735291 0.079427
O O3 0.430994 0.596901 0.926865
O O4 0.420309 0.851498 0.909670
O O5 0.270522 0.348652 0.138356
O O6 0.348461 0.287830 0.253810
O O7 0.354017 0.505772 0.133073
O O8 0.362106 0.267043 0.059976
O O9 0.386904 0.900677 0.573674
O O10 0.329789 0.692203 0.630460
O O11 0.429146 0.661318 0.587904
O O12 0.015192 0.049090 0.134534
O O13 0.097701 0.000000 0.250000
O O14 0.205737 0.500000 0.250000
O O15 0.208274 0.534399 0.061495
O O16 0.068372 0.500000 0.250000
O O17 0.790597 0.207907 0.574487
#
# Coordination Sequence:
#
# PCOD8164588 Si02
#       8
#     8   8   8   8   8   8   4   8
#     4  10  20  37  59  81 114 153 191 236 286 340
#     4  10  19  34  57  84 115 142 181 256 288 322
#     4  12  20  33  58  86 112 148 190 231 293 345
#     4  10  23  38  52  79 124 153 178 233 294 347
#     4  11  18  30  52  88 113 138 184 241 288 328
#     4  10  19  35  57  84 108 146 197 240 281 337
#     4  10  16  30  54  84 110 140 180 238 278 328
#     4  10  18  35  57  84 114 141 189 237 295 321
#
# _framework density 18.085999999999999
#
# number of rings (size 3 to 8) (size 9 to 14) (size 15 to 20)
#    0.000    1.600    6.667    1.600    0.000    3.200 
#    0.000    2.000    2.933    0.000    0.000    0.000 
#    0.000    0.000    0.000    0.000    0.000    0.000 
#
# Total GULP energy -371923.197368 kJ/mol
# GULP energy per Si atom -12397.439912 kJ/mol
# Density = 1.804484 g / cm^3
# Si number density = 18.086000 Si / 1000 Ang^3
#
#
#
# Elastic Constant Matrix: (Units=GPa)
#
#
# Indices 1 2 3 4 5 6 
#
# 1 68.4993 16.1865 39.3694 0.0000 0.0000 0.0000
# 2 16.1865 48.7982 17.3660 0.0000 0.0000 0.0000
# 3 39.3694 17.3660 135.2495 0.0000 0.0000 0.0000
# 4 0.0000 0.0000 0.0000 35.9464 0.0000 0.0000
# 5 0.0000 0.0000 0.0000 0.0000 29.7577 0.0000
# 6 0.0000 0.0000 0.0000 0.0000 0.0000 26.0254
#
#
#
# Elastic Compliance Matrix: (Units=1/GPa)
#
#
# Indices 1 2 3 4 5 6 
#
# 1 0.018390 -0.004396 -0.004789 0.000000 0.000000 0.000000
# 2 -0.004396 0.022525 -0.001613 0.000000 0.000000 0.000000
# 3 -0.004789 -0.001613 0.008995 0.000000 0.000000 0.000000
# 4 0.000000 0.000000 0.000000 0.027819 0.000000 0.000000
# 5 0.000000 0.000000 0.000000 0.000000 0.033605 0.000000
# 6 0.000000 0.000000 0.000000 0.000000 0.000000 0.038424
#
#
# Mechanical properties :
#
#
# Convention : Reuss Voigt Hill
#
# Bulk Modulus (GPa) = 35.31697 44.26563 39.79130
# Shear Modulus (GPa) = 27.65656 30.32090 28.98873
#
# Velocity S-wave (km/s) = 3.91470 4.09893 4.00788
# Velocity P-wave (km/s) = 6.32478 6.85054 6.59290
#
# Compressibility (1/GPa) = 0.02831500
#
# Stress axis : x y z
#
# Youngs Moduli (GPa) = 54.37853 44.39605 111.17667
#
# Poissons Ratio (x) = 0.19515 0.53238
# Poissons Ratio (y) = 0.23903 0.17928
# Poissons Ratio (z) = 0.26040 0.07159
#
# Static dielectric constant tensor:
#      x y z
#    x 2.082970 0.000000 0.000000 
#    y 0.000000 2.971880 0.000000 
#    z 0.000000 0.000000 3.298070 
# 
# 
# High freq. dielectric constant tensor:
#      x y z
#    x 1.701370 0.000000 0.000000 
#    y 0.000000 1.661820 0.000000 
#    z 0.000000 0.000000 1.712270 
# 
# From -- ./inp_files/22971.got.cif
#   From: 2010.03.12/outbox.cif.g09.slc.cpg/sg24_12_cif.got.tgz:22971.got - 2010.04.14 03:06:53.
