data_PCOD8164471
_publ_section_title
;
Structure prediction by ZEFSAII (Michael W. Deem and Ramdas Pophale) SiO2 
 PCOD8164471
Probable space group: I 2 2 2
;
_chemical_formula_sum "Si O2"
_cell_formula_units_Z 24
_cell_length_a 4.639540
_cell_length_b 24.579336
_cell_length_c 8.508584
_cell_angle_alpha 90.000000
_cell_angle_beta 90.000000
_cell_angle_gamma 90.000000
_cell_volume 970.291799
_symmetry_space_group_name_H-M "I 2 2 2"
_symmetry_group_IT_number 23
_symmetry_cell_setting 'orthorhombic'
loop_
_space_group_symop_operation_xyz
x,y,z
-x,-y,z
x,-y,-z
-x,y,-z
1/2+x,1/2+y,1/2+z
1/2-x,1/2-y,1/2+z
1/2+x,1/2-y,1/2-z
1/2-x,1/2+y,1/2-z
loop_
_atom_site_type_symbol
_atom_site_label
_atom_site_fract_x
_atom_site_fract_y
_atom_site_fract_z
Si Si1 0.385445 0.890036 0.668040
Si Si2 0.846265 0.772739 0.331970
Si Si3 0.098321 0.062220 0.833858
O O1 0.500000 0.908383 0.500000
O O2 0.362995 0.825070 0.682891
O O3 0.567181 0.922537 0.803144
O O4 0.058172 0.909203 0.687498
O O5 0.608602 0.725544 0.295311
O O6 0.000000 0.764941 0.500000
O O7 0.000000 0.000000 0.832172
O O8 0.000000 0.087945 0.000000
#
# Coordination Sequence:
#
# PCOD8164471 Si02
#       3
#     8   8   8
#     4  12  25  45  70 100 139 180 230 288 346 413
#     4  12  26  47  72 102 141 185 235 291 350 417
#     4  11  25  45  70 102 139 180 230 286 345 414
#
# _framework density 24.734829000000001
#
# number of rings (size 3 to 8) (size 9 to 14) (size 15 to 20)
#    0.000    0.333    0.000   10.000    0.000   12.000 
#    0.000    5.000    0.000    0.000    0.000    0.000 
#    0.000    0.000    0.000    0.000    0.000    0.000 
#
# Total GULP energy -148677.265119 kJ/mol
# GULP energy per Si atom -12389.772093 kJ/mol
# Density = 2.467853 g / cm^3
# Si number density = 24.734829 Si / 1000 Ang^3
#
#
#
# Elastic Constant Matrix: (Units=GPa)
#
#
# Indices 1 2 3 4 5 6 
#
# 1 109.3144 26.6335 37.8045 -0.0001 0.0000 0.0000
# 2 26.6335 59.5056 45.2990 0.0002 0.0000 0.0001
# 3 37.8045 45.2990 115.2461 0.0001 -0.0001 0.0001
# 4 -0.0001 0.0002 0.0001 27.1052 0.0000 0.0000
# 5 0.0000 0.0000 -0.0001 0.0000 54.0236 0.0000
# 6 0.0000 0.0001 0.0001 0.0000 0.0000 61.7502
#
#
#
# Elastic Compliance Matrix: (Units=1/GPa)
#
#
# Indices 1 2 3 4 5 6 
#
# 1 0.010685 -0.003017 -0.002319 0.000000 0.000000 0.000000
# 2 -0.003017 0.024832 -0.008771 0.000000 0.000000 0.000000
# 3 -0.002319 -0.008771 0.012885 0.000000 0.000000 0.000000
# 4 0.000000 0.000000 0.000000 0.036893 0.000000 0.000000
# 5 0.000000 0.000000 0.000000 0.000000 0.018510 0.000000
# 6 0.000000 0.000000 0.000000 0.000000 0.000000 0.016194
#
#
# Mechanical properties :
#
#
# Convention : Reuss Voigt Hill
#
# Bulk Modulus (GPa) = 49.53297 55.94889 52.74093
# Shear Modulus (GPa) = 32.26954 40.19772 36.23363
#
# Velocity S-wave (km/s) = 3.61587 4.03568 3.83153
# Velocity P-wave (km/s) = 6.12387 6.66215 6.39867
#
# Compressibility (1/GPa) = 0.02018857
#
# Stress axis : x y z
#
# Youngs Moduli (GPa) = 93.58889 40.26987 77.60686
#
# Poissons Ratio (x) = 0.12149 0.17999
# Poissons Ratio (y) = 0.28235 0.68070
# Poissons Ratio (z) = 0.21705 0.35321
#
# Static dielectric constant tensor:
#      x y z
#    x 4.716010 0.000000 0.000000 
#    y 0.000000 4.274480 0.000000 
#    z 0.000000 0.000000 4.579420 
# 
# 
# High freq. dielectric constant tensor:
#      x y z
#    x 2.018250 0.000000 0.000000 
#    y 0.000000 1.966670 0.000000 
#    z 0.000000 0.000000 1.985190 
# 
# From -- ./inp_files/4159.got.cif
#   From: 2010.03.12/outbox.cif.g09.slc.cpg/sg23_3_cif.got.tgz:4159.got - 2010.04.14 02:50:06.
