data_PCOD8164499
_publ_section_title
;
Structure prediction by ZEFSAII (Michael W. Deem and Ramdas Pophale) SiO2 
 PCOD8164499
Probable space group: I 2 2 2
;
_chemical_formula_sum "Si O2"
_cell_formula_units_Z 30
_cell_length_a 5.626324
_cell_length_b 11.671561
_cell_length_c 18.877013
_cell_angle_alpha 90.000000
_cell_angle_beta 90.000000
_cell_angle_gamma 90.000000
_cell_volume 1239.615383
_symmetry_space_group_name_H-M "I 2 2 2"
_symmetry_group_IT_number 23
_symmetry_cell_setting 'orthorhombic'
loop_
_space_group_symop_operation_xyz
x,y,z
-x,-y,z
x,-y,-z
-x,y,-z
1/2+x,1/2+y,1/2+z
1/2-x,1/2-y,1/2+z
1/2+x,1/2-y,1/2-z
1/2-x,1/2+y,1/2-z
loop_
_atom_site_type_symbol
_atom_site_label
_atom_site_fract_x
_atom_site_fract_y
_atom_site_fract_z
Si Si1 0.811861 0.194887 0.095257
Si Si2 0.000000 0.000000 0.000000
Si Si3 0.000000 0.848390 0.500000
Si Si4 0.332986 0.892490 0.385352
Si Si5 0.754526 0.934003 0.768090
O O1 0.607705 0.269097 0.060690
O O2 0.733150 0.168187 0.175302
O O3 0.050239 0.270786 0.095503
O O4 0.839662 0.078727 0.050508
O O5 0.825403 0.927283 0.546637
O O6 0.199962 0.880719 0.309904
O O7 0.500000 0.000000 0.375668
O O8 0.500000 0.000000 0.772180
O O9 0.000000 0.000000 0.788143
#
# Coordination Sequence:
#
# PCOD8164499 Si02
#       5
#     8   2   4   8   8
#     4  12  28  49  80 111 162 206 265 336 401 477
#     4  12  24  54  70 116 158 198 274 326 418 456
#     4  12  28  48  82 114 150 221 255 346 392 488
#     4  11  29  52  76 118 157 211 269 328 402 479
#     4  11  29  52  82 117 160 214 268 333 394 481
#
# _framework density 24.201056000000001
#
# number of rings (size 3 to 8) (size 9 to 14) (size 15 to 20)
#    0.000    0.533    4.000    0.000   18.667    3.200 
#    0.000    0.000    0.000    0.000    0.000    0.000 
#    0.000    0.000    0.000    0.000    0.000    0.000 
#
# Total GULP energy -185939.737884 kJ/mol
# GULP energy per Si atom -12395.982526 kJ/mol
# Density = 2.414597 g / cm^3
# Si number density = 24.201056 Si / 1000 Ang^3
#
#
#
# Elastic Constant Matrix: (Units=GPa)
#
#
# Indices 1 2 3 4 5 6 
#
# 1 106.4243 9.1619 44.0977 0.0000 0.0000 0.0000
# 2 9.1619 81.6923 43.1059 0.0000 0.0000 0.0000
# 3 44.0977 43.1059 219.8417 0.0000 0.0000 0.0000
# 4 0.0000 0.0000 0.0000 52.2314 0.0000 0.0000
# 5 0.0000 0.0000 0.0000 0.0000 45.0711 0.0000
# 6 0.0000 0.0000 0.0000 0.0000 0.0000 12.5212
#
#
#
# Elastic Compliance Matrix: (Units=1/GPa)
#
#
# Indices 1 2 3 4 5 6 
#
# 1 0.010249 -0.000072 -0.002042 0.000000 0.000000 0.000000
# 2 -0.000072 0.013654 -0.002663 0.000000 0.000000 0.000000
# 3 -0.002042 -0.002663 0.005480 0.000000 0.000000 0.000000
# 4 0.000000 0.000000 0.000000 0.019146 0.000000 0.000000
# 5 0.000000 0.000000 0.000000 0.000000 0.022187 0.000000
# 6 0.000000 0.000000 0.000000 0.000000 0.000000 0.079865
#
#
# Mechanical properties :
#
#
# Convention : Reuss Voigt Hill
#
# Bulk Modulus (GPa) = 50.42855 66.74327 58.58591
# Shear Modulus (GPa) = 29.98616 42.73759 36.36187
#
# Velocity S-wave (km/s) = 3.52382 4.20687 3.88040
# Velocity P-wave (km/s) = 6.11874 7.15790 6.65862
#
# Compressibility (1/GPa) = 0.01983004
#
# Stress axis : x y z
#
# Youngs Moduli (GPa) = 97.57519 73.23747 182.46964
#
# Poissons Ratio (x) = 0.00528 0.37253
# Poissons Ratio (y) = 0.00704 0.48588
# Poissons Ratio (z) = 0.19921 0.19502
#
# Static dielectric constant tensor:
#      x y z
#    x 4.334180 0.000000 0.000000 
#    y 0.000000 4.261800 0.000000 
#    z 0.000000 0.000000 4.961850 
# 
# 
# High freq. dielectric constant tensor:
#      x y z
#    x 1.957380 0.000000 0.000000 
#    y 0.000000 1.960830 0.000000 
#    z 0.000000 0.000000 2.000630 
# 
# From -- ./inp_files/13765.got.cif
#   From: 2010.03.12/outbox.cif.g09.slc.cpg/sg23_7_cif.got.tgz:13765.got - 2010.04.14 02:50:06.
