data_PCOD8164256
_publ_section_title
;
Structure prediction by ZEFSAII (Michael W. Deem and Ramdas Pophale) SiO2 
 PCOD8164256
Probable space group: I 2 2 2
;
_chemical_formula_sum "Si O2"
_cell_formula_units_Z 38
_cell_length_a 10.222383
_cell_length_b 15.987220
_cell_length_c 9.375079
_cell_angle_alpha 90.000000
_cell_angle_beta 90.000000
_cell_angle_gamma 90.000000
_cell_volume 1532.145592
_symmetry_space_group_name_H-M "I 2 2 2"
_symmetry_group_IT_number 23
_symmetry_cell_setting 'orthorhombic'
loop_
_space_group_symop_operation_xyz
x,y,z
-x,-y,z
x,-y,-z
-x,y,-z
1/2+x,1/2+y,1/2+z
1/2-x,1/2-y,1/2+z
1/2+x,1/2-y,1/2-z
1/2-x,1/2+y,1/2-z
loop_
_atom_site_type_symbol
_atom_site_label
_atom_site_fract_x
_atom_site_fract_y
_atom_site_fract_z
Si Si1 0.141887 0.615545 0.982102
Si Si2 0.000000 0.816465 0.500000
Si Si3 0.335437 0.595257 0.221155
Si Si4 0.266242 0.069036 0.823791
Si Si5 0.265025 0.712752 0.467781
Si Si6 0.000000 0.500000 0.500000
O O1 0.211340 0.601677 0.833072
O O2 0.130868 0.715325 0.002244
O O3 0.226645 0.571801 0.104086
O O4 0.000000 0.574883 0.000000
O O5 0.031154 0.878027 0.636844
O O6 0.121802 0.755680 0.471941
O O7 0.333938 0.511325 0.320551
O O8 0.287068 0.674509 0.311608
O O9 0.406792 0.053691 0.897885
O O10 0.201873 0.142823 0.914668
#
# Coordination Sequence:
#
# PCOD8164256 Si02
#       6
#     8   4   8   8   8   2
#     4  11  25  42  71 104 147 189 250 307 373 448
#     4  10  25  46  74 111 154 202 242 316 388 450
#     4  11  24  45  74 107 146 199 246 311 381 450
#     4  12  24  44  71 109 148 190 250 310 373 448
#     4  11  24  45  75 107 148 198 252 308 377 457
#     4  12  22  40  78 102 146 184 240 320 366 426
#
# _framework density 24.801819999999999
#
# number of rings (size 3 to 8) (size 9 to 14) (size 15 to 20)
#    0.000    0.842    2.105    5.053    5.895    0.842 
#    0.000    8.421    0.000    1.263    0.000    0.000 
#    0.000    0.000    0.000    0.000    0.000    0.000 
#
# Total GULP energy -235486.087189 kJ/mol
# GULP energy per Si atom -12394.004589 kJ/mol
# Density = 2.474537 g / cm^3
# Si number density = 24.801820 Si / 1000 Ang^3
#
#
#
# Elastic Constant Matrix: (Units=GPa)
#
#
# Indices 1 2 3 4 5 6 
#
# 1 73.0803 28.1759 19.1359 -0.0002 0.0000 0.0000
# 2 28.1759 165.6704 45.6515 -0.0001 0.0000 -0.0001
# 3 19.1359 45.6515 108.9629 -0.0028 -0.0001 -0.0004
# 4 -0.0002 -0.0001 -0.0028 -17.0661 0.0004 -0.0001
# 5 0.0000 0.0000 -0.0001 0.0004 37.0409 -0.0001
# 6 0.0000 -0.0001 -0.0004 -0.0001 -0.0001 1.5538
#
#
#
# Elastic Compliance Matrix: (Units=1/GPa)
#
#
# Indices 1 2 3 4 5 6 
#
# 1 0.014937 -0.002055 -0.001762 0.000000 0.000000 0.000000
# 2 -0.002055 0.007107 -0.002617 0.000000 0.000000 0.000000
# 3 -0.001762 -0.002617 0.010583 -0.000002 0.000000 0.000003
# 4 0.000000 0.000000 -0.000002 -0.058596 0.000001 -0.000004
# 5 0.000000 0.000000 0.000000 0.000001 0.026997 0.000001
# 6 0.000000 0.000000 0.000003 -0.000004 0.000001 0.643600
#
#
# Mechanical properties :
#
#
# Convention : Reuss Voigt Hill
#
# Bulk Modulus (GPa) = 50.60828 59.29335 54.95081
# Shear Modulus (GPa) = 7.52919 21.28905 14.40912
#
# Velocity S-wave (km/s) = 1.74423 2.93297 2.41295
# Velocity P-wave (km/s) = 4.95033 5.95218 5.47423
#
# Compressibility (1/GPa) = 0.01975961
#
# Stress axis : x y z
#
# Youngs Moduli (GPa) = 66.94664 140.71541 94.48966
#
# Poissons Ratio (x) = 0.28914 0.16653
# Poissons Ratio (y) = 0.13756 0.24723
# Poissons Ratio (z) = 0.11799 0.36819
#
# Static dielectric constant tensor:
#      x y z
#    x 4.518800 0.000000 0.000000 
#    y 0.000000 4.848520 0.000000 
#    z 0.000000 0.000000 4.894840 
# 
# 
# High freq. dielectric constant tensor:
#      x y z
#    x 1.964640 0.000000 0.000000 
#    y 0.000000 2.012810 0.000000 
#    z 0.000000 0.000000 2.002100 
# 
# From -- ./inp_files/8233.got.cif
#   From: 2010.03.12/outbox.cif.g09.slc.cpg/sg23_5_cif.got.tgz:8233.got - 2010.04.14 02:50:06.
