data_PCOD8164451
_publ_section_title
;
Structure prediction by ZEFSAII (Michael W. Deem and Ramdas Pophale) SiO2 
 PCOD8164451
Probable space group: I 2 2 2
;
_chemical_formula_sum "Si O2"
_cell_formula_units_Z 32
_cell_length_a 31.165647
_cell_length_b 8.723175
_cell_length_c 5.151492
_cell_angle_alpha 90.000000
_cell_angle_beta 90.000000
_cell_angle_gamma 90.000000
_cell_volume 1400.502093
_symmetry_space_group_name_H-M "I 2 2 2"
_symmetry_group_IT_number 23
_symmetry_cell_setting 'orthorhombic'
loop_
_space_group_symop_operation_xyz
x,y,z
-x,-y,z
x,-y,-z
-x,y,-z
1/2+x,1/2+y,1/2+z
1/2-x,1/2-y,1/2+z
1/2+x,1/2-y,1/2-z
1/2-x,1/2+y,1/2-z
loop_
_atom_site_type_symbol
_atom_site_label
_atom_site_fract_x
_atom_site_fract_y
_atom_site_fract_z
Si Si1 0.319527 0.325736 0.970049
Si Si2 0.550810 0.674589 0.495793
Si Si3 0.266959 0.103241 0.250718
Si Si4 0.908786 0.680368 0.483373
O O1 0.281181 0.325657 0.756510
O O2 0.360938 0.228049 0.896523
O O3 0.335030 0.500000 0.000000
O O4 0.299182 0.249303 0.231751
O O5 0.567144 0.500000 0.500000
O O6 0.500000 0.682784 0.500000
O O7 0.560820 0.762405 0.758244
O O8 0.574706 0.751693 0.254126
O O9 0.277198 0.000000 0.500000
O O10 0.274194 0.000000 0.000000
O O11 0.910922 0.500000 0.500000
#
# Coordination Sequence:
#
# PCOD8164451 Si02
#       4
#     8   8   8   8
#     4  11  24  43  68  97 135 181 230 278 333 396
#     4  11  25  48  75 102 134 174 221 275 338 406
#     4  11  25  44  67  96 134 181 230 283 339 394
#     4  12  27  44  69 103 140 178 222 277 333 400
#
# _framework density 22.848946999999999
#
# number of rings (size 3 to 8) (size 9 to 14) (size 15 to 20)
#    0.000    0.750    0.000    7.500    0.000   16.000 
#    0.000    0.000    0.000    0.000    0.000    0.000 
#    0.000    0.000    0.000    0.000    0.000    0.000 
#
# Total GULP energy -198330.225079 kJ/mol
# GULP energy per Si atom -12395.639067 kJ/mol
# Density = 2.279694 g / cm^3
# Si number density = 22.848947 Si / 1000 Ang^3
#
#
#
# Elastic Constant Matrix: (Units=GPa)
#
#
# Indices 1 2 3 4 5 6 
#
# 1 101.2632 64.2931 31.2181 0.0000 0.0000 -0.0006
# 2 64.2931 226.3671 90.4263 0.0003 0.0002 0.0004
# 3 31.2181 90.4263 160.1643 0.0011 0.0008 0.0014
# 4 0.0000 0.0003 0.0011 39.9750 0.0004 0.0001
# 5 0.0000 0.0002 0.0008 0.0004 43.2474 0.0000
# 6 -0.0006 0.0004 0.0014 0.0001 0.0000 103.1549
#
#
#
# Elastic Compliance Matrix: (Units=1/GPa)
#
#
# Indices 1 2 3 4 5 6 
#
# 1 0.012084 -0.003217 -0.000539 0.000000 0.000000 0.000000
# 2 -0.003217 0.006560 -0.003077 0.000000 0.000000 0.000000
# 3 -0.000539 -0.003077 0.008086 0.000000 0.000000 0.000000
# 4 0.000000 0.000000 0.000000 0.025016 0.000000 0.000000
# 5 0.000000 0.000000 0.000000 0.000000 0.023123 0.000000
# 6 0.000000 0.000000 0.000000 0.000000 0.000000 0.009694
#
#
# Mechanical properties :
#
#
# Convention : Reuss Voigt Hill
#
# Bulk Modulus (GPa) = 76.54366 95.51885 86.03126
# Shear Modulus (GPa) = 48.74109 57.39927 53.07018
#
# Velocity S-wave (km/s) = 4.62366 5.01754 4.82462
# Velocity P-wave (km/s) = 7.87889 8.68694 8.29276
#
# Compressibility (1/GPa) = 0.01306444
#
# Stress axis : x y z
#
# Youngs Moduli (GPa) = 82.75560 152.43164 123.67278
#
# Poissons Ratio (x) = 0.49032 0.06669
# Poissons Ratio (y) = 0.26620 0.38053
# Poissons Ratio (z) = 0.04462 0.46902
#
# Static dielectric constant tensor:
#      x y z
#    x 4.148950 0.000000 0.000000 
#    y 0.000000 4.730090 0.000000 
#    z 0.000000 0.000000 4.073090 
# 
# 
# High freq. dielectric constant tensor:
#      x y z
#    x 1.906120 0.000000 0.000000 
#    y 0.000000 1.934340 0.000000 
#    z 0.000000 0.000000 1.901710 
# 
# From -- ./inp_files/5201.got.cif
#   From: 2010.03.12/outbox.cif.g09.slc.cpg/sg23_3_cif.got.tgz:5201.got - 2010.04.14 02:50:06.
