data_PCOD8164163
_publ_section_title
;
Structure prediction by ZEFSAII (Michael W. Deem and Ramdas Pophale) SiO2 
 PCOD8164163
Probable space group: I 2 2 2
;
_chemical_formula_sum "Si O2"
_cell_formula_units_Z 40
_cell_length_a 23.787517
_cell_length_b 5.170004
_cell_length_c 12.160321
_cell_angle_alpha 90.000000
_cell_angle_beta 90.000000
_cell_angle_gamma 90.000000
_cell_volume 1495.495223
_symmetry_space_group_name_H-M "I 2 2 2"
_symmetry_group_IT_number 23
_symmetry_cell_setting 'orthorhombic'
loop_
_space_group_symop_operation_xyz
x,y,z
-x,-y,z
x,-y,-z
-x,y,-z
1/2+x,1/2+y,1/2+z
1/2-x,1/2-y,1/2+z
1/2+x,1/2-y,1/2-z
1/2-x,1/2+y,1/2-z
loop_
_atom_site_type_symbol
_atom_site_label
_atom_site_fract_x
_atom_site_fract_y
_atom_site_fract_z
Si Si1 0.376952 0.458049 0.627955
Si Si2 0.749564 0.489476 0.369998
Si Si3 0.181997 0.985560 0.630313
Si Si4 0.059208 0.092070 0.624806
Si Si5 0.437618 0.954484 0.705523
O O1 0.367287 0.500000 0.500000
O O2 0.314038 0.489911 0.682761
O O3 0.421775 0.671249 0.662453
O O4 0.397096 0.168711 0.656617
O O5 0.743267 0.500000 0.500000
O O6 0.784193 0.239664 0.331176
O O7 0.782408 0.741544 0.329352
O O8 0.116779 0.964083 0.677239
O O9 0.173953 0.000000 0.500000
O O10 0.063820 0.401134 0.658409
O O11 0.056413 0.000000 0.500000
O O12 0.000000 0.000000 0.681028
O O13 0.500000 0.000000 0.662715
#
# Coordination Sequence:
#
# PCOD8164163 Si02
#       5
#     8   8   8   8   8
#     4  11  24  44  72 104 143 190 235 288 364 440
#     4   9  18  36  63  97 135 178 229 286 351 426
#     4   9  18  35  63  97 133 177 233 291 349 421
#     4  10  23  46  72 101 139 191 244 298 365 430
#     4  12  26  45  69 103 144 184 239 305 357 424
#
# _framework density 26.746994999999998
#
# number of rings (size 3 to 8) (size 9 to 14) (size 15 to 20)
#    0.000    1.800    0.000    3.600    0.000    8.800 
#    0.000   19.000    0.000    0.000    0.000    0.000 
#    0.000    0.000    0.000    0.000    0.000    0.000 
#
# Total GULP energy -247818.245434 kJ/mol
# GULP energy per Si atom -12390.912272 kJ/mol
# Density = 2.668612 g / cm^3
# Si number density = 26.746995 Si / 1000 Ang^3
#
#
#
# Elastic Constant Matrix: (Units=GPa)
#
#
# Indices 1 2 3 4 5 6 
#
# 1 283.9901 93.2593 72.3775 0.0000 0.0000 0.0000
# 2 93.2593 201.9977 50.9286 0.0000 0.0000 0.0000
# 3 72.3775 50.9286 106.5470 0.0000 0.0000 0.0000
# 4 0.0000 0.0000 0.0000-2594.0124 0.0000 0.0000
# 5 0.0000 0.0000 0.0000 0.0000 37.1907 0.0000
# 6 0.0000 0.0000 0.0000 0.0000 0.0000 27.6395
#
#
#
# Elastic Compliance Matrix: (Units=1/GPa)
#
#
# Indices 1 2 3 4 5 6 
#
# 1 0.004641 -0.001533 -0.002420 0.000000 0.000000 0.000000
# 2 -0.001533 0.006135 -0.001891 0.000000 0.000000 0.000000
# 3 -0.002420 -0.001891 0.011934 0.000000 0.000000 0.000000
# 4 0.000000 0.000000 0.000000 -0.000386 0.000000 0.000000
# 5 0.000000 0.000000 0.000000 0.000000 0.026888 0.000000
# 6 0.000000 0.000000 0.000000 0.000000 0.000000 0.036180
#
#
# Mechanical properties :
#
#
# Convention : Reuss Voigt Hill
#
# Bulk Modulus (GPa) = 90.73192 113.96284 102.34738
# Shear Modulus (GPa) = 49.62504 -480.77180 -215.57338
#
# Velocity S-wave (km/s) = 4.31205 -13.42156 -8.98734
# Velocity P-wave (km/s) = 7.66731 14.05290 8.32756
#
# Compressibility (1/GPa) = 0.01102148
#
# Stress axis : x y z
#
# Youngs Moduli (GPa) = 215.45268 162.99904 83.79627
#
# Poissons Ratio (x) = 0.24982 0.20281
# Poissons Ratio (y) = 0.33021 0.15849
# Poissons Ratio (z) = 0.52146 0.30829
#
# Static dielectric constant tensor:
#      x y z
#    x 5.816430 0.000000 0.000000 
#    y 0.000000 4.897920 0.000000 
#    z 0.000000 0.000000 5.862770 
# 
# 
# High freq. dielectric constant tensor:
#      x y z
#    x 2.110540 0.000000 0.000000 
#    y 0.000000 2.064790 0.000000 
#    z 0.000000 0.000000 2.129560 
# 
# From -- ./inp_files/22518.got.cif
#   From: 2010.03.12/outbox.cif.g09.slc.cpg/sg23_12_cif.got.tgz:22518.got - 2010.04.14 02:50:06.
