data_PCOD8164032
_publ_section_title
;
Structure prediction by ZEFSAII (Michael W. Deem and Ramdas Pophale) SiO2 
 PCOD8164032
Probable space group: I 2 2 2
;
_chemical_formula_sum "Si O2"
_cell_formula_units_Z 56
_cell_length_a 14.879377
_cell_length_b 11.855760
_cell_length_c 14.838306
_cell_angle_alpha 90.000000
_cell_angle_beta 90.000000
_cell_angle_gamma 90.000000
_cell_volume 2617.570996
_symmetry_space_group_name_H-M "I 2 2 2"
_symmetry_group_IT_number 23
_symmetry_cell_setting 'orthorhombic'
loop_
_space_group_symop_operation_xyz
x,y,z
-x,-y,z
x,-y,-z
-x,y,-z
1/2+x,1/2+y,1/2+z
1/2-x,1/2-y,1/2+z
1/2+x,1/2-y,1/2-z
1/2-x,1/2+y,1/2-z
loop_
_atom_site_type_symbol
_atom_site_label
_atom_site_fract_x
_atom_site_fract_y
_atom_site_fract_z
Si Si1 0.201006 0.594405 0.932063
Si Si2 0.246727 0.595709 0.567786
Si Si3 0.644917 0.978923 0.761095
Si Si4 0.014720 0.866725 0.635308
Si Si5 0.024093 0.323173 0.763711
Si Si6 0.866380 0.783111 0.504636
Si Si7 0.416054 0.248678 0.453545
O O1 0.190420 0.536726 0.835679
O O2 0.231819 0.500000 0.000000
O O3 0.284483 0.678604 0.932726
O O4 0.113478 0.658850 0.969817
O O5 0.278837 0.500000 0.500000
O O6 0.220723 0.545488 0.664640
O O7 0.158601 0.656370 0.526096
O O8 0.333066 0.676156 0.580128
O O9 0.564224 0.890691 0.764113
O O10 0.608896 0.106951 0.777483
O O11 0.113798 0.851153 0.590036
O O12 0.994801 0.804977 0.729905
O O13 0.952033 0.795751 0.567798
O O14 0.000000 0.000000 0.645271
O O15 0.043617 0.319463 0.869421
O O16 0.500000 0.316318 0.500000
#
# Coordination Sequence:
#
# PCOD8164032 Si02
#       7
#     8   8   8   8   8   8   8
#     4  11  21  39  67 100 130 173 232 299 340 398
#     4  11  25  47  65 100 144 184 228 283 354 429
#     4  11  23  42  72 101 136 175 236 290 351 409
#     4  11  22  42  65  98 136 179 223 275 354 419
#     4  11  23  42  66 105 134 174 233 281 346 415
#     4  10  22  41  66  94 132 176 229 279 345 407
#     4  11  24  44  66  96 139 183 231 287 345 416
#
# _framework density 21.393878000000001
#
# number of rings (size 3 to 8) (size 9 to 14) (size 15 to 20)
#    0.000    1.143    4.286    2.571    2.000    0.571 
#    2.571    0.000    0.000    0.000    0.000    0.000 
#    0.000    0.000    0.000    0.000    0.000    0.000 
#
# Total GULP energy -346904.589518 kJ/mol
# GULP energy per Si atom -12389.449626 kJ/mol
# Density = 2.134519 g / cm^3
# Si number density = 21.393878 Si / 1000 Ang^3
#
#
#
# Elastic Constant Matrix: (Units=GPa)
#
#
# Indices 1 2 3 4 5 6 
#
# 1 75.1945 8.5610 32.5800 0.0000 0.0000 0.0000
# 2 8.5610 78.5957 17.2980 0.0000 0.0000 0.0000
# 3 32.5800 17.2980 99.8302 0.0000 0.0000 0.0000
# 4 0.0000 0.0000 0.0000 28.8930 0.0000 0.0000
# 5 0.0000 0.0000 0.0000 0.0000 55.8422 0.0000
# 6 0.0000 0.0000 0.0000 0.0000 0.0000 12.4422
#
#
#
# Elastic Compliance Matrix: (Units=1/GPa)
#
#
# Indices 1 2 3 4 5 6 
#
# 1 0.015516 -0.000598 -0.004960 0.000000 0.000000 0.000000
# 2 -0.000598 0.013251 -0.002101 0.000000 0.000000 0.000000
# 3 -0.004960 -0.002101 0.012000 0.000000 0.000000 0.000000
# 4 0.000000 0.000000 0.000000 0.034610 0.000000 0.000000
# 5 0.000000 0.000000 0.000000 0.000000 0.017908 0.000000
# 6 0.000000 0.000000 0.000000 0.000000 0.000000 0.080372
#
#
# Mechanical properties :
#
#
# Convention : Reuss Voigt Hill
#
# Bulk Modulus (GPa) = 39.29544 41.16651 40.23098
# Shear Modulus (GPa) = 25.32190 32.44757 28.88473
#
# Velocity S-wave (km/s) = 3.44409 3.89868 3.67841
# Velocity P-wave (km/s) = 5.85005 6.28890 6.07344
#
# Compressibility (1/GPa) = 0.02544824
#
# Stress axis : x y z
#
# Youngs Moduli (GPa) = 64.44937 75.46677 83.33508
#
# Poissons Ratio (x) = 0.04516 0.41335
# Poissons Ratio (y) = 0.03857 0.17506
# Poissons Ratio (z) = 0.31967 0.15854
#
# Static dielectric constant tensor:
#      x y z
#    x 4.075310 0.000000 0.000000 
#    y 0.000000 2.630030 0.000000 
#    z 0.000000 0.000000 3.941690 
# 
# 
# High freq. dielectric constant tensor:
#      x y z
#    x 1.844630 0.000000 0.000000 
#    y 0.000000 1.827880 0.000000 
#    z 0.000000 0.000000 1.840590 
# 
# From -- ./inp_files/16768.got.cif
#   From: 2010.03.12/outbox.cif.g09.slc.cpg/sg23_9_cif.got.tgz:16768.got - 2010.04.14 02:50:06.
