data_PCOD8164927
_publ_section_title
;
Structure prediction by ZEFSAII (Michael W. Deem and Ramdas Pophale) SiO2 
 PCOD8164927
Probable space group: I 21 21 21
;
_chemical_formula_sum "Si O2"
_cell_formula_units_Z 48
_cell_length_a 16.891070
_cell_length_b 14.055792
_cell_length_c 9.775992
_cell_angle_alpha 90.000000
_cell_angle_beta 90.000000
_cell_angle_gamma 90.000000
_cell_volume 2320.990276
_symmetry_space_group_name_H-M "I 21 21 21"
_symmetry_group_IT_number 24
_symmetry_cell_setting 'orthorhombic'
loop_
_space_group_symop_operation_xyz
x,y,z
-x,1/2-y,z
x,-y,1/2-z
1/2-x,y,-z
1/2+x,1/2+y,1/2+z
1/2-x,-y,1/2+z
1/2+x,1/2-y,-z
-x,1/2+y,1/2-z
loop_
_atom_site_type_symbol
_atom_site_label
_atom_site_fract_x
_atom_site_fract_y
_atom_site_fract_z
Si Si1 0.450974 0.618345 0.642818
Si Si2 0.750000 0.566256 0.500000
Si Si3 0.151641 0.000000 0.750000
Si Si4 0.540858 0.341875 0.346917
Si Si5 0.619217 0.314906 0.856483
Si Si6 0.079650 0.417791 0.444889
Si Si7 0.834794 0.262284 0.444244
O O1 0.543261 0.620961 0.603934
O O2 0.400639 0.708521 0.592986
O O3 0.404358 0.530158 0.574428
O O4 0.461884 0.617886 0.806497
O O5 0.792531 0.500485 0.614885
O O6 0.688851 0.638968 0.561709
O O7 0.094628 0.906787 0.747509
O O8 0.500000 0.250000 0.269988
O O9 0.474213 0.405952 0.420529
O O10 0.594974 0.298733 0.463189
O O11 0.649364 0.310968 0.700881
O O12 0.159761 0.353872 0.450453
O O13 0.750000 0.294756 0.500000
#
# Coordination Sequence:
#
# PCOD8164927 Si02
#       7
#     8   4   4   8   8   8   8
#     4   9  17  34  61  90 120 155 214 264 296 371
#     4  12  28  42  60  98 130 170 214 260 344 388
#     4  12  28  44  64  98 132 174 214 268 330 390
#     4  10  21  41  64  91 127 167 216 262 318 385
#     4  10  20  37  59  89 122 162 203 261 319 368
#     4   9  17  33  61  92 113 159 214 254 302 369
#     4  10  19  34  62  89 124 162 204 257 314 377
#
# _framework density 20.680828000000002
#
# number of rings (size 3 to 8) (size 9 to 14) (size 15 to 20)
#    0.000    2.000    1.667    2.000    3.500    1.333 
#    7.500    0.000    0.000    2.000    0.000    0.000 
#    0.000    0.000    0.000    0.000    0.000    0.000 
#
# Total GULP energy -297328.774443 kJ/mol
# GULP energy per Si atom -12388.698935 kJ/mol
# Density = 2.063376 g / cm^3
# Si number density = 20.680828 Si / 1000 Ang^3
#
#
#
# Elastic Constant Matrix: (Units=GPa)
#
#
# Indices 1 2 3 4 5 6 
#
# 1 78.2163 35.0137 21.5004 0.0000 0.0000 0.0000
# 2 35.0137 93.1932 33.2814 0.0000 0.0000 0.0000
# 3 21.5004 33.2814 53.3791 0.0000 0.0000 0.0000
# 4 0.0000 0.0000 0.0000 23.9645 0.0000 0.0000
# 5 0.0000 0.0000 0.0000 0.0000 32.2114 0.0000
# 6 0.0000 0.0000 0.0000 0.0000 0.0000 23.2479
#
#
#
# Elastic Compliance Matrix: (Units=1/GPa)
#
#
# Indices 1 2 3 4 5 6 
#
# 1 0.015845 -0.004726 -0.003435 0.000000 0.000000 0.000000
# 2 -0.004726 0.015214 -0.007582 0.000000 0.000000 0.000000
# 3 -0.003435 -0.007582 0.024845 0.000000 0.000000 0.000000
# 4 0.000000 0.000000 0.000000 0.041728 0.000000 0.000000
# 5 0.000000 0.000000 0.000000 0.000000 0.031045 0.000000
# 6 0.000000 0.000000 0.000000 0.000000 0.000000 0.043015
#
#
# Mechanical properties :
#
#
# Convention : Reuss Voigt Hill
#
# Bulk Modulus (GPa) = 40.95589 44.93107 42.94348
# Shear Modulus (GPa) = 23.66100 24.88429 24.27264
#
# Velocity S-wave (km/s) = 3.38613 3.47256 3.42962
# Velocity P-wave (km/s) = 5.92745 6.15234 6.04094
#
# Compressibility (1/GPa) = 0.02441651
#
# Stress axis : x y z
#
# Youngs Moduli (GPa) = 63.11081 65.72967 40.24968
#
# Poissons Ratio (x) = 0.31066 0.13827
# Poissons Ratio (y) = 0.29828 0.30517
# Poissons Ratio (z) = 0.21681 0.49836
#
# Static dielectric constant tensor:
#      x y z
#    x 3.757240 0.000000 0.000000 
#    y 0.000000 4.352800 0.000000 
#    z 0.000000 0.000000 3.110680 
# 
# 
# High freq. dielectric constant tensor:
#      x y z
#    x 1.798230 0.000000 0.000000 
#    y 0.000000 1.821200 0.000000 
#    z 0.000000 0.000000 1.788070 
# 
# From -- ./inp_files/14227.got.cif
#   From: 2010.03.12/outbox.cif.g09.slc.cpg/sg24_8_cif.got.tgz:14227.got - 2010.04.14 03:06:53.
