data_PCOD8164440
_publ_section_title
;
Structure prediction by ZEFSAII (Michael W. Deem and Ramdas Pophale) SiO2 
 PCOD8164440
Probable space group: I 2 2 2
;
_chemical_formula_sum "Si O2"
_cell_formula_units_Z 40
_cell_length_a 18.243981
_cell_length_b 8.789977
_cell_length_c 11.624105
_cell_angle_alpha 90.000000
_cell_angle_beta 90.000000
_cell_angle_gamma 90.000000
_cell_volume 1864.089990
_symmetry_space_group_name_H-M "I 2 2 2"
_symmetry_group_IT_number 23
_symmetry_cell_setting 'orthorhombic'
loop_
_space_group_symop_operation_xyz
x,y,z
-x,-y,z
x,-y,-z
-x,y,-z
1/2+x,1/2+y,1/2+z
1/2-x,1/2-y,1/2+z
1/2+x,1/2-y,1/2-z
1/2-x,1/2+y,1/2-z
loop_
_atom_site_type_symbol
_atom_site_label
_atom_site_fract_x
_atom_site_fract_y
_atom_site_fract_z
Si Si1 0.640706 0.177113 0.477234
Si Si2 0.700305 0.351748 0.920212
Si Si3 0.892450 0.125650 0.200380
Si Si4 0.923803 0.327239 0.537061
Si Si5 0.447747 0.711673 0.280585
O O1 0.718107 0.218128 0.416216
O O2 0.634275 0.288900 0.586052
O O3 0.571349 0.191456 0.393123
O O4 0.644326 0.000000 0.500000
O O5 0.674307 0.378580 0.789928
O O6 0.694524 0.500000 0.000000
O O7 0.646393 0.227907 0.970342
O O8 0.965258 0.213054 0.244094
O O9 0.915445 0.951677 0.183485
O O10 0.932081 0.500000 0.500000
O O11 0.909980 0.292586 0.671595
O O12 0.000000 0.242717 0.500000
#
# Coordination Sequence:
#
# PCOD8164440 Si02
#       5
#     8   8   8   8   8
#     4  11  28  43  66 102 142 185 227 286 348 407
#     4  11  24  45  68 100 138 181 228 275 349 414
#     4  11  24  44  73  98 134 186 234 283 339 418
#     4  11  24  40  66 105 136 173 225 287 353 396
#     4  11  24  45  71  98 135 182 237 281 339 420
#
# _framework density 21.458193000000001
#
# number of rings (size 3 to 8) (size 9 to 14) (size 15 to 20)
#    0.000    1.000    4.000    1.200    5.600    5.200 
#    0.000    0.000    0.000    0.000    0.000    0.000 
#    0.000    0.000    0.000    0.000    0.000    0.000 
#
# Total GULP energy -247883.987267 kJ/mol
# GULP energy per Si atom -12394.199363 kJ/mol
# Density = 2.140935 g / cm^3
# Si number density = 21.458193 Si / 1000 Ang^3
#
#
#
# Elastic Constant Matrix: (Units=GPa)
#
#
# Indices 1 2 3 4 5 6 
#
# 1 88.6964 38.4935 25.8169 0.0000 0.0000 0.0000
# 2 38.4935 77.8106 33.0090 0.0000 0.0000 0.0000
# 3 25.8169 33.0090 123.6899 0.0000 0.0000 0.0000
# 4 0.0000 0.0000 0.0000 40.3075 0.0000 0.0000
# 5 0.0000 0.0000 0.0000 0.0000 41.8717 0.0000
# 6 0.0000 0.0000 0.0000 0.0000 0.0000 -263.8957
#
#
#
# Elastic Compliance Matrix: (Units=1/GPa)
#
#
# Indices 1 2 3 4 5 6 
#
# 1 0.014528 -0.006654 -0.001257 0.000000 0.000000 0.000000
# 2 -0.006654 0.017540 -0.003292 0.000000 0.000000 0.000000
# 3 -0.001257 -0.003292 0.009226 0.000000 0.000000 0.000000
# 4 0.000000 0.000000 0.000000 0.024809 0.000000 0.000000
# 5 0.000000 0.000000 0.000000 0.000000 0.023883 0.000000
# 6 0.000000 0.000000 0.000000 0.000000 0.000000 -0.003789
#
#
# Mechanical properties :
#
#
# Convention : Reuss Voigt Hill
#
# Bulk Modulus (GPa) = 52.94282 53.87062 53.40672
# Shear Modulus (GPa) = 43.51709 -23.48481 10.01614
#
# Velocity S-wave (km/s) = 4.50821 -3.31183 2.16284
# Velocity P-wave (km/s) = 7.19894 3.24579 5.58390
#
# Compressibility (1/GPa) = 0.01888830
#
# Stress axis : x y z
#
# Youngs Moduli (GPa) = 68.83280 57.01230 108.39452
#
# Poissons Ratio (x) = 0.37936 0.13621
# Poissons Ratio (y) = 0.45801 0.35684
# Poissons Ratio (z) = 0.08649 0.18769
#
# Static dielectric constant tensor:
#      x y z
#    x 4.390990 0.000000 0.000000 
#    y 0.000000 3.742130 0.000000 
#    z 0.000000 0.000000 17.666530 
# 
# 
# High freq. dielectric constant tensor:
#      x y z
#    x 1.856100 0.000000 0.000000 
#    y 0.000000 1.839380 0.000000 
#    z 0.000000 0.000000 1.846890 
# 
# From -- ./inp_files/8176.got.cif
#   From: 2010.03.12/outbox.cif.g09.slc.cpg/sg23_5_cif.got.tgz:8176.got - 2010.04.14 02:50:06.
