data_PCOD8164680
_publ_section_title
;
Structure prediction by ZEFSAII (Michael W. Deem and Ramdas Pophale) SiO2 
 PCOD8164680
Probable space group: I 21 21 21
;
_chemical_formula_sum "Si O2"
_cell_formula_units_Z 56
_cell_length_a 23.056241
_cell_length_b 20.850885
_cell_length_c 7.695289
_cell_angle_alpha 90.000000
_cell_angle_beta 90.000000
_cell_angle_gamma 90.000000
_cell_volume 3699.456548
_symmetry_space_group_name_H-M "I 21 21 21"
_symmetry_group_IT_number 24
_symmetry_cell_setting 'orthorhombic'
loop_
_space_group_symop_operation_xyz
x,y,z
-x,1/2-y,z
x,-y,1/2-z
1/2-x,y,-z
1/2+x,1/2+y,1/2+z
1/2-x,-y,1/2+z
1/2+x,1/2-y,-z
-x,1/2+y,1/2-z
loop_
_atom_site_type_symbol
_atom_site_label
_atom_site_fract_x
_atom_site_fract_y
_atom_site_fract_z
Si Si1 0.895036 0.114584 0.055263
Si Si2 0.604964 0.114584 0.555263
Si Si3 0.451529 0.160418 0.250000
Si Si4 0.316812 0.500000 0.046322
Si Si5 0.475941 0.926787 0.946875
Si Si6 0.415995 0.297837 0.250000
Si Si7 0.475941 0.926787 0.553125
O O1 0.893989 0.143194 0.250000
O O2 0.955585 0.079056 0.016534
O O3 0.844132 0.063314 0.036887
O O4 0.885698 0.173116 0.921668
O O5 0.544415 0.079056 0.516534
O O6 0.614302 0.173116 0.421669
O O7 0.655868 0.063314 0.536887
O O8 0.439879 0.118190 0.422293
O O9 0.407789 0.220875 0.250000
O O10 0.516606 0.185761 0.250000
O O11 0.439879 0.118189 0.077708
O O12 0.328687 0.500000 0.250000
O O13 0.250000 0.500000 0.000000
O O14 0.461117 0.905776 0.750000
O O15 0.457656 1.000000 0.980358
#
# Coordination Sequence:
#
# PCOD8164680 Si02
#       7
#     8   8   8   8   8   8   8
#     4  10  18  30  44  58  78 107 140 176 224 261
#     4  10  18  30  44  58  78 107 140 176 224 261
#     4   9  17  26  39  58  80 104 145 178 205 251
#     4  12  22  32  46  65  85 104 143 193 230 259
#     4   9  16  25  41  60  81 109 140 173 213 254
#     4   9  18  29  40  57  78 109 138 177 218 256
#     4   9  16  25  41  60  81 109 140 173 213 254
#
# _framework density 15.137359
#
# number of rings (size 3 to 8) (size 9 to 14) (size 15 to 20)
#    0.000    2.286    2.857    1.714    0.000    1.143 
#    0.000    5.714    0.000    0.000    0.000    0.000 
#    0.000    0.000    0.000    0.000    0.000    5.714 
#
# Total GULP energy -347182.408696 kJ/mol
# GULP energy per Si atom -12399.371739 kJ/mol
# Density = 1.510291 g / cm^3
# Si number density = 15.137359 Si / 1000 Ang^3
#
#
#
# Elastic Constant Matrix: (Units=GPa)
#
#
# Indices 1 2 3 4 5 6 
#
# 1 26.5852 29.9946 18.1357 0.0000 0.0000 0.0000
# 2 29.9946 122.5234 72.2791 0.0000 0.0000 0.0000
# 3 18.1357 72.2791 133.7119 0.0000 0.0000 0.0000
# 4 0.0000 0.0000 0.0000 16.0424 0.0000 0.0000
# 5 0.0000 0.0000 0.0000 0.0000 12.5487 0.0000
# 6 0.0000 0.0000 0.0000 0.0000 0.0000 10.4831
#
#
#
# Elastic Compliance Matrix: (Units=1/GPa)
#
#
# Indices 1 2 3 4 5 6 
#
# 1 0.051975 -0.012575 -0.000252 0.000000 0.000000 0.000000
# 2 -0.012575 0.015025 -0.006417 0.000000 0.000000 0.000000
# 3 -0.000252 -0.006417 0.010981 0.000000 0.000000 0.000000
# 4 0.000000 0.000000 0.000000 0.062335 0.000000 0.000000
# 5 0.000000 0.000000 0.000000 0.000000 0.079689 0.000000
# 6 0.000000 0.000000 0.000000 0.000000 0.000000 0.095391
#
#
# Mechanical properties :
#
#
# Convention : Reuss Voigt Hill
#
# Bulk Modulus (GPa) = 25.32002 58.18215 41.75108
# Shear Modulus (GPa) = 13.62215 18.64225 16.13220
#
# Velocity S-wave (km/s) = 3.00309 3.51314 3.26808
# Velocity P-wave (km/s) = 5.36544 7.41456 6.47162
#
# Compressibility (1/GPa) = 0.03949445
#
# Stress axis : x y z
#
# Youngs Moduli (GPa) = 19.24012 66.55362 91.06281
#
# Poissons Ratio (x) = 0.83693 0.02293
# Poissons Ratio (y) = 0.24195 0.58431
# Poissons Ratio (z) = 0.00484 0.42704
#
# Static dielectric constant tensor:
#      x y z
#    x 2.366120 0.000000 0.000000 
#    y 0.000000 3.005190 0.000000 
#    z 0.000000 0.000000 3.199930 
# 
# 
# High freq. dielectric constant tensor:
#      x y z
#    x 1.503940 0.000000 0.000000 
#    y 0.000000 1.572500 0.000000 
#    z 0.000000 0.000000 1.604940 
# 
# From -- ./inp_files/16090.got.cif
#   From: 2010.03.12/outbox.cif.g09.slc.cpg/sg24_9_cif.got.tgz:16090.got - 2010.04.14 03:06:53.
