data_PCOD8164477
_publ_section_title
;
Structure prediction by ZEFSAII (Michael W. Deem and Ramdas Pophale) SiO2 
 PCOD8164477
Probable space group: I 2 2 2
;
_chemical_formula_sum "Si O2"
_cell_formula_units_Z 20
_cell_length_a 7.611655
_cell_length_b 19.777937
_cell_length_c 4.828456
_cell_angle_alpha 90.000000
_cell_angle_beta 90.000000
_cell_angle_gamma 90.000000
_cell_volume 726.889446
_symmetry_space_group_name_H-M "I 2 2 2"
_symmetry_group_IT_number 23
_symmetry_cell_setting 'orthorhombic'
loop_
_space_group_symop_operation_xyz
x,y,z
-x,-y,z
x,-y,-z
-x,y,-z
1/2+x,1/2+y,1/2+z
1/2-x,1/2-y,1/2+z
1/2+x,1/2-y,1/2-z
1/2-x,1/2+y,1/2-z
loop_
_atom_site_type_symbol
_atom_site_label
_atom_site_fract_x
_atom_site_fract_y
_atom_site_fract_z
Si Si1 0.207504 0.159269 0.899892
Si Si2 0.201171 0.071720 0.422177
Si Si3 0.500000 0.264204 0.000000
O O1 0.291126 0.129960 0.613967
O O2 0.012064 0.187837 0.779258
O O3 0.210965 0.094377 0.101574
O O4 0.323904 0.220894 0.006940
O O5 0.000000 0.063751 0.500000
O O6 0.293846 0.000000 0.500000
#
# Coordination Sequence:
#
# PCOD8164477 Si02
#       3
#     8   8   4
#     4  12  27  48  74 112 150 203 241 321 366 467
#     4  11  25  46  76 107 146 197 259 307 370 444
#     4  12  30  48  78 114 164 194 256 302 404 444
#
# _framework density 27.514499000000001
#
# number of rings (size 3 to 8) (size 9 to 14) (size 15 to 20)
#    0.000    0.400    2.000    4.800    5.600   11.200 
#    0.000    6.000    0.000    0.000    0.000    0.000 
#    0.000    0.000    0.000    0.000    0.000    0.000 
#
# Total GULP energy -123884.895222 kJ/mol
# GULP energy per Si atom -12388.489522 kJ/mol
# Density = 2.745187 g / cm^3
# Si number density = 27.514499 Si / 1000 Ang^3
#
#
#
# Elastic Constant Matrix: (Units=GPa)
#
#
# Indices 1 2 3 4 5 6 
#
# 1 52.3534 22.7447 15.8467 0.0073 0.0191 0.0025
# 2 22.7447 179.8397 65.7870 -0.0034 -0.0013 -0.0022
# 3 15.8467 65.7870 215.8947 -0.0009 0.0056 -0.0076
# 4 0.0073 -0.0034 -0.0009 49.5173 0.0026 -0.0031
# 5 0.0191 -0.0013 0.0056 0.0026 17.8606 0.0049
# 6 0.0025 -0.0022 -0.0076 -0.0031 0.0049 16.0552
#
#
#
# Elastic Compliance Matrix: (Units=1/GPa)
#
#
# Indices 1 2 3 4 5 6 
#
# 1 0.020333 -0.002280 -0.000798 -0.000003 -0.000022 -0.000004
# 2 -0.002280 0.006514 -0.001818 0.000001 0.000003 0.000000
# 3 -0.000798 -0.001818 0.005244 0.000000 -0.000001 0.000002
# 4 -0.000003 0.000001 0.000000 0.020195 -0.000003 0.000004
# 5 -0.000022 0.000003 -0.000001 -0.000003 0.055989 -0.000017
# 6 -0.000004 0.000000 0.000002 0.000004 -0.000017 0.062285
#
#
# Mechanical properties :
#
#
# Convention : Reuss Voigt Hill
#
# Bulk Modulus (GPa) = 44.84137 72.98274 58.91206
# Shear Modulus (GPa) = 26.62637 39.60056 33.11346
#
# Velocity S-wave (km/s) = 3.11420 3.79788 3.47290
# Velocity P-wave (km/s) = 5.40959 6.76865 6.12692
#
# Compressibility (1/GPa) = 0.02230084
#
# Stress axis : x y z
#
# Youngs Moduli (GPa) = 49.18150 153.52282 190.68426
#
# Poissons Ratio (x) = 0.34999 0.15212
# Poissons Ratio (y) = 0.11212 0.34657
# Poissons Ratio (z) = 0.03924 0.27903
#
# Static dielectric constant tensor:
#      x y z
#    x 4.325960 -0.000010 0.000020 
#    y -0.000010 5.968040 0.000020 
#    z 0.000020 0.000020 5.711040 
# 
# 
# High freq. dielectric constant tensor:
#      x y z
#    x 2.053410 0.000000 0.000000 
#    y 0.000000 2.136820 0.000000 
#    z 0.000000 0.000000 2.158540 
# 
# From -- ./inp_files/322.got.cif
#   From: 2010.03.12/outbox.cif.g09.slc.cpg/sg23_1_cif.got.tgz:322.got - 2010.04.14 02:50:06.
