data_PCOD8164793
_publ_section_title
;
Structure prediction by ZEFSAII (Michael W. Deem and Ramdas Pophale) SiO2 
 PCOD8164793
Probable space group: I 21 21 21
;
_chemical_formula_sum "Si O2"
_cell_formula_units_Z 52
_cell_length_a 8.430883
_cell_length_b 15.516475
_cell_length_c 20.305834
_cell_angle_alpha 90.000000
_cell_angle_beta 90.000000
_cell_angle_gamma 90.000000
_cell_volume 2656.360171
_symmetry_space_group_name_H-M "I 21 21 21"
_symmetry_group_IT_number 24
_symmetry_cell_setting 'orthorhombic'
loop_
_space_group_symop_operation_xyz
x,y,z
-x,1/2-y,z
x,-y,1/2-z
1/2-x,y,-z
1/2+x,1/2+y,1/2+z
1/2-x,-y,1/2+z
1/2+x,1/2-y,-z
-x,1/2+y,1/2-z
loop_
_atom_site_type_symbol
_atom_site_label
_atom_site_fract_x
_atom_site_fract_y
_atom_site_fract_z
Si Si1 0.496597 0.156470 0.315141
Si Si2 0.926795 0.158804 0.026013
Si Si3 0.892231 0.524424 0.548852
Si Si4 0.602205 0.985046 0.631033
Si Si5 0.319122 0.500000 0.250000
Si Si6 0.336578 0.609252 0.060452
Si Si7 0.237087 0.032089 0.324000
O O1 0.500000 0.250000 0.279253
O O2 0.598547 0.171516 0.382383
O O3 0.314758 0.127860 0.329258
O O4 0.573841 0.079775 0.273149
O O5 0.940213 0.101736 0.091997
O O6 0.000000 0.250000 0.045202
O O7 0.750000 0.169647 0.000000
O O8 0.031532 0.116852 0.967738
O O9 0.750000 0.502030 0.500000
O O10 0.835909 0.528363 0.625002
O O11 0.019993 0.450192 0.535619
O O12 0.710376 0.960299 0.693038
O O13 0.696527 0.048096 0.584446
O O14 0.445567 0.034690 0.655709
O O15 0.250000 0.660675 0.000000
O O16 0.257777 0.000000 0.250000
#
# Coordination Sequence:
#
# PCOD8164793 Si02
#       7
#     8   8   8   8   4   8   8
#     4  10  23  42  63  94 129 167 218 270 324 402
#     4  12  24  39  59  94 135 167 220 282 327 396
#     4  11  19  36  62  88 120 169 210 260 332 396
#     4  11  20  40  62  90 120 175 216 264 327 395
#     4  10  22  42  68  86 130 178 212 266 346 380
#     4  10  18  37  64  85 118 160 209 265 329 389
#     4  11  22  38  65  91 124 165 221 263 317 394
#
# _framework density 19.575658000000001
#
# number of rings (size 3 to 8) (size 9 to 14) (size 15 to 20)
#    0.000    1.231    6.154    0.462    0.000    0.000 
#    2.769    9.231    0.000    0.000    0.000    0.000 
#    0.000    0.000    0.000    0.000    0.000    0.000 
#
# Total GULP energy -322267.658301 kJ/mol
# GULP energy per Si atom -12394.909935 kJ/mol
# Density = 1.953110 g / cm^3
# Si number density = 19.575658 Si / 1000 Ang^3
#
#
#
# Elastic Constant Matrix: (Units=GPa)
#
#
# Indices 1 2 3 4 5 6 
#
# 1 144.3453 51.5945 51.1843 0.0000 0.0000 0.0000
# 2 51.5945 117.2203 31.7133 0.0000 0.0000 0.0000
# 3 51.1843 31.7133 107.1538 0.0000 0.0000 0.0000
# 4 0.0000 0.0000 0.0000 19.8657 0.0000 0.0000
# 5 0.0000 0.0000 0.0000 0.0000 22.6555 0.0000
# 6 0.0000 0.0000 0.0000 0.0000 0.0000 20.7625
#
#
#
# Elastic Compliance Matrix: (Units=1/GPa)
#
#
# Indices 1 2 3 4 5 6 
#
# 1 0.009296 -0.003142 -0.003510 0.000000 0.000000 0.000000
# 2 -0.003142 0.010335 -0.001558 0.000000 0.000000 0.000000
# 3 -0.003510 -0.001558 0.011470 0.000000 0.000000 0.000000
# 4 0.000000 0.000000 0.000000 0.050338 0.000000 0.000000
# 5 0.000000 0.000000 0.000000 0.000000 0.044139 0.000000
# 6 0.000000 0.000000 0.000000 0.000000 0.000000 0.048164
#
#
# Mechanical properties :
#
#
# Convention : Reuss Voigt Hill
#
# Bulk Modulus (GPa) = 68.11655 70.85593 69.48624
# Shear Modulus (GPa) = 25.63360 28.27190 26.95275
#
# Velocity S-wave (km/s) = 3.62258 3.80444 3.71462
# Velocity P-wave (km/s) = 7.23668 7.45472 7.34651
#
# Compressibility (1/GPa) = 0.01468072
#
# Stress axis : x y z
#
# Youngs Moduli (GPa) = 107.57806 96.75559 87.18130
#
# Poissons Ratio (x) = 0.30398 0.30604
# Poissons Ratio (y) = 0.33798 0.13584
# Poissons Ratio (z) = 0.37764 0.15076
#
# Static dielectric constant tensor:
#      x y z
#    x 4.027300 0.000000 0.000000 
#    y 0.000000 3.225780 0.000000 
#    z 0.000000 0.000000 3.872180 
# 
# 
# High freq. dielectric constant tensor:
#      x y z
#    x 1.789650 0.000000 0.000000 
#    y 0.000000 1.720870 0.000000 
#    z 0.000000 0.000000 1.773560 
# 
# From -- ./inp_files/32787.got.cif
#   From: 2010.03.12/outbox.cif.g09.slc.cpg/sg24_17_cif.got.tgz:32787.got - 2010.04.14 03:06:53.
