data_PCOD8164986
_publ_section_title
;
Structure prediction by ZEFSAII (Michael W. Deem and Ramdas Pophale) SiO2 
 PCOD8164986
Probable space group: I 21 21 21
;
_chemical_formula_sum "Si O2"
_cell_formula_units_Z 44
_cell_length_a 16.425339
_cell_length_b 14.309183
_cell_length_c 9.108943
_cell_angle_alpha 90.000000
_cell_angle_beta 90.000000
_cell_angle_gamma 90.000000
_cell_volume 2140.903854
_symmetry_space_group_name_H-M "I 21 21 21"
_symmetry_group_IT_number 24
_symmetry_cell_setting 'orthorhombic'
loop_
_space_group_symop_operation_xyz
x,y,z
-x,1/2-y,z
x,-y,1/2-z
1/2-x,y,-z
1/2+x,1/2+y,1/2+z
1/2-x,-y,1/2+z
1/2+x,1/2-y,-z
-x,1/2+y,1/2-z
loop_
_atom_site_type_symbol
_atom_site_label
_atom_site_fract_x
_atom_site_fract_y
_atom_site_fract_z
Si Si1 0.129286 0.735363 0.374334
Si Si2 0.000000 0.750000 0.130114
Si Si3 0.830239 0.500000 0.750000
Si Si4 0.433810 0.395595 0.120878
Si Si5 0.250000 0.881012 0.500000
Si Si6 0.754348 0.084542 0.835241
Si Si7 0.479088 0.910616 0.102808
O O1 0.078619 0.761651 0.231958
O O2 0.071682 0.673812 0.482167
O O3 0.168203 0.821948 0.462241
O O4 0.205557 0.678976 0.309679
O O5 0.005601 0.842949 0.033231
O O6 0.771395 0.560668 0.645800
O O7 0.885337 0.439227 0.635710
O O8 0.347968 0.400797 0.206408
O O9 0.466571 0.497132 0.069915
O O10 0.493525 0.357672 0.247464
O O11 0.712233 0.000000 0.750000
O O12 0.750000 0.050519 0.000000
#
# Coordination Sequence:
#
# PCOD8164986 Si02
#       7
#     8   4   4   8   4   8   8
#     4  11  26  42  67 103 137 179 226 291 342 424
#     4  12  30  38  68 106 142 180 228 288 334 428
#     4  10  28  48  76  90 138 186 236 298 340 428
#     4   9  19  43  71  93 131 177 217 276 352 408
#     4  12  26  52  72 100 128 192 246 292 356 406
#     4  10  19  36  64 100 132 168 209 267 341 400
#     4  10  24  46  67 102 133 186 225 276 350 418
#
# _framework density 20.552064999999999
#
# number of rings (size 3 to 8) (size 9 to 14) (size 15 to 20)
#    0.000    1.818    4.545    0.000   15.273    0.000 
#    0.000    1.818    0.000    0.000    0.000    0.000 
#    0.000    0.000    0.000    0.000    0.000    0.000 
#
# Total GULP energy -272605.755991 kJ/mol
# GULP energy per Si atom -12391.170727 kJ/mol
# Density = 2.050529 g / cm^3
# Si number density = 20.552065 Si / 1000 Ang^3
#
#
#
# Elastic Constant Matrix: (Units=GPa)
#
#
# Indices 1 2 3 4 5 6 
#
# 1 81.3925 46.7213 54.6348 0.0000 0.0000 0.0000
# 2 46.7213 108.1039 75.0007 0.0000 0.0000 0.0000
# 3 54.6348 75.0007 112.6341 0.0000 0.0000 0.0000
# 4 0.0000 0.0000 0.0000 53.6426 0.0000 0.0000
# 5 0.0000 0.0000 0.0000 0.0000 32.2193 0.0000
# 6 0.0000 0.0000 0.0000 0.0000 0.0000 96.8927
#
#
#
# Elastic Compliance Matrix: (Units=1/GPa)
#
#
# Indices 1 2 3 4 5 6 
#
# 1 0.018849 -0.003351 -0.006912 0.000000 0.000000 0.000000
# 2 -0.003351 0.017789 -0.010220 0.000000 0.000000 0.000000
# 3 -0.006912 -0.010220 0.019036 0.000000 0.000000 0.000000
# 4 0.000000 0.000000 0.000000 0.018642 0.000000 0.000000
# 5 0.000000 0.000000 0.000000 0.000000 0.031037 0.000000
# 6 0.000000 0.000000 0.000000 0.000000 0.000000 0.010321
#
#
# Mechanical properties :
#
#
# Convention : Reuss Voigt Hill
#
# Bulk Modulus (GPa) = 67.98532 72.76045 70.37289
# Shear Modulus (GPa) = 30.95162 44.93583 37.94373
#
# Velocity S-wave (km/s) = 3.88494 4.68101 4.30143
# Velocity P-wave (km/s) = 7.29898 8.04336 7.68019
#
# Compressibility (1/GPa) = 0.01470906
#
# Stress axis : x y z
#
# Youngs Moduli (GPa) = 53.05249 56.21430 52.53216
#
# Poissons Ratio (x) = 0.18839 0.36308
# Poissons Ratio (y) = 0.17780 0.53687
# Poissons Ratio (z) = 0.36667 0.57450
#
# Static dielectric constant tensor:
#      x y z
#    x 4.444260 0.000000 0.000000 
#    y 0.000000 3.810260 0.000000 
#    z 0.000000 0.000000 3.650790 
# 
# 
# High freq. dielectric constant tensor:
#      x y z
#    x 1.811200 0.000000 0.000000 
#    y 0.000000 1.799280 0.000000 
#    z 0.000000 0.000000 1.802130 
# 
# From -- ./inp_files/14107.got.cif
#   From: 2010.03.12/outbox.cif.g09.slc.cpg/sg24_8_cif.got.tgz:14107.got - 2010.04.14 03:06:53.
