data_PCOD8164583
_publ_section_title
;
Structure prediction by ZEFSAII (Michael W. Deem and Ramdas Pophale) SiO2 
 PCOD8164583
Probable space group: I 21 21 21
;
_chemical_formula_sum "Si O2"
_cell_formula_units_Z 36
_cell_length_a 20.187387
_cell_length_b 5.213647
_cell_length_c 19.932013
_cell_angle_alpha 90.000000
_cell_angle_beta 90.000000
_cell_angle_gamma 90.000000
_cell_volume 2097.842568
_symmetry_space_group_name_H-M "I 21 21 21"
_symmetry_group_IT_number 24
_symmetry_cell_setting 'orthorhombic'
loop_
_space_group_symop_operation_xyz
x,y,z
-x,1/2-y,z
x,-y,1/2-z
1/2-x,y,-z
1/2+x,1/2+y,1/2+z
1/2-x,-y,1/2+z
1/2+x,1/2-y,-z
-x,1/2+y,1/2-z
loop_
_atom_site_type_symbol
_atom_site_label
_atom_site_fract_x
_atom_site_fract_y
_atom_site_fract_z
Si Si1 0.256391 0.660369 0.080349
Si Si2 0.072449 0.162430 0.040505
Si Si3 0.691932 0.344334 0.055235
Si Si4 0.960605 0.000000 0.250000
Si Si5 0.609420 0.841104 0.881650
O O1 0.293784 0.400124 0.103077
O O2 0.187384 0.712848 0.117445
O O3 0.303106 0.899159 0.100120
O O4 0.250000 0.631814 0.000000
O O5 0.100872 0.379195 0.088163
O O6 0.000000 0.250000 0.016575
O O7 0.070979 0.887309 0.078876
O O8 0.118878 0.156011 0.975656
O O9 0.750000 0.370246 0.000000
O O10 0.916834 0.140543 0.306284
O O11 0.000000 0.250000 0.219915
#
# Coordination Sequence:
#
# PCOD8164583 Si02
#       5
#     8   8   8   4   8
#     4  10  16  30  51  69  83 113 160 205 253 288
#     4  12  21  30  48  71  93 124 162 201 242 294
#     4  10  16  30  46  68  91 111 153 199 252 298
#     4  12  26  40  46  64 100 142 180 208 230 270
#     4  12  21  35  50  64  92 130 173 208 232 273
#
# _framework density 17.160487
#
# number of rings (size 3 to 8) (size 9 to 14) (size 15 to 20)
#    0.000    0.889    8.889    4.000    0.000    0.000 
#    0.000    0.000    0.000    0.000    0.000    0.000 
#    0.000    0.000    0.000    4.000    0.000    2.889 
#
# Total GULP energy -223017.167403 kJ/mol
# GULP energy per Si atom -12389.842634 kJ/mol
# Density = 1.712143 g / cm^3
# Si number density = 17.160487 Si / 1000 Ang^3
#
#
#
# Elastic Constant Matrix: (Units=GPa)
#
#
# Indices 1 2 3 4 5 6 
#
# 1 112.3183 24.5465 37.4080 0.0000 0.0000 0.0000
# 2 24.5465 133.3143 13.3273 0.0000 0.0000 0.0000
# 3 37.4080 13.3273 28.6600 0.0000 0.0000 0.0000
# 4 0.0000 0.0000 0.0000 13.9080 0.0000 0.0000
# 5 0.0000 0.0000 0.0000 0.0000 19.0659 0.0000
# 6 0.0000 0.0000 0.0000 0.0000 0.0000 28.5790
#
#
#
# Elastic Compliance Matrix: (Units=1/GPa)
#
#
# Indices 1 2 3 4 5 6 
#
# 1 0.015850 -0.000892 -0.020274 0.000000 0.000000 0.000000
# 2 -0.000892 0.007917 -0.002518 0.000000 0.000000 0.000000
# 3 -0.020274 -0.002518 0.062525 0.000000 0.000000 0.000000
# 4 0.000000 0.000000 0.000000 0.071901 0.000000 0.000000
# 5 0.000000 0.000000 0.000000 0.000000 0.052450 0.000000
# 6 0.000000 0.000000 0.000000 0.000000 0.000000 0.034991
#
#
# Mechanical properties :
#
#
# Convention : Reuss Voigt Hill
#
# Bulk Modulus (GPa) = 25.68999 47.20626 36.44812
# Shear Modulus (GPa) = 16.34122 25.57798 20.95960
#
# Velocity S-wave (km/s) = 3.08922 3.86491 3.49863
# Velocity P-wave (km/s) = 5.26567 6.89094 6.13239
#
# Compressibility (1/GPa) = 0.03892567
#
# Stress axis : x y z
#
# Youngs Moduli (GPa) = 63.08986 126.31147 15.99372
#
# Poissons Ratio (x) = 0.11263 0.32425
# Poissons Ratio (y) = 0.05626 0.04027
# Poissons Ratio (z) = 1.27907 0.31800
#
# Static dielectric constant tensor:
#      x y z
#    x 3.533380 0.000000 0.000000 
#    y 0.000000 5.362780 0.000000 
#    z 0.000000 0.000000 2.939140 
# 
# 
# High freq. dielectric constant tensor:
#      x y z
#    x 1.656000 0.000000 0.000000 
#    y 0.000000 1.711060 0.000000 
#    z 0.000000 0.000000 1.575420 
# 
# From -- ./inp_files/5465.got.cif
#   From: 2010.03.12/outbox.cif.g09.slc.cpg/sg24_3_cif.got.tgz:5465.got - 2010.04.14 03:06:53.
