data_PCOD8164217
_publ_section_title
;
Structure prediction by ZEFSAII (Michael W. Deem and Ramdas Pophale) SiO2 
 PCOD8164217
Probable space group: I 2 2 2
;
_chemical_formula_sum "Si O2"
_cell_formula_units_Z 28
_cell_length_a 8.221039
_cell_length_b 17.387286
_cell_length_c 8.627770
_cell_angle_alpha 90.000000
_cell_angle_beta 90.000000
_cell_angle_gamma 90.000000
_cell_volume 1233.266871
_symmetry_space_group_name_H-M "I 2 2 2"
_symmetry_group_IT_number 23
_symmetry_cell_setting 'orthorhombic'
loop_
_space_group_symop_operation_xyz
x,y,z
-x,-y,z
x,-y,-z
-x,y,-z
1/2+x,1/2+y,1/2+z
1/2-x,1/2-y,1/2+z
1/2+x,1/2-y,1/2-z
1/2-x,1/2+y,1/2-z
loop_
_atom_site_type_symbol
_atom_site_label
_atom_site_fract_x
_atom_site_fract_y
_atom_site_fract_z
Si Si1 0.662286 0.666548 0.425630
Si Si2 0.747060 0.500000 0.500000
Si Si3 0.000000 0.500000 0.247607
Si Si4 0.500000 0.874390 0.500000
Si Si5 0.828328 0.794931 0.565242
O O1 0.500000 0.703484 0.500000
O O2 0.646172 0.574689 0.447764
O O3 0.814478 0.703888 0.520591
O O4 0.678393 0.689470 0.246626
O O5 0.850221 0.474371 0.352396
O O6 0.043782 0.425948 0.147727
O O7 0.669716 0.828904 0.474582
O O8 0.000000 0.827871 0.500000
#
# Coordination Sequence:
#
# PCOD8164217 Si02
#       5
#     8   4   4   4   8
#     4  12  27  49  73 109 151 194 248 308 371 443
#     4  11  25  44  74 104 146 194 244 298 378 434
#     4  10  24  44  76 104 144 192 238 308 370 444
#     4  11  24  52  72 107 148 188 250 301 374 434
#     4  12  28  47  78 108 147 195 251 307 367 440
#
# _framework density 22.703925000000002
#
# number of rings (size 3 to 8) (size 9 to 14) (size 15 to 20)
#    0.000    0.571    4.286    2.143   12.000    0.000 
#    0.000    2.857    0.000    0.000    0.000    0.000 
#    0.000    0.000    0.000    0.000    0.000    0.000 
#
# Total GULP energy -173499.614468 kJ/mol
# GULP energy per Si atom -12392.829605 kJ/mol
# Density = 2.265225 g / cm^3
# Si number density = 22.703925 Si / 1000 Ang^3
#
#
#
# Elastic Constant Matrix: (Units=GPa)
#
#
# Indices 1 2 3 4 5 6 
#
# 1 147.1575 39.2451 40.2894 0.0000 0.0000 0.0001
# 2 39.2451 111.9451 56.6542 0.0002 -0.0001 0.0005
# 3 40.2894 56.6542 153.4257 0.0012 -0.0004 0.0003
# 4 0.0000 0.0002 0.0012 25.5861 -0.0001 0.0002
# 5 0.0000 -0.0001 -0.0004 -0.0001 19.0591 0.0000
# 6 0.0001 0.0005 0.0003 0.0002 0.0000 22.9114
#
#
#
# Elastic Compliance Matrix: (Units=1/GPa)
#
#
# Indices 1 2 3 4 5 6 
#
# 1 0.007689 -0.002058 -0.001259 0.000000 0.000000 0.000000
# 2 -0.002058 0.011537 -0.003720 0.000000 0.000000 0.000000
# 3 -0.001259 -0.003720 0.008222 0.000000 0.000000 0.000000
# 4 0.000000 0.000000 0.000000 0.039084 0.000000 0.000000
# 5 0.000000 0.000000 0.000000 0.000000 0.052468 0.000000
# 6 0.000000 0.000000 0.000000 0.000000 0.000000 0.043646
#
#
# Mechanical properties :
#
#
# Convention : Reuss Voigt Hill
#
# Bulk Modulus (GPa) = 74.77262 76.10065 75.43663
# Shear Modulus (GPa) = 27.59702 31.93394 29.76548
#
# Velocity S-wave (km/s) = 3.49021 3.75445 3.62474
# Velocity P-wave (km/s) = 7.01765 7.23782 7.12858
#
# Compressibility (1/GPa) = 0.01337388
#
# Stress axis : x y z
#
# Youngs Moduli (GPa) = 130.05421 86.67721 121.62538
#
# Poissons Ratio (x) = 0.17842 0.15313
# Poissons Ratio (y) = 0.26770 0.45240
# Poissons Ratio (z) = 0.16375 0.32241
#
# Static dielectric constant tensor:
#      x y z
#    x 4.145080 0.000000 0.000000 
#    y 0.000000 4.255990 0.000000 
#    z 0.000000 0.000000 3.987380 
# 
# 
# High freq. dielectric constant tensor:
#      x y z
#    x 1.897890 0.000000 0.000000 
#    y 0.000000 1.904210 0.000000 
#    z 0.000000 0.000000 1.901970 
# 
# From -- ./inp_files/6458.got.cif
#   From: 2010.03.12/outbox.cif.g09.slc.cpg/sg23_4_cif.got.tgz:6458.got - 2010.04.14 02:50:06.
