data_PCOD8164340
_publ_section_title
;
Structure prediction by ZEFSAII (Michael W. Deem and Ramdas Pophale) SiO2 
 PCOD8164340
Probable space group: I 2 2 2
;
_chemical_formula_sum "Si O2"
_cell_formula_units_Z 56
_cell_length_a 9.245721
_cell_length_b 18.605113
_cell_length_c 14.893896
_cell_angle_alpha 90.000000
_cell_angle_beta 90.000000
_cell_angle_gamma 90.000000
_cell_volume 2562.013495
_symmetry_space_group_name_H-M "I 2 2 2"
_symmetry_group_IT_number 23
_symmetry_cell_setting 'orthorhombic'
loop_
_space_group_symop_operation_xyz
x,y,z
-x,-y,z
x,-y,-z
-x,y,-z
1/2+x,1/2+y,1/2+z
1/2-x,1/2-y,1/2+z
1/2+x,1/2-y,1/2-z
1/2-x,1/2+y,1/2-z
loop_
_atom_site_type_symbol
_atom_site_label
_atom_site_fract_x
_atom_site_fract_y
_atom_site_fract_z
Si Si1 0.568595 0.422898 0.592482
Si Si2 0.683541 0.171001 0.596797
Si Si3 0.093941 0.388055 0.415328
Si Si4 0.222563 0.674612 0.898945
Si Si5 0.529722 0.080885 0.285448
Si Si6 0.973337 0.229845 0.629643
Si Si7 0.993157 0.782200 0.168353
O O1 0.500000 0.500000 0.617788
O O2 0.500000 0.395950 0.500000
O O3 0.743058 0.420600 0.582861
O O4 0.507869 0.368371 0.667851
O O5 0.658739 0.146893 0.493798
O O6 0.598486 0.123302 0.667320
O O7 0.850186 0.169243 0.625035
O O8 0.624826 0.252458 0.607960
O O9 0.022016 0.413389 0.322076
O O10 0.082937 0.301317 0.420754
O O11 0.000000 0.418604 0.500000
O O12 0.182123 0.613621 0.824377
O O13 0.390420 0.690639 0.915835
O O14 0.157386 0.752003 0.870329
O O15 0.500000 0.000000 0.314949
O O16 0.012464 0.248400 0.731672
#
# Coordination Sequence:
#
# PCOD8164340 Si02
#       7
#     8   8   8   8   8   8   8
#     4  11  26  45  66  99 143 189 230 278 348 431
#     4  11  22  41  68 101 131 180 224 291 348 408
#     4  12  26  45  72 104 140 182 233 293 351 417
#     4  11  23  41  68 100 136 179 231 293 343 410
#     4  11  26  46  68  98 138 184 232 276 348 425
#     4  12  23  41  68 104 140 170 236 297 347 400
#     4  11  21  39  67  93 136 180 234 280 346 410
#
# _framework density 21.857807999999999
#
# number of rings (size 3 to 8) (size 9 to 14) (size 15 to 20)
#    0.000    0.714    4.286    5.571    2.000    4.857 
#    0.000    0.714    0.000    1.714    0.000    0.000 
#    0.000    0.000    0.000    0.000    0.000    0.000 
#
# Total GULP energy -347059.415619 kJ/mol
# GULP energy per Si atom -12394.979129 kJ/mol
# Density = 2.180806 g / cm^3
# Si number density = 21.857808 Si / 1000 Ang^3
#
#
#
# Elastic Constant Matrix: (Units=GPa)
#
#
# Indices 1 2 3 4 5 6 
#
# 1 133.2783 56.9117 27.4478 0.0000 0.0000 0.0000
# 2 56.9117 123.4876 29.4876 0.0000 0.0000 0.0000
# 3 27.4478 29.4876 131.8620 0.0000 0.0000 0.0000
# 4 0.0000 0.0000 0.0000 17.6121 0.0000 0.0000
# 5 0.0000 0.0000 0.0000 0.0000 7.7727 0.0000
# 6 0.0000 0.0000 0.0000 0.0000 0.0000 23.5956
#
#
#
# Elastic Compliance Matrix: (Units=1/GPa)
#
#
# Indices 1 2 3 4 5 6 
#
# 1 0.009478 -0.004117 -0.001052 0.000000 0.000000 0.000000
# 2 -0.004117 0.010343 -0.001456 0.000000 0.000000 0.000000
# 3 -0.001052 -0.001456 0.008128 0.000000 0.000000 0.000000
# 4 0.000000 0.000000 0.000000 0.056779 0.000000 0.000000
# 5 0.000000 0.000000 0.000000 0.000000 0.128656 0.000000
# 6 0.000000 0.000000 0.000000 0.000000 0.000000 0.042381
#
#
# Mechanical properties :
#
#
# Convention : Reuss Voigt Hill
#
# Bulk Modulus (GPa) = 68.03182 68.48022 68.25602
# Shear Modulus (GPa) = 18.25388 28.11480 23.18434
#
# Velocity S-wave (km/s) = 2.89298 3.59034 3.26036
# Velocity P-wave (km/s) = 6.50779 6.97031 6.74302
#
# Compressibility (1/GPa) = 0.01469900
#
# Stress axis : x y z
#
# Youngs Moduli (GPa) = 105.51086 96.68439 123.02673
#
# Poissons Ratio (x) = 0.39802 0.12945
# Poissons Ratio (y) = 0.43436 0.17913
# Poissons Ratio (z) = 0.11102 0.14077
#
# Static dielectric constant tensor:
#      x y z
#    x 4.069800 0.000000 0.000000 
#    y 0.000000 4.188890 0.000000 
#    z 0.000000 0.000000 4.061900 
# 
# 
# High freq. dielectric constant tensor:
#      x y z
#    x 1.865660 0.000000 0.000000 
#    y 0.000000 1.833260 0.000000 
#    z 0.000000 0.000000 1.873490 
# 
# From -- ./inp_files/20215.got.cif
#   From: 2010.03.12/outbox.cif.g09.slc.cpg/sg23_11_cif.got.tgz:20215.got - 2010.04.14 02:50:06.
