data_PCOD8164336
_publ_section_title
;
Structure prediction by ZEFSAII (Michael W. Deem and Ramdas Pophale) SiO2 
 PCOD8164336
Probable space group: I 2 2 2
;
_chemical_formula_sum "Si O2"
_cell_formula_units_Z 48
_cell_length_a 4.918620
_cell_length_b 16.115237
_cell_length_c 28.564754
_cell_angle_alpha 90.000000
_cell_angle_beta 90.000000
_cell_angle_gamma 90.000000
_cell_volume 2264.177428
_symmetry_space_group_name_H-M "I 2 2 2"
_symmetry_group_IT_number 23
_symmetry_cell_setting 'orthorhombic'
loop_
_space_group_symop_operation_xyz
x,y,z
-x,-y,z
x,-y,-z
-x,y,-z
1/2+x,1/2+y,1/2+z
1/2-x,1/2-y,1/2+z
1/2+x,1/2-y,1/2-z
1/2-x,1/2+y,1/2-z
loop_
_atom_site_type_symbol
_atom_site_label
_atom_site_fract_x
_atom_site_fract_y
_atom_site_fract_z
Si Si1 0.250897 0.229273 0.030643
Si Si2 0.012307 0.319124 0.114669
Si Si3 0.094228 0.860889 0.154546
Si Si4 0.477233 0.402188 0.844925
Si Si5 0.557847 0.307181 0.248511
Si Si6 0.104490 0.412719 0.601107
O O1 0.128510 0.303098 0.062562
O O2 0.380243 0.153188 0.059369
O O3 0.500000 0.265778 0.000000
O O4 0.000000 0.194546 0.000000
O O5 0.223932 0.370473 0.144718
O O6 0.964793 0.232564 0.139782
O O7 0.732115 0.371801 0.114417
O O8 0.050042 0.867242 0.210105
O O9 0.402101 0.882216 0.141796
O O10 0.895000 0.922859 0.126379
O O11 0.500000 0.500000 0.842314
O O12 0.375747 0.364932 0.795758
O O13 0.835027 0.262340 0.264315
O O14 0.000000 0.500000 0.580085
#
# Coordination Sequence:
#
# PCOD8164336 Si02
#       6
#     8   8   8   8   8   8
#     4  11  23  42  69  97 119 163 222 267 320 395
#     4  11  22  42  66  89 127 167 209 267 313 388
#     4  11  21  39  65  89 126 181 223 246 305 375
#     4  12  24  40  64  99 131 165 214 264 323 367
#     4  12  22  39  64  94 130 175 222 264 299 367
#     4  11  24  40  61  95 136 170 206 264 322 373
#
# _framework density 21.199753000000001
#
# number of rings (size 3 to 8) (size 9 to 14) (size 15 to 20)
#    0.000    0.667    3.333    7.000    0.000    1.667 
#    0.000    2.500    0.000    7.500    0.000    0.000 
#    0.000    0.000    0.000    0.000    0.000    0.000 
#
# Total GULP energy -297675.034581 kJ/mol
# GULP energy per Si atom -12403.126441 kJ/mol
# Density = 2.115150 g / cm^3
# Si number density = 21.199753 Si / 1000 Ang^3
#
#
#
# Elastic Constant Matrix: (Units=GPa)
#
#
# Indices 1 2 3 4 5 6 
#
# 1 104.2064 34.4841 18.6638 0.0000 0.0000 0.0000
# 2 34.4841 113.4825 29.5892 0.0000 0.0000 0.0000
# 3 18.6638 29.5892 98.0863 0.0000 0.0000 0.0000
# 4 0.0000 0.0000 0.0000 16.6549 0.0000 0.0000
# 5 0.0000 0.0000 0.0000 0.0000 53.1380 0.0000
# 6 0.0000 0.0000 0.0000 0.0000 0.0000 31.0005
#
#
#
# Elastic Compliance Matrix: (Units=1/GPa)
#
#
# Indices 1 2 3 4 5 6 
#
# 1 0.010788 -0.002977 -0.001155 0.000000 0.000000 0.000000
# 2 -0.002977 0.010386 -0.002567 0.000000 0.000000 0.000000
# 3 -0.001155 -0.002567 0.011189 0.000000 0.000000 0.000000
# 4 0.000000 0.000000 0.000000 0.060042 0.000000 0.000000
# 5 0.000000 0.000000 0.000000 0.000000 0.018819 0.000000
# 6 0.000000 0.000000 0.000000 0.000000 0.000000 0.032258
#
#
# Mechanical properties :
#
#
# Convention : Reuss Voigt Hill
#
# Bulk Modulus (GPa) = 52.72488 53.47216 53.09852
# Shear Modulus (GPa) = 30.63707 35.69457 33.16582
#
# Velocity S-wave (km/s) = 3.80565 4.10777 3.95960
# Velocity P-wave (km/s) = 6.65095 6.91203 6.78275
#
# Compressibility (1/GPa) = 0.01896638
#
# Stress axis : x y z
#
# Youngs Moduli (GPa) = 92.69242 96.28520 89.37309
#
# Poissons Ratio (x) = 0.28666 0.10320
# Poissons Ratio (y) = 0.27596 0.22938
# Poissons Ratio (z) = 0.10703 0.24712
#
# Static dielectric constant tensor:
#      x y z
#    x 3.931310 0.000000 0.000000 
#    y 0.000000 3.453490 0.000000 
#    z 0.000000 0.000000 3.933280 
# 
# 
# High freq. dielectric constant tensor:
#      x y z
#    x 1.858110 0.000000 0.000000 
#    y 0.000000 1.807530 0.000000 
#    z 0.000000 0.000000 1.824910 
# 
# From -- ./inp_files/28939.got.cif
#   From: 2010.03.12/outbox.cif.g09.slc.cpg/sg23_15_cif.got.tgz:28939.got - 2010.04.14 02:50:06.
