data_PCOD8164998
_publ_section_title
;
Structure prediction by ZEFSAII (Michael W. Deem and Ramdas Pophale) SiO2 
 PCOD8164998
Probable space group: I 21 21 21
;
_chemical_formula_sum "Si O2"
_cell_formula_units_Z 64
_cell_length_a 11.467685
_cell_length_b 16.476373
_cell_length_c 17.537003
_cell_angle_alpha 90.000000
_cell_angle_beta 90.000000
_cell_angle_gamma 90.000000
_cell_volume 3313.544035
_symmetry_space_group_name_H-M "I 21 21 21"
_symmetry_group_IT_number 24
_symmetry_cell_setting 'orthorhombic'
loop_
_space_group_symop_operation_xyz
x,y,z
-x,1/2-y,z
x,-y,1/2-z
1/2-x,y,-z
1/2+x,1/2+y,1/2+z
1/2-x,-y,1/2+z
1/2+x,1/2-y,-z
-x,1/2+y,1/2-z
loop_
_atom_site_type_symbol
_atom_site_label
_atom_site_fract_x
_atom_site_fract_y
_atom_site_fract_z
Si Si1 0.420947 0.417926 0.555525
Si Si2 0.815393 0.530259 0.920128
Si Si3 0.457169 0.432207 0.046764
Si Si4 0.035411 0.659821 0.402026
Si Si5 0.222309 0.409063 0.663672
Si Si6 0.766467 0.904146 0.666102
Si Si7 0.591131 0.489646 0.837789
Si Si8 0.501826 0.657144 0.088571
O O1 0.389448 0.496770 0.501978
O O2 0.312283 0.375615 0.599737
O O3 0.519737 0.443142 0.615462
O O4 0.471765 0.347620 0.501272
O O5 0.917422 0.464106 0.926769
O O6 0.727948 0.501925 0.854229
O O7 0.871408 0.617315 0.896953
O O8 0.750000 0.538114 0.000000
O O9 0.387633 0.398975 0.119979
O O10 0.475088 0.354764 0.992435
O O11 0.168257 0.645708 0.377287
O O12 0.000000 0.750000 0.380497
O O13 0.946113 0.600917 0.359080
O O14 0.265035 0.501481 0.670388
O O15 0.226722 0.368544 0.747666
O O16 0.091026 0.397076 0.635157
O O17 0.563524 0.500000 0.750000
O O18 0.500000 0.750000 0.116401
#
# Coordination Sequence:
#
# PCOD8164998 Si02
#       8
#     8   8   8   8   8   8   8   8
#     4  10  19  37  63  90 119 160 207 255 298 378
#     4  11  20  40  62  85 124 165 215 253 303 381
#     4  10  20  38  65  87 120 164 210 255 297 384
#     4  11  23  40  64  98 128 154 207 271 314 365
#     4  11  21  37  66  95 121 162 213 257 310 380
#     4  11  21  38  66  95 124 161 211 258 314 381
#     4  11  22  40  66  90 121 169 209 245 315 388
#     4  11  24  40  63  92 126 162 213 269 316 363
#
# _framework density 19.314668000000001
#
# number of rings (size 3 to 8) (size 9 to 14) (size 15 to 20)
#    0.000    1.250    8.750    1.500    0.000    2.000 
#    6.750    1.875    0.000    0.000    0.000    0.000 
#    0.000    0.000    0.000    0.000    0.000    0.000 
#
# Total GULP energy -396696.846148 kJ/mol
# GULP energy per Si atom -12396.776442 kJ/mol
# Density = 1.927071 g / cm^3
# Si number density = 19.314668 Si / 1000 Ang^3
#
#
#
# Elastic Constant Matrix: (Units=GPa)
#
#
# Indices 1 2 3 4 5 6 
#
# 1 120.3693 34.2269 28.4085 0.0000 0.0000 0.0000
# 2 34.2269 72.4616 12.2903 0.0000 0.0000 0.0000
# 3 28.4085 12.2903 91.8119 0.0000 0.0000 0.0000
# 4 0.0000 0.0000 0.0000 11.5673 0.0000 0.0000
# 5 0.0000 0.0000 0.0000 0.0000 27.1497 0.0000
# 6 0.0000 0.0000 0.0000 0.0000 0.0000 22.8234
#
#
#
# Elastic Compliance Matrix: (Units=1/GPa)
#
#
# Indices 1 2 3 4 5 6 
#
# 1 0.010151 -0.004361 -0.002557 0.000000 0.000000 0.000000
# 2 -0.004361 0.015995 -0.000792 0.000000 0.000000 0.000000
# 3 -0.002557 -0.000792 0.011789 0.000000 0.000000 0.000000
# 4 0.000000 0.000000 0.000000 0.086451 0.000000 0.000000
# 5 0.000000 0.000000 0.000000 0.000000 0.036833 0.000000
# 6 0.000000 0.000000 0.000000 0.000000 0.000000 0.043815
#
#
# Mechanical properties :
#
#
# Convention : Reuss Voigt Hill
#
# Bulk Modulus (GPa) = 44.41502 48.27714 46.34608
# Shear Modulus (GPa) = 21.93378 26.28922 24.11150
#
# Velocity S-wave (km/s) = 3.37353 3.69331 3.53704
# Velocity P-wave (km/s) = 6.18220 6.57547 6.38186
#
# Compressibility (1/GPa) = 0.02251490
#
# Stress axis : x y z
#
# Youngs Moduli (GPa) = 98.50845 62.52073 84.82428
#
# Poissons Ratio (x) = 0.27267 0.21692
# Poissons Ratio (y) = 0.42962 0.06715
# Poissons Ratio (z) = 0.25191 0.04950
#
# Static dielectric constant tensor:
#      x y z
#    x 3.610260 0.000000 0.000000 
#    y 0.000000 3.144510 0.000000 
#    z 0.000000 0.000000 3.850540 
# 
# 
# High freq. dielectric constant tensor:
#      x y z
#    x 1.758830 0.000000 0.000000 
#    y 0.000000 1.706120 0.000000 
#    z 0.000000 0.000000 1.759240 
# 
# From -- ./inp_files/30429.got.cif
#   From: 2010.03.12/outbox.cif.g09.slc.cpg/sg24_16_cif.got.tgz:30429.got - 2010.04.14 03:06:53.
