data_PCOD8164804
_publ_section_title
;
Structure prediction by ZEFSAII (Michael W. Deem and Ramdas Pophale) SiO2 
 PCOD8164804
Probable space group: I 21 21 21
;
_chemical_formula_sum "Si O2"
_cell_formula_units_Z 52
_cell_length_a 10.412429
_cell_length_b 9.688985
_cell_length_c 25.214375
_cell_angle_alpha 90.000000
_cell_angle_beta 90.000000
_cell_angle_gamma 90.000000
_cell_volume 2543.774118
_symmetry_space_group_name_H-M "I 21 21 21"
_symmetry_group_IT_number 24
_symmetry_cell_setting 'orthorhombic'
loop_
_space_group_symop_operation_xyz
x,y,z
-x,1/2-y,z
x,-y,1/2-z
1/2-x,y,-z
1/2+x,1/2+y,1/2+z
1/2-x,-y,1/2+z
1/2+x,1/2-y,-z
-x,1/2+y,1/2-z
loop_
_atom_site_type_symbol
_atom_site_label
_atom_site_fract_x
_atom_site_fract_y
_atom_site_fract_z
Si Si1 0.000000 0.750000 0.229711
Si Si2 0.887419 0.858557 0.523432
Si Si3 0.158218 0.948263 0.159462
Si Si4 0.980665 0.913997 0.417140
Si Si5 0.250712 0.777174 0.287610
Si Si6 0.217181 0.447605 0.868166
Si Si7 0.857320 0.232713 0.676992
O O1 0.956192 0.620897 0.193547
O O2 0.881878 0.794261 0.267512
O O3 0.750000 0.796554 0.500000
O O4 0.945800 0.958300 0.477472
O O5 0.861611 0.944559 0.576716
O O6 0.000000 0.750000 0.536490
O O7 0.263266 0.833082 0.143872
O O8 0.224708 0.066711 0.194426
O O9 0.107459 0.009493 0.103861
O O10 0.867998 0.957809 0.378077
O O11 0.000000 0.750000 0.415676
O O12 0.312299 0.692081 0.335818
O O13 0.349925 0.775407 0.238793
O O14 0.180304 0.575025 0.831635
O O15 0.000000 0.250000 0.655410
#
# Coordination Sequence:
#
# PCOD8164804 Si02
#       7
#     4   8   8   8   8   8   8
#     4  10  20  34  56  98 140 158 208 264 324 396
#     4   9  21  39  65  97 129 159 218 285 337 387
#     4  11  22  38  63  95 129 173 217 270 331 395
#     4  10  18  38  67  99 121 149 210 282 329 383
#     4  11  22  37  62  94 123 176 221 262 321 395
#     4  11  22  39  63  91 128 168 208 271 331 381
#     4  11  26  42  56  85 138 177 217 257 320 405
#
# _framework density 20.442066000000001
#
# number of rings (size 3 to 8) (size 9 to 14) (size 15 to 20)
#    0.000    1.538    1.538    5.077    0.000    6.769 
#    0.000    0.000   11.846    0.000    0.000    0.000 
#    0.000    0.000    0.000    0.000    0.000    0.000 
#
# Total GULP energy -322274.979009 kJ/mol
# GULP energy per Si atom -12395.191500 kJ/mol
# Density = 2.039554 g / cm^3
# Si number density = 20.442066 Si / 1000 Ang^3
#
#
#
# Elastic Constant Matrix: (Units=GPa)
#
#
# Indices 1 2 3 4 5 6 
#
# 1 89.6962 25.9126 25.3432 0.0000 0.0000 0.0000
# 2 25.9126 108.1151 40.2306 0.0000 0.0000 0.0000
# 3 25.3432 40.2306 109.3009 0.0000 0.0000 0.0000
# 4 0.0000 0.0000 0.0000 5.1098 0.0000 0.0000
# 5 0.0000 0.0000 0.0000 0.0000 -36.3582 0.0000
# 6 0.0000 0.0000 0.0000 0.0000 0.0000 32.1457
#
#
#
# Elastic Compliance Matrix: (Units=1/GPa)
#
#
# Indices 1 2 3 4 5 6 
#
# 1 0.012365 -0.002198 -0.002058 0.000000 0.000000 0.000000
# 2 -0.002198 0.011108 -0.003579 0.000000 0.000000 0.000000
# 3 -0.002058 -0.003579 0.010944 0.000000 0.000000 0.000000
# 4 0.000000 0.000000 0.000000 0.195701 0.000000 0.000000
# 5 0.000000 0.000000 0.000000 0.000000 -0.027504 0.000000
# 6 0.000000 0.000000 0.000000 0.000000 0.000000 0.031108
#
#
# Mechanical properties :
#
#
# Convention : Reuss Voigt Hill
#
# Bulk Modulus (GPa) = 53.34191 54.45390 53.89791
# Shear Modulus (GPa) = 19.55873 14.55453 17.05663
#
# Velocity S-wave (km/s) = 3.09655 2.67121 2.89171
# Velocity P-wave (km/s) = 6.23985 6.01746 6.12966
#
# Compressibility (1/GPa) = 0.01874699
#
# Stress axis : x y z
#
# Youngs Moduli (GPa) = 80.87225 90.02599 91.37793
#
# Poissons Ratio (x) = 0.19786 0.18807
# Poissons Ratio (y) = 0.17774 0.32703
# Poissons Ratio (z) = 0.16644 0.32220
#
# Static dielectric constant tensor:
#      x y z
#    x 4.898440 0.000000 0.000000 
#    y 0.000000 3.469470 0.000000 
#    z 0.000000 0.000000 3.836970 
# 
# 
# High freq. dielectric constant tensor:
#      x y z
#    x 1.800610 0.000000 0.000000 
#    y 0.000000 1.778430 0.000000 
#    z 0.000000 0.000000 1.797300 
# 
# From -- ./inp_files/37176.got.cif
#   From: 2010.03.12/outbox.cif.g09.slc.cpg/sg24_19_cif.got.tgz:37176.got - 2010.04.14 03:06:53.
