data_PCOD8164915
_publ_section_title
;
Structure prediction by ZEFSAII (Michael W. Deem and Ramdas Pophale) SiO2 
 PCOD8164915
Probable space group: I 21 21 21
;
_chemical_formula_sum "Si O2"
_cell_formula_units_Z 52
_cell_length_a 10.524477
_cell_length_b 9.067432
_cell_length_c 25.524314
_cell_angle_alpha 90.000000
_cell_angle_beta 90.000000
_cell_angle_gamma 90.000000
_cell_volume 2435.784763
_symmetry_space_group_name_H-M "I 21 21 21"
_symmetry_group_IT_number 24
_symmetry_cell_setting 'orthorhombic'
loop_
_space_group_symop_operation_xyz
x,y,z
-x,1/2-y,z
x,-y,1/2-z
1/2-x,y,-z
1/2+x,1/2+y,1/2+z
1/2-x,-y,1/2+z
1/2+x,1/2-y,-z
-x,1/2+y,1/2-z
loop_
_atom_site_type_symbol
_atom_site_label
_atom_site_fract_x
_atom_site_fract_y
_atom_site_fract_z
Si Si1 0.000000 0.250000 0.616817
Si Si2 0.408721 0.025709 0.632931
Si Si3 0.284172 0.783564 0.786885
Si Si4 0.301032 0.521244 0.863392
Si Si5 0.249775 0.768054 0.061826
Si Si6 0.268614 0.212708 0.168882
Si Si7 0.037500 0.979631 0.806771
O O1 0.112221 0.179587 0.582313
O O2 0.947883 0.108648 0.651875
O O3 0.394745 0.116261 0.687438
O O4 0.552779 0.973739 0.628134
O O5 0.363254 0.131337 0.585100
O O6 0.321328 0.880821 0.630821
O O7 0.286239 0.622864 0.812310
O O8 0.302279 0.774653 0.724878
O O9 0.153422 0.865655 0.800365
O O10 0.263759 0.600941 0.917603
O O11 0.213236 0.376369 0.854475
O O12 0.250000 0.774341 0.000000
O O13 0.407837 0.136755 0.173514
O O14 0.968361 0.000000 0.750000
#
# Coordination Sequence:
#
# PCOD8164915 Si02
#       7
#     4   8   8   8   8   8   8
#     4  12  20  44  70  86 118 168 210 250 316 370
#     4  10  20  37  57  87 122 157 203 251 298 362
#     4   9  17  33  54  84 127 162 203 235 281 373
#     4  11  21  35  57  89 128 153 198 249 309 366
#     4  11  25  42  65  88 109 153 217 265 303 364
#     4  10  19  34  57  89 129 162 192 244 307 369
#     4   9  19  38  59  89 128 165 204 249 294 376
#
# _framework density 21.348355000000002
#
# number of rings (size 3 to 8) (size 9 to 14) (size 15 to 20)
#    0.000    1.846    4.615    4.154    2.154    3.692 
#    5.538    0.769    0.000    0.000    0.000    0.000 
#    0.000    0.000    0.000    0.000    0.000    0.000 
#
# Total GULP energy -322315.012805 kJ/mol
# GULP energy per Si atom -12396.731262 kJ/mol
# Density = 2.129977 g / cm^3
# Si number density = 21.348355 Si / 1000 Ang^3
#
#
#
# Elastic Constant Matrix: (Units=GPa)
#
#
# Indices 1 2 3 4 5 6 
#
# 1 22.3327 -3.6802 7.0518 0.0000 0.0000 0.0000
# 2 -3.6802 134.6582 35.3860 0.0000 0.0000 0.0000
# 3 7.0518 35.3860 132.5483 0.0000 0.0000 0.0000
# 4 0.0000 0.0000 0.0000 15.2598 0.0000 0.0000
# 5 0.0000 0.0000 0.0000 0.0000 18.8638 0.0000
# 6 0.0000 0.0000 0.0000 0.0000 0.0000 31.4673
#
#
#
# Elastic Compliance Matrix: (Units=1/GPa)
#
#
# Indices 1 2 3 4 5 6 
#
# 1 0.046061 0.002046 -0.002997 0.000000 0.000000 0.000000
# 2 0.002046 0.008077 -0.002265 0.000000 0.000000 0.000000
# 3 -0.002997 -0.002265 0.008309 0.000000 0.000000 0.000000
# 4 0.000000 0.000000 0.000000 0.065531 0.000000 0.000000
# 5 0.000000 0.000000 0.000000 0.000000 0.053011 0.000000
# 6 0.000000 0.000000 0.000000 0.000000 0.000000 0.031779
#
#
# Mechanical properties :
#
#
# Convention : Reuss Voigt Hill
#
# Bulk Modulus (GPa) = 17.85224 40.78382 29.31803
# Shear Modulus (GPa) = 21.01970 29.83698 25.42834
#
# Velocity S-wave (km/s) = 3.14125 3.74254 3.45500
# Velocity P-wave (km/s) = 4.64081 6.14987 5.44784
#
# Compressibility (1/GPa) = 0.05601537
#
# Stress axis : x y z
#
# Youngs Moduli (GPa) = 21.71043 123.80199 120.35709
#
# Poissons Ratio (x) = -0.25335 0.36069
# Poissons Ratio (y) = -0.04443 0.27264
# Poissons Ratio (z) = 0.06506 0.28045
#
# Static dielectric constant tensor:
#      x y z
#    x 3.864750 0.000000 0.000000 
#    y 0.000000 4.006170 0.000000 
#    z 0.000000 0.000000 3.621900 
# 
# 
# High freq. dielectric constant tensor:
#      x y z
#    x 1.842880 0.000000 0.000000 
#    y 0.000000 1.841660 0.000000 
#    z 0.000000 0.000000 1.791380 
# 
# From -- ./inp_files/37168.got.cif
#   From: 2010.03.12/outbox.cif.g09.slc.cpg/sg24_19_cif.got.tgz:37168.got - 2010.04.14 03:06:53.
