data_PCOD8164662
_publ_section_title
;
Structure prediction by ZEFSAII (Michael W. Deem and Ramdas Pophale) SiO2 
 PCOD8164662
Probable space group: I 21 21 21
;
_chemical_formula_sum "Si O2"
_cell_formula_units_Z 48
_cell_length_a 7.655053
_cell_length_b 22.122429
_cell_length_c 15.949396
_cell_angle_alpha 90.000000
_cell_angle_beta 90.000000
_cell_angle_gamma 90.000000
_cell_volume 2701.004159
_symmetry_space_group_name_H-M "I 21 21 21"
_symmetry_group_IT_number 24
_symmetry_cell_setting 'orthorhombic'
loop_
_space_group_symop_operation_xyz
x,y,z
-x,1/2-y,z
x,-y,1/2-z
1/2-x,y,-z
1/2+x,1/2+y,1/2+z
1/2-x,-y,1/2+z
1/2+x,1/2-y,-z
-x,1/2+y,1/2-z
loop_
_atom_site_type_symbol
_atom_site_label
_atom_site_fract_x
_atom_site_fract_y
_atom_site_fract_z
Si Si1 0.571393 0.931976 0.734777
Si Si2 0.649949 0.295360 0.921023
Si Si3 0.593110 0.903235 0.548472
Si Si4 0.428710 0.562193 0.199237
Si Si5 0.104176 0.989899 0.563228
Si Si6 0.711990 0.386092 0.192561
O O1 0.650659 0.923518 0.641320
O O2 0.727371 0.913286 0.800131
O O3 0.395108 0.892676 0.743878
O O4 0.510430 0.000000 0.750000
O O5 0.500000 0.250000 0.886805
O O6 0.568576 0.358245 0.951385
O O7 0.784253 0.318404 0.848910
O O8 0.750000 0.265177 0.000000
O O9 0.750000 0.869525 0.500000
O O10 0.547971 0.960728 0.491878
O O11 0.424278 0.500000 0.250000
O O12 0.512457 0.546839 0.109265
O O13 0.550330 0.612247 0.243794
O O14 0.250000 0.015973 0.500000
O O15 0.195083 0.941171 0.625725
#
# Coordination Sequence:
#
# PCOD8164662 Si02
#       6
#     8   8   8   8   8   8
#     4  10  18  28  43  68  91 125 166 188 241 300
#     4  11  21  34  46  66  94 127 175 215 253 287
#     4  11  19  29  49  66  97 128 166 209 244 295
#     4   9  19  29  46  66  95 125 166 200 239 305
#     4  11  17  32  47  72  96 132 167 206 252 300
#     4  10  18  33  49  61  95 131 163 204 243 295
#
# _framework density 17.771166999999998
#
# number of rings (size 3 to 8) (size 9 to 14) (size 15 to 20)
#    0.000    1.667    5.000    5.000    0.000    0.000 
#    0.000    0.000    0.000    0.000    0.000    0.000 
#    0.000    0.000   11.333    0.000    0.000    3.333 
#
# Total GULP energy -297382.173660 kJ/mol
# GULP energy per Si atom -12390.923903 kJ/mol
# Density = 1.773072 g / cm^3
# Si number density = 17.771167 Si / 1000 Ang^3
#
#
#
# Elastic Constant Matrix: (Units=GPa)
#
#
# Indices 1 2 3 4 5 6 
#
# 1 84.4305 11.7607 17.1993 0.0000 0.0000 0.0000
# 2 11.7607 39.4008 14.0256 0.0000 0.0000 0.0000
# 3 17.1993 14.0256 44.6610 -0.0002 0.0000 0.0000
# 4 0.0000 0.0000 -0.0002 14.5747 0.0000 0.0000
# 5 0.0000 0.0000 0.0000 0.0000 36.4373 0.0000
# 6 0.0000 0.0000 0.0000 0.0000 0.0000 13.5667
#
#
#
# Elastic Compliance Matrix: (Units=1/GPa)
#
#
# Indices 1 2 3 4 5 6 
#
# 1 0.013046 -0.002371 -0.004280 0.000000 0.000000 0.000000
# 2 -0.002371 0.029005 -0.008196 0.000000 0.000000 0.000000
# 3 -0.004280 -0.008196 0.026613 0.000000 0.000000 0.000000
# 4 0.000000 0.000000 0.000000 0.068612 0.000000 0.000000
# 5 0.000000 0.000000 0.000000 0.000000 0.027444 0.000000
# 6 0.000000 0.000000 0.000000 0.000000 0.000000 0.073710
#
#
# Mechanical properties :
#
#
# Convention : Reuss Voigt Hill
#
# Bulk Modulus (GPa) = 25.65965 28.27372 26.96668
# Shear Modulus (GPa) = 17.78636 21.28284 19.53460
#
# Velocity S-wave (km/s) = 3.16706 3.46440 3.31906
# Velocity P-wave (km/s) = 5.27674 5.65218 5.46768
#
# Compressibility (1/GPa) = 0.03897170
#
# Stress axis : x y z
#
# Youngs Moduli (GPa) = 76.65129 34.47633 37.57572
#
# Poissons Ratio (x) = 0.08173 0.16081
# Poissons Ratio (y) = 0.18172 0.30797
# Poissons Ratio (z) = 0.32804 0.28257
#
# Static dielectric constant tensor:
#      x y z
#    x 3.619830 0.000000 0.000000 
#    y 0.000000 2.872130 0.000000 
#    z 0.000000 0.000000 3.492080 
# 
# 
# High freq. dielectric constant tensor:
#      x y z
#    x 1.714080 0.000000 0.000000 
#    y 0.000000 1.620560 0.000000 
#    z 0.000000 0.000000 1.660590 
# 
# From -- ./inp_files/14329.got.cif
#   From: 2010.03.12/outbox.cif.g09.slc.cpg/sg24_8_cif.got.tgz:14329.got - 2010.04.14 03:06:53.
