data_PCOD8164184
_publ_section_title
;
Structure prediction by ZEFSAII (Michael W. Deem and Ramdas Pophale) SiO2 
 PCOD8164184
Probable space group: I 2 2 2
;
_chemical_formula_sum "Si O2"
_cell_formula_units_Z 56
_cell_length_a 22.304365
_cell_length_b 8.535933
_cell_length_c 14.065324
_cell_angle_alpha 90.000000
_cell_angle_beta 90.000000
_cell_angle_gamma 90.000000
_cell_volume 2677.876856
_symmetry_space_group_name_H-M "I 2 2 2"
_symmetry_group_IT_number 23
_symmetry_cell_setting 'orthorhombic'
loop_
_space_group_symop_operation_xyz
x,y,z
-x,-y,z
x,-y,-z
-x,y,-z
1/2+x,1/2+y,1/2+z
1/2-x,1/2-y,1/2+z
1/2+x,1/2-y,1/2-z
1/2-x,1/2+y,1/2-z
loop_
_atom_site_type_symbol
_atom_site_label
_atom_site_fract_x
_atom_site_fract_y
_atom_site_fract_z
Si Si1 0.314358 0.192919 0.213260
Si Si2 0.295265 0.828635 0.168842
Si Si3 0.000000 0.500000 0.192960
Si Si4 0.352978 0.676181 0.459560
Si Si5 0.271877 0.682230 0.971409
Si Si6 0.086022 0.752543 0.763398
Si Si7 0.584140 0.249419 0.639807
Si Si8 0.500000 0.500000 0.294778
O O1 0.263098 0.259662 0.281477
O O2 0.318182 0.292543 0.115449
O O3 0.377869 0.217596 0.264606
O O4 0.300858 0.011743 0.191234
O O5 0.354320 0.736086 0.201983
O O6 0.290100 0.795612 0.057295
O O7 0.945752 0.583151 0.251494
O O8 0.970069 0.370680 0.127246
O O9 0.345107 0.500000 0.500000
O O10 0.290619 0.754478 0.427784
O O11 0.398593 0.701555 0.372774
O O12 0.374799 0.776776 0.548902
O O13 0.268859 0.500000 0.000000
O O14 0.035647 0.876707 0.728239
O O15 0.551718 0.418228 0.641234
#
# Coordination Sequence:
#
# PCOD8164184 Si02
#       8
#     8   8   4   8   8   8   8   4
#     4  12  25  44  70  99 135 175 218 278 339 392
#     4  12  25  44  70  99 135 175 218 278 339 392
#     4  10  24  45  60  97 128 184 220 277 314 401
#     4  12  24  39  63  99 139 177 218 269 328 404
#     4  12  28  42  67 102 135 173 220 272 342 397
#     4  11  24  42  68  94 136 174 228 266 332 390
#     4  11  24  42  68  94 136 174 228 266 332 390
#     4  10  24  41  66  95 132 184 222 271 314 397
#
# _framework density 20.912088000000001
#
# number of rings (size 3 to 8) (size 9 to 14) (size 15 to 20)
#    0.000    0.571    5.714    2.143    6.000    3.429 
#    0.000    0.000    0.000    5.143    0.000    0.000 
#    0.000    0.000    0.000    0.000    0.000    0.000 
#
# Total GULP energy -347078.000073 kJ/mol
# GULP energy per Si atom -12395.642860 kJ/mol
# Density = 2.086449 g / cm^3
# Si number density = 20.912088 Si / 1000 Ang^3
#
#
#
# Elastic Constant Matrix: (Units=GPa)
#
#
# Indices 1 2 3 4 5 6 
#
# 1 95.7695 44.1657 38.3692 0.0000 0.0000 0.0000
# 2 44.1657 100.9164 22.9806 0.0000 0.0000 0.0000
# 3 38.3692 22.9806 103.9347 0.0000 0.0000 0.0000
# 4 0.0000 0.0000 0.0000 24.0646 0.0000 0.0000
# 5 0.0000 0.0000 0.0000 0.0000 6.5445 0.0000
# 6 0.0000 0.0000 0.0000 0.0000 0.0000 39.0714
#
#
#
# Elastic Compliance Matrix: (Units=1/GPa)
#
#
# Indices 1 2 3 4 5 6 
#
# 1 0.014637 -0.005450 -0.004199 0.000000 0.000000 0.000000
# 2 -0.005450 0.012464 -0.000744 0.000000 0.000000 0.000000
# 3 -0.004199 -0.000744 0.011336 0.000000 0.000000 0.000000
# 4 0.000000 0.000000 0.000000 0.041555 0.000000 0.000000
# 5 0.000000 0.000000 0.000000 0.000000 0.152799 0.000000
# 6 0.000000 0.000000 0.000000 0.000000 0.000000 0.025594
#
#
# Mechanical properties :
#
#
# Convention : Reuss Voigt Hill
#
# Bulk Modulus (GPa) = 56.65030 56.85017 56.75024
# Shear Modulus (GPa) = 17.54059 26.94311 22.24185
#
# Velocity S-wave (km/s) = 2.89931 3.59332 3.26481
# Velocity P-wave (km/s) = 6.19326 6.66785 6.43494
#
# Compressibility (1/GPa) = 0.01765216
#
# Stress axis : x y z
#
# Youngs Moduli (GPa) = 68.31951 80.23314 88.21553
#
# Poissons Ratio (x) = 0.43725 0.37038
# Poissons Ratio (y) = 0.37233 0.06563
# Poissons Ratio (z) = 0.28684 0.05969
#
# Static dielectric constant tensor:
#      x y z
#    x 3.972380 0.000000 0.000000 
#    y 0.000000 4.093170 0.000000 
#    z 0.000000 0.000000 3.569350 
# 
# 
# High freq. dielectric constant tensor:
#      x y z
#    x 1.832680 0.000000 0.000000 
#    y 0.000000 1.841800 0.000000 
#    z 0.000000 0.000000 1.784400 
# 
# From -- ./inp_files/22420.got.cif
#   From: 2010.03.12/outbox.cif.g09.slc.cpg/sg23_12_cif.got.tgz:22420.got - 2010.04.14 02:50:06.
