data_PCOD8164398
_publ_section_title
;
Structure prediction by ZEFSAII (Michael W. Deem and Ramdas Pophale) SiO2 
 PCOD8164398
Probable space group: I 2 2 2
;
_chemical_formula_sum "Si O2"
_cell_formula_units_Z 40
_cell_length_a 25.485703
_cell_length_b 7.721238
_cell_length_c 8.623941
_cell_angle_alpha 90.000000
_cell_angle_beta 90.000000
_cell_angle_gamma 90.000000
_cell_volume 1697.029273
_symmetry_space_group_name_H-M "I 2 2 2"
_symmetry_group_IT_number 23
_symmetry_cell_setting 'orthorhombic'
loop_
_space_group_symop_operation_xyz
x,y,z
-x,-y,z
x,-y,-z
-x,y,-z
1/2+x,1/2+y,1/2+z
1/2-x,1/2-y,1/2+z
1/2+x,1/2-y,1/2-z
1/2-x,1/2+y,1/2-z
loop_
_atom_site_type_symbol
_atom_site_label
_atom_site_fract_x
_atom_site_fract_y
_atom_site_fract_z
Si Si1 0.702717 0.540303 0.175273
Si Si2 0.691287 0.939489 0.171953
Si Si3 0.412885 0.973079 0.322287
Si Si4 0.405070 0.622165 0.188157
Si Si5 0.949577 0.782150 0.611463
O O1 0.685638 0.736491 0.193306
O O2 0.751026 0.505041 0.287988
O O3 0.654393 0.423268 0.236310
O O4 0.719705 0.500000 0.000000
O O5 0.649147 0.020471 0.290151
O O6 0.677070 0.000000 0.000000
O O7 0.431040 0.776708 0.287686
O O8 0.427065 0.000000 0.500000
O O9 0.444286 0.110355 0.214854
O O10 0.445206 0.459361 0.212351
O O11 0.400993 0.691231 0.009085
O O12 0.000000 0.773198 0.500000
#
# Coordination Sequence:
#
# PCOD8164398 Si02
#       5
#     8   8   8   8   8
#     4  12  22  41  65 102 147 194 256 317 377 443
#     4  12  25  42  67 103 149 204 257 306 374 462
#     4  12  26  45  71 112 157 194 244 316 383 455
#     4  11  22  44  74 105 143 193 256 315 374 451
#     4  11  24  47  78 109 140 196 258 319 381 457
#
# _framework density 23.570601
#
# number of rings (size 3 to 8) (size 9 to 14) (size 15 to 20)
#    0.000    0.400    4.000    7.200    0.000    4.800 
#    0.000    2.000    0.000    4.800    0.000    0.000 
#    0.000    0.000    0.000    0.000    0.000    0.000 
#
# Total GULP energy -247987.182239 kJ/mol
# GULP energy per Si atom -12399.359112 kJ/mol
# Density = 2.351695 g / cm^3
# Si number density = 23.570601 Si / 1000 Ang^3
#
#
#
# Elastic Constant Matrix: (Units=GPa)
#
#
# Indices 1 2 3 4 5 6 
#
# 1 116.3583 47.3522 29.3864 0.0000 0.0000 0.0000
# 2 47.3522 204.7230 59.0459 0.0000 0.0000 0.0000
# 3 29.3864 59.0459 86.3077 0.0000 0.0000 0.0000
# 4 0.0000 0.0000 0.0000 34.9334 0.0000 0.0000
# 5 0.0000 0.0000 0.0000 0.0000 36.1132 0.0000
# 6 0.0000 0.0000 0.0000 0.0000 0.0000 65.3508
#
#
#
# Elastic Compliance Matrix: (Units=1/GPa)
#
#
# Indices 1 2 3 4 5 6 
#
# 1 0.009820 -0.001628 -0.002230 0.000000 0.000000 0.000000
# 2 -0.001628 0.006355 -0.003794 0.000000 0.000000 0.000000
# 3 -0.002230 -0.003794 0.014941 0.000000 0.000000 0.000000
# 4 0.000000 0.000000 0.000000 0.028626 0.000000 0.000000
# 5 0.000000 0.000000 0.000000 0.000000 0.027691 0.000000
# 6 0.000000 0.000000 0.000000 0.000000 0.000000 0.015302
#
#
# Mechanical properties :
#
#
# Convention : Reuss Voigt Hill
#
# Bulk Modulus (GPa) = 63.23751 75.43978 69.33865
# Shear Modulus (GPa) = 40.54869 45.38645 42.96757
#
# Velocity S-wave (km/s) = 4.15216 4.39287 4.27421
# Velocity P-wave (km/s) = 7.06218 7.60297 7.33756
#
# Compressibility (1/GPa) = 0.01581340
#
# Stress axis : x y z
#
# Youngs Moduli (GPa) = 101.83453 157.34668 66.93054
#
# Poissons Ratio (x) = 0.25620 0.14922
# Poissons Ratio (y) = 0.16582 0.25390
# Poissons Ratio (z) = 0.22704 0.59690
#
# Static dielectric constant tensor:
#      x y z
#    x 4.491600 0.000000 0.000000 
#    y 0.000000 4.657840 0.000000 
#    z 0.000000 0.000000 2.179200 
# 
# 
# High freq. dielectric constant tensor:
#      x y z
#    x 1.944090 0.000000 0.000000 
#    y 0.000000 1.960900 0.000000 
#    z 0.000000 0.000000 1.898230 
# 
# From -- ./inp_files/13246.got.cif
#   From: 2010.03.12/outbox.cif.g09.slc.cpg/sg23_7_cif.got.tgz:13246.got - 2010.04.14 02:50:06.
