data_PCOD8164721
_publ_section_title
;
Structure prediction by ZEFSAII (Michael W. Deem and Ramdas Pophale) SiO2 
 PCOD8164721
Probable space group: I 21 21 21
;
_chemical_formula_sum "Si O2"
_cell_formula_units_Z 48
_cell_length_a 32.823704
_cell_length_b 8.186890
_cell_length_c 8.471835
_cell_angle_alpha 90.000000
_cell_angle_beta 90.000000
_cell_angle_gamma 90.000000
_cell_volume 2276.585846
_symmetry_space_group_name_H-M "I 21 21 21"
_symmetry_group_IT_number 24
_symmetry_cell_setting 'orthorhombic'
loop_
_space_group_symop_operation_xyz
x,y,z
-x,1/2-y,z
x,-y,1/2-z
1/2-x,y,-z
1/2+x,1/2+y,1/2+z
1/2-x,-y,1/2+z
1/2+x,1/2-y,-z
-x,1/2+y,1/2-z
loop_
_atom_site_type_symbol
_atom_site_label
_atom_site_fract_x
_atom_site_fract_y
_atom_site_fract_z
Si Si1 0.392204 0.292490 0.549616
Si Si2 0.250000 0.233871 0.500000
Si Si3 0.651315 0.725408 0.623409
Si Si4 0.500000 0.250000 0.915074
Si Si5 0.945810 0.000000 0.250000
Si Si6 0.927823 0.538822 0.434347
Si Si7 0.177330 0.460650 0.575517
Si Si8 0.783009 0.500000 0.250000
O O1 0.362186 0.255828 0.696595
O O2 0.419968 0.445723 0.598484
O O3 0.363924 0.353388 0.406827
O O4 0.418479 0.137575 0.487519
O O5 0.211140 0.350173 0.494691
O O6 0.253178 0.121379 0.655465
O O7 0.611333 0.653671 0.535233
O O8 0.688147 0.595451 0.625176
O O9 0.668272 0.883489 0.534182
O O10 0.471008 0.344495 0.797721
O O11 0.469083 0.125476 0.008398
O O12 0.935470 0.500000 0.250000
O O13 0.192787 0.500000 0.750000
#
# Coordination Sequence:
#
# PCOD8164721 Si02
#       8
#     8   4   8   4   4   8   8   4
#     4  11  19  39  60  87 123 171 212 249 317 383
#     4  12  30  44  64  96 124 162 208 276 330 380
#     4  11  20  42  68  84 124 174 208 252 315 390
#     4  12  18  26  48 102 138 150 200 278 324 356
#     4  12  18  29  56  88 134 162 210 258 326 359
#     4  10  18  32  56  91 129 161 201 255 323 366
#     4  12  27  42  64  95 126 163 217 268 317 385
#     4  12  26  45  68  90 126 170 210 262 328 391
#
# _framework density 21.084204
#
# number of rings (size 3 to 8) (size 9 to 14) (size 15 to 20)
#    0.000    0.667   10.000    0.000    4.667    0.000 
#    0.000    0.000    0.000    0.000    0.000   23.333 
#    0.000    0.000    0.000    0.000    0.000    0.000 
#
# Total GULP energy -297427.001047 kJ/mol
# GULP energy per Si atom -12392.791710 kJ/mol
# Density = 2.103621 g / cm^3
# Si number density = 21.084204 Si / 1000 Ang^3
#
#
#
# Elastic Constant Matrix: (Units=GPa)
#
#
# Indices 1 2 3 4 5 6 
#
# 1 122.3229 69.8507 13.6990 0.0000 0.0000 0.0000
# 2 69.8507 146.7405 25.5556 0.0000 0.0000 0.0000
# 3 13.6990 25.5556 36.6106 0.0000 0.0000 0.0000
# 4 0.0000 0.0000 0.0000 24.1697 0.0000 0.0000
# 5 0.0000 0.0000 0.0000 0.0000 10.9044 0.0000
# 6 0.0000 0.0000 0.0000 0.0000 0.0000 42.3540
#
#
#
# Elastic Compliance Matrix: (Units=1/GPa)
#
#
# Indices 1 2 3 4 5 6 
#
# 1 0.011236 -0.005255 -0.000536 0.000000 0.000000 0.000000
# 2 -0.005255 0.010216 -0.005165 0.000000 0.000000 0.000000
# 3 -0.000536 -0.005165 0.031120 0.000000 0.000000 0.000000
# 4 0.000000 0.000000 0.000000 0.041374 0.000000 0.000000
# 5 0.000000 0.000000 0.000000 0.000000 0.091706 0.000000
# 6 0.000000 0.000000 0.000000 0.000000 0.000000 0.023611
#
#
# Mechanical properties :
#
#
# Convention : Reuss Voigt Hill
#
# Bulk Modulus (GPa) = 32.61543 58.20942 45.41242
# Shear Modulus (GPa) = 20.71297 28.59017 24.65157
#
# Velocity S-wave (km/s) = 3.13771 3.68638 3.42306
# Velocity P-wave (km/s) = 5.35067 6.76663 6.09988
#
# Compressibility (1/GPa) = 0.03066034
#
# Stress axis : x y z
#
# Youngs Moduli (GPa) = 88.99965 97.88825 32.13358
#
# Poissons Ratio (x) = 0.51442 0.01722
# Poissons Ratio (y) = 0.46771 0.16596
# Poissons Ratio (z) = 0.04770 0.50555
#
# Static dielectric constant tensor:
#      x y z
#    x 4.210770 0.000000 0.000000 
#    y 0.000000 4.639220 0.000000 
#    z 0.000000 0.000000 3.101050 
# 
# 
# High freq. dielectric constant tensor:
#      x y z
#    x 1.842340 0.000000 0.000000 
#    y 0.000000 1.857940 0.000000 
#    z 0.000000 0.000000 1.746160 
# 
# From -- ./inp_files/16910.got.cif
#   From: 2010.03.12/outbox.cif.g09.slc.cpg/sg24_9_cif.got.tgz:16910.got - 2010.04.14 03:06:53.
