data_PCOD8164166
_publ_section_title
;
Structure prediction by ZEFSAII (Michael W. Deem and Ramdas Pophale) SiO2 
 PCOD8164166
Probable space group: I 2 2 2
;
_chemical_formula_sum "Si O2"
_cell_formula_units_Z 26
_cell_length_a 17.505247
_cell_length_b 5.161235
_cell_length_c 11.495762
_cell_angle_alpha 90.000000
_cell_angle_beta 90.000000
_cell_angle_gamma 90.000000
_cell_volume 1038.627077
_symmetry_space_group_name_H-M "I 2 2 2"
_symmetry_group_IT_number 23
_symmetry_cell_setting 'orthorhombic'
loop_
_space_group_symop_operation_xyz
x,y,z
-x,-y,z
x,-y,-z
-x,y,-z
1/2+x,1/2+y,1/2+z
1/2-x,1/2-y,1/2+z
1/2+x,1/2-y,1/2-z
1/2-x,1/2+y,1/2-z
loop_
_atom_site_type_symbol
_atom_site_label
_atom_site_fract_x
_atom_site_fract_y
_atom_site_fract_z
Si Si1 0.269613 0.115321 0.679644
Si Si2 0.076612 0.640601 0.182294
Si Si3 0.500000 0.500000 0.500000
Si Si4 0.372946 0.740005 0.933801
O O1 0.268237 0.345999 0.774680
O O2 0.219746 0.210274 0.568465
O O3 0.357532 0.062137 0.642861
O O4 0.058181 0.832866 0.077118
O O5 0.103002 0.782355 0.299490
O O6 0.000000 0.500000 0.218248
O O7 0.411879 0.500000 0.000000
O O8 0.397929 0.000000 0.000000
#
# Coordination Sequence:
#
# PCOD8164166 Si02
#       4
#     8   8   2   8
#     4  10  23  48  79 110 157 199 255 315 377 460
#     4  11  28  52  75 115 156 207 260 316 390 462
#     4  12  30  52  78 102 164 204 268 314 386 468
#     4  11  25  49  81 117 155 202 258 325 387 454
#
# _framework density 25.033048999999998
#
# number of rings (size 3 to 8) (size 9 to 14) (size 15 to 20)
#    0.000    1.231    0.000    4.154   12.923    3.077 
#   16.615    0.000    0.000    0.000    0.000    0.000 
#    0.000    0.000    0.000    0.000    0.000    0.000 
#
# Total GULP energy -161141.608474 kJ/mol
# GULP energy per Si atom -12395.508344 kJ/mol
# Density = 2.497607 g / cm^3
# Si number density = 25.033049 Si / 1000 Ang^3
#
#
#
# Elastic Constant Matrix: (Units=GPa)
#
#
# Indices 1 2 3 4 5 6 
#
# 1 137.4810 42.1126 25.6303 0.0000 0.0000 0.0000
# 2 42.1126 174.5039 60.3767 0.0000 0.0000 0.0000
# 3 25.6303 60.3767 141.7708 0.0000 0.0000 0.0000
# 4 0.0000 0.0000 0.0000 40.3700 0.0000 0.0000
# 5 0.0000 0.0000 0.0000 0.0000 27.3622 0.0000
# 6 0.0000 0.0000 0.0000 0.0000 0.0000 35.2677
#
#
#
# Elastic Compliance Matrix: (Units=1/GPa)
#
#
# Indices 1 2 3 4 5 6 
#
# 1 0.007917 -0.001660 -0.000724 0.000000 0.000000 0.000000
# 2 -0.001660 0.007069 -0.002710 0.000000 0.000000 0.000000
# 3 -0.000724 -0.002710 0.008339 0.000000 0.000000 0.000000
# 4 0.000000 0.000000 0.000000 0.024771 0.000000 0.000000
# 5 0.000000 0.000000 0.000000 0.000000 0.036547 0.000000
# 6 0.000000 0.000000 0.000000 0.000000 0.000000 0.028355
#
#
# Mechanical properties :
#
#
# Convention : Reuss Voigt Hill
#
# Bulk Modulus (GPa) = 76.12947 78.88832 77.50889
# Shear Modulus (GPa) = 39.19563 42.30906 40.75235
#
# Velocity S-wave (km/s) = 3.96126 4.11558 4.03915
# Velocity P-wave (km/s) = 7.16936 7.35976 7.26518
#
# Compressibility (1/GPa) = 0.01313552
#
# Stress axis : x y z
#
# Youngs Moduli (GPa) = 126.30624 141.46465 119.92029
#
# Poissons Ratio (x) = 0.23484 0.08687
# Poissons Ratio (y) = 0.20967 0.32503
# Poissons Ratio (z) = 0.09149 0.38342
#
# Static dielectric constant tensor:
#      x y z
#    x 4.749560 0.000000 0.000000 
#    y 0.000000 4.704610 0.000000 
#    z 0.000000 0.000000 4.344440 
# 
# 
# High freq. dielectric constant tensor:
#      x y z
#    x 2.003100 0.000000 0.000000 
#    y 0.000000 2.005970 0.000000 
#    z 0.000000 0.000000 1.995760 
# 
# From -- ./inp_files/1154.got.cif
#   From: 2010.03.12/outbox.cif.g09.slc.cpg/sg23_1_cif.got.tgz:1154.got - 2010.04.14 02:50:06.
