data_PCOD8164665
_publ_section_title
;
Structure prediction by ZEFSAII (Michael W. Deem and Ramdas Pophale) SiO2 
 PCOD8164665
Probable space group: I 21 21 21
;
_chemical_formula_sum "Si O2"
_cell_formula_units_Z 64
_cell_length_a 14.223248
_cell_length_b 14.233020
_cell_length_c 16.011847
_cell_angle_alpha 90.000000
_cell_angle_beta 90.000000
_cell_angle_gamma 90.000000
_cell_volume 3241.434676
_symmetry_space_group_name_H-M "I 21 21 21"
_symmetry_group_IT_number 24
_symmetry_cell_setting 'orthorhombic'
loop_
_space_group_symop_operation_xyz
x,y,z
-x,1/2-y,z
x,-y,1/2-z
1/2-x,y,-z
1/2+x,1/2+y,1/2+z
1/2-x,-y,1/2+z
1/2+x,1/2-y,-z
-x,1/2+y,1/2-z
loop_
_atom_site_type_symbol
_atom_site_label
_atom_site_fract_x
_atom_site_fract_y
_atom_site_fract_z
Si Si1 0.709881 0.357911 0.199597
Si Si2 0.891981 0.040039 0.949577
Si Si3 0.393968 0.642217 0.614395
Si Si4 0.107859 0.644052 0.864625
Si Si5 0.790119 0.142091 0.800405
Si Si6 0.893967 0.357779 0.114391
Si Si7 0.107863 0.144053 0.635372
Si Si8 0.891985 0.540039 0.550426
O O1 0.680369 0.250001 0.190470
O O2 0.823162 0.371772 0.192445
O O3 0.674306 0.393387 0.289564
O O4 0.661992 0.412346 0.125218
O O5 0.837994 0.087663 0.874796
O O6 0.999998 0.069481 0.940851
O O7 0.878053 0.926829 0.942584
O O8 0.856187 0.075892 0.039374
O O9 0.323164 0.628232 0.692451
O O10 0.390457 0.749998 0.582875
O O11 0.500002 0.615076 0.642653
O O12 0.174296 0.606610 0.789558
O O13 0.134871 0.749999 0.893031
O O14 0.999998 0.640444 0.833115
O O15 0.856186 0.424099 0.039366
O O16 0.121944 0.073172 0.557411
#
# Coordination Sequence:
#
# PCOD8164665 Si02
#       8
#     8   8   8   8   8   8   8   8
#     4  10  18  28  45  69  97 125 151 186 235 285
#     4  10  18  28  45  69  97 125 151 186 235 285
#     4   9  18  31  47  70  97 123 154 191 232 280
#     4   9  18  31  47  70  97 123 154 191 232 280
#     4  10  18  28  45  69  97 125 151 186 235 285
#     4   9  18  31  47  70  97 123 154 191 232 280
#     4   9  18  31  47  70  97 123 154 191 232 280
#     4  10  18  28  45  69  97 125 151 186 235 285
#
# _framework density 19.744344000000002
#
# number of rings (size 3 to 8) (size 9 to 14) (size 15 to 20)
#    0.000    2.500    0.000    3.000    0.000    6.500 
#    0.000    0.000    0.000    6.000    0.000    0.000 
#    0.000    0.000    0.000    0.000    0.000    0.000 
#
# Total GULP energy -396675.475801 kJ/mol
# GULP energy per Si atom -12396.108619 kJ/mol
# Density = 1.969941 g / cm^3
# Si number density = 19.744344 Si / 1000 Ang^3
#
#
#
# Elastic Constant Matrix: (Units=GPa)
#
#
# Indices 1 2 3 4 5 6 
#
# 1 47.0876 45.1883 38.3761 0.0000 0.0000 0.0000
# 2 45.1883 47.7712 38.6090 0.0000 0.0000 0.0000
# 3 38.3761 38.6090 50.2877 0.0000 0.0000 0.0000
# 4 0.0000 0.0000 0.0000 24.4360 0.0000 0.0000
# 5 0.0000 0.0000 0.0000 0.0000 24.4604 0.0000
# 6 0.0000 0.0000 0.0000 0.0000 0.0000 19.1058
#
#
#
# Elastic Compliance Matrix: (Units=1/GPa)
#
#
# Indices 1 2 3 4 5 6 
#
# 1 0.240253 -0.208393 -0.023349 0.000000 0.000000 0.000000
# 2 -0.208393 0.235919 -0.022098 0.000000 0.000000 0.000000
# 3 -0.023349 -0.022098 0.054670 0.000000 0.000000 0.000000
# 4 0.000000 0.000000 0.000000 0.040923 0.000000 0.000000
# 5 0.000000 0.000000 0.000000 0.000000 0.040882 0.000000
# 6 0.000000 0.000000 0.000000 0.000000 0.000000 0.052340
#
#
# Mechanical properties :
#
#
# Convention : Reuss Voigt Hill
#
# Bulk Modulus (GPa) = 43.17371 43.27701 43.22536
# Shear Modulus (GPa) = 4.23590 15.13199 9.68394
#
# Velocity S-wave (km/s) = 1.46630 2.77139 2.21705
# Velocity P-wave (km/s) = 4.97801 5.67513 5.33796
#
# Compressibility (1/GPa) = 0.02316225
#
# Stress axis : x y z
#
# Youngs Moduli (GPa) = 4.16227 4.23875 18.29161
#
# Poissons Ratio (x) = 0.88333 0.42708
# Poissons Ratio (y) = 0.86739 0.40421
# Poissons Ratio (z) = 0.09718 0.09367
#
# Static dielectric constant tensor:
#      x y z
#    x 3.838100 0.000000 0.000000 
#    y 0.000000 3.840100 0.000000 
#    z 0.000000 0.000000 3.232860 
# 
# 
# High freq. dielectric constant tensor:
#      x y z
#    x 1.775890 0.000000 0.000000 
#    y 0.000000 1.775990 0.000000 
#    z 0.000000 0.000000 1.723710 
# 
# From -- ./inp_files/30934.got.cif
#   From: 2010.03.12/outbox.cif.g09.slc.cpg/sg24_16_cif.got.tgz:30934.got - 2010.04.14 03:06:53.
