data_PCOD8164375
_publ_section_title
;
Structure prediction by ZEFSAII (Michael W. Deem and Ramdas Pophale) SiO2 
 PCOD8164375
Probable space group: I 2 2 2
;
_chemical_formula_sum "Si O2"
_cell_formula_units_Z 48
_cell_length_a 8.734431
_cell_length_b 10.482507
_cell_length_c 24.590490
_cell_angle_alpha 90.000000
_cell_angle_beta 90.000000
_cell_angle_gamma 90.000000
_cell_volume 2251.474135
_symmetry_space_group_name_H-M "I 2 2 2"
_symmetry_group_IT_number 23
_symmetry_cell_setting 'orthorhombic'
loop_
_space_group_symop_operation_xyz
x,y,z
-x,-y,z
x,-y,-z
-x,y,-z
1/2+x,1/2+y,1/2+z
1/2-x,1/2-y,1/2+z
1/2+x,1/2-y,1/2-z
1/2-x,1/2+y,1/2-z
loop_
_atom_site_type_symbol
_atom_site_label
_atom_site_fract_x
_atom_site_fract_y
_atom_site_fract_z
Si Si1 0.179687 0.351876 0.279968
Si Si2 0.319519 0.269512 0.596741
Si Si3 0.820018 0.500869 0.060936
Si Si4 0.178894 0.643970 0.296281
Si Si5 0.322421 0.736424 0.610085
Si Si6 0.163874 0.356262 0.492105
O O1 0.221156 0.502982 0.272142
O O2 0.227532 0.262331 0.229516
O O3 0.272279 0.295820 0.329833
O O4 0.000149 0.333787 0.288829
O O5 0.219999 0.351223 0.639579
O O6 0.497582 0.288681 0.608162
O O7 0.290353 0.311408 0.534996
O O8 0.270473 0.120858 0.597836
O O9 0.770048 0.379303 0.095586
O O10 0.000000 0.500000 0.052481
O O11 0.745047 0.500000 0.000000
O O12 0.233385 0.648930 0.567904
O O13 0.123316 0.500000 0.500000
O O14 0.000000 0.282114 0.500000
#
# Coordination Sequence:
#
# PCOD8164375 Si02
#       6
#     8   8   8   8   8   8
#     4  11  26  47  69  96 131 170 215 271 330 388
#     4  11  22  39  65  93 126 167 213 264 321 387
#     4   9  18  36  60  92 130 166 204 255 316 375
#     4  11  26  47  69  96 131 170 215 271 330 388
#     4  11  22  39  65  93 126 167 213 264 321 387
#     4  11  23  38  57  86 126 167 208 261 322 384
#
# _framework density 21.319365000000001
#
# number of rings (size 3 to 8) (size 9 to 14) (size 15 to 20)
#    0.000    1.333    1.667    3.500    2.333    8.000 
#    0.000    3.333    0.000    0.000    0.000    0.000 
#    0.000    0.000    0.000    0.000    0.000    0.000 
#
# Total GULP energy -297506.773085 kJ/mol
# GULP energy per Si atom -12396.115545 kJ/mol
# Density = 2.127084 g / cm^3
# Si number density = 21.319365 Si / 1000 Ang^3
#
#
#
# Elastic Constant Matrix: (Units=GPa)
#
#
# Indices 1 2 3 4 5 6 
#
# 1 88.4174 33.0712 18.2499 0.0000 0.0000 0.0000
# 2 33.0712 101.3807 3.4485 0.0000 0.0000 0.0000
# 3 18.2499 3.4485 64.4426 0.0000 0.0000 0.0000
# 4 0.0000 0.0000 0.0000 3.3901 0.0000 0.0000
# 5 0.0000 0.0000 0.0000 0.0000 58.2743 0.0000
# 6 0.0000 0.0000 0.0000 0.0000 0.0000 25.4500
#
#
#
# Elastic Compliance Matrix: (Units=1/GPa)
#
#
# Indices 1 2 3 4 5 6 
#
# 1 0.013685 -0.004340 -0.003643 0.000000 0.000000 0.000000
# 2 -0.004340 0.011258 0.000627 0.000000 0.000000 0.000000
# 3 -0.003643 0.000627 0.016516 0.000000 0.000000 0.000000
# 4 0.000000 0.000000 0.000000 0.294980 0.000000 0.000000
# 5 0.000000 0.000000 0.000000 0.000000 0.017160 0.000000
# 6 0.000000 0.000000 0.000000 0.000000 0.000000 0.039293
#
#
# Mechanical properties :
#
#
# Convention : Reuss Voigt Hill
#
# Bulk Modulus (GPa) = 37.38929 40.41998 38.90463
# Shear Modulus (GPa) = 12.00416 30.72095 21.36255
#
# Velocity S-wave (km/s) = 2.37547 3.80015 3.16891
# Velocity P-wave (km/s) = 5.00995 6.18509 5.62827
#
# Compressibility (1/GPa) = 0.02674563
#
# Stress axis : x y z
#
# Youngs Moduli (GPa) = 73.07026 88.82290 60.54759
#
# Poissons Ratio (x) = 0.38552 0.22060
# Poissons Ratio (y) = 0.31715 -0.03795
# Poissons Ratio (z) = 0.26622 -0.05567
#
# Static dielectric constant tensor:
#      x y z
#    x 3.819340 0.000000 0.000000 
#    y 0.000000 3.995710 0.000000 
#    z 0.000000 0.000000 3.815140 
# 
# 
# High freq. dielectric constant tensor:
#      x y z
#    x 1.833090 0.000000 0.000000 
#    y 0.000000 1.847460 0.000000 
#    z 0.000000 0.000000 1.836540 
# 
# From -- ./inp_files/8695.got.cif
#   From: 2010.03.12/outbox.cif.g09.slc.cpg/sg23_5_cif.got.tgz:8695.got - 2010.04.14 02:50:06.
