data_PCOD8164298
_publ_section_title
;
Structure prediction by ZEFSAII (Michael W. Deem and Ramdas Pophale) SiO2 
 PCOD8164298
Probable space group: I 2 2 2
;
_chemical_formula_sum "Si O2"
_cell_formula_units_Z 64
_cell_length_a 17.086525
_cell_length_b 9.167645
_cell_length_c 20.360189
_cell_angle_alpha 90.000000
_cell_angle_beta 90.000000
_cell_angle_gamma 90.000000
_cell_volume 3189.285066
_symmetry_space_group_name_H-M "I 2 2 2"
_symmetry_group_IT_number 23
_symmetry_cell_setting 'orthorhombic'
loop_
_space_group_symop_operation_xyz
x,y,z
-x,-y,z
x,-y,-z
-x,y,-z
1/2+x,1/2+y,1/2+z
1/2-x,1/2-y,1/2+z
1/2+x,1/2-y,1/2-z
1/2-x,1/2+y,1/2-z
loop_
_atom_site_type_symbol
_atom_site_label
_atom_site_fract_x
_atom_site_fract_y
_atom_site_fract_z
Si Si1 0.078634 0.429812 0.430820
Si Si2 0.821408 0.647376 0.638208
Si Si3 0.170925 0.548935 0.816581
Si Si4 0.195449 0.002671 0.787623
Si Si5 0.931954 0.118905 0.610751
Si Si6 0.933577 0.799215 0.244947
Si Si7 0.606729 0.232738 0.724411
Si Si8 0.212183 0.935161 0.426831
O O1 0.098256 0.500000 0.500000
O O2 0.145541 0.488701 0.381962
O O3 0.071539 0.254107 0.440656
O O4 0.000000 0.500000 0.401915
O O5 0.732259 0.606292 0.658572
O O6 0.871212 0.714377 0.698468
O O7 0.819118 0.767000 0.579068
O O8 0.245986 0.509870 0.773151
O O9 0.126214 0.684859 0.786074
O O10 0.108987 0.418379 0.814665
O O11 0.203442 0.566865 0.890590
O O12 0.108189 0.953377 0.766359
O O13 0.173055 0.166056 0.810676
O O14 0.945080 0.211661 0.676925
O O15 0.849457 0.037249 0.610785
O O16 0.000000 0.000000 0.595112
O O17 0.019031 0.791446 0.213285
O O18 0.221825 0.000000 0.500000
#
# Coordination Sequence:
#
# PCOD8164298 Si02
#       8
#     8   8   8   8   8   8   8   8
#     4  11  24  40  57  85 127 174 220 256 305 379
#     4  11  22  40  59  91 128 164 208 266 324 388
#     4  11  22  39  58  91 128 162 208 263 320 384
#     4  11  20  36  61  86 126 154 196 262 330 386
#     4  12  24  39  65  94 132 167 213 265 326 398
#     4  12  21  38  61  93 125 160 200 264 334 396
#     4  11  22  35  62  91 123 158 201 261 336 391
#     4  12  24  40  61  87 126 175 221 259 308 381
#
# _framework density 20.067191999999999
#
# number of rings (size 3 to 8) (size 9 to 14) (size 15 to 20)
#    0.000    0.625    3.750    6.750    1.750    1.250 
#    0.000    0.000    0.000    1.500    0.000    0.000 
#    0.000    0.000    0.000    0.000    0.000    0.000 
#
# Total GULP energy -396471.362194 kJ/mol
# GULP energy per Si atom -12389.730069 kJ/mol
# Density = 2.002152 g / cm^3
# Si number density = 20.067192 Si / 1000 Ang^3
#
#
#
# Elastic Constant Matrix: (Units=GPa)
#
#
# Indices 1 2 3 4 5 6 
#
# 1 105.9244 43.9108 30.1260 0.0000 0.0000 0.0000
# 2 43.9108 116.6164 32.5833 0.0000 0.0000 0.0000
# 3 30.1260 32.5833 57.3807 0.0000 0.0000 0.0000
# 4 0.0000 0.0000 0.0000 26.3013 0.0000 0.0000
# 5 0.0000 0.0000 0.0000 0.0000 19.3279 0.0000
# 6 0.0000 0.0000 0.0000 0.0000 0.0000 22.4580
#
#
#
# Elastic Compliance Matrix: (Units=1/GPa)
#
#
# Indices 1 2 3 4 5 6 
#
# 1 0.012079 -0.003300 -0.004468 0.000000 0.000000 0.000000
# 2 -0.003300 0.011094 -0.004567 0.000000 0.000000 0.000000
# 3 -0.004468 -0.004567 0.022367 0.000000 0.000000 0.000000
# 4 0.000000 0.000000 0.000000 0.038021 0.000000 0.000000
# 5 0.000000 0.000000 0.000000 0.000000 0.051739 0.000000
# 6 0.000000 0.000000 0.000000 0.000000 0.000000 0.044528
#
#
# Mechanical properties :
#
#
# Convention : Reuss Voigt Hill
#
# Bulk Modulus (GPa) = 47.91621 54.79575 51.35598
# Shear Modulus (GPa) = 23.64587 25.17088 24.40838
#
# Velocity S-wave (km/s) = 3.43641 3.54549 3.49138
# Velocity P-wave (km/s) = 6.29881 6.64275 6.47306
#
# Compressibility (1/GPa) = 0.02086976
#
# Stress axis : x y z
#
# Youngs Moduli (GPa) = 82.78504 90.14094 44.70950
#
# Poissons Ratio (x) = 0.29747 0.19977
# Poissons Ratio (y) = 0.27319 0.20419
# Poissons Ratio (z) = 0.36989 0.41167
#
# Static dielectric constant tensor:
#      x y z
#    x 3.744480 0.000000 0.000000 
#    y 0.000000 4.026940 0.000000 
#    z 0.000000 0.000000 3.333160 
# 
# 
# High freq. dielectric constant tensor:
#      x y z
#    x 1.784280 0.000000 0.000000 
#    y 0.000000 1.812980 0.000000 
#    z 0.000000 0.000000 1.734370 
# 
# From -- ./inp_files/27182.got.cif
#   From: 2010.03.12/outbox.cif.g09.slc.cpg/sg23_14_cif.got.tgz:27182.got - 2010.04.14 02:50:06.
