data_PCOD8164838
_publ_section_title
;
Structure prediction by ZEFSAII (Michael W. Deem and Ramdas Pophale) SiO2 
 PCOD8164838
Probable space group: I 21 21 21
;
_chemical_formula_sum "Si O2"
_cell_formula_units_Z 48
_cell_length_a 16.382569
_cell_length_b 17.211344
_cell_length_c 8.793189
_cell_angle_alpha 90.000000
_cell_angle_beta 90.000000
_cell_angle_gamma 90.000000
_cell_volume 2479.380599
_symmetry_space_group_name_H-M "I 21 21 21"
_symmetry_group_IT_number 24
_symmetry_cell_setting 'orthorhombic'
loop_
_space_group_symop_operation_xyz
x,y,z
-x,1/2-y,z
x,-y,1/2-z
1/2-x,y,-z
1/2+x,1/2+y,1/2+z
1/2-x,-y,1/2+z
1/2+x,1/2-y,-z
-x,1/2+y,1/2-z
loop_
_atom_site_type_symbol
_atom_site_label
_atom_site_fract_x
_atom_site_fract_y
_atom_site_fract_z
Si Si1 0.198155 0.659223 0.278300
Si Si2 0.884948 0.181531 0.780582
Si Si3 0.088506 0.224003 0.054254
Si Si4 0.111080 0.551607 0.475505
Si Si5 0.074939 0.378168 0.473671
Si Si6 0.456121 0.917679 0.726811
O O1 0.290047 0.678892 0.236163
O O2 0.163459 0.725593 0.388071
O O3 0.191296 0.578728 0.377516
O O4 0.144773 0.661254 0.126986
O O5 0.936399 0.174055 0.624904
O O6 0.909072 0.262004 0.870115
O O7 0.907331 0.106989 0.882751
O O8 0.100718 0.137035 0.120491
O O9 0.000000 0.250000 0.118992
O O10 0.112111 0.462089 0.524506
O O11 0.039360 0.563294 0.356660
O O12 0.986338 0.381334 0.389045
O O13 0.408469 0.000000 0.750000
#
# Coordination Sequence:
#
# PCOD8164838 Si02
#       6
#     8   8   8   8   8   8
#     4  10  20  32  49  76 107 144 182 207 252 316
#     4  11  21  30  48  80 110 137 175 222 257 305
#     4  11  18  36  53  70 103 139 178 213 263 313
#     4   9  17  30  48  72 108 150 176 200 244 317
#     4  10  19  31  48  75 111 143 173 211 255 309
#     4   9  18  35  55  75 102 138 183 218 258 315
#
# _framework density 19.359674999999999
#
# number of rings (size 3 to 8) (size 9 to 14) (size 15 to 20)
#    0.000    2.000    5.000    4.500    0.000    4.000 
#    3.000    0.000    0.000    0.000    0.000    4.667 
#    5.000    0.000    0.000    0.000    0.000    0.000 
#
# Total GULP energy -297346.261725 kJ/mol
# GULP energy per Si atom -12389.427572 kJ/mol
# Density = 1.931561 g / cm^3
# Si number density = 19.359675 Si / 1000 Ang^3
#
#
#
# Elastic Constant Matrix: (Units=GPa)
#
#
# Indices 1 2 3 4 5 6 
#
# 1 18.0338 14.6524 1.6855 0.0000 0.0000 0.0000
# 2 14.6524 98.8514 49.6205 0.0000 0.0000 0.0000
# 3 1.6855 49.6205 135.0202 0.0000 0.0000 0.0000
# 4 0.0000 0.0000 0.0000 35.1657 0.0000 0.0000
# 5 0.0000 0.0000 0.0000 0.0000 16.2075 0.0000
# 6 0.0000 0.0000 0.0000 0.0000 0.0000 9.9879
#
#
#
# Elastic Compliance Matrix: (Units=1/GPa)
#
#
# Indices 1 2 3 4 5 6 
#
# 1 0.064226 -0.011180 0.003307 0.000000 0.000000 0.000000
# 2 -0.011180 0.014351 -0.005134 0.000000 0.000000 0.000000
# 3 0.003307 -0.005134 0.009252 0.000000 0.000000 0.000000
# 4 0.000000 0.000000 0.000000 0.028437 0.000000 0.000000
# 5 0.000000 0.000000 0.000000 0.000000 0.061700 0.000000
# 6 0.000000 0.000000 0.000000 0.000000 0.000000 0.100121
#
#
# Mechanical properties :
#
#
# Convention : Reuss Voigt Hill
#
# Bulk Modulus (GPa) = 16.17763 42.64690 29.41227
# Shear Modulus (GPa) = 15.39857 24.66870 20.03363
#
# Velocity S-wave (km/s) = 2.82333 3.57351 3.22034
# Velocity P-wave (km/s) = 4.35922 6.25325 5.39008
#
# Compressibility (1/GPa) = 0.06181375
#
# Stress axis : x y z
#
# Youngs Moduli (GPa) = 15.57002 69.68328 108.08575
#
# Poissons Ratio (x) = 0.77905 -0.35743
# Poissons Ratio (y) = 0.17407 0.55495
# Poissons Ratio (z) = -0.05149 0.35778
#
# Static dielectric constant tensor:
#      x y z
#    x 3.123270 0.000000 0.000000 
#    y 0.000000 4.297180 0.000000 
#    z 0.000000 0.000000 5.123700 
# 
# 
# High freq. dielectric constant tensor:
#      x y z
#    x 1.704120 0.000000 0.000000 
#    y 0.000000 1.732970 0.000000 
#    z 0.000000 0.000000 1.762020 
# 
# From -- ./inp_files/12795.got.cif
#   From: 2010.03.12/outbox.cif.g09.slc.cpg/sg24_7_cif.got.tgz:12795.got - 2010.04.14 03:06:53.
