data_PCOD8164325
_publ_section_title
;
Structure prediction by ZEFSAII (Michael W. Deem and Ramdas Pophale) SiO2 
 PCOD8164325
Probable space group: I 2 2 2
;
_chemical_formula_sum "Si O2"
_cell_formula_units_Z 40
_cell_length_a 9.523661
_cell_length_b 28.363112
_cell_length_c 7.685378
_cell_angle_alpha 90.000000
_cell_angle_beta 90.000000
_cell_angle_gamma 90.000000
_cell_volume 2075.979405
_symmetry_space_group_name_H-M "I 2 2 2"
_symmetry_group_IT_number 23
_symmetry_cell_setting 'orthorhombic'
loop_
_space_group_symop_operation_xyz
x,y,z
-x,-y,z
x,-y,-z
-x,y,-z
1/2+x,1/2+y,1/2+z
1/2-x,1/2-y,1/2+z
1/2+x,1/2-y,1/2-z
1/2-x,1/2+y,1/2-z
loop_
_atom_site_type_symbol
_atom_site_label
_atom_site_fract_x
_atom_site_fract_y
_atom_site_fract_z
Si Si1 0.869733 0.779732 0.381837
Si Si2 0.863666 0.880086 0.283092
Si Si3 0.666980 0.447708 0.516346
Si Si4 0.131995 0.701768 0.885495
Si Si5 0.183483 0.112553 0.671814
O O1 0.813192 0.825549 0.274933
O O2 0.920267 0.735535 0.269307
O O3 0.738949 0.765611 0.503907
O O4 0.000000 0.797111 0.500000
O O5 0.785811 0.911736 0.137736
O O6 0.824769 0.903304 0.470357
O O7 0.030003 0.875476 0.253253
O O8 0.732401 0.500000 0.500000
O O9 0.500000 0.451622 0.500000
O O10 0.730479 0.429702 0.700664
O O11 0.210699 0.656382 0.807293
O O12 0.000000 0.685150 0.000000
#
# Coordination Sequence:
#
# PCOD8164325 Si02
#       5
#     8   8   8   8   8
#     4  11  21  38  54  81 113 153 192 225 285 329
#     4   9  17  33  53  74 112 147 180 225 282 334
#     4   9  18  30  53  85 109 140 184 232 288 334
#     4  11  23  34  54  82 114 152 193 230 272 336
#     4   9  18  35  50  77 112 147 180 226 282 332
#
# _framework density 19.268013
#
# number of rings (size 3 to 8) (size 9 to 14) (size 15 to 20)
#    0.000    2.200    4.000    1.200    2.800    1.600 
#    0.000    4.000    0.000    0.000    0.000   16.800 
#    0.000    0.000    0.000    0.000    0.000    0.000 
#
# Total GULP energy -247829.041950 kJ/mol
# GULP energy per Si atom -12391.452098 kJ/mol
# Density = 1.922416 g / cm^3
# Si number density = 19.268013 Si / 1000 Ang^3
#
#
#
# Elastic Constant Matrix: (Units=GPa)
#
#
# Indices 1 2 3 4 5 6 
#
# 1 48.3075 24.7465 24.9913 -0.0378 -0.0353 -0.0051
# 2 24.7465 140.0540 76.9576 0.0208 0.0006 0.0021
# 3 24.9913 76.9576 94.9599 -0.0955 -0.0818 -0.0036
# 4 -0.0378 0.0208 -0.0955 30.9380 -0.0308 -0.0015
# 5 -0.0353 0.0006 -0.0818 -0.0308 16.3613 -0.0132
# 6 -0.0051 0.0021 -0.0036 -0.0015 -0.0132 14.3759
#
#
#
# Elastic Compliance Matrix: (Units=1/GPa)
#
#
# Indices 1 2 3 4 5 6 
#
# 1 0.024114 -0.001395 -0.005216 0.000014 0.000026 0.000008
# 2 -0.001395 0.012953 -0.010131 -0.000042 -0.000054 -0.000005
# 3 -0.005216 -0.010131 0.020114 0.000063 0.000090 0.000005
# 4 0.000014 -0.000042 0.000063 0.032323 0.000061 0.000004
# 5 0.000026 -0.000054 0.000090 0.000061 0.061121 0.000056
# 6 0.000008 -0.000005 0.000005 0.000004 0.000056 0.069561
#
#
# Mechanical properties :
#
#
# Convention : Reuss Voigt Hill
#
# Bulk Modulus (GPa) = 42.19732 59.63470 50.91601
# Shear Modulus (GPa) = 19.11561 22.77676 20.94619
#
# Velocity S-wave (km/s) = 3.15316 3.44190 3.30069
# Velocity P-wave (km/s) = 5.93332 6.84199 6.40380
#
# Compressibility (1/GPa) = 0.02369819
#
# Stress axis : x y z
#
# Youngs Moduli (GPa) = 41.47046 77.20151 49.71760
#
# Poissons Ratio (x) = 0.10767 0.25932
# Poissons Ratio (y) = 0.05784 0.50367
# Poissons Ratio (z) = 0.21630 0.78209
#
# Static dielectric constant tensor:
#      x y z
#    x 3.125950 -0.000010 0.000020 
#    y -0.000010 3.524670 -0.000040 
#    z 0.000020 -0.000040 3.706820 
# 
# 
# High freq. dielectric constant tensor:
#      x y z
#    x 1.705020 0.000000 0.000000 
#    y 0.000000 1.738590 0.000000 
#    z 0.000000 0.000000 1.753400 
# 
# From -- ./inp_files/7086.got.cif
#   From: 2010.03.12/outbox.cif.g09.slc.cpg/sg23_4_cif.got.tgz:7086.got - 2010.04.14 02:50:06.
