data_PCOD8164226
_publ_section_title
;
Structure prediction by ZEFSAII (Michael W. Deem and Ramdas Pophale) SiO2 
 PCOD8164226
Probable space group: I 2 2 2
;
_chemical_formula_sum "Si O2"
_cell_formula_units_Z 42
_cell_length_a 5.178776
_cell_length_b 24.747891
_cell_length_c 15.029403
_cell_angle_alpha 90.000000
_cell_angle_beta 90.000000
_cell_angle_gamma 90.000000
_cell_volume 1926.225159
_symmetry_space_group_name_H-M "I 2 2 2"
_symmetry_group_IT_number 23
_symmetry_cell_setting 'orthorhombic'
loop_
_space_group_symop_operation_xyz
x,y,z
-x,-y,z
x,-y,-z
-x,y,-z
1/2+x,1/2+y,1/2+z
1/2-x,1/2-y,1/2+z
1/2+x,1/2-y,1/2-z
1/2-x,1/2+y,1/2-z
loop_
_atom_site_type_symbol
_atom_site_label
_atom_site_fract_x
_atom_site_fract_y
_atom_site_fract_z
Si Si1 0.500000 0.500000 0.850046
Si Si2 0.664330 0.233871 0.638468
Si Si3 0.500000 0.000000 0.228854
Si Si4 0.000000 0.350540 0.000000
Si Si5 0.000000 0.000000 0.000000
Si Si6 0.500000 0.415895 0.000000
Si Si7 0.829130 0.298633 0.341077
Si Si8 0.138822 0.582886 0.408364
O O1 0.748772 0.494527 0.788893
O O2 0.429652 0.449742 0.912773
O O3 0.650451 0.183309 0.574343
O O4 0.408665 0.267206 0.616888
O O5 0.675270 0.208110 0.735651
O O6 0.907546 0.273236 0.619395
O O7 0.472350 0.946557 0.167288
O O8 0.756905 0.384931 0.965474
O O9 0.855920 0.039240 0.931802
O O10 0.774920 0.360516 0.366563
O O11 0.000000 0.596750 0.500000
#
# Coordination Sequence:
#
# PCOD8164226 Si02
#       8
#     4   8   4   4   2   4   8   8
#     4  11  27  46  72 100 140 182 237 289 342 432
#     4  10  24  46  65 104 135 172 242 290 337 430
#     4  12  25  47  70 104 138 184 240 283 347 422
#     4  12  24  42  74  98 142 178 224 294 366 406
#     4  12  24  50  62 110 156 174 252 284 344 442
#     4  11  26  46  68 106 138 180 234 289 356 418
#     4  10  25  44  70  97 137 183 231 288 348 415
#     4  12  27  44  71 103 143 191 228 292 349 418
#
# _framework density 21.804302
#
# number of rings (size 3 to 8) (size 9 to 14) (size 15 to 20)
#    0.000    0.952    1.905    2.857   10.667    1.524 
#    0.000    0.000    0.000    0.000    0.000    0.000 
#    0.000    0.000    0.000    0.000    0.000    0.000 
#
# Total GULP energy -260270.083422 kJ/mol
# GULP energy per Si atom -12393.813496 kJ/mol
# Density = 2.175467 g / cm^3
# Si number density = 21.804302 Si / 1000 Ang^3
#
#
#
# Elastic Constant Matrix: (Units=GPa)
#
#
# Indices 1 2 3 4 5 6 
#
# 1 149.3088 47.2245 41.5427 0.0000 0.0000 0.0000
# 2 47.2245 142.8001 51.8257 0.0000 0.0000 0.0000
# 3 41.5427 51.8257 86.3914 0.0001 0.0000 0.0000
# 4 0.0000 0.0000 0.0001 25.1369 0.0000 0.0000
# 5 0.0000 0.0000 0.0000 0.0000 33.3183 0.0000
# 6 0.0000 0.0000 0.0000 0.0000 0.0000 41.0486
#
#
#
# Elastic Compliance Matrix: (Units=1/GPa)
#
#
# Indices 1 2 3 4 5 6 
#
# 1 0.008008 -0.001599 -0.002892 0.000000 0.000000 0.000000
# 2 -0.001599 0.009271 -0.004793 0.000000 0.000000 0.000000
# 3 -0.002892 -0.004793 0.015841 0.000000 0.000000 0.000000
# 4 0.000000 0.000000 0.000000 0.039782 0.000000 0.000000
# 5 0.000000 0.000000 0.000000 0.000000 0.030014 0.000000
# 6 0.000000 0.000000 0.000000 0.000000 0.000000 0.024361
#
#
# Mechanical properties :
#
#
# Convention : Reuss Voigt Hill
#
# Bulk Modulus (GPa) = 68.71300 73.29846 71.00573
# Shear Modulus (GPa) = 33.17986 35.76126 34.47056
#
# Velocity S-wave (km/s) = 3.90514 4.05421 3.98037
# Velocity P-wave (km/s) = 7.20524 7.45687 7.33214
#
# Compressibility (1/GPa) = 0.01455329
#
# Stress axis : x y z
#
# Youngs Moduli (GPa) = 124.87940 107.86393 63.12793
#
# Poissons Ratio (x) = 0.17245 0.18254
# Poissons Ratio (y) = 0.19965 0.30256
# Poissons Ratio (z) = 0.36110 0.51697
#
# Static dielectric constant tensor:
#      x y z
#    x 3.991540 0.000000 0.000000 
#    y 0.000000 3.999450 0.000000 
#    z 0.000000 0.000000 4.142920 
# 
# 
# High freq. dielectric constant tensor:
#      x y z
#    x 1.865100 0.000000 0.000000 
#    y 0.000000 1.868390 0.000000 
#    z 0.000000 0.000000 1.871940 
# 
# From -- ./inp_files/23179.got.cif
#   From: 2010.03.12/outbox.cif.g09.slc.cpg/sg23_12_cif.got.tgz:23179.got - 2010.04.14 02:50:06.
