data_PCOD8164732
_publ_section_title
;
Structure prediction by ZEFSAII (Michael W. Deem and Ramdas Pophale) SiO2 
 PCOD8164732
Probable space group: I 21 21 21
;
_chemical_formula_sum "Si O2"
_cell_formula_units_Z 64
_cell_length_a 12.007921
_cell_length_b 18.035613
_cell_length_c 16.929509
_cell_angle_alpha 90.000000
_cell_angle_beta 90.000000
_cell_angle_gamma 90.000000
_cell_volume 3666.427422
_symmetry_space_group_name_H-M "I 21 21 21"
_symmetry_group_IT_number 24
_symmetry_cell_setting 'orthorhombic'
loop_
_space_group_symop_operation_xyz
x,y,z
-x,1/2-y,z
x,-y,1/2-z
1/2-x,y,-z
1/2+x,1/2+y,1/2+z
1/2-x,-y,1/2+z
1/2+x,1/2-y,-z
-x,1/2+y,1/2-z
loop_
_atom_site_type_symbol
_atom_site_label
_atom_site_fract_x
_atom_site_fract_y
_atom_site_fract_z
Si Si1 0.774435 0.691231 0.312700
Si Si2 0.266132 0.563571 0.912268
Si Si3 0.998284 0.992151 0.378253
Si Si4 0.540637 0.668914 0.373277
Si Si5 0.632652 0.372984 0.965933
Si Si6 0.638637 0.950996 0.320961
Si Si7 0.537467 0.611379 0.767028
Si Si8 0.799955 0.845727 0.237535
O O1 0.655911 0.652027 0.327337
O O2 0.847674 0.685821 0.393946
O O3 0.843318 0.647951 0.246580
O O4 0.750148 0.772642 0.278527
O O5 0.377418 0.514154 0.909457
O O6 0.166733 0.505876 0.893121
O O7 0.261745 0.633722 0.852071
O O8 0.250000 0.595971 0.000000
O O9 0.069803 0.948874 0.443364
O O10 0.993269 0.941726 0.301412
O O11 0.055668 0.068991 0.350056
O O12 0.500000 0.750000 0.348926
O O13 0.560188 0.668268 0.467579
O O14 0.451308 0.608445 0.348302
O O15 0.750000 0.399808 0.000000
O O16 0.754179 0.912806 0.291852
O O17 0.587188 0.000000 0.250000
O O18 0.432987 0.667761 0.768795
#
# Coordination Sequence:
#
# PCOD8164732 Si02
#       8
#     8   8   8   8   8   8   8   8
#     4  10  20  35  52  76 106 142 179 217 263 316
#     4  10  19  32  54  83 105 136 175 226 278 308
#     4   9  16  31  51  75 108 132 174 222 260 308
#     4  11  21  36  51  77 113 147 175 214 265 327
#     4   9  20  34  48  74 112 143 174 210 267 321
#     4  10  20  36  54  78 108 141 182 218 266 325
#     4   9  17  30  53  79  97 132 181 223 259 305
#     4  10  18  33  55  77 106 136 177 226 264 320
#
# _framework density 17.455684999999999
#
# number of rings (size 3 to 8) (size 9 to 14) (size 15 to 20)
#    0.000    2.250    2.500    1.125    0.000    2.000 
#    9.000    0.000    0.000    0.750   19.500    0.000 
#    0.000    0.000    0.000    0.000    0.000    0.000 
#
# Total GULP energy -396429.833171 kJ/mol
# GULP energy per Si atom -12388.432287 kJ/mol
# Density = 1.741595 g / cm^3
# Si number density = 17.455685 Si / 1000 Ang^3
#
#
#
# Elastic Constant Matrix: (Units=GPa)
#
#
# Indices 1 2 3 4 5 6 
#
# 1 85.9754 42.0133 35.8873 0.0000 0.0000 0.0000
# 2 42.0133 72.0441 40.1478 0.0000 0.0000 0.0000
# 3 35.8873 40.1478 85.8294 0.0000 0.0000 0.0000
# 4 0.0000 0.0000 0.0000 28.8964 0.0000 0.0000
# 5 0.0000 0.0000 0.0000 0.0000 19.3017 0.0000
# 6 0.0000 0.0000 0.0000 0.0000 0.0000 26.4865
#
#
#
# Elastic Compliance Matrix: (Units=1/GPa)
#
#
# Indices 1 2 3 4 5 6 
#
# 1 0.016943 -0.008024 -0.003331 0.000000 0.000000 0.000000
# 2 -0.008024 0.022575 -0.007204 0.000000 0.000000 0.000000
# 3 -0.003331 -0.007204 0.016414 0.000000 0.000000 0.000000
# 4 0.000000 0.000000 0.000000 0.034606 0.000000 0.000000
# 5 0.000000 0.000000 0.000000 0.000000 0.051809 0.000000
# 6 0.000000 0.000000 0.000000 0.000000 0.000000 0.037755
#
#
# Mechanical properties :
#
#
# Convention : Reuss Voigt Hill
#
# Bulk Modulus (GPa) = 53.15703 53.32730 53.24217
# Shear Modulus (GPa) = 22.37228 23.32361 22.84794
#
# Velocity S-wave (km/s) = 3.58391 3.65932 3.62181
# Velocity P-wave (km/s) = 6.90251 6.96208 6.93236
#
# Compressibility (1/GPa) = 0.01881219
#
# Stress axis : x y z
#
# Youngs Moduli (GPa) = 59.02249 44.29753 60.92495
#
# Poissons Ratio (x) = 0.35545 0.20292
# Poissons Ratio (y) = 0.47361 0.43893
# Poissons Ratio (z) = 0.19659 0.31914
#
# Static dielectric constant tensor:
#      x y z
#    x 3.180060 0.000000 0.000000 
#    y 0.000000 3.183330 0.000000 
#    z 0.000000 0.000000 3.278670 
# 
# 
# High freq. dielectric constant tensor:
#      x y z
#    x 1.674480 0.000000 0.000000 
#    y 0.000000 1.656870 0.000000 
#    z 0.000000 0.000000 1.663230 
# 
# From -- ./inp_files/21785.got.cif
#   From: 2010.03.12/outbox.cif.g09.slc.cpg/sg24_11_cif.got.tgz:21785.got - 2010.04.14 03:06:53.
