data_PCOD8164729
_publ_section_title
;
Structure prediction by ZEFSAII (Michael W. Deem and Ramdas Pophale) SiO2 
 PCOD8164729
Probable space group: I 21 21 21
;
_chemical_formula_sum "Si O2"
_cell_formula_units_Z 52
_cell_length_a 16.582555
_cell_length_b 9.541344
_cell_length_c 17.566550
_cell_angle_alpha 90.000000
_cell_angle_beta 90.000000
_cell_angle_gamma 90.000000
_cell_volume 2779.377111
_symmetry_space_group_name_H-M "I 21 21 21"
_symmetry_group_IT_number 24
_symmetry_cell_setting 'orthorhombic'
loop_
_space_group_symop_operation_xyz
x,y,z
-x,1/2-y,z
x,-y,1/2-z
1/2-x,y,-z
1/2+x,1/2+y,1/2+z
1/2-x,-y,1/2+z
1/2+x,1/2-y,-z
-x,1/2+y,1/2-z
loop_
_atom_site_type_symbol
_atom_site_label
_atom_site_fract_x
_atom_site_fract_y
_atom_site_fract_z
Si Si1 0.663942 0.418412 0.027796
Si Si2 0.500000 0.250000 0.682163
Si Si3 0.972723 0.490064 0.075943
Si Si4 0.616966 0.354608 0.794515
Si Si5 0.422290 0.653781 0.468039
Si Si6 0.574176 0.142142 0.202029
Si Si7 0.300248 0.867952 0.304236
O O1 0.651661 0.253543 0.006324
O O2 0.658026 0.425561 0.118923
O O3 0.750000 0.473239 0.000000
O O4 0.595818 0.517683 0.988938
O O5 0.506434 0.380406 0.627603
O O6 0.578432 0.238551 0.737614
O O7 0.937377 0.365473 0.129160
O O8 0.058066 0.457378 0.034482
O O9 0.615315 0.500000 0.750000
O O10 0.708275 0.316839 0.817464
O O11 0.500000 0.750000 0.461090
O O12 0.410110 0.587425 0.384424
O O13 0.500000 0.250000 0.210713
O O14 0.652055 0.232984 0.228445
O O15 0.562131 0.000000 0.250000
O O16 0.304696 0.000000 0.250000
#
# Coordination Sequence:
#
# PCOD8164729 Si02
#       7
#     8   4   8   8   8   8   8
#     4  10  18  32  59  83 106 150 194 237 283 340
#     4  10  22  36  54  86 120 152 186 240 298 356
#     4  10  19  36  55  82 114 148 194 235 284 353
#     4   9  19  34  56  81 111 148 189 233 285 347
#     4   8  18  33  53  76 107 141 189 232 271 338
#     4  10  20  37  57  82 115 147 192 238 292 349
#     4  10  20  37  59  86 115 151 199 243 289 353
#
# _framework density 18.709228
#
# number of rings (size 3 to 8) (size 9 to 14) (size 15 to 20)
#    0.000    2.462    1.538    1.385    3.231    0.000 
#    4.154    5.385    0.000    0.923    0.000    0.000 
#    0.000    0.000    0.000    0.000    0.000    0.000 
#
# Total GULP energy -322095.219920 kJ/mol
# GULP energy per Si atom -12388.277689 kJ/mol
# Density = 1.866664 g / cm^3
# Si number density = 18.709228 Si / 1000 Ang^3
#
#
#
# Elastic Constant Matrix: (Units=GPa)
#
#
# Indices 1 2 3 4 5 6 
#
# 1 84.5466 40.4310 37.5050 0.0000 0.0000 0.0000
# 2 40.4310 74.9534 49.3332 0.0000 0.0000 0.0000
# 3 37.5050 49.3332 104.2428 0.0000 0.0000 0.0000
# 4 0.0000 0.0000 0.0000 32.0278 0.0000 0.0000
# 5 0.0000 0.0000 0.0000 0.0000 30.0387 0.0000
# 6 0.0000 0.0000 0.0000 0.0000 0.0000 24.1588
#
#
#
# Elastic Compliance Matrix: (Units=1/GPa)
#
#
# Indices 1 2 3 4 5 6 
#
# 1 0.016371 -0.007195 -0.002485 0.000000 0.000000 0.000000
# 2 -0.007195 0.022540 -0.008078 0.000000 0.000000 0.000000
# 3 -0.002485 -0.008078 0.014310 0.000000 0.000000 0.000000
# 4 0.000000 0.000000 0.000000 0.031223 0.000000 0.000000
# 5 0.000000 0.000000 0.000000 0.000000 0.033290 0.000000
# 6 0.000000 0.000000 0.000000 0.000000 0.000000 0.041393
#
#
# Mechanical properties :
#
#
# Convention : Reuss Voigt Hill
#
# Bulk Modulus (GPa) = 56.48417 57.58679 57.03548
# Shear Modulus (GPa) = 24.93207 26.34332 25.63769
#
# Velocity S-wave (km/s) = 3.65445 3.75645 3.70580
# Velocity P-wave (km/s) = 6.93273 7.04708 6.99014
#
# Compressibility (1/GPa) = 0.01770408
#
# Stress axis : x y z
#
# Youngs Moduli (GPa) = 61.08402 44.36589 69.88087
#
# Poissons Ratio (x) = 0.31922 0.17364
# Poissons Ratio (y) = 0.43951 0.56452
# Poissons Ratio (z) = 0.15178 0.35840
#
# Static dielectric constant tensor:
#      x y z
#    x 4.074900 0.000000 0.000000 
#    y 0.000000 3.189280 0.000000 
#    z 0.000000 0.000000 3.831700 
# 
# 
# High freq. dielectric constant tensor:
#      x y z
#    x 1.725930 0.000000 0.000000 
#    y 0.000000 1.678960 0.000000 
#    z 0.000000 0.000000 1.746920 
# 
# From -- ./inp_files/31136.got.cif
#   From: 2010.03.12/outbox.cif.g09.slc.cpg/sg24_16_cif.got.tgz:31136.got - 2010.04.14 03:06:53.
