data_PCOD8164901
_publ_section_title
;
Structure prediction by ZEFSAII (Michael W. Deem and Ramdas Pophale) SiO2 
 PCOD8164901
Probable space group: I 21 21 21
;
_chemical_formula_sum "Si O2"
_cell_formula_units_Z 52
_cell_length_a 12.061740
_cell_length_b 25.928845
_cell_length_c 8.806548
_cell_angle_alpha 90.000000
_cell_angle_beta 90.000000
_cell_angle_gamma 90.000000
_cell_volume 2754.221352
_symmetry_space_group_name_H-M "I 21 21 21"
_symmetry_group_IT_number 24
_symmetry_cell_setting 'orthorhombic'
loop_
_space_group_symop_operation_xyz
x,y,z
-x,1/2-y,z
x,-y,1/2-z
1/2-x,y,-z
1/2+x,1/2+y,1/2+z
1/2-x,-y,1/2+z
1/2+x,1/2-y,-z
-x,1/2+y,1/2-z
loop_
_atom_site_type_symbol
_atom_site_label
_atom_site_fract_x
_atom_site_fract_y
_atom_site_fract_z
Si Si1 0.949641 0.840625 0.322878
Si Si2 0.125698 0.447985 0.182198
Si Si3 0.767864 0.218335 0.838442
Si Si4 0.511748 0.842565 0.334012
Si Si5 0.623803 0.051769 0.176328
Si Si6 0.329806 0.203460 0.383277
Si Si7 0.500000 0.750000 0.902729
O O1 0.950504 0.899734 0.263652
O O2 0.818786 0.828787 0.342369
O O3 0.014460 0.838292 0.484943
O O4 0.999047 0.801260 0.201430
O O5 0.072626 0.500000 0.250000
O O6 0.251798 0.440851 0.241705
O O7 0.125391 0.453284 0.002887
O O8 0.743257 0.262240 0.715281
O O9 0.891627 0.198623 0.804235
O O10 0.750000 0.246276 0.000000
O O11 0.549300 0.899110 0.279915
O O12 0.404946 0.830365 0.229839
O O13 0.571427 0.000000 0.250000
O O14 0.250000 0.170673 0.500000
O O15 0.396996 0.244192 0.485130
#
# Coordination Sequence:
#
# PCOD8164901 Si02
#       7
#     8   8   8   8   8   8   4
#     4  10  21  35  54  80 113 156 197 225 277 353
#     4   9  17  32  51  78 113 145 183 229 282 342
#     4  10  19  34  56  76 109 152 191 226 275 342
#     4  10  20  35  56  77 111 156 193 229 279 352
#     4   9  17  31  52  81 107 144 187 230 282 346
#     4  12  24  37  51  82 117 146 192 240 288 334
#     4  12  24  34  52  82 118 148 190 240 288 336
#
# _framework density 18.880109000000001
#
# number of rings (size 3 to 8) (size 9 to 14) (size 15 to 20)
#    0.000    1.846    4.615    0.000    4.308    1.231 
#    0.000    1.538    0.000    0.000    0.000    6.462 
#    0.000    0.000    0.000    0.000    0.000    0.000 
#
# Total GULP energy -322117.913043 kJ/mol
# GULP energy per Si atom -12389.150502 kJ/mol
# Density = 1.883714 g / cm^3
# Si number density = 18.880109 Si / 1000 Ang^3
#
#
#
# Elastic Constant Matrix: (Units=GPa)
#
#
# Indices 1 2 3 4 5 6 
#
# 1 58.0354 28.5166 41.8042 0.0004 -0.0002 0.0000
# 2 28.5166 130.2719 64.2921 -0.0008 -0.0002 0.0000
# 3 41.8042 64.2921 91.1430 -0.0079 -0.0010 0.0011
# 4 0.0004 -0.0008 -0.0079 33.3114 0.0001 0.0003
# 5 -0.0002 -0.0002 -0.0010 0.0001 35.6240 -0.0001
# 6 0.0000 0.0000 0.0011 0.0003 -0.0001 19.7694
#
#
#
# Elastic Compliance Matrix: (Units=1/GPa)
#
#
# Indices 1 2 3 4 5 6 
#
# 1 0.025740 0.000295 -0.012014 -0.000003 0.000000 0.000001
# 2 0.000295 0.011779 -0.008444 -0.000002 0.000000 0.000000
# 3 -0.012014 -0.008444 0.022439 0.000005 0.000000 -0.000001
# 4 -0.000003 -0.000002 0.000005 0.030020 0.000000 0.000000
# 5 0.000000 0.000000 0.000000 0.000000 0.028071 0.000000
# 6 0.000001 0.000000 -0.000001 0.000000 0.000000 0.050583
#
#
# Mechanical properties :
#
#
# Convention : Reuss Voigt Hill
#
# Bulk Modulus (GPa) = 50.94000 60.96402 55.95201
# Shear Modulus (GPa) = 23.20165 27.39677 25.29921
#
# Velocity S-wave (km/s) = 3.50936 3.81345 3.66456
# Velocity P-wave (km/s) = 6.59243 7.19375 6.89965
#
# Compressibility (1/GPa) = 0.01963094
#
# Stress axis : x y z
#
# Youngs Moduli (GPa) = 38.85011 84.89608 44.56612
#
# Poissons Ratio (x) = -0.02501 0.53541
# Poissons Ratio (y) = -0.01145 0.37632
# Poissons Ratio (z) = 0.46674 0.71687
#
# Static dielectric constant tensor:
#      x y z
#    x 3.226280 0.000000 0.000000 
#    y 0.000000 3.432730 0.000000 
#    z 0.000000 0.000000 3.627740 
# 
# 
# High freq. dielectric constant tensor:
#      x y z
#    x 1.697890 0.000000 0.000000 
#    y 0.000000 1.717000 0.000000 
#    z 0.000000 0.000000 1.746090 
# 
# From -- ./inp_files/11479.got.cif
#   From: 2010.03.12/outbox.cif.g09.slc.cpg/sg24_6_cif.got.tgz:11479.got - 2010.04.14 03:06:53.
