data_PCOD8164218
_publ_section_title
;
Structure prediction by ZEFSAII (Michael W. Deem and Ramdas Pophale) SiO2 
 PCOD8164218
Probable space group: I 2 2 2
;
_chemical_formula_sum "Si O2"
_cell_formula_units_Z 40
_cell_length_a 23.669373
_cell_length_b 8.462401
_cell_length_c 9.255664
_cell_angle_alpha 90.000000
_cell_angle_beta 90.000000
_cell_angle_gamma 90.000000
_cell_volume 1853.906961
_symmetry_space_group_name_H-M "I 2 2 2"
_symmetry_group_IT_number 23
_symmetry_cell_setting 'orthorhombic'
loop_
_space_group_symop_operation_xyz
x,y,z
-x,-y,z
x,-y,-z
-x,y,-z
1/2+x,1/2+y,1/2+z
1/2-x,1/2-y,1/2+z
1/2+x,1/2-y,1/2-z
1/2-x,1/2+y,1/2-z
loop_
_atom_site_type_symbol
_atom_site_label
_atom_site_fract_x
_atom_site_fract_y
_atom_site_fract_z
Si Si1 0.283113 0.321643 0.503403
Si Si2 0.320267 0.806794 0.796348
Si Si3 0.571733 0.664686 0.083916
Si Si4 0.869362 0.596113 0.142593
Si Si5 0.471097 0.830652 0.180228
O O1 0.305323 0.500000 0.500000
O O2 0.284651 0.248454 0.343189
O O3 0.219547 0.314008 0.563817
O O4 0.322375 0.226639 0.613185
O O5 0.369676 0.681010 0.830239
O O6 0.346709 0.979176 0.767528
O O7 0.518758 0.691312 0.194196
O O8 0.568764 0.500000 0.000000
O O9 0.564008 0.806657 0.968356
O O10 0.926615 0.684012 0.189648
O O11 0.884521 0.500000 0.000000
O O12 0.500000 0.000000 0.183701
#
# Coordination Sequence:
#
# PCOD8164218 Si02
#       5
#     8   8   8   8   8
#     4  11  26  44  69 103 134 182 227 285 348 406
#     4  11  25  44  69  98 138 183 228 279 349 415
#     4  11  25  41  67 105 136 176 230 293 340 406
#     4  10  24  45  67 100 137 178 233 280 342 422
#     4  11  22  42  71  98 130 179 232 277 346 411
#
# _framework density 21.576056000000001
#
# number of rings (size 3 to 8) (size 9 to 14) (size 15 to 20)
#    0.000    1.200    2.000    3.600    8.400    2.800 
#    0.000    0.000    0.000    1.200    0.000    0.000 
#    0.000    0.000    0.000    0.000    0.000    0.000 
#
# Total GULP energy -247990.317370 kJ/mol
# GULP energy per Si atom -12399.515868 kJ/mol
# Density = 2.152695 g / cm^3
# Si number density = 21.576056 Si / 1000 Ang^3
#
#
#
# Elastic Constant Matrix: (Units=GPa)
#
#
# Indices 1 2 3 4 5 6 
#
# 1 161.1932 56.1860 79.9548 0.0000 0.0000 0.0000
# 2 56.1860 112.8729 25.1958 0.0000 0.0000 0.0000
# 3 79.9548 25.1958 77.0682 0.0000 0.0000 0.0000
# 4 0.0000 0.0000 0.0000 28.2695 0.0000 0.0000
# 5 0.0000 0.0000 0.0000 0.0000 46.8247 0.0000
# 6 0.0000 0.0000 0.0000 0.0000 0.0000 25.2894
#
#
#
# Elastic Compliance Matrix: (Units=1/GPa)
#
#
# Indices 1 2 3 4 5 6 
#
# 1 0.014365 -0.004125 -0.013554 0.000000 0.000000 0.000000
# 2 -0.004125 0.010741 0.000768 0.000000 0.000000 0.000000
# 3 -0.013554 0.000768 0.026786 0.000000 0.000000 0.000000
# 4 0.000000 0.000000 0.000000 0.035374 0.000000 0.000000
# 5 0.000000 0.000000 0.000000 0.000000 0.021356 0.000000
# 6 0.000000 0.000000 0.000000 0.000000 0.000000 0.039542
#
#
# Mechanical properties :
#
#
# Convention : Reuss Voigt Hill
#
# Bulk Modulus (GPa) = 55.34103 74.86749 65.10426
# Shear Modulus (GPa) = 26.59428 32.72990 29.66209
#
# Velocity S-wave (km/s) = 3.51462 3.89904 3.71181
# Velocity P-wave (km/s) = 6.49423 7.41921 6.97208
#
# Compressibility (1/GPa) = 0.01806978
#
# Stress axis : x y z
#
# Youngs Moduli (GPa) = 69.61587 93.09752 37.33257
#
# Poissons Ratio (x) = 0.38401 0.50601
# Poissons Ratio (y) = 0.28715 -0.02866
# Poissons Ratio (z) = 0.94358 -0.07146
#
# Static dielectric constant tensor:
#      x y z
#    x 4.040110 0.000000 0.000000 
#    y 0.000000 3.946610 0.000000 
#    z 0.000000 0.000000 3.839420 
# 
# 
# High freq. dielectric constant tensor:
#      x y z
#    x 1.857810 0.000000 0.000000 
#    y 0.000000 1.846810 0.000000 
#    z 0.000000 0.000000 1.836150 
# 
# From -- ./inp_files/7106.got.cif
#   From: 2010.03.12/outbox.cif.g09.slc.cpg/sg23_4_cif.got.tgz:7106.got - 2010.04.14 02:50:06.
