data_PCOD8164120
_publ_section_title
;
Structure prediction by ZEFSAII (Michael W. Deem and Ramdas Pophale) SiO2 
 PCOD8164120
Probable space group: I 2 2 2
;
_chemical_formula_sum "Si O2"
_cell_formula_units_Z 32
_cell_length_a 5.087467
_cell_length_b 34.787875
_cell_length_c 7.636482
_cell_angle_alpha 90.000000
_cell_angle_beta 90.000000
_cell_angle_gamma 90.000000
_cell_volume 1351.521125
_symmetry_space_group_name_H-M "I 2 2 2"
_symmetry_group_IT_number 23
_symmetry_cell_setting 'orthorhombic'
loop_
_space_group_symop_operation_xyz
x,y,z
-x,-y,z
x,-y,-z
-x,y,-z
1/2+x,1/2+y,1/2+z
1/2-x,1/2-y,1/2+z
1/2+x,1/2-y,1/2-z
1/2-x,1/2+y,1/2-z
loop_
_atom_site_type_symbol
_atom_site_label
_atom_site_fract_x
_atom_site_fract_y
_atom_site_fract_z
Si Si1 0.086167 0.642375 0.199700
Si Si2 0.108951 0.271032 0.806449
Si Si3 0.098744 0.900970 0.191605
Si Si4 0.246771 0.017493 0.695683
O O1 0.349055 0.616926 0.210203
O O2 0.152168 0.685562 0.261388
O O3 0.843514 0.628437 0.321715
O O4 0.000000 0.640781 0.000000
O O5 0.890837 0.249849 0.688387
O O6 0.000000 0.270899 0.000000
O O7 0.221594 0.936563 0.301008
O O8 0.000000 0.913347 0.000000
O O9 0.500000 0.000000 0.794436
O O10 0.249877 0.000000 0.500000
O O11 0.000000 0.000000 0.799301
#
# Coordination Sequence:
#
# PCOD8164120 Si02
#       4
#     8   8   8   8
#     4  11  26  44  70 101 139 188 234 275 351 425
#     4  11  24  43  68 102 139 185 234 284 341 415
#     4  12  26  44  69 105 140 174 232 300 348 406
#     4  10  23  41  68  96 126 174 231 266 348 409
#
# _framework density 23.677022999999998
#
# number of rings (size 3 to 8) (size 9 to 14) (size 15 to 20)
#    0.000    1.000    0.000    5.250   10.500   10.500 
#    0.000    1.250    0.000    0.000    0.000    0.000 
#    0.000    0.000    0.000    0.000    0.000    0.000 
#
# Total GULP energy -198352.322001 kJ/mol
# GULP energy per Si atom -12397.020125 kJ/mol
# Density = 2.362313 g / cm^3
# Si number density = 23.677023 Si / 1000 Ang^3
#
#
#
# Elastic Constant Matrix: (Units=GPa)
#
#
# Indices 1 2 3 4 5 6 
#
# 1 210.4412 84.5655 14.1693 0.0001 0.0000 0.0000
# 2 84.5655 191.4954 44.6851 0.0004 0.0001 0.0000
# 3 14.1693 44.6851 55.4668 0.0002 0.0001 0.0001
# 4 0.0001 0.0004 0.0002 23.1304 -0.0001 -0.0002
# 5 0.0000 0.0001 0.0001 -0.0001 31.5275 0.0000
# 6 0.0000 0.0000 0.0001 -0.0002 0.0000 60.6462
#
#
#
# Elastic Compliance Matrix: (Units=1/GPa)
#
#
# Indices 1 2 3 4 5 6 
#
# 1 0.005800 -0.002729 0.000717 0.000000 0.000000 0.000000
# 2 -0.002729 0.007715 -0.005518 0.000000 0.000000 0.000000
# 3 0.000717 -0.005518 0.022291 0.000000 0.000000 0.000000
# 4 0.000000 0.000000 0.000000 0.043233 0.000000 0.000000
# 5 0.000000 0.000000 0.000000 0.000000 0.031718 0.000000
# 6 0.000000 0.000000 0.000000 0.000000 0.000000 0.016489
#
#
# Mechanical properties :
#
#
# Convention : Reuss Voigt Hill
#
# Bulk Modulus (GPa) = 48.20256 82.69368 65.44812
# Shear Modulus (GPa) = 33.50711 43.99304 38.75008
#
# Velocity S-wave (km/s) = 3.76596 4.31518 4.04989
# Velocity P-wave (km/s) = 6.26997 7.73494 7.04066
#
# Compressibility (1/GPa) = 0.02074579
#
# Stress axis : x y z
#
# Youngs Moduli (GPa) = 172.40925 129.62379 44.86080
#
# Poissons Ratio (x) = 0.35369 -0.03214
# Poissons Ratio (y) = 0.47043 0.24754
# Poissons Ratio (z) = -0.12353 0.71527
#
# Static dielectric constant tensor:
#      x y z
#    x 3.377300 0.000000 0.000000 
#    y 0.000000 4.544840 0.000000 
#    z 0.000000 0.000000 3.818830 
# 
# 
# High freq. dielectric constant tensor:
#      x y z
#    x 1.969190 0.000000 0.000000 
#    y 0.000000 1.945430 0.000000 
#    z 0.000000 0.000000 1.920040 
# 
# From -- ./inp_files/5751.got.cif
#   From: 2010.03.12/outbox.cif.g09.slc.cpg/sg23_3_cif.got.tgz:5751.got - 2010.04.14 02:50:06.
