data_PCOD8164533
_publ_section_title
;
Structure prediction by ZEFSAII (Michael W. Deem and Ramdas Pophale) SiO2 
 PCOD8164533
Probable space group: I 2 2 2
;
_chemical_formula_sum "Si O2"
_cell_formula_units_Z 26
_cell_length_a 4.716472
_cell_length_b 28.683190
_cell_length_c 7.680369
_cell_angle_alpha 90.000000
_cell_angle_beta 90.000000
_cell_angle_gamma 90.000000
_cell_volume 1039.026912
_symmetry_space_group_name_H-M "I 2 2 2"
_symmetry_group_IT_number 23
_symmetry_cell_setting 'orthorhombic'
loop_
_space_group_symop_operation_xyz
x,y,z
-x,-y,z
x,-y,-z
-x,y,-z
1/2+x,1/2+y,1/2+z
1/2-x,1/2-y,1/2+z
1/2+x,1/2-y,1/2-z
1/2-x,1/2+y,1/2-z
loop_
_atom_site_type_symbol
_atom_site_label
_atom_site_fract_x
_atom_site_fract_y
_atom_site_fract_z
Si Si1 0.598386 0.778468 0.694927
Si Si2 0.816864 0.082189 0.658863
Si Si3 0.500000 0.000000 0.500000
Si Si4 0.680874 0.123883 0.171689
O O1 0.500000 0.790713 0.500000
O O2 0.330553 0.762492 0.810394
O O3 0.745956 0.821685 0.797394
O O4 0.714118 0.028951 0.625544
O O5 0.525537 0.110174 0.669946
O O6 0.000000 0.102339 0.500000
O O7 0.028650 0.092615 0.824054
O O8 0.500000 0.112610 0.000000
#
# Coordination Sequence:
#
# PCOD8164533 Si02
#       4
#     8   8   2   8
#     4  12  25  45  71 107 150 198 245 302 361 431
#     4  12  24  46  77 104 139 191 248 306 371 452
#     4  12  26  48  84 108 142 192 264 320 378 460
#     4  12  26  45  72 110 151 196 247 306 372 446
#
# _framework density 25.023413999999999
#
# number of rings (size 3 to 8) (size 9 to 14) (size 15 to 20)
#    0.000    0.000    3.077    7.846    0.000    0.000 
#    0.000    0.769    6.769    0.000    0.000    0.000 
#    0.000    0.000    0.000    0.000    0.000    0.000 
#
# Total GULP energy -161088.413841 kJ/mol
# GULP energy per Si atom -12391.416449 kJ/mol
# Density = 2.496646 g / cm^3
# Si number density = 25.023414 Si / 1000 Ang^3
#
#
#
# Elastic Constant Matrix: (Units=GPa)
#
#
# Indices 1 2 3 4 5 6 
#
# 1 176.7612 68.3251 20.4776 -0.0001 0.0000 0.0000
# 2 68.3251 124.5645 44.3093 -0.0002 -0.0001 -0.0003
# 3 20.4776 44.3093 50.8831 -0.0004 0.0003 -0.0003
# 4 -0.0001 -0.0002 -0.0004 28.3323 -0.0001 0.0000
# 5 0.0000 -0.0001 0.0003 -0.0001 50.4149 -0.0001
# 6 0.0000 -0.0003 -0.0003 0.0000 -0.0001 44.2543
#
#
#
# Elastic Compliance Matrix: (Units=1/GPa)
#
#
# Indices 1 2 3 4 5 6 
#
# 1 0.007201 -0.004229 0.000785 0.000000 0.000000 0.000000
# 2 -0.004229 0.014114 -0.010589 0.000000 0.000000 0.000000
# 3 0.000785 -0.010589 0.028558 0.000000 0.000000 0.000000
# 4 0.000000 0.000000 0.000000 0.035295 0.000000 0.000000
# 5 0.000000 0.000000 0.000000 0.000000 0.019835 0.000000
# 6 0.000000 0.000000 0.000000 0.000000 0.000000 0.022597
#
#
# Mechanical properties :
#
#
# Convention : Reuss Voigt Hill
#
# Bulk Modulus (GPa) = 45.85717 68.71477 57.28597
# Shear Modulus (GPa) = 30.68685 39.20675 34.94680
#
# Velocity S-wave (km/s) = 3.50569 3.96258 3.74112
# Velocity P-wave (km/s) = 5.89508 6.96102 6.45011
#
# Compressibility (1/GPa) = 0.02180684
#
# Stress axis : x y z
#
# Youngs Moduli (GPa) = 138.86712 70.85055 35.01651
#
# Poissons Ratio (x) = 0.29963 -0.02747
# Poissons Ratio (y) = 0.58727 0.37078
# Poissons Ratio (z) = -0.10895 0.75022
#
# Static dielectric constant tensor:
#      x y z
#    x 4.990630 0.000000 0.000000 
#    y 0.000000 4.326150 0.000000 
#    z 0.000000 0.000000 4.532590 
# 
# 
# High freq. dielectric constant tensor:
#      x y z
#    x 2.030100 0.000000 0.000000 
#    y 0.000000 1.975720 0.000000 
#    z 0.000000 0.000000 1.993280 
# 
# From -- ./inp_files/5693.got.cif
#   From: 2010.03.12/outbox.cif.g09.slc.cpg/sg23_3_cif.got.tgz:5693.got - 2010.04.14 02:50:06.
