data_PCOD8164619
_publ_section_title
;
Structure prediction by ZEFSAII (Michael W. Deem and Ramdas Pophale) SiO2 
 PCOD8164619
Probable space group: I 21 21 21
;
_chemical_formula_sum "Si O2"
_cell_formula_units_Z 48
_cell_length_a 26.694140
_cell_length_b 9.731330
_cell_length_c 7.984608
_cell_angle_alpha 90.000000
_cell_angle_beta 90.000000
_cell_angle_gamma 90.000000
_cell_volume 2074.157511
_symmetry_space_group_name_H-M "I 21 21 21"
_symmetry_group_IT_number 24
_symmetry_cell_setting 'orthorhombic'
loop_
_space_group_symop_operation_xyz
x,y,z
-x,1/2-y,z
x,-y,1/2-z
1/2-x,y,-z
1/2+x,1/2+y,1/2+z
1/2-x,-y,1/2+z
1/2+x,1/2-y,-z
-x,1/2+y,1/2-z
loop_
_atom_site_type_symbol
_atom_site_label
_atom_site_fract_x
_atom_site_fract_y
_atom_site_fract_z
Si Si1 0.726170 0.657883 0.765542
Si Si2 0.672848 0.317619 0.398030
Si Si3 0.138775 0.696340 0.377416
Si Si4 0.100166 0.025136 0.053485
Si Si5 0.111728 0.590113 0.014101
Si Si6 0.995158 0.091106 0.410371
O O1 0.710254 0.500000 0.750000
O O2 0.787041 0.669342 0.745261
O O3 0.696174 0.747188 0.627642
O O4 0.707515 0.712885 0.942730
O O5 0.639546 0.453585 0.427952
O O6 0.637429 0.184356 0.371420
O O7 0.104356 0.810466 0.471744
O O8 0.115996 0.669628 0.192444
O O9 0.138817 0.557093 0.484098
O O10 0.112163 0.000000 0.250000
O O11 0.045486 0.967221 0.003299
O O12 0.052910 0.574164 0.968024
O O13 0.000000 0.250000 0.357914
O O14 0.982471 0.000000 0.250000
#
# Coordination Sequence:
#
# PCOD8164619 Si02
#       6
#     8   8   8   8   8   8
#     4  10  18  31  52  68  90 135 172 208 241 284
#     4  10  18  31  50  67  94 134 169 204 244 281
#     4  10  17  30  45  64  99 129 164 193 242 289
#     4  11  17  28  45  67 100 130 163 202 238 298
#     4  10  18  29  44  68  99 134 157 197 243 305
#     4  11  19  25  41  68  97 137 161 185 249 308
#
# _framework density 23.141926000000002
#
# number of rings (size 3 to 8) (size 9 to 14) (size 15 to 20)
#    0.000    1.667    8.333    1.000    0.000    0.000 
#    0.000    0.000   25.667    0.000    0.000    0.000 
#    0.000    5.333   17.333    0.000    0.000    0.167 
#
# Total GULP energy -297408.912242 kJ/mol
# GULP energy per Si atom -12392.038010 kJ/mol
# Density = 2.308925 g / cm^3
# Si number density = 23.141926 Si / 1000 Ang^3
#
#
#
# Elastic Constant Matrix: (Units=GPa)
#
#
# Indices 1 2 3 4 5 6 
#
# 1 201.3089 79.4314 17.0001 0.0000 0.0000 0.0000
# 2 79.4314 200.6127 8.8350 0.0000 0.0000 0.0000
# 3 17.0001 8.8350 10.8303 0.0000 0.0000 0.0000
# 4 0.0000 0.0000 0.0000 0.9292 0.0000 0.0000
# 5 0.0000 0.0000 0.0000 0.0000 16.1300 0.0000
# 6 0.0000 0.0000 0.0000 0.0000 0.0000 42.5598
#
#
#
# Elastic Compliance Matrix: (Units=1/GPa)
#
#
# Indices 1 2 3 4 5 6 
#
# 1 0.006562 -0.002224 -0.008485 0.000000 0.000000 0.000000
# 2 -0.002224 0.005925 -0.001341 0.000000 0.000000 0.000000
# 3 -0.008485 -0.001341 0.106746 -0.000003 0.000000 0.000000
# 4 0.000000 0.000000 -0.000003 1.076185 0.000000 0.000000
# 5 0.000000 0.000000 0.000000 0.000000 0.061996 0.000000
# 6 0.000000 0.000000 0.000000 0.000000 0.000000 0.023496
#
#
# Mechanical properties :
#
#
# Convention : Reuss Voigt Hill
#
# Bulk Modulus (GPa) = 10.51186 69.25390 39.88288
# Shear Modulus (GPa) = 3.74049 32.42283 18.08166
#
# Velocity S-wave (km/s) = 1.27273 3.74711 2.79827
# Velocity P-wave (km/s) = 2.59075 6.97939 5.26421
#
# Compressibility (1/GPa) = 0.09513063
#
# Stress axis : x y z
#
# Youngs Moduli (GPa) = 152.39864 168.78941 9.36799
#
# Poissons Ratio (x) = 0.37545 0.07949
# Poissons Ratio (y) = 0.33899 0.01257
# Poissons Ratio (z) = 1.29313 0.22643
#
# Static dielectric constant tensor:
#      x y z
#    x 4.852950 0.000000 0.000000 
#    y 0.000000 4.354940 0.000000 
#    z 0.000000 0.000000 3.287770 
# 
# 
# High freq. dielectric constant tensor:
#      x y z
#    x 1.934890 0.000000 0.000000 
#    y 0.000000 1.923050 0.000000 
#    z 0.000000 0.000000 1.834140 
# 
# From -- ./inp_files/13238.got.cif
#   From: 2010.03.12/outbox.cif.g09.slc.cpg/sg24_7_cif.got.tgz:13238.got - 2010.04.14 03:06:53.
