data_PCOD8164912
_publ_section_title
;
Structure prediction by ZEFSAII (Michael W. Deem and Ramdas Pophale) SiO2 
 PCOD8164912
Probable space group: I 21 21 21
;
_chemical_formula_sum "Si O2"
_cell_formula_units_Z 56
_cell_length_a 17.261052
_cell_length_b 9.145829
_cell_length_c 18.557324
_cell_angle_alpha 90.000000
_cell_angle_beta 90.000000
_cell_angle_gamma 90.000000
_cell_volume 2929.582201
_symmetry_space_group_name_H-M "I 21 21 21"
_symmetry_group_IT_number 24
_symmetry_cell_setting 'orthorhombic'
loop_
_space_group_symop_operation_xyz
x,y,z
-x,1/2-y,z
x,-y,1/2-z
1/2-x,y,-z
1/2+x,1/2+y,1/2+z
1/2-x,-y,1/2+z
1/2+x,1/2-y,-z
-x,1/2+y,1/2-z
loop_
_atom_site_type_symbol
_atom_site_label
_atom_site_fract_x
_atom_site_fract_y
_atom_site_fract_z
Si Si1 0.819726 0.332503 0.444308
Si Si2 0.939572 0.872358 0.468426
Si Si3 0.805909 0.651922 0.435786
Si Si4 0.446084 0.386264 0.807788
Si Si5 0.232299 0.334402 0.188387
Si Si6 0.719354 0.148341 0.344078
Si Si7 0.077735 0.667419 0.949513
O O1 0.750000 0.336795 0.500000
O O2 0.848242 0.496006 0.421277
O O3 0.789926 0.243825 0.375304
O O4 0.892015 0.249898 0.479531
O O5 0.859268 0.786897 0.457945
O O6 0.959033 0.941667 0.390145
O O7 0.000000 0.750000 0.494777
O O8 0.935889 0.997674 0.529173
O O9 0.750000 0.617095 0.500000
O O10 0.757259 0.696177 0.364523
O O11 0.500000 0.250000 0.795342
O O12 0.477437 0.500000 0.750000
O O13 0.357359 0.348199 0.789278
O O14 0.285462 0.311978 0.259171
O O15 0.259469 0.478686 0.145638
O O16 0.637643 0.179090 0.383060
O O17 0.000000 0.750000 0.923898
#
# Coordination Sequence:
#
# PCOD8164912 Si02
#       7
#     8   8   8   8   8   8   8
#     4   9  19  34  54  83 115 146 188 242 295 354
#     4  10  21  36  54  81 114 147 193 238 297 358
#     4  10  19  34  57  84 113 146 191 240 285 340
#     4  10  20  36  51  81 117 150 184 233 286 357
#     4  10  20  37  59  83 114 160 207 233 285 371
#     4  10  20  38  60  80 116 158 203 244 296 364
#     4  11  22  36  60  88 113 154 201 260 306 348
#
# _framework density 19.115355000000001
#
# number of rings (size 3 to 8) (size 9 to 14) (size 15 to 20)
#    0.000    2.000    1.429    3.429    0.000    2.286 
#    7.714    0.000    0.000   18.000    0.000    0.000 
#    0.000    0.000    0.000    0.000    0.000    0.000 
#
# Total GULP energy -347075.742238 kJ/mol
# GULP energy per Si atom -12395.562223 kJ/mol
# Density = 1.907185 g / cm^3
# Si number density = 19.115355 Si / 1000 Ang^3
#
#
#
# Elastic Constant Matrix: (Units=GPa)
#
#
# Indices 1 2 3 4 5 6 
#
# 1 91.4078 35.6375 33.0333 0.0000 0.0000 0.0000
# 2 35.6375 108.5390 54.7935 0.0000 0.0000 0.0000
# 3 33.0333 54.7935 89.6004 0.0000 0.0000 0.0000
# 4 0.0000 0.0000 0.0000 -26.5702 0.0000 0.0000
# 5 0.0000 0.0000 0.0000 0.0000 11.2471 0.0000
# 6 0.0000 0.0000 0.0000 0.0000 0.0000 29.9209
#
#
#
# Elastic Compliance Matrix: (Units=1/GPa)
#
#
# Indices 1 2 3 4 5 6 
#
# 1 0.013149 -0.002705 -0.003193 0.000000 0.000000 0.000000
# 2 -0.002705 0.013884 -0.007493 0.000000 0.000000 0.000000
# 3 -0.003193 -0.007493 0.016920 0.000000 0.000000 0.000000
# 4 0.000000 0.000000 0.000000 -0.037636 0.000000 0.000000
# 5 0.000000 0.000000 0.000000 0.000000 0.088912 0.000000
# 6 0.000000 0.000000 0.000000 0.000000 0.000000 0.033421
#
#
# Mechanical properties :
#
#
# Convention : Reuss Voigt Hill
#
# Bulk Modulus (GPa) = 58.24200 59.60843 58.92521
# Shear Modulus (GPa) = 31.02559 13.99175 22.50867
#
# Velocity S-wave (km/s) = 4.03311 2.70842 3.43522
# Velocity P-wave (km/s) = 7.22653 6.40562 6.82842
#
# Compressibility (1/GPa) = 0.01716974
#
# Stress axis : x y z
#
# Youngs Moduli (GPa) = 76.05341 72.02347 59.10031
#
# Poissons Ratio (x) = 0.19484 0.18872
# Poissons Ratio (y) = 0.20574 0.44286
# Poissons Ratio (z) = 0.24286 0.53970
#
# Static dielectric constant tensor:
#      x y z
#    x 3.408860 0.000000 0.000000 
#    y 0.000000 3.863630 0.000000 
#    z 0.000000 0.000000 3.595430 
# 
# 
# High freq. dielectric constant tensor:
#      x y z
#    x 1.727470 0.000000 0.000000 
#    y 0.000000 1.751950 0.000000 
#    z 0.000000 0.000000 1.734290 
# 
# From -- ./inp_files/33969.got.cif
#   From: 2010.03.12/outbox.cif.g09.slc.cpg/sg24_17_cif.got.tgz:33969.got - 2010.04.14 03:06:53.
