data_PCOD8164984
_publ_section_title
;
Structure prediction by ZEFSAII (Michael W. Deem and Ramdas Pophale) SiO2 
 PCOD8164984
Probable space group: I 21 21 21
;
_chemical_formula_sum "Si O2"
_cell_formula_units_Z 40
_cell_length_a 25.926344
_cell_length_b 5.109536
_cell_length_c 13.745054
_cell_angle_alpha 90.000000
_cell_angle_beta 90.000000
_cell_angle_gamma 90.000000
_cell_volume 1820.829131
_symmetry_space_group_name_H-M "I 21 21 21"
_symmetry_group_IT_number 24
_symmetry_cell_setting 'orthorhombic'
loop_
_space_group_symop_operation_xyz
x,y,z
-x,1/2-y,z
x,-y,1/2-z
1/2-x,y,-z
1/2+x,1/2+y,1/2+z
1/2-x,-y,1/2+z
1/2+x,1/2-y,-z
-x,1/2+y,1/2-z
loop_
_atom_site_type_symbol
_atom_site_label
_atom_site_fract_x
_atom_site_fract_y
_atom_site_fract_z
Si Si1 0.192310 0.513337 0.536974
Si Si2 0.441543 0.044451 0.854925
Si Si3 0.646597 0.490489 0.365198
Si Si4 0.529294 0.500242 0.436509
Si Si5 0.623425 0.956103 0.853860
O O1 0.250000 0.483132 0.500000
O O2 0.174923 0.273832 0.603962
O O3 0.160661 0.532487 0.439098
O O4 0.182670 0.774408 0.598703
O O5 0.393209 0.846218 0.862828
O O6 0.469792 0.000000 0.750000
O O7 0.424850 0.347036 0.859728
O O8 0.478755 0.994731 0.946341
O O9 0.641123 0.500000 0.250000
O O10 0.589491 0.505951 0.410855
O O11 0.500000 0.750000 0.391512
O O12 0.500000 0.250000 0.391676
O O13 0.651812 0.000000 0.750000
#
# Coordination Sequence:
#
# PCOD8164984 Si02
#       5
#     8   8   8   8   8
#     4  12  24  45  73 103 133 178 225 278 351 417
#     4  10  20  37  61  91 127 171 214 268 341 399
#     4  12  27  48  70 100 143 183 231 290 339 396
#     4  12  24  40  68  97 134 183 235 284 341 403
#     4  10  19  36  63  91 127 167 210 266 332 405
#
# _framework density 21.968015000000001
#
# number of rings (size 3 to 8) (size 9 to 14) (size 15 to 20)
#    0.000    0.800    4.000    3.600    0.000    3.200 
#    0.000    2.000    0.000    0.000    0.000    0.000 
#    0.000    0.000    0.000    0.000    0.000    0.000 
#
# Total GULP energy -247960.003868 kJ/mol
# GULP energy per Si atom -12398.000193 kJ/mol
# Density = 2.191801 g / cm^3
# Si number density = 21.968015 Si / 1000 Ang^3
#
#
#
# Elastic Constant Matrix: (Units=GPa)
#
#
# Indices 1 2 3 4 5 6 
#
# 1 89.5023 32.3825 19.6686 0.0000 0.0000 0.0000
# 2 32.3825 131.9422 32.7347 0.0000 0.0000 0.0000
# 3 19.6686 32.7347 117.2813 0.0000 0.0000 0.0000
# 4 0.0000 0.0000 0.0000 28.6785 0.0000 0.0000
# 5 0.0000 0.0000 0.0000 0.0000 0.1435 0.0000
# 6 0.0000 0.0000 0.0000 0.0000 0.0000 29.5988
#
#
#
# Elastic Compliance Matrix: (Units=1/GPa)
#
#
# Indices 1 2 3 4 5 6 
#
# 1 0.012451 -0.002727 -0.001327 0.000000 0.000000 0.000000
# 2 -0.002727 0.008740 -0.001982 0.000000 0.000000 0.000000
# 3 -0.001327 -0.001982 0.009302 0.000000 0.000000 0.000000
# 4 0.000000 0.000000 0.000000 0.034869 0.000000 0.000000
# 5 0.000000 0.000000 0.000000 0.000000 6.967519 0.000000
# 6 0.000000 0.000000 0.000000 0.000000 0.000000 0.033785
#
#
# Mechanical properties :
#
#
# Convention : Reuss Voigt Hill
#
# Bulk Modulus (GPa) = 54.28389 56.47748 55.38069
# Shear Modulus (GPa) = 0.70573 28.61351 14.65962
#
# Velocity S-wave (km/s) = 0.56741 3.61294 2.58605
# Velocity P-wave (km/s) = 5.01930 6.57033 5.84648
#
# Compressibility (1/GPa) = 0.01842167
#
# Stress axis : x y z
#
# Youngs Moduli (GPa) = 80.31465 114.41585 107.50011
#
# Poissons Ratio (x) = 0.31197 0.14266
# Poissons Ratio (y) = 0.21899 0.21309
# Poissons Ratio (z) = 0.10658 0.22679
#
# Static dielectric constant tensor:
#      x y z
#    x 3.406250 0.000000 0.000000 
#    y 0.000000 4.374860 0.000000 
#    z 0.000000 0.000000 4.211620 
# 
# 
# High freq. dielectric constant tensor:
#      x y z
#    x 1.838440 0.000000 0.000000 
#    y 0.000000 1.892030 0.000000 
#    z 0.000000 0.000000 1.875990 
# 
# From -- ./inp_files/27716.got.cif
#   From: 2010.03.12/outbox.cif.g09.slc.cpg/sg24_14_cif.got.tgz:27716.got - 2010.04.14 03:06:53.
