data_PCOD8164427
_publ_section_title
;
Structure prediction by ZEFSAII (Michael W. Deem and Ramdas Pophale) SiO2 
 PCOD8164427
Probable space group: I 2 2 2
;
_chemical_formula_sum "Si O2"
_cell_formula_units_Z 40
_cell_length_a 14.597556
_cell_length_b 14.660559
_cell_length_c 8.238914
_cell_angle_alpha 90.000000
_cell_angle_beta 90.000000
_cell_angle_gamma 90.000000
_cell_volume 1763.196234
_symmetry_space_group_name_H-M "I 2 2 2"
_symmetry_group_IT_number 23
_symmetry_cell_setting 'orthorhombic'
loop_
_space_group_symop_operation_xyz
x,y,z
-x,-y,z
x,-y,-z
-x,y,-z
1/2+x,1/2+y,1/2+z
1/2-x,1/2-y,1/2+z
1/2+x,1/2-y,1/2-z
1/2-x,1/2+y,1/2-z
loop_
_atom_site_type_symbol
_atom_site_label
_atom_site_fract_x
_atom_site_fract_y
_atom_site_fract_z
Si Si1 0.188925 0.368661 0.378107
Si Si2 0.646518 0.769299 0.399220
Si Si3 0.549894 0.254417 0.258315
Si Si4 0.717996 0.059878 0.769595
Si Si5 0.415678 0.549312 0.172038
O O1 0.275807 0.302268 0.339091
O O2 0.090846 0.321781 0.358109
O O3 0.182174 0.456051 0.257457
O O4 0.188765 0.394869 0.564323
O O5 0.556482 0.762484 0.289486
O O6 0.615729 0.747518 0.582214
O O7 0.686274 0.873330 0.377857
O O8 0.557981 0.345750 0.153882
O O9 0.826354 0.043905 0.780147
O O10 0.500000 0.500000 0.265514
O O11 0.400311 0.500000 0.000000
#
# Coordination Sequence:
#
# PCOD8164427 Si02
#       5
#     8   8   8   8   8
#     4  11  23  44  69 101 145 186 243 293 363 423
#     4  11  23  46  71 100 147 185 243 294 363 433
#     4  11  25  44  72 103 137 195 235 301 360 429
#     4  11  25  42  70 103 139 195 234 303 356 427
#     4  11  24  42  68 107 139 181 241 292 362 427
#
# _framework density 22.686070999999998
#
# number of rings (size 3 to 8) (size 9 to 14) (size 15 to 20)
#    0.000    1.000    4.000    1.200    2.800    6.400 
#    0.000    4.000    0.000    0.000    0.000    0.000 
#    0.000    0.000    0.000    0.000    0.000    0.000 
#
# Total GULP energy -247850.470123 kJ/mol
# GULP energy per Si atom -12392.523506 kJ/mol
# Density = 2.263444 g / cm^3
# Si number density = 22.686071 Si / 1000 Ang^3
#
#
#
# Elastic Constant Matrix: (Units=GPa)
#
#
# Indices 1 2 3 4 5 6 
#
# 1 103.5837 54.6558 30.6306 0.0000 0.0000 0.0000
# 2 54.6558 181.2607 37.2178 0.0000 0.0000 0.0000
# 3 30.6306 37.2178 70.7661 0.0000 0.0000 0.0000
# 4 0.0000 0.0000 0.0000 27.2348 0.0000 0.0000
# 5 0.0000 0.0000 0.0000 0.0000 34.5671 0.0000
# 6 0.0000 0.0000 0.0000 0.0000 0.0000 46.0900
#
#
#
# Elastic Compliance Matrix: (Units=1/GPa)
#
#
# Indices 1 2 3 4 5 6 
#
# 1 0.012325 -0.002938 -0.003789 0.000000 0.000000 0.000000
# 2 -0.002938 0.006885 -0.002349 0.000000 0.000000 0.000000
# 3 -0.003789 -0.002349 0.017007 0.000000 0.000000 0.000000
# 4 0.000000 0.000000 0.000000 0.036718 0.000000 0.000000
# 5 0.000000 0.000000 0.000000 0.000000 0.028929 0.000000
# 6 0.000000 0.000000 0.000000 0.000000 0.000000 0.021697
#
#
# Mechanical properties :
#
#
# Convention : Reuss Voigt Hill
#
# Bulk Modulus (GPa) = 55.36185 66.73543 61.04864
# Shear Modulus (GPa) = 33.84415 37.11880 35.48147
#
# Velocity S-wave (km/s) = 3.86663 4.04938 3.95906
# Velocity P-wave (km/s) = 6.66265 7.16548 6.91863
#
# Compressibility (1/GPa) = 0.01806298
#
# Stress axis : x y z
#
# Youngs Moduli (GPa) = 81.13596 145.23725 58.79973
#
# Poissons Ratio (x) = 0.42675 0.22282
# Poissons Ratio (y) = 0.23840 0.13814
# Poissons Ratio (z) = 0.30746 0.34121
#
# Static dielectric constant tensor:
#      x y z
#    x 4.405160 0.000000 0.000000 
#    y 0.000000 4.518990 0.000000 
#    z 0.000000 0.000000 3.835820 
# 
# 
# High freq. dielectric constant tensor:
#      x y z
#    x 1.906840 0.000000 0.000000 
#    y 0.000000 1.912530 0.000000 
#    z 0.000000 0.000000 1.878720 
# 
# From -- ./inp_files/9564.got.cif
#   From: 2010.03.12/outbox.cif.g09.slc.cpg/sg23_5_cif.got.tgz:9564.got - 2010.04.14 02:50:06.
