data_PCOD8164339
_publ_section_title
;
Structure prediction by ZEFSAII (Michael W. Deem and Ramdas Pophale) SiO2 
 PCOD8164339
Probable space group: I 2 2 2
;
_chemical_formula_sum "Si O2"
_cell_formula_units_Z 64
_cell_length_a 9.462231
_cell_length_b 19.530546
_cell_length_c 17.167665
_cell_angle_alpha 90.000000
_cell_angle_beta 90.000000
_cell_angle_gamma 90.000000
_cell_volume 3172.628060
_symmetry_space_group_name_H-M "I 2 2 2"
_symmetry_group_IT_number 23
_symmetry_cell_setting 'orthorhombic'
loop_
_space_group_symop_operation_xyz
x,y,z
-x,-y,z
x,-y,-z
-x,y,-z
1/2+x,1/2+y,1/2+z
1/2-x,1/2-y,1/2+z
1/2+x,1/2-y,1/2-z
1/2-x,1/2+y,1/2-z
loop_
_atom_site_type_symbol
_atom_site_label
_atom_site_fract_x
_atom_site_fract_y
_atom_site_fract_z
Si Si1 0.536862 0.074233 0.812134
Si Si2 0.363309 0.811256 0.699091
Si Si3 0.148290 0.733244 0.038725
Si Si4 0.770823 0.624218 0.403467
Si Si5 0.989244 0.922301 0.818164
Si Si6 0.255041 0.604948 0.423173
Si Si7 0.113390 0.252556 0.564768
Si Si8 0.039692 0.798913 0.715569
O O1 0.597089 0.118296 0.740848
O O2 0.423305 0.119176 0.861570
O O3 0.661124 0.053431 0.872209
O O4 0.500000 0.000000 0.777177
O O5 0.378565 0.823220 0.605688
O O6 0.471448 0.751628 0.721925
O O7 0.205959 0.784145 0.715663
O O8 0.222723 0.798201 0.080652
O O9 0.262290 0.706096 0.974949
O O10 0.000000 0.754950 0.000000
O O11 0.670964 0.587451 0.342723
O O12 0.762518 0.585231 0.486508
O O13 0.021204 0.877091 0.742313
O O14 0.084633 0.901588 0.893162
O O15 0.000000 0.000000 0.791055
O O16 0.193964 0.680695 0.402076
O O17 0.034951 0.210263 0.631815
O O18 0.000000 0.276683 0.500000
#
# Coordination Sequence:
#
# PCOD8164339 Si02
#       8
#     8   8   8   8   8   8   8   8
#     4  12  25  41  62  90 128 175 216 253 311 376
#     4  12  25  42  65  95 127 168 212 271 316 377
#     4  11  23  39  65  99 130 160 209 269 325 376
#     4  11  23  38  60  90 131 174 209 245 307 381
#     4  12  25  40  60  91 129 173 214 255 312 372
#     4  11  22  40  58  88 134 169 208 253 300 378
#     4  11  21  39  66  97 127 165 209 267 322 376
#     4  12  24  42  66  94 128 167 215 268 321 374
#
# _framework density 20.172550999999999
#
# number of rings (size 3 to 8) (size 9 to 14) (size 15 to 20)
#    0.000    0.500    5.000    5.250    1.750    3.000 
#    0.000    0.000    0.000    0.750    0.000    0.000 
#    0.000    0.000    0.000    0.000    0.000    0.000 
#
# Total GULP energy -396730.931549 kJ/mol
# GULP energy per Si atom -12397.841611 kJ/mol
# Density = 2.012664 g / cm^3
# Si number density = 20.172551 Si / 1000 Ang^3
#
#
#
# Elastic Constant Matrix: (Units=GPa)
#
#
# Indices 1 2 3 4 5 6 
#
# 1 105.2306 22.6923 41.4843 0.0000 0.0000 0.0000
# 2 22.6923 56.6674 32.8453 0.0000 0.0000 0.0000
# 3 41.4843 32.8453 87.3706 0.0000 0.0000 0.0000
# 4 0.0000 0.0000 0.0000 16.9710 0.0000 0.0000
# 5 0.0000 0.0000 0.0000 0.0000 39.0506 0.0000
# 6 0.0000 0.0000 0.0000 0.0000 0.0000 22.3514
#
#
#
# Elastic Compliance Matrix: (Units=1/GPa)
#
#
# Indices 1 2 3 4 5 6 
#
# 1 0.011849 -0.001897 -0.004913 0.000000 0.000000 0.000000
# 2 -0.001897 0.022867 -0.007696 0.000000 0.000000 0.000000
# 3 -0.004913 -0.007696 0.016671 0.000000 0.000000 0.000000
# 4 0.000000 0.000000 0.000000 0.058924 0.000000 0.000000
# 5 0.000000 0.000000 0.000000 0.000000 0.025608 0.000000
# 6 0.000000 0.000000 0.000000 0.000000 0.000000 0.044740
#
#
# Mechanical properties :
#
#
# Convention : Reuss Voigt Hill
#
# Bulk Modulus (GPa) = 44.69111 49.25694 46.97402
# Shear Modulus (GPa) = 23.02784 25.82438 24.42611
#
# Velocity S-wave (km/s) = 3.38234 3.58183 3.48351
# Velocity P-wave (km/s) = 6.12014 6.44801 6.28621
#
# Compressibility (1/GPa) = 0.02237581
#
# Stress axis : x y z
#
# Youngs Moduli (GPa) = 84.39707 43.73095 59.98431
#
# Poissons Ratio (x) = 0.08297 0.29468
# Poissons Ratio (y) = 0.16013 0.46161
# Poissons Ratio (z) = 0.41461 0.33653
#
# Static dielectric constant tensor:
#      x y z
#    x 4.089450 0.000000 0.000000 
#    y 0.000000 3.333080 0.000000 
#    z 0.000000 0.000000 3.881390 
# 
# 
# High freq. dielectric constant tensor:
#      x y z
#    x 1.819180 0.000000 0.000000 
#    y 0.000000 1.745630 0.000000 
#    z 0.000000 0.000000 1.783120 
# 
# From -- ./inp_files/24005.got.cif
#   From: 2010.03.12/outbox.cif.g09.slc.cpg/sg23_13_cif.got.tgz:24005.got - 2010.04.14 02:50:06.
