data_PCOD8164910
_publ_section_title
;
Structure prediction by ZEFSAII (Michael W. Deem and Ramdas Pophale) SiO2 
 PCOD8164910
Probable space group: I 21 21 21
;
_chemical_formula_sum "Si O2"
_cell_formula_units_Z 48
_cell_length_a 8.836385
_cell_length_b 15.031020
_cell_length_c 18.622150
_cell_angle_alpha 90.000000
_cell_angle_beta 90.000000
_cell_angle_gamma 90.000000
_cell_volume 2473.391722
_symmetry_space_group_name_H-M "I 21 21 21"
_symmetry_group_IT_number 24
_symmetry_cell_setting 'orthorhombic'
loop_
_space_group_symop_operation_xyz
x,y,z
-x,1/2-y,z
x,-y,1/2-z
1/2-x,y,-z
1/2+x,1/2+y,1/2+z
1/2-x,-y,1/2+z
1/2+x,1/2-y,-z
-x,1/2+y,1/2-z
loop_
_atom_site_type_symbol
_atom_site_label
_atom_site_fract_x
_atom_site_fract_y
_atom_site_fract_z
Si Si1 0.441797 0.153410 0.305266
Si Si2 0.430685 0.340770 0.848455
Si Si3 0.929206 0.504411 0.919434
Si Si4 0.114968 0.095542 0.282189
Si Si5 0.574889 0.844040 0.345618
Si Si6 0.421921 0.003474 0.581083
O O1 0.500000 0.250000 0.329810
O O2 0.262325 0.157802 0.289022
O O3 0.524908 0.122269 0.232871
O O4 0.480903 0.084422 0.368123
O O5 0.500000 0.250000 0.878948
O O6 0.491824 0.358116 0.768014
O O7 0.252683 0.332064 0.846260
O O8 0.478257 0.417162 0.903461
O O9 0.754389 0.478869 0.908398
O O10 0.026718 0.416733 0.904114
O O11 0.958634 0.536736 0.001017
O O12 0.165346 0.000000 0.250000
O O13 0.039642 0.080916 0.361037
O O14 0.500000 0.750000 0.365214
#
# Coordination Sequence:
#
# PCOD8164910 Si02
#       6
#     8   8   8   8   8   8
#     4  10  19  34  57  83 109 142 185 227 269 321
#     4  11  21  35  56  81 110 142 181 229 274 325
#     4  10  20  37  58  80 112 149 181 223 272 326
#     4   9  18  36  58  80 108 143 181 223 273 328
#     4  11  22  35  56  84 111 142 183 228 275 324
#     4   9  20  37  57  78 108 148 184 216 273 332
#
# _framework density 19.406548999999998
#
# number of rings (size 3 to 8) (size 9 to 14) (size 15 to 20)
#    0.000    2.000    0.000    6.500    0.000    5.333 
#    0.000    0.833    0.000   10.000    0.000    0.000 
#    0.000    0.000    0.000    0.000    0.000    0.000 
#
# Total GULP energy -297640.397180 kJ/mol
# GULP energy per Si atom -12401.683216 kJ/mol
# Density = 1.936238 g / cm^3
# Si number density = 19.406549 Si / 1000 Ang^3
#
#
#
# Elastic Constant Matrix: (Units=GPa)
#
#
# Indices 1 2 3 4 5 6 
#
# 1 100.9495 39.3165 15.8768 0.0000 0.0000 0.0000
# 2 39.3165 81.6678 20.8979 0.0000 0.0000 0.0000
# 3 15.8768 20.8979 99.3422 0.0000 0.0000 0.0000
# 4 0.0000 0.0000 0.0000 19.7578 0.0000 0.0000
# 5 0.0000 0.0000 0.0000 0.0000 22.7212 0.0000
# 6 0.0000 0.0000 0.0000 0.0000 0.0000 33.6401
#
#
#
# Elastic Compliance Matrix: (Units=1/GPa)
#
#
# Indices 1 2 3 4 5 6 
#
# 1 0.012246 -0.005701 -0.000758 0.000000 0.000000 0.000000
# 2 -0.005701 0.015596 -0.002370 0.000000 0.000000 0.000000
# 3 -0.000758 -0.002370 0.010686 0.000000 0.000000 0.000000
# 4 0.000000 0.000000 0.000000 0.050613 0.000000 0.000000
# 5 0.000000 0.000000 0.000000 0.000000 0.044012 0.000000
# 6 0.000000 0.000000 0.000000 0.000000 0.000000 0.029726
#
#
# Mechanical properties :
#
#
# Convention : Reuss Voigt Hill
#
# Bulk Modulus (GPa) = 47.91606 48.23800 48.07703
# Shear Modulus (GPa) = 26.66776 28.94838 27.80807
#
# Velocity S-wave (km/s) = 3.71099 3.86642 3.78950
# Velocity P-wave (km/s) = 6.56553 6.69647 6.63133
#
# Compressibility (1/GPa) = 0.02086983
#
# Stress axis : x y z
#
# Youngs Moduli (GPa) = 81.66188 64.11960 93.58225
#
# Poissons Ratio (x) = 0.36557 0.07091
# Poissons Ratio (y) = 0.46559 0.22175
# Poissons Ratio (z) = 0.06188 0.15194
#
# Static dielectric constant tensor:
#      x y z
#    x 3.430430 0.000000 0.000000 
#    y 0.000000 3.470070 0.000000 
#    z 0.000000 0.000000 3.719150 
# 
# 
# High freq. dielectric constant tensor:
#      x y z
#    x 1.750740 0.000000 0.000000 
#    y 0.000000 1.746030 0.000000 
#    z 0.000000 0.000000 1.758000 
# 
# From -- ./inp_files/12987.got.cif
#   From: 2010.03.12/outbox.cif.g09.slc.cpg/sg24_7_cif.got.tgz:12987.got - 2010.04.14 03:06:53.
