data_PCOD8164544
_publ_section_title
;
Structure prediction by ZEFSAII (Michael W. Deem and Ramdas Pophale) SiO2 
 PCOD8164544
Probable space group: I 2 2 2
;
_chemical_formula_sum "Si O2"
_cell_formula_units_Z 32
_cell_length_a 4.859562
_cell_length_b 10.754234
_cell_length_c 26.382447
_cell_angle_alpha 90.000000
_cell_angle_beta 90.000000
_cell_angle_gamma 90.000000
_cell_volume 1378.769551
_symmetry_space_group_name_H-M "I 2 2 2"
_symmetry_group_IT_number 23
_symmetry_cell_setting 'orthorhombic'
loop_
_space_group_symop_operation_xyz
x,y,z
-x,-y,z
x,-y,-z
-x,y,-z
1/2+x,1/2+y,1/2+z
1/2-x,1/2-y,1/2+z
1/2+x,1/2-y,1/2-z
1/2-x,1/2+y,1/2-z
loop_
_atom_site_type_symbol
_atom_site_label
_atom_site_fract_x
_atom_site_fract_y
_atom_site_fract_z
Si Si1 0.751076 0.413238 0.624795
Si Si2 0.261346 0.265297 0.783359
Si Si3 0.239453 0.265880 0.966048
Si Si4 0.000000 0.000000 0.339414
Si Si5 0.000000 0.500000 0.091850
O O1 0.500000 0.500000 0.609380
O O2 0.671376 0.326207 0.671728
O O3 0.836494 0.329759 0.576852
O O4 0.000000 0.500000 0.641266
O O5 0.486179 0.199980 0.747310
O O6 0.391349 0.390959 0.804221
O O7 0.113714 0.390151 0.942443
O O8 0.500000 0.302383 0.000000
O O9 0.000000 0.203371 0.000000
O O10 0.750054 0.052099 0.373799
#
# Coordination Sequence:
#
# PCOD8164544 Si02
#       5
#     8   8   8   4   4
#     4  12  28  50  74 105 149 193 247 301 360 438
#     4  12  28  48  75 110 147 194 249 302 368 434
#     4  12  27  48  75 110 144 193 245 299 370 434
#     4  12  26  48  77 106 154 192 239 310 368 430
#     4  12  25  48  76 108 154 184 242 304 373 430
#
# _framework density 23.209099999999999
#
# number of rings (size 3 to 8) (size 9 to 14) (size 15 to 20)
#    0.000    0.000    2.500    6.375    8.750    4.000 
#    0.000    0.000    0.000    0.000    0.000    0.000 
#    0.000    0.000    0.000    0.000    0.000    0.000 
#
# Total GULP energy -198540.285007 kJ/mol
# GULP energy per Si atom -12408.767813 kJ/mol
# Density = 2.315628 g / cm^3
# Si number density = 23.209100 Si / 1000 Ang^3
#
#
#
# Elastic Constant Matrix: (Units=GPa)
#
#
# Indices 1 2 3 4 5 6 
#
# 1 117.7000 10.2997 31.6043 0.0000 0.0000 0.0000
# 2 10.2997 109.6414 39.5975 0.0000 0.0000 0.0000
# 3 31.6043 39.5975 126.3116 0.0000 0.0000 0.0000
# 4 0.0000 0.0000 0.0000 -1.9104 0.0000 0.0000
# 5 0.0000 0.0000 0.0000 0.0000 62.7085 0.0000
# 6 0.0000 0.0000 0.0000 0.0000 0.0000 34.4618
#
#
#
# Elastic Compliance Matrix: (Units=1/GPa)
#
#
# Indices 1 2 3 4 5 6 
#
# 1 0.009108 -0.000037 -0.002267 0.000000 0.000000 0.000000
# 2 -0.000037 0.010285 -0.003215 0.000000 0.000000 0.000000
# 3 -0.002267 -0.003215 0.009492 0.000000 0.000000 0.000000
# 4 0.000000 0.000000 0.000000 -0.523452 0.000000 0.000000
# 5 0.000000 0.000000 0.000000 0.000000 0.015947 0.000000
# 6 0.000000 0.000000 0.000000 0.000000 0.000000 0.029018
#
#
# Mechanical properties :
#
#
# Convention : Reuss Voigt Hill
#
# Bulk Modulus (GPa) = 56.03172 57.40624 56.71898
# Shear Modulus (GPa) = -11.55764 37.19542 12.81889
#
# Velocity S-wave (km/s) = -2.23396 4.00762 2.35270
# Velocity P-wave (km/s) = 4.18813 6.79726 5.64549
#
# Compressibility (1/GPa) = 0.01784704
#
# Stress axis : x y z
#
# Youngs Moduli (GPa) = 109.79068 97.22653 105.34987
#
# Poissons Ratio (x) = 0.00357 0.23888
# Poissons Ratio (y) = 0.00403 0.33871
# Poissons Ratio (z) = 0.24895 0.31260
#
# Static dielectric constant tensor:
#      x y z
#    x 4.416310 0.000000 0.000000 
#    y 0.000000 4.191140 0.000000 
#    z 0.000000 0.000000 4.555840 
# 
# 
# High freq. dielectric constant tensor:
#      x y z
#    x 1.937400 0.000000 0.000000 
#    y 0.000000 1.914390 0.000000 
#    z 0.000000 0.000000 1.938610 
# 
# From -- ./inp_files/5202.got.cif
#   From: 2010.03.12/outbox.cif.g09.slc.cpg/sg23_3_cif.got.tgz:5202.got - 2010.04.14 02:50:06.
