data_PCOD8164140
_publ_section_title
;
Structure prediction by ZEFSAII (Michael W. Deem and Ramdas Pophale) SiO2 
 PCOD8164140
Probable space group: I 2 2 2
;
_chemical_formula_sum "Si O2"
_cell_formula_units_Z 24
_cell_length_a 7.313426
_cell_length_b 5.170336
_cell_length_c 27.261891
_cell_angle_alpha 90.000000
_cell_angle_beta 90.000000
_cell_angle_gamma 90.000000
_cell_volume 1030.850333
_symmetry_space_group_name_H-M "I 2 2 2"
_symmetry_group_IT_number 23
_symmetry_cell_setting 'orthorhombic'
loop_
_space_group_symop_operation_xyz
x,y,z
-x,-y,z
x,-y,-z
-x,y,-z
1/2+x,1/2+y,1/2+z
1/2-x,1/2-y,1/2+z
1/2+x,1/2-y,1/2-z
1/2-x,1/2+y,1/2-z
loop_
_atom_site_type_symbol
_atom_site_label
_atom_site_fract_x
_atom_site_fract_y
_atom_site_fract_z
Si Si1 0.879474 0.257146 0.120681
Si Si2 0.704983 0.751147 0.978335
Si Si3 0.798016 0.092038 0.722016
O O1 0.715327 0.236238 0.080857
O O2 0.795591 0.300276 0.173714
O O3 0.000000 0.500000 0.104710
O O4 0.000000 0.000000 0.122122
O O5 0.806816 0.500000 0.000000
O O6 0.500000 0.751964 0.000000
O O7 0.810124 0.000000 0.000000
O O8 0.810409 0.337505 0.758934
O O9 0.000000 0.000000 0.709626
#
# Coordination Sequence:
#
# PCOD8164140 Si02
#       3
#     8   8   8
#     4  12  26  45  73 106 145 186 239 294 363 421
#     4  10  23  43  69  97 144 181 243 283 351 422
#     4  12  26  47  75 105 147 189 239 299 357 429
#
# _framework density 23.281752000000001
#
# number of rings (size 3 to 8) (size 9 to 14) (size 15 to 20)
#    0.000    0.667    0.000    8.000    4.667    4.000 
#    6.000    0.000    0.000    0.000    0.000    0.000 
#    0.000    0.000    0.000    0.000    0.000    0.000 
#
# Total GULP energy -148749.788963 kJ/mol
# GULP energy per Si atom -12395.815747 kJ/mol
# Density = 2.322876 g / cm^3
# Si number density = 23.281752 Si / 1000 Ang^3
#
#
#
# Elastic Constant Matrix: (Units=GPa)
#
#
# Indices 1 2 3 4 5 6 
#
# 1 107.6760 47.4598 67.3486 0.0000 0.0000 0.0000
# 2 47.4598 243.5479 72.2059 0.0000 0.0000 0.0000
# 3 67.3486 72.2059 175.1147 0.0000 0.0000 0.0000
# 4 0.0000 0.0000 0.0000 49.8843 0.0000 0.0000
# 5 0.0000 0.0000 0.0000 0.0000 46.1168 0.0000
# 6 0.0000 0.0000 0.0000 0.0000 0.0000 21.3617
#
#
#
# Elastic Compliance Matrix: (Units=1/GPa)
#
#
# Indices 1 2 3 4 5 6 
#
# 1 0.012506 -0.001152 -0.004335 0.000000 0.000000 0.000000
# 2 -0.001152 0.004784 -0.001530 0.000000 0.000000 0.000000
# 3 -0.004335 -0.001530 0.008008 0.000000 0.000000 0.000000
# 4 0.000000 0.000000 0.000000 0.020046 0.000000 0.000000
# 5 0.000000 0.000000 0.000000 0.000000 0.021684 0.000000
# 6 0.000000 0.000000 0.000000 0.000000 0.000000 0.046813
#
#
# Mechanical properties :
#
#
# Convention : Reuss Voigt Hill
#
# Bulk Modulus (GPa) = 88.76366 100.04077 94.40222
# Shear Modulus (GPa) = 37.98535 46.09417 42.03976
#
# Velocity S-wave (km/s) = 4.04363 4.45437 4.25396
# Velocity P-wave (km/s) = 7.74660 8.33775 8.04761
#
# Compressibility (1/GPa) = 0.01126587
#
# Stress axis : x y z
#
# Youngs Moduli (GPa) = 79.96040 209.03400 124.86858
#
# Poissons Ratio (x) = 0.24078 0.54129
# Poissons Ratio (y) = 0.09210 0.19099
# Poissons Ratio (z) = 0.34662 0.31973
#
# Static dielectric constant tensor:
#      x y z
#    x 3.958100 0.000000 0.000000 
#    y 0.000000 9.863160 0.000000 
#    z 0.000000 0.000000 4.234940 
# 
# 
# High freq. dielectric constant tensor:
#      x y z
#    x 1.909080 0.000000 0.000000 
#    y 0.000000 1.963430 0.000000 
#    z 0.000000 0.000000 1.928110 
# 
# From -- ./inp_files/411.got.cif
#   From: 2010.03.12/outbox.cif.g09.slc.cpg/sg23_1_cif.got.tgz:411.got - 2010.04.14 02:50:06.
