data_PCOD8164498
_publ_section_title
;
Structure prediction by ZEFSAII (Michael W. Deem and Ramdas Pophale) SiO2 
 PCOD8164498
Probable space group: I 2 2 2
;
_chemical_formula_sum "Si O2"
_cell_formula_units_Z 34
_cell_length_a 20.215682
_cell_length_b 9.569551
_cell_length_c 7.663221
_cell_angle_alpha 90.000000
_cell_angle_beta 90.000000
_cell_angle_gamma 90.000000
_cell_volume 1482.488418
_symmetry_space_group_name_H-M "I 2 2 2"
_symmetry_group_IT_number 23
_symmetry_cell_setting 'orthorhombic'
loop_
_space_group_symop_operation_xyz
x,y,z
-x,-y,z
x,-y,-z
-x,y,-z
1/2+x,1/2+y,1/2+z
1/2-x,1/2-y,1/2+z
1/2+x,1/2-y,1/2-z
1/2-x,1/2+y,1/2-z
loop_
_atom_site_type_symbol
_atom_site_label
_atom_site_fract_x
_atom_site_fract_y
_atom_site_fract_z
Si Si1 0.000000 0.000000 0.500000
Si Si2 0.330442 0.214773 0.207921
Si Si3 0.222421 0.004845 0.800241
Si Si4 0.387255 0.316794 0.855421
Si Si5 0.574909 0.835155 0.514610
O O1 0.955211 0.901085 0.379254
O O2 0.294308 0.065387 0.221561
O O3 0.274207 0.334908 0.233236
O O4 0.384298 0.235235 0.358602
O O5 0.367763 0.226018 0.024161
O O6 0.169090 0.929832 0.679641
O O7 0.199116 0.000000 0.000000
O O8 0.394401 0.208492 0.698526
O O9 0.500000 0.781221 0.500000
O O10 0.578887 0.000000 0.500000
#
# Coordination Sequence:
#
# PCOD8164498 Si02
#       5
#     2   8   8   8   8
#     4  12  24  48  86 114 156 198 254 330 378 460
#     4  12  27  49  75 113 155 198 254 314 382 457
#     4  12  26  46  74 113 149 203 245 312 385 448
#     4  12  26  47  77 114 150 198 255 313 380 452
#     4  11  28  50  76 110 151 202 256 315 383 457
#
# _framework density 22.934411000000001
#
# number of rings (size 3 to 8) (size 9 to 14) (size 15 to 20)
#    0.000    0.235    4.706    2.824    6.588    0.000 
#    0.000    2.353    0.000    0.000    0.000    0.000 
#    0.000    0.000    0.000    0.000    0.000    0.000 
#
# Total GULP energy -210940.015256 kJ/mol
# GULP energy per Si atom -12408.236192 kJ/mol
# Density = 2.288221 g / cm^3
# Si number density = 22.934411 Si / 1000 Ang^3
#
#
#
# Elastic Constant Matrix: (Units=GPa)
#
#
# Indices 1 2 3 4 5 6 
#
# 1 129.1581 43.5030 59.2168 0.0000 0.0000 0.0000
# 2 43.5030 93.7773 41.0539 0.0000 0.0000 0.0000
# 3 59.2168 41.0539 181.1195 0.0000 0.0000 0.0000
# 4 0.0000 0.0000 0.0000 31.6894 0.0000 0.0000
# 5 0.0000 0.0000 0.0000 0.0000 32.4079 0.0000
# 6 0.0000 0.0000 0.0000 0.0000 0.0000 33.1863
#
#
#
# Elastic Compliance Matrix: (Units=1/GPa)
#
#
# Indices 1 2 3 4 5 6 
#
# 1 0.010092 -0.003594 -0.002485 0.000000 0.000000 0.000000
# 2 -0.003594 0.013118 -0.001798 0.000000 0.000000 0.000000
# 3 -0.002485 -0.001798 0.006741 0.000000 0.000000 0.000000
# 4 0.000000 0.000000 0.000000 0.031556 0.000000 0.000000
# 5 0.000000 0.000000 0.000000 0.000000 0.030857 0.000000
# 6 0.000000 0.000000 0.000000 0.000000 0.000000 0.030133
#
#
# Mechanical properties :
#
#
# Convention : Reuss Voigt Hill
#
# Bulk Modulus (GPa) = 70.43741 76.84470 73.64105
# Shear Modulus (GPa) = 34.96880 36.80880 35.88880
#
# Velocity S-wave (km/s) = 3.90902 4.01054 3.96010
# Velocity P-wave (km/s) = 7.15214 7.41788 7.28622
#
# Compressibility (1/GPa) = 0.01419700
#
# Stress axis : x y z
#
# Youngs Moduli (GPa) = 99.08550 76.23071 148.33838
#
# Poissons Ratio (x) = 0.27396 0.36863
# Poissons Ratio (y) = 0.35610 0.26678
# Poissons Ratio (z) = 0.24623 0.13710
#
# Static dielectric constant tensor:
#      x y z
#    x 4.192780 0.000000 0.000000 
#    y 0.000000 4.117350 0.000000 
#    z 0.000000 0.000000 4.193110 
# 
# 
# High freq. dielectric constant tensor:
#      x y z
#    x 1.909090 0.000000 0.000000 
#    y 0.000000 1.912220 0.000000 
#    z 0.000000 0.000000 1.921490 
# 
# From -- ./inp_files/11670.got.cif
#   From: 2010.03.12/outbox.cif.g09.slc.cpg/sg23_6_cif.got.tgz:11670.got - 2010.04.14 02:50:06.
