data_PCOD8164871
_publ_section_title
;
Structure prediction by ZEFSAII (Michael W. Deem and Ramdas Pophale) SiO2 
 PCOD8164871
Probable space group: I 21 21 21
;
_chemical_formula_sum "Si O2"
_cell_formula_units_Z 64
_cell_length_a 13.228595
_cell_length_b 9.206342
_cell_length_c 30.900187
_cell_angle_alpha 90.000000
_cell_angle_beta 90.000000
_cell_angle_gamma 90.000000
_cell_volume 3763.240139
_symmetry_space_group_name_H-M "I 21 21 21"
_symmetry_group_IT_number 24
_symmetry_cell_setting 'orthorhombic'
loop_
_space_group_symop_operation_xyz
x,y,z
-x,1/2-y,z
x,-y,1/2-z
1/2-x,y,-z
1/2+x,1/2+y,1/2+z
1/2-x,-y,1/2+z
1/2+x,1/2-y,-z
-x,1/2+y,1/2-z
loop_
_atom_site_type_symbol
_atom_site_label
_atom_site_fract_x
_atom_site_fract_y
_atom_site_fract_z
Si Si1 0.690615 0.089823 0.458322
Si Si2 0.117208 0.917522 0.209268
Si Si3 0.506247 0.914155 0.471303
Si Si4 0.647173 0.091259 0.612076
Si Si5 0.032879 0.085127 0.070558
Si Si6 0.805682 0.417194 0.381214
Si Si7 0.884402 0.080711 0.291911
Si Si8 0.411025 0.843223 0.086311
O O1 0.750000 0.140363 0.500000
O O2 0.758219 0.043763 0.417215
O O3 0.622003 0.229833 0.450237
O O4 0.624754 0.951059 0.471403
O O5 0.178977 0.969935 0.167658
O O6 0.129092 0.748533 0.218117
O O7 0.001073 0.963589 0.202705
O O8 0.164993 0.000000 0.250000
O O9 0.500000 0.750000 0.455444
O O10 0.461296 0.936453 0.519113
O O11 0.449774 0.011210 0.436076
O O12 0.634885 0.265925 0.610596
O O13 0.667510 0.040323 0.661900
O O14 0.545772 0.023097 0.592998
O O15 0.000000 0.250000 0.082166
O O16 0.145205 0.041309 0.087841
O O17 0.685257 0.391773 0.385507
O O18 0.836189 0.000000 0.250000
O O19 0.500000 0.750000 0.111957
#
# Coordination Sequence:
#
# PCOD8164871 Si02
#       8
#     8   8   8   8   8   8   8   8
#     4  10  19  33  54  75  96 134 180 219 254 302
#     4   9  17  30  48  73 102 133 164 202 257 316
#     4  10  22  37  48  69 106 141 169 218 267 312
#     4  10  19  33  51  73 101 137 180 216 252 304
#     4  11  22  31  45  74 109 140 176 213 256 320
#     4  10  20  34  54  75 101 137 177 220 263 308
#     4   9  17  30  47  70 103 139 165 202 255 308
#     4   9  21  36  55  77  95 130 186 223 263 301
#
# _framework density 17.006620999999999
#
# number of rings (size 3 to 8) (size 9 to 14) (size 15 to 20)
#    0.000    2.250    2.500    0.375    3.500    3.000 
#    0.000    0.000    0.000    0.000    0.000   14.875 
#    0.000    0.000    0.000    0.000    0.000    0.000 
#
# Total GULP energy -396596.496277 kJ/mol
# GULP energy per Si atom -12393.640509 kJ/mol
# Density = 1.696791 g / cm^3
# Si number density = 17.006621 Si / 1000 Ang^3
#
#
#
# Elastic Constant Matrix: (Units=GPa)
#
#
# Indices 1 2 3 4 5 6 
#
# 1 83.4543 33.8037 38.8346 0.0000 0.0000 0.0000
# 2 33.8037 67.0859 40.2113 0.0000 0.0000 0.0000
# 3 38.8346 40.2113 110.0031 0.0000 0.0000 0.0000
# 4 0.0000 0.0000 0.0000 24.7607 0.0000 0.0000
# 5 0.0000 0.0000 0.0000 0.0000 19.8503 0.0000
# 6 0.0000 0.0000 0.0000 0.0000 0.0000 16.0897
#
#
#
# Elastic Compliance Matrix: (Units=1/GPa)
#
#
# Indices 1 2 3 4 5 6 
#
# 1 0.016024 -0.005998 -0.003465 0.000000 0.000000 0.000000
# 2 -0.005998 0.021334 -0.005681 0.000000 0.000000 0.000000
# 3 -0.003465 -0.005681 0.012390 0.000000 0.000000 0.000000
# 4 0.000000 0.000000 0.000000 0.040387 0.000000 0.000000
# 5 0.000000 0.000000 0.000000 0.000000 0.050377 0.000000
# 6 0.000000 0.000000 0.000000 0.000000 0.000000 0.062151
#
#
# Mechanical properties :
#
#
# Convention : Reuss Voigt Hill
#
# Bulk Modulus (GPa) = 51.38332 54.02694 52.70513
# Shear Modulus (GPa) = 20.88228 21.98639 21.43434
#
# Velocity S-wave (km/s) = 3.50793 3.59947 3.55400
# Velocity P-wave (km/s) = 6.83277 7.00800 6.92094
#
# Compressibility (1/GPa) = 0.01946157
#
# Stress axis : x y z
#
# Youngs Moduli (GPa) = 62.40538 46.87427 80.70714
#
# Poissons Ratio (x) = 0.28114 0.27962
# Poissons Ratio (y) = 0.37429 0.45850
# Poissons Ratio (z) = 0.21621 0.26630
#
# Static dielectric constant tensor:
#      x y z
#    x 3.221790 0.000000 0.000000 
#    y 0.000000 3.199410 0.000000 
#    z 0.000000 0.000000 3.251550 
# 
# 
# High freq. dielectric constant tensor:
#      x y z
#    x 1.635960 0.000000 0.000000 
#    y 0.000000 1.654600 0.000000 
#    z 0.000000 0.000000 1.649310 
# 
# From -- ./inp_files/38629.got.cif
#   From: 2010.03.12/outbox.cif.g09.slc.cpg/sg24_20_cif.got.tgz:38629.got - 2010.04.14 03:06:53.
