data_PCOD8164040
_publ_section_title
;
Structure prediction by ZEFSAII (Michael W. Deem and Ramdas Pophale) SiO2 
 PCOD8164040
Probable space group: I 2 2 2
;
_chemical_formula_sum "Si O2"
_cell_formula_units_Z 42
_cell_length_a 6.571937
_cell_length_b 17.816015
_cell_length_c 18.916935
_cell_angle_alpha 90.000000
_cell_angle_beta 90.000000
_cell_angle_gamma 90.000000
_cell_volume 2214.903109
_symmetry_space_group_name_H-M "I 2 2 2"
_symmetry_group_IT_number 23
_symmetry_cell_setting 'orthorhombic'
loop_
_space_group_symop_operation_xyz
x,y,z
-x,-y,z
x,-y,-z
-x,y,-z
1/2+x,1/2+y,1/2+z
1/2-x,1/2-y,1/2+z
1/2+x,1/2-y,1/2-z
1/2-x,1/2+y,1/2-z
loop_
_atom_site_type_symbol
_atom_site_label
_atom_site_fract_x
_atom_site_fract_y
_atom_site_fract_z
Si Si1 0.147793 0.844403 0.705570
Si Si2 0.622894 0.427605 0.066242
Si Si3 0.201208 0.179822 0.808643
Si Si4 0.952628 0.085537 0.917116
Si Si5 0.000000 0.500000 0.000000
Si Si6 0.592803 0.917691 0.180161
O O1 0.119412 0.866397 0.625514
O O2 0.276183 0.768688 0.697797
O O3 0.263728 0.907478 0.751624
O O4 0.923522 0.839385 0.738331
O O5 0.500000 0.500000 0.093061
O O6 0.500000 0.393139 0.000000
O O7 0.856377 0.447661 0.048121
O O8 0.421556 0.144074 0.811131
O O9 0.083847 0.149240 0.877800
O O10 0.717178 0.097309 0.893238
O O11 0.000000 0.000000 0.892983
O O12 0.000000 0.095729 0.000000
O O13 0.500000 0.000000 0.179576
#
# Coordination Sequence:
#
# PCOD8164040 Si02
#       6
#     8   8   8   8   2   8
#     4  11  24  40  62  89 127 162 196 265 307 362
#     4   9  21  40  60  91 119 153 204 252 298 365
#     4  11  23  43  58  92 126 158 210 251 312 365
#     4  10  22  42  63  91 126 160 207 256 297 368
#     4   8  18  40  60  90 116 152 204 242 296 382
#     4  11  23  39  66  93 118 164 211 247 306 370
#
# _framework density 18.962456
#
# number of rings (size 3 to 8) (size 9 to 14) (size 15 to 20)
#    0.000    1.905    3.810    0.000    4.000    2.286 
#    5.143    0.000    0.000    0.000    0.000    0.000 
#    0.000    0.000    0.000    0.000    0.000    0.000 
#
# Total GULP energy -260259.216811 kJ/mol
# GULP energy per Si atom -12393.296039 kJ/mol
# Density = 1.891930 g / cm^3
# Si number density = 18.962456 Si / 1000 Ang^3
#
#
#
# Elastic Constant Matrix: (Units=GPa)
#
#
# Indices 1 2 3 4 5 6 
#
# 1 140.1509 46.0733 69.9560 0.0000 0.0000 0.0000
# 2 46.0733 61.5201 58.9578 0.0000 0.0000 0.0000
# 3 69.9560 58.9578 139.9775 0.0000 0.0000 0.0000
# 4 0.0000 0.0000 0.0000 25.9431 0.0000 0.0000
# 5 0.0000 0.0000 0.0000 0.0000 9.8486 0.0000
# 6 0.0000 0.0000 0.0000 0.0000 0.0000 35.6480
#
#
#
# Elastic Compliance Matrix: (Units=1/GPa)
#
#
# Indices 1 2 3 4 5 6 
#
# 1 0.010238 -0.004635 -0.003165 0.000000 0.000000 0.000000
# 2 -0.004635 0.029356 -0.010048 0.000000 0.000000 0.000000
# 3 -0.003165 -0.010048 0.012958 0.000000 0.000000 0.000000
# 4 0.000000 0.000000 0.000000 0.038546 0.000000 0.000000
# 5 0.000000 0.000000 0.000000 0.000000 0.101538 0.000000
# 6 0.000000 0.000000 0.000000 0.000000 0.000000 0.028052
#
#
# Mechanical properties :
#
#
# Convention : Reuss Voigt Hill
#
# Bulk Modulus (GPa) = 59.32387 76.84697 68.08542
# Shear Modulus (GPa) = 19.08387 25.39871 22.24129
#
# Velocity S-wave (km/s) = 3.17583 3.66378 3.42850
# Velocity P-wave (km/s) = 6.69333 7.64928 7.18722
#
# Compressibility (1/GPa) = 0.01685662
#
# Stress axis : x y z
#
# Youngs Moduli (GPa) = 97.67078 34.06508 77.17378
#
# Poissons Ratio (x) = 0.15789 0.24423
# Poissons Ratio (y) = 0.45270 0.77545
# Poissons Ratio (z) = 0.30909 0.34229
#
# Static dielectric constant tensor:
#      x y z
#    x 4.254870 0.000000 0.000000 
#    y 0.000000 3.689810 0.000000 
#    z 0.000000 0.000000 3.410370 
# 
# 
# High freq. dielectric constant tensor:
#      x y z
#    x 1.754720 0.000000 0.000000 
#    y 0.000000 1.731970 0.000000 
#    z 0.000000 0.000000 1.733540 
# 
# From -- ./inp_files/25690.got.cif
#   From: 2010.03.12/outbox.cif.g09.slc.cpg/sg23_13_cif.got.tgz:25690.got - 2010.04.14 02:50:06.
