data_PCOD8164648
_publ_section_title
;
Structure prediction by ZEFSAII (Michael W. Deem and Ramdas Pophale) SiO2 
 PCOD8164648
Probable space group: I 21 21 21
;
_chemical_formula_sum "Si O2"
_cell_formula_units_Z 60
_cell_length_a 27.274309
_cell_length_b 11.024616
_cell_length_c 9.991821
_cell_angle_alpha 90.000000
_cell_angle_beta 90.000000
_cell_angle_gamma 90.000000
_cell_volume 3004.428500
_symmetry_space_group_name_H-M "I 21 21 21"
_symmetry_group_IT_number 24
_symmetry_cell_setting 'orthorhombic'
loop_
_space_group_symop_operation_xyz
x,y,z
-x,1/2-y,z
x,-y,1/2-z
1/2-x,y,-z
1/2+x,1/2+y,1/2+z
1/2-x,-y,1/2+z
1/2+x,1/2-y,-z
-x,1/2+y,1/2-z
loop_
_atom_site_type_symbol
_atom_site_label
_atom_site_fract_x
_atom_site_fract_y
_atom_site_fract_z
Si Si1 0.569601 0.031305 0.463462
Si Si2 0.343386 0.000000 0.750000
Si Si3 0.418066 0.806729 0.680955
Si Si4 0.024721 0.126764 0.432268
Si Si5 0.600505 0.707197 0.129780
Si Si6 0.142874 0.607360 0.173224
Si Si7 0.055568 0.267646 0.886043
Si Si8 0.194075 0.818620 0.038465
O O1 0.515858 0.024628 0.536534
O O2 0.580025 0.155073 0.382951
O O3 0.613224 0.025946 0.568700
O O4 0.571721 0.909137 0.374953
O O5 0.374902 0.096452 0.833441
O O6 0.311719 0.066830 0.636567
O O7 0.459340 0.868194 0.776500
O O8 0.398335 0.683606 0.747046
O O9 0.440195 0.782525 0.536247
O O10 0.072293 0.114991 0.528889
O O11 0.000000 0.250000 0.476441
O O12 0.590117 0.684751 0.287540
O O13 0.657587 0.685336 0.090627
O O14 0.171264 0.500000 0.250000
O O15 0.184289 0.694489 0.117306
O O16 0.000000 0.250000 0.836476
O O17 0.250000 0.818620 0.000000
#
# Coordination Sequence:
#
# PCOD8164648 Si02
#       8
#     8   4   8   8   8   8   8   8
#     4  10  20  34  59  82 122 177 207 248 308 368
#     4  10  22  44  66  92 116 162 212 270 314 372
#     4  11  21  36  59  88 123 165 214 265 291 356
#     4  10  17  35  57  80 116 172 212 242 301 359
#     4  10  21  41  58  83 125 164 201 261 327 386
#     4  10  18  37  64  91 122 156 210 267 313 358
#     4  12  25  33  51  95 133 168 217 249 300 374
#     4  10  22  45  72  91 115 161 211 261 337 394
#
# _framework density 19.970521000000002
#
# number of rings (size 3 to 8) (size 9 to 14) (size 15 to 20)
#    0.000    1.600    6.667    2.000    1.867    0.000 
#    2.400    4.000    0.000    0.000    0.000    0.000 
#    0.000    0.000    0.000    0.000    0.000    0.000 
#
# Total GULP energy -371676.501984 kJ/mol
# GULP energy per Si atom -12389.216733 kJ/mol
# Density = 1.992507 g / cm^3
# Si number density = 19.970521 Si / 1000 Ang^3
#
#
#
# Elastic Constant Matrix: (Units=GPa)
#
#
# Indices 1 2 3 4 5 6 
#
# 1 125.3791 20.5852 45.3741 0.0000 0.0000 0.0000
# 2 20.5852 54.4080 9.7514 0.0000 0.0000 0.0000
# 3 45.3741 9.7514 100.6816 0.0000 0.0000 0.0000
# 4 0.0000 0.0000 0.0000 22.3931 0.0000 0.0000
# 5 0.0000 0.0000 0.0000 0.0000 25.2316 0.0000
# 6 0.0000 0.0000 0.0000 0.0000 0.0000 7.7703
#
#
#
# Elastic Compliance Matrix: (Units=1/GPa)
#
#
# Indices 1 2 3 4 5 6 
#
# 1 0.009997 -0.003028 -0.004212 0.000000 0.000000 0.000000
# 2 -0.003028 0.019621 -0.000536 0.000000 0.000000 0.000000
# 3 -0.004212 -0.000536 0.011883 0.000000 0.000000 0.000000
# 4 0.000000 0.000000 0.000000 0.044657 0.000000 0.000000
# 5 0.000000 0.000000 0.000000 0.000000 0.039633 0.000000
# 6 0.000000 0.000000 0.000000 0.000000 0.000000 0.128696
#
#
# Mechanical properties :
#
#
# Convention : Reuss Voigt Hill
#
# Bulk Modulus (GPa) = 38.53637 47.98780 43.26208
# Shear Modulus (GPa) = 17.94124 24.72951 21.33538
#
# Velocity S-wave (km/s) = 3.00056 3.52277 3.27210
# Velocity P-wave (km/s) = 5.59848 6.37401 5.99879
#
# Compressibility (1/GPa) = 0.02594951
#
# Stress axis : x y z
#
# Youngs Moduli (GPa) = 100.02731 50.96539 84.15707
#
# Poissons Ratio (x) = 0.15430 0.35449
# Poissons Ratio (y) = 0.30283 0.04511
# Poissons Ratio (z) = 0.42134 0.02732
#
# Static dielectric constant tensor:
#      x y z
#    x 3.329400 0.000000 0.000000 
#    y 0.000000 3.791250 0.000000 
#    z 0.000000 0.000000 3.982850 
# 
# 
# High freq. dielectric constant tensor:
#      x y z
#    x 1.741930 0.000000 0.000000 
#    y 0.000000 1.784290 0.000000 
#    z 0.000000 0.000000 1.780220 
# 
# From -- ./inp_files/16452.got.cif
#   From: 2010.03.12/outbox.cif.g09.slc.cpg/sg24_9_cif.got.tgz:16452.got - 2010.04.14 03:06:53.
