data_PCOD8164929
_publ_section_title
;
Structure prediction by ZEFSAII (Michael W. Deem and Ramdas Pophale) SiO2 
 PCOD8164929
Probable space group: I 21 21 21
;
_chemical_formula_sum "Si O2"
_cell_formula_units_Z 48
_cell_length_a 8.255671
_cell_length_b 15.104167
_cell_length_c 18.882962
_cell_angle_alpha 90.000000
_cell_angle_beta 90.000000
_cell_angle_gamma 90.000000
_cell_volume 2354.611579
_symmetry_space_group_name_H-M "I 21 21 21"
_symmetry_group_IT_number 24
_symmetry_cell_setting 'orthorhombic'
loop_
_space_group_symop_operation_xyz
x,y,z
-x,1/2-y,z
x,-y,1/2-z
1/2-x,y,-z
1/2+x,1/2+y,1/2+z
1/2-x,-y,1/2+z
1/2+x,1/2-y,-z
-x,1/2+y,1/2-z
loop_
_atom_site_type_symbol
_atom_site_label
_atom_site_fract_x
_atom_site_fract_y
_atom_site_fract_z
Si Si1 0.846373 0.370732 0.352883
Si Si2 0.697387 0.948134 0.847201
Si Si3 0.750000 0.117700 0.500000
Si Si4 0.178499 0.788044 0.294316
Si Si5 0.185259 0.961451 0.674738
Si Si6 0.000000 0.250000 0.461467
Si Si7 0.835814 0.889489 0.707835
O O1 0.778585 0.317512 0.285548
O O2 0.730552 0.454614 0.376291
O O3 0.024499 0.405299 0.332934
O O4 0.860426 0.298867 0.415219
O O5 0.826668 0.900644 0.793596
O O6 0.691790 0.052124 0.827324
O O7 0.747158 0.940759 0.929304
O O8 0.589619 0.177441 0.491446
O O9 0.208262 0.873927 0.344275
O O10 0.309548 0.712229 0.313913
O O11 0.000000 0.750000 0.303960
O O12 0.999576 0.930488 0.675102
O O13 0.242071 0.000000 0.750000
#
# Coordination Sequence:
#
# PCOD8164929 Si02
#       7
#     8   8   4   8   8   4   8
#     4  10  19  35  53  79 114 155 187 232 281 358
#     4  10  20  36  55  77 118 149 193 233 287 343
#     4  10  22  38  54  84 112 160 192 232 282 350
#     4  11  18  30  51  79 112 149 184 232 286 348
#     4  10  21  31  49  80 117 142 183 239 298 336
#     4  10  20  38  56  80 114 158 198 230 280 356
#     4  11  20  35  52  85 114 147 190 249 297 339
#
# _framework density 20.385525999999999
#
# number of rings (size 3 to 8) (size 9 to 14) (size 15 to 20)
#    0.000    1.667    4.167    2.500    4.667    1.333 
#    3.000    0.000    0.000    0.000    0.000   12.833 
#    0.000    0.000    0.000    0.000    0.000    0.000 
#
# Total GULP energy -297381.573354 kJ/mol
# GULP energy per Si atom -12390.898890 kJ/mol
# Density = 2.033913 g / cm^3
# Si number density = 20.385526 Si / 1000 Ang^3
#
#
#
# Elastic Constant Matrix: (Units=GPa)
#
#
# Indices 1 2 3 4 5 6 
#
# 1 71.5009 34.8858 7.2899 0.0000 0.0000 0.0000
# 2 34.8858 144.9924 20.5439 0.0000 0.0000 0.0000
# 3 7.2899 20.5439 64.9368 0.0000 0.0000 0.0000
# 4 0.0000 0.0000 0.0000 12.2441 0.0000 0.0000
# 5 0.0000 0.0000 0.0000 0.0000 13.9764 0.0000
# 6 0.0000 0.0000 0.0000 0.0000 0.0000 44.3880
#
#
#
# Elastic Compliance Matrix: (Units=1/GPa)
#
#
# Indices 1 2 3 4 5 6 
#
# 1 0.015868 -0.003733 -0.000600 0.000000 0.000000 0.000000
# 2 -0.003733 0.008099 -0.002143 0.000000 0.000000 0.000000
# 3 -0.000600 -0.002143 0.016145 0.000000 0.000000 0.000000
# 4 0.000000 0.000000 0.000000 0.081672 0.000000 0.000000
# 5 0.000000 0.000000 0.000000 0.000000 0.071549 0.000000
# 6 0.000000 0.000000 0.000000 0.000000 0.000000 0.022529
#
#
# Mechanical properties :
#
#
# Convention : Reuss Voigt Hill
#
# Bulk Modulus (GPa) = 36.81997 45.20770 41.01384
# Shear Modulus (GPa) = 21.02006 28.70239 24.86122
#
# Velocity S-wave (km/s) = 3.21460 3.75638 3.49600
# Velocity P-wave (km/s) = 5.64617 6.40612 6.03811
#
# Compressibility (1/GPa) = 0.02715918
#
# Stress axis : x y z
#
# Youngs Moduli (GPa) = 63.01839 123.47622 61.93861
#
# Poissons Ratio (x) = 0.46093 0.03719
# Poissons Ratio (y) = 0.23524 0.13274
# Poissons Ratio (z) = 0.03784 0.26462
#
# Static dielectric constant tensor:
#      x y z
#    x 3.631450 0.000000 0.000000 
#    y 0.000000 4.320510 0.000000 
#    z 0.000000 0.000000 3.173250 
# 
# 
# High freq. dielectric constant tensor:
#      x y z
#    x 1.795180 0.000000 0.000000 
#    y 0.000000 1.821670 0.000000 
#    z 0.000000 0.000000 1.726360 
# 
# From -- ./inp_files/32731.got.cif
#   From: 2010.03.12/outbox.cif.g09.slc.cpg/sg24_17_cif.got.tgz:32731.got - 2010.04.14 03:06:53.
