data_PCOD8164532
_publ_section_title
;
Structure prediction by ZEFSAII (Michael W. Deem and Ramdas Pophale) SiO2 
 PCOD8164532
Probable space group: I 2 2 2
;
_chemical_formula_sum "Si O2"
_cell_formula_units_Z 18
_cell_length_a 21.291869
_cell_length_b 6.403855
_cell_length_c 4.938337
_cell_angle_alpha 90.000000
_cell_angle_beta 90.000000
_cell_angle_gamma 90.000000
_cell_volume 673.342456
_symmetry_space_group_name_H-M "I 2 2 2"
_symmetry_group_IT_number 23
_symmetry_cell_setting 'orthorhombic'
loop_
_space_group_symop_operation_xyz
x,y,z
-x,-y,z
x,-y,-z
-x,y,-z
1/2+x,1/2+y,1/2+z
1/2-x,1/2-y,1/2+z
1/2+x,1/2-y,1/2-z
1/2-x,1/2+y,1/2-z
loop_
_atom_site_type_symbol
_atom_site_label
_atom_site_fract_x
_atom_site_fract_y
_atom_site_fract_z
Si Si1 0.923986 0.638244 0.257937
Si Si2 0.000000 0.000000 0.500000
Si Si3 0.290165 0.717882 0.114537
O O1 0.949075 0.500000 0.500000
O O2 0.848579 0.656342 0.264861
O O3 0.943659 0.500000 0.000000
O O4 0.957355 0.863523 0.291931
O O5 0.242232 0.664157 0.359612
O O6 0.315637 0.500000 0.000000
#
# Coordination Sequence:
#
# PCOD8164532 Si02
#       3
#     8   2   8
#     4  12  28  52  83 123 164 220 284 343 415 496
#     4  12  30  58  84 124 172 226 286 340 412 504
#     4  12  24  45  77 119 167 214 273 344 417 499
#
# _framework density 26.732313000000001
#
# number of rings (size 3 to 8) (size 9 to 14) (size 15 to 20)
#    0.000    0.000    2.222    8.667    0.000    7.111 
#    0.000    0.000    0.000    0.000    0.000    0.000 
#    0.000    0.000    0.000    0.000    0.000    0.000 
#
# Total GULP energy -111592.712736 kJ/mol
# GULP energy per Si atom -12399.190304 kJ/mol
# Density = 2.667147 g / cm^3
# Si number density = 26.732313 Si / 1000 Ang^3
#
#
#
# Elastic Constant Matrix: (Units=GPa)
#
#
# Indices 1 2 3 4 5 6 
#
# 1 167.9801 56.4411 59.8799 0.0000 0.0000 0.0000
# 2 56.4411 145.3575 78.1221 0.0000 0.0000 0.0000
# 3 59.8799 78.1221 220.4766 0.0000 0.0000 0.0000
# 4 0.0000 0.0000 0.0000 70.4881 0.0000 0.0000
# 5 0.0000 0.0000 0.0000 0.0000 45.4952 0.0000
# 6 0.0000 0.0000 0.0000 0.0000 0.0000 56.8709
#
#
#
# Elastic Compliance Matrix: (Units=1/GPa)
#
#
# Indices 1 2 3 4 5 6 
#
# 1 0.007083 -0.002120 -0.001173 0.000000 0.000000 0.000000
# 2 -0.002120 0.009133 -0.002660 0.000000 0.000000 0.000000
# 3 -0.001173 -0.002660 0.005797 0.000000 0.000000 0.000000
# 4 0.000000 0.000000 0.000000 0.014187 0.000000 0.000000
# 5 0.000000 0.000000 0.000000 0.000000 0.021980 0.000000
# 6 0.000000 0.000000 0.000000 0.000000 0.000000 0.017584
#
#
# Mechanical properties :
#
#
# Convention : Reuss Voigt Hill
#
# Bulk Modulus (GPa) = 98.94308 102.52225 100.73266
# Shear Modulus (GPa) = 54.92199 57.19561 56.05880
#
# Velocity S-wave (km/s) = 4.53760 4.63056 4.58432
# Velocity P-wave (km/s) = 8.03405 8.18683 8.11080
#
# Compressibility (1/GPa) = 0.01010682
#
# Stress axis : x y z
#
# Youngs Moduli (GPa) = 141.17380 109.49848 172.51351
#
# Poissons Ratio (x) = 0.23217 0.20228
# Poissons Ratio (y) = 0.29933 0.45891
# Poissons Ratio (z) = 0.16553 0.29128
#
# Static dielectric constant tensor:
#      x y z
#    x 4.657030 0.000000 0.000000 
#    y 0.000000 4.936140 0.000000 
#    z 0.000000 0.000000 4.689330 
# 
# 
# High freq. dielectric constant tensor:
#      x y z
#    x 2.095810 0.000000 0.000000 
#    y 0.000000 2.093260 0.000000 
#    z 0.000000 0.000000 2.073440 
# 
# From -- ./inp_files/4138.got.cif
#   From: 2010.03.12/outbox.cif.g09.slc.cpg/sg23_3_cif.got.tgz:4138.got - 2010.04.14 02:50:06.
