data_PCOD8164683
_publ_section_title
;
Structure prediction by ZEFSAII (Michael W. Deem and Ramdas Pophale) SiO2 
 PCOD8164683
Probable space group: I 21 21 21
;
_chemical_formula_sum "Si O2"
_cell_formula_units_Z 56
_cell_length_a 14.614178
_cell_length_b 22.385764
_cell_length_c 8.716051
_cell_angle_alpha 90.000000
_cell_angle_beta 90.000000
_cell_angle_gamma 90.000000
_cell_volume 2851.452073
_symmetry_space_group_name_H-M "I 21 21 21"
_symmetry_group_IT_number 24
_symmetry_cell_setting 'orthorhombic'
loop_
_space_group_symop_operation_xyz
x,y,z
-x,1/2-y,z
x,-y,1/2-z
1/2-x,y,-z
1/2+x,1/2+y,1/2+z
1/2-x,-y,1/2+z
1/2+x,1/2-y,-z
-x,1/2+y,1/2-z
loop_
_atom_site_type_symbol
_atom_site_label
_atom_site_fract_x
_atom_site_fract_y
_atom_site_fract_z
Si Si1 0.553547 0.806927 0.351459
Si Si2 0.931365 0.384183 0.045403
Si Si3 0.520299 0.610411 0.885469
Si Si4 0.154226 0.993377 0.071444
Si Si5 0.647002 0.839906 0.056635
Si Si6 0.661459 0.262894 0.909796
Si Si7 0.343322 0.216912 0.570265
O O1 0.500000 0.750000 0.273258
O O2 0.489896 0.862720 0.399740
O O3 0.628283 0.839587 0.241143
O O4 0.586542 0.780431 0.515475
O O5 0.990537 0.396286 0.201112
O O6 0.878241 0.444201 0.996952
O O7 0.857089 0.333338 0.078831
O O8 0.574232 0.554667 0.958324
O O9 0.577320 0.669148 0.925281
O O10 0.421273 0.615493 0.965981
O O11 0.172993 0.000000 0.250000
O O12 0.250000 0.971884 0.000000
O O13 0.750000 0.856116 0.000000
O O14 0.621732 0.771251 0.030393
O O15 0.676292 0.249953 0.731672
O O16 0.750000 0.244900 0.000000
O O17 0.250000 0.188733 0.500000
#
# Coordination Sequence:
#
# PCOD8164683 Si02
#       7
#     8   8   8   8   8   8   8
#     4  10  20  34  53  78 107 143 181 221 270 320
#     4   9  20  35  53  77 108 145 179 215 269 321
#     4  10  20  36  55  76 110 146 178 222 270 317
#     4  10  21  37  58  84 112 143 178 218 267 322
#     4  11  22  35  53  77 105 139 182 229 273 320
#     4  10  18  30  50  77 111 143 176 218 262 318
#     4  10  19  31  51  81 111 143 178 215 270 326
#
# _framework density 19.639116999999999
#
# number of rings (size 3 to 8) (size 9 to 14) (size 15 to 20)
#    0.000    2.000    0.000    4.714    0.000    4.571 
#    0.000    0.000    0.000    6.000    0.000    0.000 
#    0.000    0.000    0.000    0.000    0.000    0.000 
#
# Total GULP energy -346958.386749 kJ/mol
# GULP energy per Si atom -12391.370955 kJ/mol
# Density = 1.959442 g / cm^3
# Si number density = 19.639117 Si / 1000 Ang^3
#
#
#
# Elastic Constant Matrix: (Units=GPa)
#
#
# Indices 1 2 3 4 5 6 
#
# 1 119.1825 36.0414 44.3486 0.0000 -0.0001 -0.0004
# 2 36.0414 73.4933 7.6791 0.0000 0.0000 -0.0003
# 3 44.3486 7.6791 78.3947 -0.0007 0.0004 0.0019
# 4 0.0000 0.0000 -0.0007 20.2407 0.0000 0.0003
# 5 -0.0001 0.0000 0.0004 0.0000 31.2624 -0.0001
# 6 -0.0004 -0.0003 0.0019 0.0003 -0.0001 11.3995
#
#
#
# Elastic Compliance Matrix: (Units=1/GPa)
#
#
# Indices 1 2 3 4 5 6 
#
# 1 0.012456 -0.005428 -0.006515 0.000000 0.000000 0.000001
# 2 -0.005428 0.016113 0.001492 0.000000 0.000000 0.000000
# 3 -0.006515 0.001492 0.016295 0.000001 0.000000 -0.000003
# 4 0.000000 0.000000 0.000001 0.049406 0.000000 -0.000001
# 5 0.000000 0.000000 0.000000 0.000000 0.031987 0.000000
# 6 0.000001 0.000000 -0.000003 -0.000001 0.000000 0.087723
#
#
# Mechanical properties :
#
#
# Convention : Reuss Voigt Hill
#
# Bulk Modulus (GPa) = 41.73067 49.68985 45.71026
# Shear Modulus (GPa) = 20.58729 24.78060 22.68395
#
# Velocity S-wave (km/s) = 3.24123 3.55603 3.40227
# Velocity P-wave (km/s) = 5.94157 6.49745 6.22572
#
# Compressibility (1/GPa) = 0.02396319
#
# Stress axis : x y z
#
# Youngs Moduli (GPa) = 80.28193 62.06335 61.36735
#
# Poissons Ratio (x) = 0.33687 0.39980
# Poissons Ratio (y) = 0.43575 -0.09158
# Poissons Ratio (z) = 0.52302 -0.09261
#
# Static dielectric constant tensor:
#      x y z
#    x 3.418850 0.000000 0.000010 
#    y 0.000000 3.425960 0.000000 
#    z 0.000010 0.000000 8.759960 
# 
# 
# High freq. dielectric constant tensor:
#      x y z
#    x 1.759250 0.000000 0.000000 
#    y 0.000000 1.739220 0.000000 
#    z 0.000000 0.000000 1.770650 
# 
# From -- ./inp_files/13143.got.cif
#   From: 2010.03.12/outbox.cif.g09.slc.cpg/sg24_7_cif.got.tgz:13143.got - 2010.04.14 03:06:53.
