data_PCOD8164488
_publ_section_title
;
Structure prediction by ZEFSAII (Michael W. Deem and Ramdas Pophale) SiO2 
 PCOD8164488
Probable space group: I 2 2 2
;
_chemical_formula_sum "Si O2"
_cell_formula_units_Z 36
_cell_length_a 6.708908
_cell_length_b 24.452233
_cell_length_c 10.243033
_cell_angle_alpha 90.000000
_cell_angle_beta 90.000000
_cell_angle_gamma 90.000000
_cell_volume 1680.346840
_symmetry_space_group_name_H-M "I 2 2 2"
_symmetry_group_IT_number 23
_symmetry_cell_setting 'orthorhombic'
loop_
_space_group_symop_operation_xyz
x,y,z
-x,-y,z
x,-y,-z
-x,y,-z
1/2+x,1/2+y,1/2+z
1/2-x,1/2-y,1/2+z
1/2+x,1/2-y,1/2-z
1/2-x,1/2+y,1/2-z
loop_
_atom_site_type_symbol
_atom_site_label
_atom_site_fract_x
_atom_site_fract_y
_atom_site_fract_z
Si Si1 0.824745 0.825969 0.692704
Si Si2 0.000000 0.086784 0.500000
Si Si3 0.517615 0.868736 0.141021
Si Si4 0.640008 0.283028 0.379114
Si Si5 0.612870 0.056849 0.621371
O O1 0.875668 0.875244 0.597310
O O2 0.700003 0.849986 0.813528
O O3 0.693185 0.781096 0.616569
O O4 0.025109 0.797645 0.745690
O O5 0.155720 0.048676 0.420195
O O6 0.656351 0.816488 0.117508
O O7 0.614384 0.908650 0.246962
O O8 0.500000 0.898936 0.000000
O O9 0.500000 0.297589 0.500000
O O10 0.500000 0.086880 0.500000
O O11 0.500000 0.000000 0.647397
#
# Coordination Sequence:
#
# PCOD8164488 Si02
#       5
#     8   4   8   8   8
#     4  12  26  40  65 102 147 193 233 291 345 429
#     4  12  26  45  74 106 142 182 243 302 360 424
#     4  12  25  45  68 103 146 189 235 294 360 428
#     4  12  26  40  63 101 148 195 237 282 351 425
#     4  11  26  48  74 104 134 180 240 308 364 421
#
# _framework density 21.424147999999999
#
# number of rings (size 3 to 8) (size 9 to 14) (size 15 to 20)
#    0.000    0.222    8.889    0.000    7.778    2.222 
#    0.000    0.000    0.000    0.000    0.000    0.000 
#    0.000    0.000    0.000    0.000    0.000    0.000 
#
# Total GULP energy -223213.625039 kJ/mol
# GULP energy per Si atom -12400.756947 kJ/mol
# Density = 2.137539 g / cm^3
# Si number density = 21.424148 Si / 1000 Ang^3
#
#
#
# Elastic Constant Matrix: (Units=GPa)
#
#
# Indices 1 2 3 4 5 6 
#
# 1 117.7024 34.7179 40.0488 0.0000 0.0000 0.0000
# 2 34.7179 84.0496 36.0301 0.0001 0.0000 0.0000
# 3 40.0488 36.0301 136.1675 -0.0003 0.0002 -0.0001
# 4 0.0000 0.0001 -0.0003 25.2747 0.0000 0.0000
# 5 0.0000 0.0000 0.0002 0.0000 46.2435 0.0000
# 6 0.0000 0.0000 -0.0001 0.0000 0.0000 37.5010
#
#
#
# Elastic Compliance Matrix: (Units=1/GPa)
#
#
# Indices 1 2 3 4 5 6 
#
# 1 0.010192 -0.003299 -0.002125 0.000000 0.000000 0.000000
# 2 -0.003299 0.014488 -0.002863 0.000000 0.000000 0.000000
# 3 -0.002125 -0.002863 0.008726 0.000000 0.000000 0.000000
# 4 0.000000 0.000000 0.000000 0.039565 0.000000 0.000000
# 5 0.000000 0.000000 0.000000 0.000000 0.021625 0.000000
# 6 0.000000 0.000000 0.000000 0.000000 0.000000 0.026666
#
#
# Mechanical properties :
#
#
# Convention : Reuss Voigt Hill
#
# Bulk Modulus (GPa) = 59.40960 62.16813 60.78886
# Shear Modulus (GPa) = 34.85608 36.94536 35.90072
#
# Velocity S-wave (km/s) = 4.03793 4.15718 4.09799
# Velocity P-wave (km/s) = 7.03777 7.21967 7.12930
#
# Compressibility (1/GPa) = 0.01683230
#
# Stress axis : x y z
#
# Youngs Moduli (GPa) = 98.11546 69.02310 114.59489
#
# Poissons Ratio (x) = 0.22772 0.24348
# Poissons Ratio (y) = 0.32370 0.32811
# Poissons Ratio (z) = 0.20846 0.19763
#
# Static dielectric constant tensor:
#      x y z
#    x 4.187090 0.000000 0.000000 
#    y 0.000000 3.537690 0.000000 
#    z 0.000000 0.000000 4.158650 
# 
# 
# High freq. dielectric constant tensor:
#      x y z
#    x 1.863500 0.000000 0.000000 
#    y 0.000000 1.818660 0.000000 
#    z 0.000000 0.000000 1.846210 
# 
# From -- ./inp_files/4301.got.cif
#   From: 2010.03.12/outbox.cif.g09.slc.cpg/sg23_3_cif.got.tgz:4301.got - 2010.04.14 02:50:06.
