data_PCOD8164709
_publ_section_title
;
Structure prediction by ZEFSAII (Michael W. Deem and Ramdas Pophale) SiO2 
 PCOD8164709
Probable space group: I 21 21 21
;
_chemical_formula_sum "Si O2"
_cell_formula_units_Z 56
_cell_length_a 24.525400
_cell_length_b 4.975011
_cell_length_c 23.912261
_cell_angle_alpha 90.000000
_cell_angle_beta 90.000000
_cell_angle_gamma 90.000000
_cell_volume 2917.633837
_symmetry_space_group_name_H-M "I 21 21 21"
_symmetry_group_IT_number 24
_symmetry_cell_setting 'orthorhombic'
loop_
_space_group_symop_operation_xyz
x,y,z
-x,1/2-y,z
x,-y,1/2-z
1/2-x,y,-z
1/2+x,1/2+y,1/2+z
1/2-x,-y,1/2+z
1/2+x,1/2-y,-z
-x,1/2+y,1/2-z
loop_
_atom_site_type_symbol
_atom_site_label
_atom_site_fract_x
_atom_site_fract_y
_atom_site_fract_z
Si Si1 0.702923 0.414294 0.121894
Si Si2 0.265859 0.405081 0.311183
Si Si3 0.381095 0.901925 0.469459
Si Si4 0.446419 0.402186 0.501209
Si Si5 0.035396 0.492271 0.368011
Si Si6 0.313749 0.967266 0.572490
Si Si7 0.655394 0.962703 0.861395
O O1 0.705429 0.621613 0.174016
O O2 0.643760 0.416460 0.092681
O O3 0.748112 0.497533 0.075222
O O4 0.712964 0.114723 0.143141
O O5 0.283633 0.500000 0.250000
O O6 0.199904 0.372880 0.314826
O O7 0.430506 0.684194 0.470998
O O8 0.333379 0.835594 0.514204
O O9 0.398485 0.196353 0.488848
O O10 0.500000 0.250000 0.477066
O O11 0.454208 0.475762 0.565753
O O12 0.093885 0.476161 0.336985
O O13 0.000000 0.250000 0.344987
O O14 0.000000 0.750000 0.352635
O O15 0.331545 0.765287 0.621149
O O16 0.341481 0.255018 0.586346
#
# Coordination Sequence:
#
# PCOD8164709 Si02
#       7
#     8   8   8   8   8   8   8
#     4  10  22  33  55  81 102 137 177 210 273 327
#     4  10  21  39  57  75 104 133 174 228 274 328
#     4  12  19  34  51  74 114 142 172 217 253 309
#     4  11  22  32  48  73 108 154 184 205 249 300
#     4  11  19  30  47  69 101 138 186 221 243 292
#     4  10  18  32  47  75 108 139 172 211 250 320
#     4  10  19  32  50  74  99 140 184 213 265 313
#
# _framework density 19.193633999999999
#
# number of rings (size 3 to 8) (size 9 to 14) (size 15 to 20)
#    0.000    1.429    2.857    4.714    0.000    0.000 
#    0.000    5.714    0.000    0.857    0.000    0.000 
#    0.000   32.000    0.000    0.000    0.000    0.000 
#
# Total GULP energy -347080.532292 kJ/mol
# GULP energy per Si atom -12395.733296 kJ/mol
# Density = 1.914995 g / cm^3
# Si number density = 19.193634 Si / 1000 Ang^3
#
#
#
# Elastic Constant Matrix: (Units=GPa)
#
#
# Indices 1 2 3 4 5 6 
#
# 1 35.8870 5.2185 11.8535 0.0000 0.0000 0.0000
# 2 5.2185 95.7118 -2.7807 0.0000 0.0000 0.0000
# 3 11.8535 -2.7807 41.4172 0.0000 0.0000 0.0000
# 4 0.0000 0.0000 0.0000 20.6523 0.0000 0.0000
# 5 0.0000 0.0000 0.0000 0.0000 14.9292 0.0000
# 6 0.0000 0.0000 0.0000 0.0000 0.0000 27.4989
#
#
#
# Elastic Compliance Matrix: (Units=1/GPa)
#
#
# Indices 1 2 3 4 5 6 
#
# 1 0.031137 -0.001960 -0.009043 0.000000 0.000000 0.000000
# 2 -0.001960 0.010592 0.001272 0.000000 0.000000 0.000000
# 3 -0.009043 0.001272 0.026818 0.000000 0.000000 0.000000
# 4 0.000000 0.000000 0.000000 0.048421 0.000000 0.000000
# 5 0.000000 0.000000 0.000000 0.000000 0.066983 0.000000
# 6 0.000000 0.000000 0.000000 0.000000 0.000000 0.036365
#
#
# Mechanical properties :
#
#
# Convention : Reuss Voigt Hill
#
# Bulk Modulus (GPa) = 20.37296 22.39984 21.38640
# Shear Modulus (GPa) = 19.52059 23.19773 21.35916
#
# Velocity S-wave (km/s) = 3.19256 3.48029 3.33952
# Velocity P-wave (km/s) = 4.92213 5.27690 5.10260
#
# Compressibility (1/GPa) = 0.04908468
#
# Stress axis : x y z
#
# Youngs Moduli (GPa) = 32.11594 94.41190 37.28836
#
# Poissons Ratio (x) = 0.18509 0.33720
# Poissons Ratio (y) = 0.06296 -0.04744
# Poissons Ratio (z) = 0.29042 -0.12011
#
# Static dielectric constant tensor:
#      x y z
#    x 3.613730 0.000000 0.000000 
#    y 0.000000 3.647600 0.000000 
#    z 0.000000 0.000000 2.922350 
# 
# 
# High freq. dielectric constant tensor:
#      x y z
#    x 1.738320 0.000000 0.000000 
#    y 0.000000 1.769780 0.000000 
#    z 0.000000 0.000000 1.683420 
# 
# From -- ./inp_files/34263.got.cif
#   From: 2010.03.12/outbox.cif.g09.slc.cpg/sg24_18_cif.got.tgz:34263.got - 2010.04.14 03:06:53.
