data_PCOD8164201
_publ_section_title
;
Structure prediction by ZEFSAII (Michael W. Deem and Ramdas Pophale) SiO2 
 PCOD8164201
Probable space group: I 2 2 2
;
_chemical_formula_sum "Si O2"
_cell_formula_units_Z 58
_cell_length_a 8.666758
_cell_length_b 11.385828
_cell_length_c 27.662306
_cell_angle_alpha 90.000000
_cell_angle_beta 90.000000
_cell_angle_gamma 90.000000
_cell_volume 2729.667004
_symmetry_space_group_name_H-M "I 2 2 2"
_symmetry_group_IT_number 23
_symmetry_cell_setting 'orthorhombic'
loop_
_space_group_symop_operation_xyz
x,y,z
-x,-y,z
x,-y,-z
-x,y,-z
1/2+x,1/2+y,1/2+z
1/2-x,1/2-y,1/2+z
1/2+x,1/2-y,1/2-z
1/2-x,1/2+y,1/2-z
loop_
_atom_site_type_symbol
_atom_site_label
_atom_site_fract_x
_atom_site_fract_y
_atom_site_fract_z
Si Si1 0.542856 0.624443 0.773603
Si Si2 0.688326 0.323649 0.128956
Si Si3 0.832202 0.117451 0.522273
Si Si4 0.193245 0.204875 0.042851
Si Si5 0.500000 0.500000 0.500000
Si Si6 0.969983 0.361226 0.878824
Si Si7 0.559396 0.130085 0.884416
Si Si8 0.251470 0.743683 0.306051
O O1 0.500000 0.500000 0.751054
O O2 0.628566 0.603761 0.824888
O O3 0.648366 0.688399 0.735492
O O4 0.387654 0.695824 0.779084
O O5 0.660586 0.398349 0.080069
O O6 0.594706 0.203052 0.126093
O O7 0.869661 0.298020 0.135283
O O8 0.728909 0.230814 0.508156
O O9 0.000000 0.133293 0.500000
O O10 0.755914 0.000000 0.500000
O O11 0.093734 0.297497 0.073558
O O12 0.357380 0.175019 0.067168
O O13 0.103689 0.083153 0.034058
O O14 0.848887 0.341136 0.835524
O O15 0.000000 0.500000 0.887511
O O16 0.684375 0.142492 0.841324
O O17 0.500000 0.000000 0.890873
#
# Coordination Sequence:
#
# PCOD8164201 Si02
#       8
#     8   8   8   8   2   8   8   8
#     4  11  24  42  69  95 136 173 220 279 343 404
#     4  11  23  41  66  99 129 180 225 272 340 396
#     4  11  23  39  68  98 134 172 227 279 331 392
#     4  11  25  43  61 102 133 180 233 274 338 401
#     4  12  28  40  64  92 144 184 226 290 328 412
#     4  11  23  43  71  99 140 175 224 284 341 400
#     4  10  24  43  66  91 133 176 228 282 334 407
#     4  10  24  43  63 103 128 170 230 273 337 419
#
# _framework density 21.248011999999999
#
# number of rings (size 3 to 8) (size 9 to 14) (size 15 to 20)
#    0.000    1.241    1.379    3.310    5.793    3.310 
#    2.483    2.759    0.000    0.000    0.000    0.000 
#    0.000    0.000    0.000    0.000    0.000    0.000 
#
# Total GULP energy -359624.528545 kJ/mol
# GULP energy per Si atom -12400.845812 kJ/mol
# Density = 2.119965 g / cm^3
# Si number density = 21.248012 Si / 1000 Ang^3
#
#
#
# Elastic Constant Matrix: (Units=GPa)
#
#
# Indices 1 2 3 4 5 6 
#
# 1 129.0964 46.1230 43.4607 0.0000 0.0000 0.0000
# 2 46.1230 130.5513 52.4113 0.0000 0.0000 0.0000
# 3 43.4607 52.4113 118.9767 0.0000 0.0000 0.0000
# 4 0.0000 0.0000 0.0000 23.0785 0.0000 0.0000
# 5 0.0000 0.0000 0.0000 0.0000 30.9491 0.0000
# 6 0.0000 0.0000 0.0000 0.0000 0.0000 30.6170
#
#
#
# Elastic Compliance Matrix: (Units=1/GPa)
#
#
# Indices 1 2 3 4 5 6 
#
# 1 0.009394 -0.002358 -0.002393 0.000000 0.000000 0.000000
# 2 -0.002358 0.009898 -0.003499 0.000000 0.000000 0.000000
# 3 -0.002393 -0.003499 0.010820 0.000000 0.000000 0.000000
# 4 0.000000 0.000000 0.000000 0.043330 0.000000 0.000000
# 5 0.000000 0.000000 0.000000 0.000000 0.032311 0.000000
# 6 0.000000 0.000000 0.000000 0.000000 0.000000 0.032662
#
#
# Mechanical properties :
#
#
# Convention : Reuss Voigt Hill
#
# Bulk Modulus (GPa) = 73.46049 73.62382 73.54216
# Shear Modulus (GPa) = 31.35740 32.70420 32.03080
#
# Velocity S-wave (km/s) = 3.84576 3.92748 3.88683
# Velocity P-wave (km/s) = 7.37345 7.43584 7.40471
#
# Compressibility (1/GPa) = 0.01361276
#
# Stress axis : x y z
#
# Youngs Moduli (GPa) = 106.44817 101.03503 92.41962
#
# Poissons Ratio (x) = 0.23828 0.22113
# Poissons Ratio (y) = 0.25104 0.32334
# Poissons Ratio (z) = 0.25470 0.35348
#
# Static dielectric constant tensor:
#      x y z
#    x 4.100010 0.000000 0.000000 
#    y 0.000000 3.721080 0.000000 
#    z 0.000000 0.000000 3.872900 
# 
# 
# High freq. dielectric constant tensor:
#      x y z
#    x 1.853810 0.000000 0.000000 
#    y 0.000000 1.826660 0.000000 
#    z 0.000000 0.000000 1.835680 
# 
# From -- ./inp_files/18630.got.cif
#   From: 2010.03.12/outbox.cif.g09.slc.cpg/sg23_10_cif.got.tgz:18630.got - 2010.04.14 02:50:06.
