data_PCOD8164481
_publ_section_title
;
Structure prediction by ZEFSAII (Michael W. Deem and Ramdas Pophale) SiO2 
 PCOD8164481
Probable space group: I 2 2 2
;
_chemical_formula_sum "Si O2"
_cell_formula_units_Z 40
_cell_length_a 8.065852
_cell_length_b 8.207155
_cell_length_c 24.307186
_cell_angle_alpha 90.000000
_cell_angle_beta 90.000000
_cell_angle_gamma 90.000000
_cell_volume 1609.079748
_symmetry_space_group_name_H-M "I 2 2 2"
_symmetry_group_IT_number 23
_symmetry_cell_setting 'orthorhombic'
loop_
_space_group_symop_operation_xyz
x,y,z
-x,-y,z
x,-y,-z
-x,y,-z
1/2+x,1/2+y,1/2+z
1/2-x,1/2-y,1/2+z
1/2+x,1/2-y,1/2-z
1/2-x,1/2+y,1/2-z
loop_
_atom_site_type_symbol
_atom_site_label
_atom_site_fract_x
_atom_site_fract_y
_atom_site_fract_z
Si Si1 0.173312 0.701765 0.625874
Si Si2 0.194564 0.183426 0.491291
Si Si3 0.833856 0.894837 0.087580
Si Si4 0.328499 0.085444 0.287457
Si Si5 0.174936 0.228727 0.676318
O O1 0.242162 0.789319 0.571581
O O2 0.185788 0.510200 0.611633
O O3 0.294199 0.754699 0.675765
O O4 0.988497 0.758996 0.639112
O O5 0.292960 0.314047 0.528749
O O6 0.000000 0.208334 0.500000
O O7 0.254696 0.000000 0.500000
O O8 0.833394 0.756190 0.135260
O O9 0.000000 0.000000 0.083336
O O10 0.327376 0.136306 0.223954
O O11 0.500000 0.000000 0.302127
O O12 0.185011 0.951904 0.298140
#
# Coordination Sequence:
#
# PCOD8164481 Si02
#       5
#     8   8   8   8   8
#     4  12  26  45  76 108 148 201 253 308 384 462
#     4  11  25  47  78 113 148 199 254 311 378 459
#     4  12  26  47  77 115 151 197 251 319 382 446
#     4  12  26  45  70 109 152 199 258 327 384 453
#     4  12  25  46  74 105 149 202 257 313 390 463
#
# _framework density 24.858929
#
# number of rings (size 3 to 8) (size 9 to 14) (size 15 to 20)
#    0.000    0.200    2.000    7.800    2.800    4.000 
#    0.000    1.000    0.000    0.000    0.000    0.000 
#    0.000    0.000    0.000    0.000    0.000    0.000 
#
# Total GULP energy -247989.172730 kJ/mol
# GULP energy per Si atom -12399.458636 kJ/mol
# Density = 2.480235 g / cm^3
# Si number density = 24.858929 Si / 1000 Ang^3
#
#
#
# Elastic Constant Matrix: (Units=GPa)
#
#
# Indices 1 2 3 4 5 6 
#
# 1 80.7295 28.2417 39.3789 0.0000 0.0000 0.0000
# 2 28.2417 123.4552 55.1776 0.0000 0.0000 0.0000
# 3 39.3789 55.1776 177.6522 0.0000 0.0000 0.0000
# 4 0.0000 0.0000 0.0000 47.5352 0.0000 0.0000
# 5 0.0000 0.0000 0.0000 0.0000 32.0766 0.0000
# 6 0.0000 0.0000 0.0000 0.0000 0.0000 41.0036
#
#
#
# Elastic Compliance Matrix: (Units=1/GPa)
#
#
# Indices 1 2 3 4 5 6 
#
# 1 0.014370 -0.002164 -0.002513 0.000000 0.000000 0.000000
# 2 -0.002164 0.009732 -0.002543 0.000000 0.000000 0.000000
# 3 -0.002513 -0.002543 0.006976 0.000000 0.000000 0.000000
# 4 0.000000 0.000000 0.000000 0.021037 0.000000 0.000000
# 5 0.000000 0.000000 0.000000 0.000000 0.031175 0.000000
# 6 0.000000 0.000000 0.000000 0.000000 0.000000 0.024388
#
#
# Mechanical properties :
#
#
# Convention : Reuss Voigt Hill
#
# Bulk Modulus (GPa) = 60.10584 69.71480 64.91032
# Shear Modulus (GPa) = 39.16529 41.39233 40.27881
#
# Velocity S-wave (km/s) = 3.97357 4.08498 4.02966
# Velocity P-wave (km/s) = 6.72931 7.09609 6.91513
#
# Compressibility (1/GPa) = 0.01663732
#
# Stress axis : x y z
#
# Youngs Moduli (GPa) = 69.58951 102.75704 143.35146
#
# Poissons Ratio (x) = 0.22237 0.36026
# Poissons Ratio (y) = 0.15059 0.36453
# Poissons Ratio (z) = 0.17489 0.26130
#
# Static dielectric constant tensor:
#      x y z
#    x 4.234920 0.000000 0.000000 
#    y 0.000000 4.974250 0.000000 
#    z 0.000000 0.000000 4.712490 
# 
# 
# High freq. dielectric constant tensor:
#      x y z
#    x 1.977660 0.000000 0.000000 
#    y 0.000000 2.006230 0.000000 
#    z 0.000000 0.000000 2.010250 
# 
# From -- ./inp_files/27873.got.cif
#   From: 2010.03.12/outbox.cif.g09.slc.cpg/sg23_14_cif.got.tgz:27873.got - 2010.04.14 02:50:06.
