data_PCOD8164462
_publ_section_title
;
Structure prediction by ZEFSAII (Michael W. Deem and Ramdas Pophale) SiO2 
 PCOD8164462
Probable space group: I 2 2 2
;
_chemical_formula_sum "Si O2"
_cell_formula_units_Z 52
_cell_length_a 14.229319
_cell_length_b 8.976428
_cell_length_c 19.619750
_cell_angle_alpha 90.000000
_cell_angle_beta 90.000000
_cell_angle_gamma 90.000000
_cell_volume 2506.000404
_symmetry_space_group_name_H-M "I 2 2 2"
_symmetry_group_IT_number 23
_symmetry_cell_setting 'orthorhombic'
loop_
_space_group_symop_operation_xyz
x,y,z
-x,-y,z
x,-y,-z
-x,y,-z
1/2+x,1/2+y,1/2+z
1/2-x,1/2-y,1/2+z
1/2+x,1/2-y,1/2-z
1/2-x,1/2+y,1/2-z
loop_
_atom_site_type_symbol
_atom_site_label
_atom_site_fract_x
_atom_site_fract_y
_atom_site_fract_z
Si Si1 0.786828 0.931078 0.433597
Si Si2 0.627030 0.865896 0.619904
Si Si3 0.096112 0.088142 0.303237
Si Si4 0.715201 0.561406 0.673878
Si Si5 0.404414 0.932769 0.226181
Si Si6 0.690357 0.374071 0.549190
Si Si7 0.000000 0.259261 0.000000
O O1 0.860560 0.958210 0.374530
O O2 0.762328 0.761635 0.451020
O O3 0.835716 0.000000 0.500000
O O4 0.690000 0.015042 0.418672
O O5 0.688667 0.716977 0.636603
O O6 0.595481 0.935325 0.691593
O O7 0.538311 0.846325 0.567798
O O8 0.161920 0.030815 0.243489
O O9 0.094372 0.265550 0.301187
O O10 0.000000 0.000000 0.293830
O O11 0.824691 0.538349 0.692670
O O12 0.681158 0.428894 0.626072
O O13 0.500000 0.000000 0.198618
O O14 0.734863 0.500000 0.500000
O O15 0.586102 0.340221 0.524006
#
# Coordination Sequence:
#
# PCOD8164462 Si02
#       7
#     8   8   8   8   8   8   4
#     4  12  24  45  69  95 136 186 225 289 354 416
#     4  11  26  41  67 109 145 186 228 295 354 434
#     4  11  27  43  69 101 137 182 237 292 349 418
#     4  11  24  46  69 100 145 184 232 287 360 421
#     4  11  26  44  72 104 136 188 238 291 353 428
#     4  12  25  42  68 102 142 180 227 287 354 433
#     4  12  25  41  68 108 144 180 236 288 372 432
#
# _framework density 20.750195000000001
#
# number of rings (size 3 to 8) (size 9 to 14) (size 15 to 20)
#    0.000    0.615    6.154    0.231    8.615    0.923 
#    0.000    0.000    0.000    0.462    0.000    0.000 
#    0.000    0.000    0.000    0.000    0.000    0.000 
#
# Total GULP energy -322300.558714 kJ/mol
# GULP energy per Si atom -12396.175335 kJ/mol
# Density = 2.070297 g / cm^3
# Si number density = 20.750195 Si / 1000 Ang^3
#
#
#
# Elastic Constant Matrix: (Units=GPa)
#
#
# Indices 1 2 3 4 5 6 
#
# 1 92.5996 15.3786 24.5616 0.0000 0.0000 0.0000
# 2 15.3786 74.8152 30.0755 0.0000 0.0000 0.0000
# 3 24.5616 30.0755 122.6787 0.0000 0.0000 0.0000
# 4 0.0000 0.0000 0.0000 -12.1909 0.0000 0.0000
# 5 0.0000 0.0000 0.0000 0.0000 -6.1928 0.0000
# 6 0.0000 0.0000 0.0000 0.0000 0.0000 19.0362
#
#
#
# Elastic Compliance Matrix: (Units=1/GPa)
#
#
# Indices 1 2 3 4 5 6 
#
# 1 0.011576 -0.001606 -0.001924 0.000000 0.000000 0.000000
# 2 -0.001606 0.015050 -0.003368 0.000000 0.000000 0.000000
# 3 -0.001924 -0.003368 0.009362 0.000000 0.000000 0.000000
# 4 0.000000 0.000000 0.000000 -0.082028 0.000000 0.000000
# 5 0.000000 0.000000 0.000000 0.000000 -0.161477 0.000000
# 6 0.000000 0.000000 0.000000 0.000000 0.000000 0.052531
#
#
# Mechanical properties :
#
#
# Convention : Reuss Voigt Hill
#
# Bulk Modulus (GPa) = 45.06026 47.79168 46.42597
# Shear Modulus (GPa) = -37.37183 14.80234 -11.28475
#
# Velocity S-wave (km/s) = -4.24846 2.67378 -2.33456
# Velocity P-wave (km/s) = 1.51763 5.71087 3.89299
#
# Compressibility (1/GPa) = 0.02219251
#
# Stress axis : x y z
#
# Youngs Moduli (GPa) = 86.38385 66.44343 106.81146
#
# Poissons Ratio (x) = 0.10672 0.20550
# Poissons Ratio (y) = 0.13874 0.35976
# Poissons Ratio (z) = 0.16620 0.22379
#
# Static dielectric constant tensor:
#      x y z
#    x 3.705640 0.000000 0.000000 
#    y 0.000000 4.333970 0.000000 
#    z 0.000000 0.000000 3.971760 
# 
# 
# High freq. dielectric constant tensor:
#      x y z
#    x 1.797000 0.000000 0.000000 
#    y 0.000000 1.823520 0.000000 
#    z 0.000000 0.000000 1.834660 
# 
# From -- ./inp_files/26954.got.cif
#   From: 2010.03.12/outbox.cif.g09.slc.cpg/sg23_14_cif.got.tgz:26954.got - 2010.04.14 02:50:06.
