data_PCOD8164135
_publ_section_title
;
Structure prediction by ZEFSAII (Michael W. Deem and Ramdas Pophale) SiO2 
 PCOD8164135
Probable space group: I 2 2 2
;
_chemical_formula_sum "Si O2"
_cell_formula_units_Z 26
_cell_length_a 26.248202
_cell_length_b 8.866076
_cell_length_c 5.099234
_cell_angle_alpha 90.000000
_cell_angle_beta 90.000000
_cell_angle_gamma 90.000000
_cell_volume 1186.686362
_symmetry_space_group_name_H-M "I 2 2 2"
_symmetry_group_IT_number 23
_symmetry_cell_setting 'orthorhombic'
loop_
_space_group_symop_operation_xyz
x,y,z
-x,-y,z
x,-y,-z
-x,y,-z
1/2+x,1/2+y,1/2+z
1/2-x,1/2-y,1/2+z
1/2+x,1/2-y,1/2-z
1/2-x,1/2+y,1/2-z
loop_
_atom_site_type_symbol
_atom_site_label
_atom_site_fract_x
_atom_site_fract_y
_atom_site_fract_z
Si Si1 0.500000 0.500000 0.000000
Si Si2 0.097000 0.093513 0.260191
Si Si3 0.830571 0.331770 0.935817
Si Si4 0.777873 0.103069 0.251190
O O1 0.536151 0.391798 0.179167
O O2 0.123451 0.255660 0.227399
O O3 0.122909 0.000000 0.500000
O O4 0.106748 0.000000 0.000000
O O5 0.779369 0.330792 0.759164
O O6 0.848853 0.500000 0.000000
O O7 0.816803 0.243750 0.207850
O O8 0.790737 0.000000 0.500000
O O9 0.785391 0.000000 0.000000
#
# Coordination Sequence:
#
# PCOD8164135 Si02
#       4
#     2   8   8   8
#     4   8  22  48  74  98 126 168 252 276 342 410
#     4  10  23  42  73  99 127 174 233 279 340 411
#     4  11  24  41  66 106 143 181 225 283 336 392
#     4  11  25  43  63  93 150 198 227 259 321 418
#
# _framework density 21.909748
#
# number of rings (size 3 to 8) (size 9 to 14) (size 15 to 20)
#    0.923    0.615    0.000    5.077    0.000   16.000 
#    0.000    0.000    0.000    5.538    0.000    0.000 
#    0.000    0.000    0.000    0.000    0.000    0.000 
#
# Total GULP energy -161092.900057 kJ/mol
# GULP energy per Si atom -12391.761543 kJ/mol
# Density = 2.185988 g / cm^3
# Si number density = 21.909748 Si / 1000 Ang^3
#
#
#
# Elastic Constant Matrix: (Units=GPa)
#
#
# Indices 1 2 3 4 5 6 
#
# 1 159.9795 85.7159 33.5403 0.0000 0.0000 -0.0001
# 2 85.7159 188.2151 78.7417 0.0021 -0.0002 0.0002
# 3 33.5403 78.7417 159.4467 0.0037 -0.0001 -0.0005
# 4 0.0000 0.0021 0.0037 20.4592 -0.0002 0.0000
# 5 0.0000 -0.0002 -0.0001 -0.0002 2.9684 0.0001
# 6 -0.0001 0.0002 -0.0005 0.0000 0.0001 0.4828
#
#
#
# Elastic Compliance Matrix: (Units=1/GPa)
#
#
# Indices 1 2 3 4 5 6 
#
# 1 0.008271 -0.003830 0.000152 0.000000 0.000000 0.000003
# 2 -0.003830 0.008470 -0.003377 0.000000 0.000001 -0.000008
# 3 0.000152 -0.003377 0.007908 -0.000001 0.000000 0.000010
# 4 0.000000 0.000000 -0.000001 0.048878 0.000003 -0.000002
# 5 0.000000 0.000001 0.000000 0.000003 0.336877 -0.000083
# 6 0.000003 -0.000008 0.000010 -0.000002 -0.000083 2.071056
#
#
# Mechanical properties :
#
#
# Convention : Reuss Voigt Hill
#
# Bulk Modulus (GPa) = 94.90016 100.40411 97.65214
# Shear Modulus (GPa) = 2.00073 25.42499 13.71286
#
# Velocity S-wave (km/s) = 0.95664 3.41022 2.50447
# Velocity P-wave (km/s) = 6.68045 7.83785 7.28218
#
# Compressibility (1/GPa) = 0.01053739
#
# Stress axis : x y z
#
# Youngs Moduli (GPa) = 120.90071 118.05846 126.45982
#
# Poissons Ratio (x) = 0.45220 -0.01918
# Poissons Ratio (y) = 0.46309 0.42710
# Poissons Ratio (z) = -0.01834 0.39872
#
# Static dielectric constant tensor:
#      x y z
#    x 4.027640 0.000000 0.000000 
#    y 0.000000 4.054760 0.000000 
#    z 0.000000 0.000000 4.708680 
# 
# 
# High freq. dielectric constant tensor:
#      x y z
#    x 1.849520 0.000000 0.000000 
#    y 0.000000 1.849690 0.000000 
#    z 0.000000 0.000000 1.873880 
# 
# From -- ./inp_files/4692.got.cif
#   From: 2010.03.12/outbox.cif.g09.slc.cpg/sg23_3_cif.got.tgz:4692.got - 2010.04.14 02:50:06.
