data_PCOD8164512
_publ_section_title
;
Structure prediction by ZEFSAII (Michael W. Deem and Ramdas Pophale) SiO2 
 PCOD8164512
Probable space group: I 2 2 2
;
_chemical_formula_sum "Si O2"
_cell_formula_units_Z 32
_cell_length_a 21.690143
_cell_length_b 13.056223
_cell_length_c 4.931004
_cell_angle_alpha 90.000000
_cell_angle_beta 90.000000
_cell_angle_gamma 90.000000
_cell_volume 1396.417650
_symmetry_space_group_name_H-M "I 2 2 2"
_symmetry_group_IT_number 23
_symmetry_cell_setting 'orthorhombic'
loop_
_space_group_symop_operation_xyz
x,y,z
-x,-y,z
x,-y,-z
-x,y,-z
1/2+x,1/2+y,1/2+z
1/2-x,1/2-y,1/2+z
1/2+x,1/2-y,1/2-z
1/2-x,1/2+y,1/2-z
loop_
_atom_site_type_symbol
_atom_site_label
_atom_site_fract_x
_atom_site_fract_y
_atom_site_fract_z
Si Si1 0.854935 0.068617 0.760457
Si Si2 0.396863 0.116237 0.078416
Si Si3 0.761066 0.683989 0.606023
Si Si4 0.564904 0.235529 0.395272
O O1 0.782034 0.093497 0.775608
O O2 0.890375 0.174763 0.794253
O O3 0.870246 0.000000 0.500000
O O4 0.879114 0.000000 0.000000
O O5 0.325829 0.139517 0.007159
O O6 0.407916 0.154299 0.386089
O O7 0.444426 0.174004 0.881648
O O8 0.410077 0.000000 0.000000
O O9 0.728109 0.731588 0.340445
O O10 0.500000 0.280708 0.500000
#
# Coordination Sequence:
#
# PCOD8164512 Si02
#       4
#     8   8   8   8
#     4  12  25  44  73 104 140 187 239 296 366 433
#     4  12  25  45  73 106 141 189 237 294 369 438
#     4  12  22  43  72 103 146 182 225 300 371 431
#     4  12  27  48  70 101 146 190 244 302 351 424
#
# _framework density 22.915779000000001
#
# number of rings (size 3 to 8) (size 9 to 14) (size 15 to 20)
#    0.000    0.000    5.000    5.250    0.000    5.500 
#    0.000    1.250    0.000    0.000    0.000    0.000 
#    0.000    0.000    0.000    0.000    0.000    0.000 
#
# Total GULP energy -198320.552964 kJ/mol
# GULP energy per Si atom -12395.034560 kJ/mol
# Density = 2.286362 g / cm^3
# Si number density = 22.915779 Si / 1000 Ang^3
#
#
#
# Elastic Constant Matrix: (Units=GPa)
#
#
# Indices 1 2 3 4 5 6 
#
# 1 83.2744 14.6566 15.7525 0.0000 0.0000 0.0000
# 2 14.6566 126.7680 54.9301 0.0000 0.0000 0.0000
# 3 15.7525 54.9301 144.5467 0.0000 0.0000 0.0000
# 4 0.0000 0.0000 0.0000 52.0912 0.0000 0.0000
# 5 0.0000 0.0000 0.0000 0.0000 33.6945 0.0000
# 6 0.0000 0.0000 0.0000 0.0000 0.0000 13.2087
#
#
#
# Elastic Compliance Matrix: (Units=1/GPa)
#
#
# Indices 1 2 3 4 5 6 
#
# 1 0.012369 -0.001013 -0.000963 0.000000 0.000000 0.000000
# 2 -0.001013 0.009526 -0.003510 0.000000 0.000000 0.000000
# 3 -0.000963 -0.003510 0.008357 0.000000 0.000000 0.000000
# 4 0.000000 0.000000 0.000000 0.019197 0.000000 0.000000
# 5 0.000000 0.000000 0.000000 0.000000 0.029678 0.000000
# 6 0.000000 0.000000 0.000000 0.000000 0.000000 0.075708
#
#
# Mechanical properties :
#
#
# Convention : Reuss Voigt Hill
#
# Bulk Modulus (GPa) = 51.86473 58.36304 55.11389
# Shear Modulus (GPa) = 29.03035 37.74889 33.38962
#
# Velocity S-wave (km/s) = 3.56311 4.06308 3.82128
# Velocity P-wave (km/s) = 6.29362 6.89459 6.60094
#
# Compressibility (1/GPa) = 0.01928092
#
# Stress axis : x y z
#
# Youngs Moduli (GPa) = 80.84785 104.97189 119.66136
#
# Poissons Ratio (x) = 0.10631 0.11524
# Poissons Ratio (y) = 0.08188 0.41999
# Poissons Ratio (z) = 0.07786 0.36843
#
# Static dielectric constant tensor:
#      x y z
#    x 3.986150 0.000000 0.000000 
#    y 0.000000 4.200620 0.000000 
#    z 0.000000 0.000000 4.331170 
# 
# 
# High freq. dielectric constant tensor:
#      x y z
#    x 1.902800 0.000000 0.000000 
#    y 0.000000 1.908120 0.000000 
#    z 0.000000 0.000000 1.923630 
# 
# From -- ./inp_files/1357.got.cif
#   From: 2010.03.12/outbox.cif.g09.slc.cpg/sg23_1_cif.got.tgz:1357.got - 2010.04.14 02:50:06.
