data_PCOD8164597
_publ_section_title
;
Structure prediction by ZEFSAII (Michael W. Deem and Ramdas Pophale) SiO2 
 PCOD8164597
Probable space group: I 21 21 21
;
_chemical_formula_sum "Si O2"
_cell_formula_units_Z 48
_cell_length_a 7.972085
_cell_length_b 17.697503
_cell_length_c 16.537104
_cell_angle_alpha 90.000000
_cell_angle_beta 90.000000
_cell_angle_gamma 90.000000
_cell_volume 2333.153825
_symmetry_space_group_name_H-M "I 21 21 21"
_symmetry_group_IT_number 24
_symmetry_cell_setting 'orthorhombic'
loop_
_space_group_symop_operation_xyz
x,y,z
-x,1/2-y,z
x,-y,1/2-z
1/2-x,y,-z
1/2+x,1/2+y,1/2+z
1/2-x,-y,1/2+z
1/2+x,1/2-y,-z
-x,1/2+y,1/2-z
loop_
_atom_site_type_symbol
_atom_site_label
_atom_site_fract_x
_atom_site_fract_y
_atom_site_fract_z
Si Si1 0.135619 0.687397 0.073954
Si Si2 0.848165 0.520112 0.840869
Si Si3 0.850520 0.000000 0.250000
Si Si4 0.938371 0.830205 0.816004
Si Si5 0.006097 0.032190 0.415760
Si Si6 0.893006 0.893122 0.658087
Si Si7 0.750000 0.079591 0.000000
O O1 0.249691 0.662360 0.150095
O O2 0.000000 0.750000 0.100479
O O3 0.034431 0.613230 0.044700
O O4 0.250000 0.716977 0.000000
O O5 0.784511 0.500000 0.750000
O O6 0.706212 0.519407 0.910589
O O7 0.945038 0.600327 0.845105
O O8 0.968445 0.453053 0.869307
O O9 0.735920 0.066878 0.218085
O O10 0.961094 0.033135 0.321431
O O11 0.951620 0.825492 0.716898
O O12 0.000000 0.750000 0.850621
O O13 0.904820 0.970537 0.467441
O O14 0.809555 0.866138 0.573653
#
# Coordination Sequence:
#
# PCOD8164597 Si02
#       7
#     8   8   4   8   8   8   4
#     4  12  25  41  56  84 124 164 203 244 302 370
#     4  10  20  35  60  90 118 147 198 260 301 356
#     4  10  16  34  60  80 116 144 194 250 282 362
#     4  11  21  39  61  84 115 160 203 246 308 356
#     4  11  20  35  60  89 115 153 201 241 306 360
#     4  10  19  38  58  85 120 151 196 250 302 362
#     4  10  22  36  58  86 118 156 194 246 318 352
#
# _framework density 20.573011000000001
#
# number of rings (size 3 to 8) (size 9 to 14) (size 15 to 20)
#    0.000    1.333    5.833    2.500    0.000    0.667 
#    0.000    0.000    0.000    5.000    0.000    0.000 
#    0.000    0.000    0.000    0.000    0.000    0.000 
#
# Total GULP energy -297350.588157 kJ/mol
# GULP energy per Si atom -12389.607840 kJ/mol
# Density = 2.052619 g / cm^3
# Si number density = 20.573011 Si / 1000 Ang^3
#
#
#
# Elastic Constant Matrix: (Units=GPa)
#
#
# Indices 1 2 3 4 5 6 
#
# 1 108.4824 30.3741 40.3588 0.0000 0.0000 0.0000
# 2 30.3741 53.9085 0.5467 0.0000 0.0000 0.0000
# 3 40.3588 0.5467 106.5899 0.0000 0.0000 0.0000
# 4 0.0000 0.0000 0.0000 14.8031 0.0000 0.0000
# 5 0.0000 0.0000 0.0000 0.0000 33.4761 0.0000
# 6 0.0000 0.0000 0.0000 0.0000 0.0000 27.6709
#
#
#
# Elastic Compliance Matrix: (Units=1/GPa)
#
#
# Indices 1 2 3 4 5 6 
#
# 1 0.013103 -0.007333 -0.004924 0.000000 0.000000 0.000000
# 2 -0.007333 0.022655 0.002660 0.000000 0.000000 0.000000
# 3 -0.004924 0.002660 0.011232 0.000000 0.000000 0.000000
# 4 0.000000 0.000000 0.000000 0.067553 0.000000 0.000000
# 5 0.000000 0.000000 0.000000 0.000000 0.029872 0.000000
# 6 0.000000 0.000000 0.000000 0.000000 0.000000 0.036139
#
#
# Mechanical properties :
#
#
# Convention : Reuss Voigt Hill
#
# Bulk Modulus (GPa) = 35.97437 45.72667 40.85052
# Shear Modulus (GPa) = 23.92203 28.37011 26.14607
#
# Velocity S-wave (km/s) = 3.41367 3.71751 3.56882
# Velocity P-wave (km/s) = 5.74993 6.37976 6.07301
#
# Compressibility (1/GPa) = 0.02779757
#
# Stress axis : x y z
#
# Youngs Moduli (GPa) = 76.31871 44.14123 89.02836
#
# Poissons Ratio (x) = 0.32368 0.43834
# Poissons Ratio (y) = 0.55963 -0.23684
# Poissons Ratio (z) = 0.37577 -0.11743
#
# Static dielectric constant tensor:
#      x y z
#    x 3.885580 0.000000 0.000000 
#    y 0.000000 3.364020 0.000000 
#    z 0.000000 0.000000 3.810840 
# 
# 
# High freq. dielectric constant tensor:
#      x y z
#    x 1.809690 0.000000 0.000000 
#    y 0.000000 1.764540 0.000000 
#    z 0.000000 0.000000 1.817120 
# 
# From -- ./inp_files/14370.got.cif
#   From: 2010.03.12/outbox.cif.g09.slc.cpg/sg24_8_cif.got.tgz:14370.got - 2010.04.14 03:06:53.
