data_PCOD8164660
_publ_section_title
;
Structure prediction by ZEFSAII (Michael W. Deem and Ramdas Pophale) SiO2 
 PCOD8164660
Probable space group: I 21 21 21
;
_chemical_formula_sum "Si O2"
_cell_formula_units_Z 48
_cell_length_a 22.761394
_cell_length_b 11.233095
_cell_length_c 11.148886
_cell_angle_alpha 90.000000
_cell_angle_beta 90.000000
_cell_angle_gamma 90.000000
_cell_volume 2850.557219
_symmetry_space_group_name_H-M "I 21 21 21"
_symmetry_group_IT_number 24
_symmetry_cell_setting 'orthorhombic'
loop_
_space_group_symop_operation_xyz
x,y,z
-x,1/2-y,z
x,-y,1/2-z
1/2-x,y,-z
1/2+x,1/2+y,1/2+z
1/2-x,-y,1/2+z
1/2+x,1/2-y,-z
-x,1/2+y,1/2-z
loop_
_atom_site_type_symbol
_atom_site_label
_atom_site_fract_x
_atom_site_fract_y
_atom_site_fract_z
Si Si1 0.750000 0.188881 0.000000
Si Si2 0.686346 0.324515 0.368722
Si Si3 0.159971 0.624815 0.692634
Si Si4 0.815982 0.381198 0.374732
Si Si5 0.435180 0.794855 0.419176
Si Si6 0.346668 0.851354 0.617786
Si Si7 0.597455 0.500000 0.250000
O O1 0.790209 0.108880 0.910960
O O2 0.707674 0.271890 0.923009
O O3 0.687055 0.200462 0.300384
O O4 0.747688 0.388365 0.339519
O O5 0.676209 0.295864 0.510100
O O6 0.635918 0.413484 0.329982
O O7 0.141177 0.500000 0.750000
O O8 0.102145 0.691541 0.645267
O O9 0.854365 0.334836 0.261765
O O10 0.833953 0.512734 0.414173
O O11 0.500000 0.750000 0.444195
O O12 0.406280 0.817997 0.549011
O O13 0.440091 0.915324 0.338929
#
# Coordination Sequence:
#
# PCOD8164660 Si02
#       7
#     4   8   8   8   8   8   4
#     4  10  18  34  50  76 112 144 174 214 272 338
#     4  10  18  30  52  84 115 134 170 219 279 326
#     4  10  22  36  53  79 111 149 182 221 269 334
#     4  10  18  27  55  87 113 136 164 225 277 340
#     4  10  22  36  58  75 107 148 189 236 267 321
#     4  10  18  31  52  81 112 136 177 219 283 321
#     4  10  18  34  52  82 102 134 184 230 274 306
#
# _framework density 16.838812000000001
#
# number of rings (size 3 to 8) (size 9 to 14) (size 15 to 20)
#    0.000    2.000    3.333    2.000    3.500    1.333 
#    0.000    0.000    0.000    8.000    0.000    0.000 
#    0.000    0.000    0.000    0.000    0.000    0.000 
#
# Total GULP energy -297470.776745 kJ/mol
# GULP energy per Si atom -12394.615698 kJ/mol
# Density = 1.680049 g / cm^3
# Si number density = 16.838812 Si / 1000 Ang^3
#
#
#
# Elastic Constant Matrix: (Units=GPa)
#
#
# Indices 1 2 3 4 5 6 
#
# 1 91.1574 33.7559 35.8452 0.0000 0.0000 0.0000
# 2 33.7559 83.5968 38.4582 0.0000 0.0000 0.0000
# 3 35.8452 38.4582 116.2055 0.0000 0.0000 0.0000
# 4 0.0000 0.0000 0.0000 35.1684 0.0000 0.0000
# 5 0.0000 0.0000 0.0000 0.0000 13.9624 0.0000
# 6 0.0000 0.0000 0.0000 0.0000 0.0000 11.1542
#
#
#
# Elastic Compliance Matrix: (Units=1/GPa)
#
#
# Indices 1 2 3 4 5 6 
#
# 1 0.013636 -0.004212 -0.002812 0.000000 0.000000 0.000000
# 2 -0.004212 0.015412 -0.003801 0.000000 0.000000 0.000000
# 3 -0.002812 -0.003801 0.010731 0.000000 0.000000 0.000000
# 4 0.000000 0.000000 0.000000 0.028435 0.000000 0.000000
# 5 0.000000 0.000000 0.000000 0.000000 0.071621 0.000000
# 6 0.000000 0.000000 0.000000 0.000000 0.000000 0.089652
#
#
# Mechanical properties :
#
#
# Convention : Reuss Voigt Hill
#
# Bulk Modulus (GPa) = 55.16572 56.34205 55.75388
# Shear Modulus (GPa) = 19.44168 24.25037 21.84602
#
# Velocity S-wave (km/s) = 3.40159 3.79904 3.60580
# Velocity P-wave (km/s) = 6.94694 7.26470 7.10760
#
# Compressibility (1/GPa) = 0.01812720
#
# Stress axis : x y z
#
# Youngs Moduli (GPa) = 73.33730 64.88535 93.18916
#
# Poissons Ratio (x) = 0.27332 0.26205
# Poissons Ratio (y) = 0.30892 0.35423
# Poissons Ratio (z) = 0.20623 0.24664
#
# Static dielectric constant tensor:
#      x y z
#    x 2.858470 0.000000 0.000000 
#    y 0.000000 3.067850 0.000000 
#    z 0.000000 0.000000 3.449300 
# 
# 
# High freq. dielectric constant tensor:
#      x y z
#    x 1.620750 0.000000 0.000000 
#    y 0.000000 1.631910 0.000000 
#    z 0.000000 0.000000 1.666830 
# 
# From -- ./inp_files/19895.got.cif
#   From: 2010.03.12/outbox.cif.g09.slc.cpg/sg24_10_cif.got.tgz:19895.got - 2010.04.14 03:06:53.
