data_PCOD8164365
_publ_section_title
;
Structure prediction by ZEFSAII (Michael W. Deem and Ramdas Pophale) SiO2 
 PCOD8164365
Probable space group: I 2 2 2
;
_chemical_formula_sum "Si O2"
_cell_formula_units_Z 64
_cell_length_a 25.789090
_cell_length_b 8.825245
_cell_length_c 14.725634
_cell_angle_alpha 90.000000
_cell_angle_beta 90.000000
_cell_angle_gamma 90.000000
_cell_volume 3351.481224
_symmetry_space_group_name_H-M "I 2 2 2"
_symmetry_group_IT_number 23
_symmetry_cell_setting 'orthorhombic'
loop_
_space_group_symop_operation_xyz
x,y,z
-x,-y,z
x,-y,-z
-x,y,-z
1/2+x,1/2+y,1/2+z
1/2-x,1/2-y,1/2+z
1/2+x,1/2-y,1/2-z
1/2-x,1/2+y,1/2-z
loop_
_atom_site_type_symbol
_atom_site_label
_atom_site_fract_x
_atom_site_fract_y
_atom_site_fract_z
Si Si1 0.720303 0.173456 1.000000
Si Si2 0.328684 0.822344 0.500000
Si Si3 0.557239 0.180331 1.000000
Si Si4 0.611241 0.678788 0.665178
Si Si5 0.000000 0.820441 0.897369
Si Si6 0.135359 0.323827 0.351040
Si Si7 0.635359 0.176173 0.851040
Si Si8 0.111240 0.178788 0.834822
O O1 0.687102 0.204462 0.090735
O O2 0.767824 0.287581 1.000000
O O3 0.687102 0.204462 0.909265
O O4 0.739877 0.000000 0.000000
O O5 0.354184 0.753027 0.411444
O O6 0.354184 0.753027 0.588554
O O7 0.337472 0.000000 0.500000
O O8 0.586565 0.234918 0.909783
O O9 0.500000 0.251406 0.000000
O O10 0.586565 0.234918 0.090216
O O11 0.556731 0.000000 0.000000
O O12 0.551522 0.735966 0.655495
O O13 0.636126 0.725419 0.760541
O O14 0.614446 0.500000 0.653482
O O15 0.948479 0.764034 0.844504
O O16 0.000000 0.000000 0.902640
O O17 0.000000 0.754111 0.000000
O O18 0.129808 0.500000 0.325552
O O19 0.636126 0.274579 0.760541
#
# Coordination Sequence:
#
# PCOD8164365 Si02
#       8
#     8   8   8   8   8   8   8   8
#     4   9  20  41  63  82 114 155 191 234 289 338
#     4  12  25  40  60  86 112 143 194 247 288 339
#     4   8  15  30  53  81 116 153 186 228 282 331
#     4  11  22  38  60  85 117 155 190 230 286 344
#     4   9  18  36  58  79 112 155 191 224 274 344
#     4   9  19  36  58  86 116 149 192 237 279 335
#     4   9  19  36  58  86 116 149 192 237 279 335
#     4  11  22  38  60  85 117 155 190 230 286 344
#
# _framework density 19.096035000000001
#
# number of rings (size 3 to 8) (size 9 to 14) (size 15 to 20)
#    0.000    2.250    1.250    3.375    1.750    2.000 
#    0.000    4.375    0.000    0.750    0.000    0.000 
#    0.000    0.000    0.000    0.000    0.000    0.000 
#
# Total GULP energy -396798.523754 kJ/mol
# GULP energy per Si atom -12399.953867 kJ/mol
# Density = 1.905257 g / cm^3
# Si number density = 19.096035 Si / 1000 Ang^3
#
#
#
# Elastic Constant Matrix: (Units=GPa)
#
#
# Indices 1 2 3 4 5 6 
#
# 1 127.5892 44.2747 59.8283 0.0000 0.0000 0.0000
# 2 44.2747 74.9991 49.6775 0.0000 0.0000 0.0000
# 3 59.8283 49.6775 151.9427 0.0000 0.0000 0.0000
# 4 0.0000 0.0000 0.0000 -16.1908 0.0000 0.0000
# 5 0.0000 0.0000 0.0000 0.0000 42.4077 0.0000
# 6 0.0000 0.0000 0.0000 0.0000 0.0000 20.7743
#
#
#
# Elastic Compliance Matrix: (Units=1/GPa)
#
#
# Indices 1 2 3 4 5 6 
#
# 1 0.010680 -0.004492 -0.002737 0.000000 0.000000 0.000000
# 2 -0.004492 0.018909 -0.004413 0.000000 0.000000 0.000000
# 3 -0.002737 -0.004413 0.009102 0.000000 0.000000 0.000000
# 4 0.000000 0.000000 0.000000 -0.061763 0.000000 0.000000
# 5 0.000000 0.000000 0.000000 0.000000 0.023581 0.000000
# 6 0.000000 0.000000 0.000000 0.000000 0.000000 0.048136
#
#
# Mechanical properties :
#
#
# Convention : Reuss Voigt Hill
#
# Bulk Modulus (GPa) = 64.90836 73.56577 69.23707
# Shear Modulus (GPa) = 64.88204 22.78159 43.83181
#
# Velocity S-wave (km/s) = 5.83528 3.45773 4.79616
# Velocity P-wave (km/s) = 8.91431 7.38573 8.18578
#
# Compressibility (1/GPa) = 0.01540633
#
# Stress axis : x y z
#
# Youngs Moduli (GPa) = 93.63651 52.88602 109.86712
#
# Poissons Ratio (x) = 0.23756 0.30065
# Poissons Ratio (y) = 0.42061 0.48489
# Poissons Ratio (z) = 0.25624 0.23341
#
# Static dielectric constant tensor:
#      x y z
#    x 3.748400 0.000000 0.000000 
#    y 0.000000 3.207530 0.000000 
#    z 0.000000 0.000000 3.141420 
# 
# 
# High freq. dielectric constant tensor:
#      x y z
#    x 1.751190 0.000000 0.000000 
#    y 0.000000 1.717500 0.000000 
#    z 0.000000 0.000000 1.750060 
# 
# From -- ./inp_files/22598.got.cif
#   From: 2010.03.12/outbox.cif.g09.slc.cpg/sg23_12_cif.got.tgz:22598.got - 2010.04.14 02:50:06.
