data_PCOD8164009
_publ_section_title
;
Structure prediction by ZEFSAII (Michael W. Deem and Ramdas Pophale) SiO2 
 PCOD8164009
Probable space group: I 2 2 2
;
_chemical_formula_sum "Si O2"
_cell_formula_units_Z 54
_cell_length_a 5.133965
_cell_length_b 26.404294
_cell_length_c 19.056542
_cell_angle_alpha 90.000000
_cell_angle_beta 90.000000
_cell_angle_gamma 90.000000
_cell_volume 2583.280465
_symmetry_space_group_name_H-M "I 2 2 2"
_symmetry_group_IT_number 23
_symmetry_cell_setting 'orthorhombic'
loop_
_space_group_symop_operation_xyz
x,y,z
-x,-y,z
x,-y,-z
-x,y,-z
1/2+x,1/2+y,1/2+z
1/2-x,1/2-y,1/2+z
1/2+x,1/2-y,1/2-z
1/2-x,1/2+y,1/2-z
loop_
_atom_site_type_symbol
_atom_site_label
_atom_site_fract_x
_atom_site_fract_y
_atom_site_fract_z
Si Si1 0.099272 0.235903 0.206315
Si Si2 0.339144 0.932099 0.121414
Si Si3 0.894399 0.056381 0.699130
Si Si4 0.000000 0.500000 0.500000
Si Si5 0.015380 0.872272 0.420181
Si Si6 0.000000 0.500000 0.265793
Si Si7 0.485346 0.191789 0.419128
Si Si8 0.629503 0.620670 0.670550
O O1 0.344876 0.262353 0.244156
O O2 0.036469 0.262015 0.132378
O O3 0.179437 0.179303 0.185694
O O4 0.329316 0.962464 0.048283
O O5 0.285377 0.974255 0.182368
O O6 0.615039 0.904849 0.137436
O O7 0.110794 0.890029 0.117529
O O8 0.958241 0.076923 0.622669
O O9 0.589533 0.046246 0.715207
O O10 0.978963 0.097404 0.756566
O O11 0.000000 0.000000 0.709278
O O12 0.800804 0.829712 0.402279
O O13 0.000000 0.889702 0.500000
O O14 0.302204 0.851562 0.403665
O O15 0.500000 0.210534 0.500000
#
# Coordination Sequence:
#
# PCOD8164009 Si02
#       8
#     8   8   8   2   8   4   8   8
#     4  12  24  41  68  99 127 161 213 272 324 381
#     4  10  22  40  59  88 124 162 213 252 301 375
#     4  11  21  35  60  87 122 165 192 251 303 361
#     4  10  24  42  68  86 126 186 214 254 318 378
#     4  10  23  40  64  90 120 161 213 246 304 380
#     4   9  20  35  56  85 119 160 202 240 307 354
#     4  10  22  44  64  88 123 168 201 256 320 382
#     4  11  23  39  61  94 127 156 211 260 310 374
#
# _framework density 20.903656000000002
#
# number of rings (size 3 to 8) (size 9 to 14) (size 15 to 20)
#    0.000    1.481    1.481    3.556    2.074    2.667 
#    2.667    0.000    0.000    0.000    0.000    0.000 
#    0.000    0.000    0.000    0.000    0.000    0.000 
#
# Total GULP energy -334580.438622 kJ/mol
# GULP energy per Si atom -12391.868097 kJ/mol
# Density = 2.085608 g / cm^3
# Si number density = 20.903656 Si / 1000 Ang^3
#
#
#
# Elastic Constant Matrix: (Units=GPa)
#
#
# Indices 1 2 3 4 5 6 
#
# 1 100.7788 20.6125 37.9645 0.0000 0.0000 0.0000
# 2 20.6125 115.3416 69.6179 0.0000 0.0000 0.0000
# 3 37.9645 69.6179 121.4666 0.0000 0.0000 0.0000
# 4 0.0000 0.0000 0.0000 39.4108 0.0000 0.0000
# 5 0.0000 0.0000 0.0000 0.0000 18.0502 0.0000
# 6 0.0000 0.0000 0.0000 0.0000 0.0000 24.1084
#
#
#
# Elastic Compliance Matrix: (Units=1/GPa)
#
#
# Indices 1 2 3 4 5 6 
#
# 1 0.011249 0.000171 -0.003614 0.000000 0.000000 0.000000
# 2 0.000171 0.013258 -0.007652 0.000000 0.000000 0.000000
# 3 -0.003614 -0.007652 0.013748 0.000000 0.000000 0.000000
# 4 0.000000 0.000000 0.000000 0.025374 0.000000 0.000000
# 5 0.000000 0.000000 0.000000 0.000000 0.055401 0.000000
# 6 0.000000 0.000000 0.000000 0.000000 0.000000 0.041479
#
#
# Mechanical properties :
#
#
# Convention : Reuss Voigt Hill
#
# Bulk Modulus (GPa) = 62.24729 65.99743 64.12236
# Shear Modulus (GPa) = 26.58799 30.27335 28.43067
#
# Velocity S-wave (km/s) = 3.57028 3.80969 3.69193
# Velocity P-wave (km/s) = 6.84388 7.14090 6.99397
#
# Compressibility (1/GPa) = 0.01606496
#
# Stress axis : x y z
#
# Youngs Moduli (GPa) = 88.89551 75.42569 72.73737
#
# Poissons Ratio (x) = -0.01290 0.26287
# Poissons Ratio (y) = -0.01520 0.55660
# Poissons Ratio (z) = 0.32126 0.57718
#
# Static dielectric constant tensor:
#      x y z
#    x 4.358360 0.000000 0.000000 
#    y 0.000000 3.854960 0.000000 
#    z 0.000000 0.000000 3.816200 
# 
# 
# High freq. dielectric constant tensor:
#      x y z
#    x 1.828020 0.000000 0.000000 
#    y 0.000000 1.810310 0.000000 
#    z 0.000000 0.000000 1.817250 
# 
# From -- ./inp_files/25798.got.cif
#   From: 2010.03.12/outbox.cif.g09.slc.cpg/sg23_13_cif.got.tgz:25798.got - 2010.04.14 02:50:06.
