data_PCOD8164331
_publ_section_title
;
Structure prediction by ZEFSAII (Michael W. Deem and Ramdas Pophale) SiO2 
 PCOD8164331
Probable space group: I 2 2 2
;
_chemical_formula_sum "Si O2"
_cell_formula_units_Z 48
_cell_length_a 17.116265
_cell_length_b 9.430129
_cell_length_c 13.771732
_cell_angle_alpha 90.000000
_cell_angle_beta 90.000000
_cell_angle_gamma 90.000000
_cell_volume 2222.875802
_symmetry_space_group_name_H-M "I 2 2 2"
_symmetry_group_IT_number 23
_symmetry_cell_setting 'orthorhombic'
loop_
_space_group_symop_operation_xyz
x,y,z
-x,-y,z
x,-y,-z
-x,y,-z
1/2+x,1/2+y,1/2+z
1/2-x,1/2-y,1/2+z
1/2+x,1/2-y,1/2-z
1/2-x,1/2+y,1/2-z
loop_
_atom_site_type_symbol
_atom_site_label
_atom_site_fract_x
_atom_site_fract_y
_atom_site_fract_z
Si Si1 0.500000 0.243431 0.000000
Si Si2 0.931784 0.327853 0.805616
Si Si3 0.000000 0.243431 0.000000
Si Si4 0.618273 0.000000 0.000000
Si Si5 0.068216 0.827853 0.305616
Si Si6 0.835912 0.063592 0.792856
Si Si7 0.381727 0.500000 0.500000
Si Si8 0.835912 0.436408 0.292856
O O1 0.431639 0.137047 0.966696
O O2 0.464184 0.343308 0.084427
O O3 0.964184 0.343308 0.915573
O O4 0.855715 0.229787 0.792357
O O5 0.905253 0.481040 0.765030
O O6 0.000000 0.250000 0.750000
O O7 0.931639 0.137047 0.033304
O O8 0.670631 0.976324 0.094213
O O9 0.144285 0.729787 0.292357
O O10 0.094747 0.981040 0.265030
O O11 0.750000 0.040617 0.745420
O O12 0.829369 0.023676 0.905787
#
# Coordination Sequence:
#
# PCOD8164331 Si02
#       8
#     4   8   4   4   8   8   4   8
#     4   9  18  34  61  88 114 157 211 248 290 359
#     4  11  21  39  63  88 120 162 208 251 301 365
#     4   9  18  34  61  88 114 157 211 248 290 359
#     4   9  17  34  60  88 118 156 208 248 292 364
#     4  11  21  39  63  88 120 162 208 251 301 365
#     4  11  22  37  61  92 126 160 199 256 315 367
#     4   9  17  34  60  88 118 156 208 248 292 364
#     4  11  22  37  61  92 126 160 199 256 315 367
#
# _framework density 21.593648999999999
#
# number of rings (size 3 to 8) (size 9 to 14) (size 15 to 20)
#    0.000    1.667    3.333    2.500    0.000    0.000 
#    0.000    3.333    0.000    2.000    0.000    0.000 
#    0.000    0.000    0.000    0.000    0.000    0.000 
#
# Total GULP energy -297348.944337 kJ/mol
# GULP energy per Si atom -12389.539347 kJ/mol
# Density = 2.154450 g / cm^3
# Si number density = 21.593649 Si / 1000 Ang^3
#
#
#
# Elastic Constant Matrix: (Units=GPa)
#
#
# Indices 1 2 3 4 5 6 
#
# 1 102.1270 7.7946 22.5653 0.0000 0.0000 0.0000
# 2 7.7946 64.1753 32.6773 0.0000 0.0000 0.0000
# 3 22.5653 32.6773 91.0581 0.0000 0.0000 0.0000
# 4 0.0000 0.0000 0.0000 31.9282 0.0000 0.0000
# 5 0.0000 0.0000 0.0000 0.0000 21.3666 0.0000
# 6 0.0000 0.0000 0.0000 0.0000 0.0000 23.8696
#
#
#
# Elastic Compliance Matrix: (Units=1/GPa)
#
#
# Indices 1 2 3 4 5 6 
#
# 1 0.010359 0.000060 -0.002589 0.000000 0.000000 0.000000
# 2 0.000060 0.019067 -0.006857 0.000000 0.000000 0.000000
# 3 -0.002589 -0.006857 0.014084 0.000000 0.000000 0.000000
# 4 0.000000 0.000000 0.000000 0.031320 0.000000 0.000000
# 5 0.000000 0.000000 0.000000 0.000000 0.046802 0.000000
# 6 0.000000 0.000000 0.000000 0.000000 0.000000 0.041894
#
#
# Mechanical properties :
#
#
# Convention : Reuss Voigt Hill
#
# Bulk Modulus (GPa) = 40.42313 42.60384 41.51348
# Shear Modulus (GPa) = 26.24060 28.38775 27.31417
#
# Velocity S-wave (km/s) = 3.48975 3.62972 3.56043
# Velocity P-wave (km/s) = 5.91594 6.11058 6.01405
#
# Compressibility (1/GPa) = 0.02473831
#
# Stress axis : x y z
#
# Youngs Moduli (GPa) = 96.53329 52.44772 71.00137
#
# Poissons Ratio (x) = -0.00314 0.18379
# Poissons Ratio (y) = -0.00578 0.48686
# Poissons Ratio (z) = 0.24989 0.35964
#
# Static dielectric constant tensor:
#      x y z
#    x 3.732020 0.000000 0.000000 
#    y 0.000000 3.878620 0.000000 
#    z 0.000000 0.000000 6.430010 
# 
# 
# High freq. dielectric constant tensor:
#      x y z
#    x 1.846340 0.000000 0.000000 
#    y 0.000000 1.837870 0.000000 
#    z 0.000000 0.000000 1.839330 
# 
# From -- ./inp_files/20044.got.cif
#   From: 2010.03.12/outbox.cif.g09.slc.cpg/sg23_11_cif.got.tgz:20044.got - 2010.04.14 02:50:06.
