data_PCOD8164991
_publ_section_title
;
Structure prediction by ZEFSAII (Michael W. Deem and Ramdas Pophale) SiO2 
 PCOD8164991
Probable space group: I 21 21 21
;
_chemical_formula_sum "Si O2"
_cell_formula_units_Z 40
_cell_length_a 17.765186
_cell_length_b 7.871786
_cell_length_c 14.432951
_cell_angle_alpha 90.000000
_cell_angle_beta 90.000000
_cell_angle_gamma 90.000000
_cell_volume 2018.357882
_symmetry_space_group_name_H-M "I 21 21 21"
_symmetry_group_IT_number 24
_symmetry_cell_setting 'orthorhombic'
loop_
_space_group_symop_operation_xyz
x,y,z
-x,1/2-y,z
x,-y,1/2-z
1/2-x,y,-z
1/2+x,1/2+y,1/2+z
1/2-x,-y,1/2+z
1/2+x,1/2-y,-z
-x,1/2+y,1/2-z
loop_
_atom_site_type_symbol
_atom_site_label
_atom_site_fract_x
_atom_site_fract_y
_atom_site_fract_z
Si Si1 0.083642 0.693439 0.837797
Si Si2 0.186826 0.532074 0.355239
Si Si3 0.663349 0.287301 0.522120
Si Si4 0.836368 0.341962 0.027931
Si Si5 0.356299 0.344336 0.148716
O O1 0.081006 0.490932 0.853138
O O2 0.138439 0.743326 0.750334
O O3 0.000000 0.750000 0.814949
O O4 0.114679 0.780411 0.929517
O O5 0.164336 0.500000 0.250000
O O6 0.151522 0.372105 0.410336
O O7 0.146568 0.703476 0.392238
O O8 0.276589 0.557195 0.367838
O O9 0.750000 0.293502 0.500000
O O10 0.639440 0.471348 0.565377
O O11 0.750000 0.341963 0.000000
O O12 0.877274 0.288953 0.931725
#
# Coordination Sequence:
#
# PCOD8164991 Si02
#       5
#     8   8   8   8   8
#     4  11  22  35  59  90 126 171 202 244 319 393
#     4  11  18  35  61  84 116 155 210 268 305 350
#     4  11  19  36  59  84 117 157 209 261 304 363
#     4   9  20  31  54  87 114 153 207 256 305 361
#     4  10  19  37  54  81 130 169 201 243 315 381
#
# _framework density 19.818090000000002
#
# number of rings (size 3 to 8) (size 9 to 14) (size 15 to 20)
#    0.000    1.600    6.000    0.600    0.000    4.800 
#    0.000    6.000    0.000    0.000    5.200    0.000 
#    0.000    0.000    0.000    0.000    0.000    0.000 
#
# Total GULP energy -247806.666128 kJ/mol
# GULP energy per Si atom -12390.333306 kJ/mol
# Density = 1.977298 g / cm^3
# Si number density = 19.818090 Si / 1000 Ang^3
#
#
#
# Elastic Constant Matrix: (Units=GPa)
#
#
# Indices 1 2 3 4 5 6 
#
# 1 40.6792 15.9938 21.8997 0.0000 0.0000 0.0000
# 2 15.9938 164.4974 69.5622 0.0000 0.0000 0.0000
# 3 21.8997 69.5622 118.4274 0.0000 0.0000 0.0000
# 4 0.0000 0.0000 0.0000 28.7789 0.0000 0.0000
# 5 0.0000 0.0000 0.0000 0.0000 14.9482 0.0000
# 6 0.0000 0.0000 0.0000 0.0000 0.0000 -10.9598
#
#
#
# Elastic Compliance Matrix: (Units=1/GPa)
#
#
# Indices 1 2 3 4 5 6 
#
# 1 0.027360 -0.000693 -0.004652 0.000000 0.000000 0.000000
# 2 -0.000693 0.008106 -0.004633 0.000000 0.000000 0.000000
# 3 -0.004652 -0.004633 0.012026 0.000000 0.000000 0.000000
# 4 0.000000 0.000000 0.000000 0.034748 0.000000 0.000000
# 5 0.000000 0.000000 0.000000 0.000000 0.066898 0.000000
# 6 0.000000 0.000000 0.000000 0.000000 0.000000 -0.091243
#
#
# Mechanical properties :
#
#
# Convention : Reuss Voigt Hill
#
# Bulk Modulus (GPa) = 36.31801 59.83502 48.07652
# Shear Modulus (GPa) = 57.45259 20.96335 39.20797
#
# Velocity S-wave (km/s) = 5.39007 3.25589 4.45274
# Velocity P-wave (km/s) = 7.55663 6.66274 7.12372
#
# Compressibility (1/GPa) = 0.02753455
#
# Stress axis : x y z
#
# Youngs Moduli (GPa) = 36.55025 123.37026 83.15525
#
# Poissons Ratio (x) = 0.08546 0.38688
# Poissons Ratio (y) = 0.02532 0.38526
# Poissons Ratio (z) = 0.17005 0.57158
#
# Static dielectric constant tensor:
#      x y z
#    x 3.077090 0.000000 0.000000 
#    y 0.000000 4.266090 0.000000 
#    z 0.000000 0.000000 3.879960 
# 
# 
# High freq. dielectric constant tensor:
#      x y z
#    x 1.712170 0.000000 0.000000 
#    y 0.000000 1.786710 0.000000 
#    z 0.000000 0.000000 1.772800 
# 
# From -- ./inp_files/12539.got.cif
#   From: 2010.03.12/outbox.cif.g09.slc.cpg/sg24_7_cif.got.tgz:12539.got - 2010.04.14 03:06:53.
