data_PCOD8164005
_publ_section_title
;
Structure prediction by ZEFSAII (Michael W. Deem and Ramdas Pophale) SiO2 
 PCOD8164005
Probable space group: I 2 2 2
;
_chemical_formula_sum "Si O2"
_cell_formula_units_Z 38
_cell_length_a 9.553886
_cell_length_b 16.332739
_cell_length_c 11.936677
_cell_angle_alpha 90.000000
_cell_angle_beta 90.000000
_cell_angle_gamma 90.000000
_cell_volume 1862.612525
_symmetry_space_group_name_H-M "I 2 2 2"
_symmetry_group_IT_number 23
_symmetry_cell_setting 'orthorhombic'
loop_
_space_group_symop_operation_xyz
x,y,z
-x,-y,z
x,-y,-z
-x,y,-z
1/2+x,1/2+y,1/2+z
1/2-x,1/2-y,1/2+z
1/2+x,1/2-y,1/2-z
1/2-x,1/2+y,1/2-z
loop_
_atom_site_type_symbol
_atom_site_label
_atom_site_fract_x
_atom_site_fract_y
_atom_site_fract_z
Si Si1 0.527390 0.760757 0.679908
Si Si2 0.277490 0.765597 0.523596
Si Si3 0.500000 0.000000 0.000000
Si Si4 0.937034 0.083821 0.261596
Si Si5 0.500000 0.367495 0.000000
Si Si6 0.836435 0.376387 0.649106
O O1 0.392380 0.796839 0.614415
O O2 0.664396 0.768467 0.602177
O O3 0.509945 0.665754 0.713414
O O4 0.552317 0.816629 0.788977
O O5 0.248019 0.671725 0.553571
O O6 0.134161 0.814269 0.534642
O O7 0.590051 0.051759 0.085007
O O8 0.771396 0.085453 0.238287
O O9 0.958417 0.077226 0.394841
O O10 0.000000 0.000000 0.208066
#
# Coordination Sequence:
#
# PCOD8164005 Si02
#       6
#     8   8   2   8   4   8
#     4  10  22  43  68  93 130 176 218 270 331 391
#     4  10  22  39  69  98 124 170 230 263 317 402
#     4  12  30  40  64  98 138 168 228 272 336 400
#     4  11  25  41  65  98 135 171 220 279 332 387
#     4  12  20  40  69  95 130 168 224 274 320 401
#     4  11  24  44  66  96 132 177 220 271 334 392
#
# _framework density 20.401451000000002
#
# number of rings (size 3 to 8) (size 9 to 14) (size 15 to 20)
#    0.000    1.263    4.211    0.947    2.947    1.684 
#    0.000    0.000    0.000    0.000    0.000    0.000 
#    0.000    0.000    0.000    0.000    0.000    0.000 
#
# Total GULP energy -235564.185644 kJ/mol
# GULP energy per Si atom -12398.115034 kJ/mol
# Density = 2.035502 g / cm^3
# Si number density = 20.401451 Si / 1000 Ang^3
#
#
#
# Elastic Constant Matrix: (Units=GPa)
#
#
# Indices 1 2 3 4 5 6 
#
# 1 129.4756 62.3929 50.7730 0.0000 0.0000 0.0000
# 2 62.3929 120.7783 51.5342 -0.0003 0.0000 0.0000
# 3 50.7730 51.5342 112.6328 -0.0005 -0.0001 0.0000
# 4 0.0000 -0.0003 -0.0005 22.5217 0.0000 0.0001
# 5 0.0000 0.0000 -0.0001 0.0000 28.9367 0.0000
# 6 0.0000 0.0000 0.0000 0.0001 0.0000 24.0173
#
#
#
# Elastic Compliance Matrix: (Units=1/GPa)
#
#
# Indices 1 2 3 4 5 6 
#
# 1 0.011012 -0.004437 -0.002934 0.000000 0.000000 0.000000
# 2 -0.004437 0.012076 -0.003525 0.000000 0.000000 0.000000
# 3 -0.002934 -0.003525 0.011814 0.000000 0.000000 0.000000
# 4 0.000000 0.000000 0.000000 0.044402 0.000000 0.000000
# 5 0.000000 0.000000 0.000000 0.000000 0.034558 0.000000
# 6 0.000000 0.000000 0.000000 0.000000 0.000000 0.041637
#
#
# Mechanical properties :
#
#
# Convention : Reuss Voigt Hill
#
# Bulk Modulus (GPa) = 76.27879 76.92077 76.59978
# Shear Modulus (GPa) = 27.52394 28.30759 27.91576
#
# Velocity S-wave (km/s) = 3.67702 3.72900 3.70310
# Velocity P-wave (km/s) = 7.44965 7.50506 7.47741
#
# Compressibility (1/GPa) = 0.01310980
#
# Stress axis : x y z
#
# Youngs Moduli (GPa) = 90.80933 82.81043 84.64601
#
# Poissons Ratio (x) = 0.36742 0.24835
# Poissons Ratio (y) = 0.40291 0.29839
# Poissons Ratio (z) = 0.26644 0.29192
#
# Static dielectric constant tensor:
#      x y z
#    x 3.874680 0.000000 0.000000 
#    y 0.000000 3.518220 0.000000 
#    z 0.000000 0.000000 3.917910 
# 
# 
# High freq. dielectric constant tensor:
#      x y z
#    x 1.807720 0.000000 0.000000 
#    y 0.000000 1.782620 0.000000 
#    z 0.000000 0.000000 1.809710 
# 
# From -- ./inp_files/8227.got.cif
#   From: 2010.03.12/outbox.cif.g09.slc.cpg/sg23_5_cif.got.tgz:8227.got - 2010.04.14 02:50:06.
