data_PCOD8164792
_publ_section_title
;
Structure prediction by ZEFSAII (Michael W. Deem and Ramdas Pophale) SiO2 
 PCOD8164792
Probable space group: I 21 21 21
;
_chemical_formula_sum "Si O2"
_cell_formula_units_Z 56
_cell_length_a 8.550733
_cell_length_b 20.786931
_cell_length_c 16.713677
_cell_angle_alpha 90.000000
_cell_angle_beta 90.000000
_cell_angle_gamma 90.000000
_cell_volume 2970.747396
_symmetry_space_group_name_H-M "I 21 21 21"
_symmetry_group_IT_number 24
_symmetry_cell_setting 'orthorhombic'
loop_
_space_group_symop_operation_xyz
x,y,z
-x,1/2-y,z
x,-y,1/2-z
1/2-x,y,-z
1/2+x,1/2+y,1/2+z
1/2-x,-y,1/2+z
1/2+x,1/2-y,-z
-x,1/2+y,1/2-z
loop_
_atom_site_type_symbol
_atom_site_label
_atom_site_fract_x
_atom_site_fract_y
_atom_site_fract_z
Si Si1 0.535647 0.467593 0.331462
Si Si2 0.790145 0.880034 0.782304
Si Si3 0.759268 0.651610 0.824626
Si Si4 0.530016 0.572877 0.728407
Si Si5 0.683171 0.229875 0.414626
Si Si6 0.787609 0.576359 0.591331
Si Si7 0.051676 0.181608 0.820956
O O1 0.604224 0.500000 0.250000
O O2 0.351578 0.448318 0.321975
O O3 0.610044 0.398703 0.353264
O O4 0.585997 0.518730 0.397754
O O5 0.636521 0.891286 0.728304
O O6 0.776366 0.825930 0.851106
O O7 0.912146 0.860409 0.714397
O O8 0.611065 0.609051 0.802449
O O9 0.722087 0.704633 0.892174
O O10 0.819983 0.692567 0.748377
O O11 0.501365 0.500000 0.750000
O O12 0.631009 0.574937 0.646454
O O13 0.500000 0.250000 0.414851
O O14 0.750000 0.206783 0.500000
O O15 0.750000 0.572009 0.500000
O O16 0.874333 0.643466 0.605463
O O17 0.000000 0.250000 0.855143
#
# Coordination Sequence:
#
# PCOD8164792 Si02
#       7
#     8   8   8   8   8   8   8
#     4  11  17  38  67  86 111 171 212 240 308 383
#     4  11  22  38  66  89 122 170 211 256 304 372
#     4  10  18  37  64  83 119 168 208 243 299 377
#     4  11  22  39  61  96 121 156 221 259 293 380
#     4  12  25  42  59  95 135 168 211 262 317 377
#     4  11  23  41  64  92 126 161 209 267 322 375
#     4  10  18  40  68  83 111 166 215 244 308 384
#
# _framework density 18.850477000000001
#
# number of rings (size 3 to 8) (size 9 to 14) (size 15 to 20)
#    0.000    1.143   10.000    0.429    2.000    0.571 
#    2.571    2.143    0.000    0.000    0.000    0.000 
#    0.000    0.000    0.000    0.000    0.000    0.000 
#
# Total GULP energy -346890.364484 kJ/mol
# GULP energy per Si atom -12388.941589 kJ/mol
# Density = 1.880757 g / cm^3
# Si number density = 18.850477 Si / 1000 Ang^3
#
#
#
# Elastic Constant Matrix: (Units=GPa)
#
#
# Indices 1 2 3 4 5 6 
#
# 1 78.7047 31.4377 16.0833 0.0000 0.0000 0.0000
# 2 31.4377 119.5317 44.5171 0.0000 0.0000 0.0000
# 3 16.0833 44.5171 78.2371 0.0001 0.0000 0.0000
# 4 0.0000 0.0000 0.0001 18.7673 0.0000 0.0000
# 5 0.0000 0.0000 0.0000 0.0000 16.9279 0.0000
# 6 0.0000 0.0000 0.0000 0.0000 0.0000 21.9599
#
#
#
# Elastic Compliance Matrix: (Units=1/GPa)
#
#
# Indices 1 2 3 4 5 6 
#
# 1 0.014260 -0.003374 -0.001012 0.000000 0.000000 0.000000
# 2 -0.003374 0.011414 -0.005801 0.000000 0.000000 0.000000
# 3 -0.001012 -0.005801 0.016290 0.000000 0.000000 0.000000
# 4 0.000000 0.000000 0.000000 0.053284 0.000000 0.000000
# 5 0.000000 0.000000 0.000000 0.000000 0.059074 0.000000
# 6 0.000000 0.000000 0.000000 0.000000 0.000000 0.045537
#
#
# Mechanical properties :
#
#
# Convention : Reuss Voigt Hill
#
# Bulk Modulus (GPa) = 46.31483 51.17221 48.74352
# Shear Modulus (GPa) = 21.98482 23.82672 22.90577
#
# Velocity S-wave (km/s) = 3.41878 3.55911 3.48965
# Velocity P-wave (km/s) = 6.34090 6.64041 6.49238
#
# Compressibility (1/GPa) = 0.02159135
#
# Stress axis : x y z
#
# Youngs Moduli (GPa) = 70.12589 87.61400 61.38588
#
# Poissons Ratio (x) = 0.29558 0.06211
# Poissons Ratio (y) = 0.23658 0.35609
# Poissons Ratio (z) = 0.07096 0.50824
#
# Static dielectric constant tensor:
#      x y z
#    x 3.606780 0.000000 0.000000 
#    y 0.000000 3.758260 0.000000 
#    z 0.000000 0.000000 3.155090 
# 
# 
# High freq. dielectric constant tensor:
#      x y z
#    x 1.727860 0.000000 0.000000 
#    y 0.000000 1.750970 0.000000 
#    z 0.000000 0.000000 1.693250 
# 
# From -- ./inp_files/29771.got.cif
#   From: 2010.03.12/outbox.cif.g09.slc.cpg/sg24_15_cif.got.tgz:29771.got - 2010.04.14 03:06:53.
