data_PCOD8164248
_publ_section_title
;
Structure prediction by ZEFSAII (Michael W. Deem and Ramdas Pophale) SiO2 
 PCOD8164248
Probable space group: I 2 2 2
;
_chemical_formula_sum "Si O2"
_cell_formula_units_Z 48
_cell_length_a 12.858386
_cell_length_b 19.374601
_cell_length_c 8.226326
_cell_angle_alpha 90.000000
_cell_angle_beta 90.000000
_cell_angle_gamma 90.000000
_cell_volume 2049.392499
_symmetry_space_group_name_H-M "I 2 2 2"
_symmetry_group_IT_number 23
_symmetry_cell_setting 'orthorhombic'
loop_
_space_group_symop_operation_xyz
x,y,z
-x,-y,z
x,-y,-z
-x,y,-z
1/2+x,1/2+y,1/2+z
1/2-x,1/2-y,1/2+z
1/2+x,1/2-y,1/2-z
1/2-x,1/2+y,1/2-z
loop_
_atom_site_type_symbol
_atom_site_label
_atom_site_fract_x
_atom_site_fract_y
_atom_site_fract_z
Si Si1 0.194996 0.537899 0.829081
Si Si2 0.305661 0.663401 0.948723
Si Si3 0.729275 0.897641 0.224530
Si Si4 0.836695 0.791123 0.045062
Si Si5 0.996699 0.380890 0.685489
Si Si6 0.475004 0.725504 0.757750
O O1 0.280618 0.597801 0.836593
O O2 0.245754 0.480270 0.708843
O O3 0.086206 0.570764 0.773965
O O4 0.176005 0.500000 0.000000
O O5 0.227278 0.724420 0.898820
O O6 0.425405 0.688271 0.917408
O O7 0.295937 0.640616 0.135732
O O8 0.759299 0.858222 0.055964
O O9 0.607881 0.891326 0.270091
O O10 0.930520 0.812098 0.167294
O O11 0.876340 0.774518 0.864926
O O12 0.974992 0.299518 0.700105
O O13 0.000000 0.405057 0.500000
#
# Coordination Sequence:
#
# PCOD8164248 Si02
#       6
#     8   8   8   8   8   8
#     4  10  25  44  69  99 143 188 226 284 356 430
#     4  11  21  41  67  96 135 189 232 286 350 420
#     4  11  25  42  66  99 138 185 234 282 358 422
#     4  11  22  41  66  97 139 184 236 293 345 419
#     4  12  25  40  69 106 141 179 225 299 350 424
#     4  11  25  40  68 103 134 183 243 290 349 412
#
# _framework density 23.421575000000001
#
# number of rings (size 3 to 8) (size 9 to 14) (size 15 to 20)
#    0.000    1.000    5.000    0.500    4.667    6.000 
#    0.000    0.833    0.000    5.000    0.000    0.000 
#    0.000    0.000    0.000    0.000    0.000    0.000 
#
# Total GULP energy -297435.864710 kJ/mol
# GULP energy per Si atom -12393.161030 kJ/mol
# Density = 2.336827 g / cm^3
# Si number density = 23.421575 Si / 1000 Ang^3
#
#
#
# Elastic Constant Matrix: (Units=GPa)
#
#
# Indices 1 2 3 4 5 6 
#
# 1 81.8004 45.9746 26.0056 0.0000 0.0000 0.0000
# 2 45.9746 167.6380 29.5411 0.0000 0.0000 0.0000
# 3 26.0056 29.5411 50.0735 -0.0003 0.0001 0.0001
# 4 0.0000 0.0000 -0.0003 32.4584 0.0000 0.0000
# 5 0.0000 0.0000 0.0001 0.0000 40.8905 0.0000
# 6 0.0000 0.0000 0.0001 0.0000 0.0000 43.6793
#
#
#
# Elastic Compliance Matrix: (Units=1/GPa)
#
#
# Indices 1 2 3 4 5 6 
#
# 1 0.016117 -0.003287 -0.006431 0.000000 0.000000 0.000000
# 2 -0.003287 0.007328 -0.002616 0.000000 0.000000 0.000000
# 3 -0.006431 -0.002616 0.024854 0.000000 0.000000 0.000000
# 4 0.000000 0.000000 0.000000 0.030809 0.000000 0.000000
# 5 0.000000 0.000000 0.000000 0.000000 0.024456 0.000000
# 6 0.000000 0.000000 0.000000 0.000000 0.000000 0.022894
#
#
# Mechanical properties :
#
#
# Convention : Reuss Voigt Hill
#
# Bulk Modulus (GPa) = 42.31817 55.83941 49.07879
# Shear Modulus (GPa) = 31.44630 36.60501 34.02565
#
# Velocity S-wave (km/s) = 3.66815 3.95761 3.81563
# Velocity P-wave (km/s) = 6.00398 6.69151 6.35705
#
# Compressibility (1/GPa) = 0.02363051
#
# Stress axis : x y z
#
# Youngs Moduli (GPa) = 62.04756 136.47031 40.23501
#
# Poissons Ratio (x) = 0.44854 0.25876
# Poissons Ratio (y) = 0.20393 0.10526
# Poissons Ratio (z) = 0.39904 0.35701
#
# Static dielectric constant tensor:
#      x y z
#    x 4.169610 0.000000 0.000000 
#    y 0.000000 4.599550 0.000000 
#    z 0.000000 0.000000 4.252260 
# 
# 
# High freq. dielectric constant tensor:
#      x y z
#    x 1.923780 0.000000 0.000000 
#    y 0.000000 1.926470 0.000000 
#    z 0.000000 0.000000 1.925960 
# 
# From -- ./inp_files/10104.got.cif
#   From: 2010.03.12/outbox.cif.g09.slc.cpg/sg23_6_cif.got.tgz:10104.got - 2010.04.14 02:50:06.
