data_PCOD8164354
_publ_section_title
;
Structure prediction by ZEFSAII (Michael W. Deem and Ramdas Pophale) SiO2 
 PCOD8164354
Probable space group: I 2 2 2
;
_chemical_formula_sum "Si O2"
_cell_formula_units_Z 42
_cell_length_a 4.900011
_cell_length_b 24.980761
_cell_length_c 19.672094
_cell_angle_alpha 90.000000
_cell_angle_beta 90.000000
_cell_angle_gamma 90.000000
_cell_volume 2407.982411
_symmetry_space_group_name_H-M "I 2 2 2"
_symmetry_group_IT_number 23
_symmetry_cell_setting 'orthorhombic'
loop_
_space_group_symop_operation_xyz
x,y,z
-x,-y,z
x,-y,-z
-x,y,-z
1/2+x,1/2+y,1/2+z
1/2-x,1/2-y,1/2+z
1/2+x,1/2-y,1/2-z
1/2-x,1/2+y,1/2-z
loop_
_atom_site_type_symbol
_atom_site_label
_atom_site_fract_x
_atom_site_fract_y
_atom_site_fract_z
Si Si1 0.243775 0.719896 0.953739
Si Si2 0.860859 0.947375 0.389163
Si Si3 0.629662 0.214697 0.829434
Si Si4 0.500000 0.000000 0.500000
Si Si5 0.633135 0.320959 0.740731
Si Si6 0.151180 0.619606 0.862877
O O1 0.327109 0.771039 0.908226
O O2 0.109923 0.673413 0.906506
O O3 0.500000 0.700692 0.000000
O O4 0.000000 0.740838 0.000000
O O5 0.634086 0.912158 0.348251
O O6 0.128029 0.913039 0.407116
O O7 0.701060 0.962987 0.456914
O O8 0.000000 0.000000 0.352302
O O9 0.640498 0.269561 0.788428
O O10 0.341167 0.185862 0.821706
O O11 0.843649 0.172778 0.796325
O O12 0.713927 0.370828 0.788584
#
# Coordination Sequence:
#
# PCOD8164354 Si02
#       6
#     8   8   8   2   8   8
#     4  11  22  31  46  73 100 127 160 202 246 287
#     4  12  24  37  49  65  90 126 168 206 260 288
#     4   9  17  31  48  65  94 121 150 196 245 290
#     4  12  26  36  50  60  90 140 158 200 248 316
#     4   9  17  32  50  67  85 117 161 203 243 276
#     4  11  23  34  52  70  89 122 173 221 240 278
#
# _framework density 17.441989
#
# number of rings (size 3 to 8) (size 9 to 14) (size 15 to 20)
#    0.000    1.524    1.905    3.714    4.000    6.095 
#    0.000    0.000    0.000    0.000    0.000    0.000 
#    0.000    0.000    0.000    0.000    0.000  200.000 
#
# Total GULP energy -260151.238458 kJ/mol
# GULP energy per Si atom -12388.154212 kJ/mol
# Density = 1.740229 g / cm^3
# Si number density = 17.441989 Si / 1000 Ang^3
#
#
#
# Elastic Constant Matrix: (Units=GPa)
#
#
# Indices 1 2 3 4 5 6 
#
# 1 76.8256 0.8865 3.8901 0.0000 0.0000 0.0000
# 2 0.8865 29.2304 17.8747 0.0000 0.0000 0.0000
# 3 3.8901 17.8747 50.1901 0.0000 0.0000 0.0000
# 4 0.0000 0.0000 0.0000 10.0926 0.0000 0.0000
# 5 0.0000 0.0000 0.0000 0.0000 25.2677 0.0000
# 6 0.0000 0.0000 0.0000 0.0000 0.0000 31.5568
#
#
#
# Elastic Compliance Matrix: (Units=1/GPa)
#
#
# Indices 1 2 3 4 5 6 
#
# 1 0.013070 0.000285 -0.001115 0.000000 0.000000 0.000000
# 2 0.000285 0.043742 -0.015600 0.000000 0.000000 0.000000
# 3 -0.001115 -0.015600 0.025567 0.000000 0.000000 0.000000
# 4 0.000000 0.000000 0.000000 0.099083 0.000000 0.000000
# 5 0.000000 0.000000 0.000000 0.000000 0.039576 0.000000
# 6 0.000000 0.000000 0.000000 0.000000 0.000000 0.031689
#
#
# Mechanical properties :
#
#
# Convention : Reuss Voigt Hill
#
# Bulk Modulus (GPa) = 20.19437 22.39430 21.29434
# Shear Modulus (GPa) = 16.55124 22.28973 19.42048
#
# Velocity S-wave (km/s) = 3.08381 3.57870 3.34043
# Velocity P-wave (km/s) = 4.92778 5.47205 5.20703
#
# Compressibility (1/GPa) = 0.04951876
#
# Stress axis : x y z
#
# Youngs Moduli (GPa) = 76.51319 22.86127 39.11361
#
# Poissons Ratio (x) = -0.00652 0.04360
# Poissons Ratio (y) = -0.02182 0.61019
# Poissons Ratio (z) = 0.08528 0.35664
#
# Static dielectric constant tensor:
#      x y z
#    x 3.648210 0.000000 0.000000 
#    y 0.000000 3.146710 0.000000 
#    z 0.000000 0.000000 3.168860 
# 
# 
# High freq. dielectric constant tensor:
#      x y z
#    x 1.706310 0.000000 0.000000 
#    y 0.000000 1.628210 0.000000 
#    z 0.000000 0.000000 1.638330 
# 
# From -- ./inp_files/23165.got.cif
#   From: 2010.03.12/outbox.cif.g09.slc.cpg/sg23_12_cif.got.tgz:23165.got - 2010.04.14 02:50:06.
