data_PCOD8164250
_publ_section_title
;
Structure prediction by ZEFSAII (Michael W. Deem and Ramdas Pophale) SiO2 
 PCOD8164250
Probable space group: I 2 2 2
;
_chemical_formula_sum "Si O2"
_cell_formula_units_Z 22
_cell_length_a 5.521031
_cell_length_b 15.936817
_cell_length_c 11.058459
_cell_angle_alpha 90.000000
_cell_angle_beta 90.000000
_cell_angle_gamma 90.000000
_cell_volume 973.007938
_symmetry_space_group_name_H-M "I 2 2 2"
_symmetry_group_IT_number 23
_symmetry_cell_setting 'orthorhombic'
loop_
_space_group_symop_operation_xyz
x,y,z
-x,-y,z
x,-y,-z
-x,y,-z
1/2+x,1/2+y,1/2+z
1/2-x,1/2-y,1/2+z
1/2+x,1/2-y,1/2-z
1/2-x,1/2+y,1/2-z
loop_
_atom_site_type_symbol
_atom_site_label
_atom_site_fract_x
_atom_site_fract_y
_atom_site_fract_z
Si Si1 0.000000 0.711409 0.500000
Si Si2 0.500000 0.500000 0.500000
Si Si3 0.754018 0.871206 0.448027
Si Si4 0.848612 0.417380 0.316925
O O1 0.765863 0.772862 0.487214
O O2 0.007344 0.655486 0.621593
O O3 0.649814 0.437967 0.416495
O O4 0.500000 0.908769 0.500000
O O5 0.769064 0.881998 0.304331
O O6 0.000000 0.916569 0.500000
O O7 0.000000 0.500000 0.285311
#
# Coordination Sequence:
#
# PCOD8164250 Si02
#       4
#     4   2   8   8
#     4  10  25  44  74 111 142 202 246 308 371 448
#     4  12  26  44  74 102 148 196 256 306 378 436
#     4  10  28  47  75 108 149 197 245 308 380 448
#     4  12  26  47  73 110 150 195 256 312 375 452
#
# _framework density 22.610298
#
# number of rings (size 3 to 8) (size 9 to 14) (size 15 to 20)
#    1.091    0.000    3.636    0.000   12.727    0.727 
#    0.000    0.000    0.000    0.000    0.000    0.000 
#    0.000    0.000    0.000    0.000    0.000    0.000 
#
# Total GULP energy -136307.916447 kJ/mol
# GULP energy per Si atom -12391.628768 kJ/mol
# Density = 2.255884 g / cm^3
# Si number density = 22.610298 Si / 1000 Ang^3
#
#
#
# Elastic Constant Matrix: (Units=GPa)
#
#
# Indices 1 2 3 4 5 6 
#
# 1 144.7900 9.2881 52.9687 0.0000 0.0000 0.0000
# 2 9.2881 90.6895 31.8919 0.0000 -0.0001 0.0000
# 3 52.9687 31.8919 180.7598 0.0002 -0.0005 0.0000
# 4 0.0000 0.0000 0.0002 11.2027 0.0000 0.0000
# 5 0.0000 -0.0001 -0.0005 0.0000 -92.7270 0.0000
# 6 0.0000 0.0000 0.0000 0.0000 0.0000 -27.2022
#
#
#
# Elastic Compliance Matrix: (Units=1/GPa)
#
#
# Indices 1 2 3 4 5 6 
#
# 1 0.007736 0.000005 -0.002268 0.000000 0.000000 0.000000
# 2 0.000005 0.011756 -0.002076 0.000000 0.000000 0.000000
# 3 -0.002268 -0.002076 0.006563 0.000000 0.000000 0.000000
# 4 0.000000 0.000000 0.000000 0.089264 0.000000 0.000000
# 5 0.000000 0.000000 0.000000 0.000000 -0.010784 0.000000
# 6 0.000000 0.000000 0.000000 0.000000 0.000000 -0.036762
#
#
# Mechanical properties :
#
#
# Convention : Reuss Voigt Hill
#
# Bulk Modulus (GPa) = 57.54285 67.17072 62.35679
# Shear Modulus (GPa) = 60.79602 -0.27259 30.26172
#
# Velocity S-wave (km/s) = 5.19105 -0.34759 3.66239
# Velocity P-wave (km/s) = 7.83801 5.44164 6.74707
#
# Compressibility (1/GPa) = 0.01737835
#
# Stress axis : x y z
#
# Youngs Moduli (GPa) = 129.26841 85.06272 152.37038
#
# Poissons Ratio (x) = -0.00044 0.34554
# Poissons Ratio (y) = -0.00067 0.31627
# Poissons Ratio (z) = 0.29315 0.17656
#
# Static dielectric constant tensor:
#      x y z
#    x 4.029500 0.000000 0.000000 
#    y 0.000000 11.336960 0.000000 
#    z 0.000000 0.000000 3.968200 
# 
# 
# High freq. dielectric constant tensor:
#      x y z
#    x 1.882890 0.000000 0.000000 
#    y 0.000000 1.895420 0.000000 
#    z 0.000000 0.000000 1.899640 
# 
# From -- ./inp_files/1904.got.cif
#   From: 2010.03.12/outbox.cif.g09.slc.cpg/sg23_1_cif.got.tgz:1904.got - 2010.04.14 02:50:06.
