data_PCOD8164705
_publ_section_title
;
Structure prediction by ZEFSAII (Michael W. Deem and Ramdas Pophale) SiO2 
 PCOD8164705
Probable space group: I 21 21 21
;
_chemical_formula_sum "Si O2"
_cell_formula_units_Z 64
_cell_length_a 14.230819
_cell_length_b 9.497061
_cell_length_c 24.099529
_cell_angle_alpha 90.000000
_cell_angle_beta 90.000000
_cell_angle_gamma 90.000000
_cell_volume 3257.074386
_symmetry_space_group_name_H-M "I 21 21 21"
_symmetry_group_IT_number 24
_symmetry_cell_setting 'orthorhombic'
loop_
_space_group_symop_operation_xyz
x,y,z
-x,1/2-y,z
x,-y,1/2-z
1/2-x,y,-z
1/2+x,1/2+y,1/2+z
1/2-x,-y,1/2+z
1/2+x,1/2-y,-z
-x,1/2+y,1/2-z
loop_
_atom_site_type_symbol
_atom_site_label
_atom_site_fract_x
_atom_site_fract_y
_atom_site_fract_z
Si Si1 0.854847 0.370467 0.506541
Si Si2 0.643682 0.963546 0.002605
Si Si3 0.406785 0.655643 0.275120
Si Si4 0.553929 0.883006 0.392780
Si Si5 0.570845 0.620284 0.124620
Si Si6 0.005288 0.917356 0.082806
Si Si7 0.277089 0.859753 0.214979
Si Si8 0.440876 0.110833 0.702115
O O1 0.750000 0.424744 0.500000
O O2 0.861439 0.202680 0.509310
O O3 0.904008 0.420985 0.561940
O O4 0.907018 0.449429 0.456651
O O5 0.586107 0.993849 0.945245
O O6 0.750000 0.019219 0.000000
O O7 0.602971 0.034523 0.057616
O O8 0.500000 0.750000 0.261549
O O9 0.420922 0.500000 0.250000
O O10 0.379780 0.660716 0.341066
O O11 0.313988 0.724489 0.248142
O O12 0.500000 0.750000 0.419065
O O13 0.483436 0.981050 0.356512
O O14 0.500000 0.750000 0.130762
O O15 0.666900 0.639770 0.157316
O O16 0.025486 0.968265 0.145396
O O17 0.000000 0.750000 0.085890
O O18 0.168000 0.843658 0.199159
O O19 0.296176 0.000000 0.250000
O O20 0.500000 0.250000 0.714451
O O21 0.460424 0.000000 0.750000
#
# Coordination Sequence:
#
# PCOD8164705 Si02
#       8
#     8   8   8   8   8   8   8   8
#     4  10  18  31  58  91 114 145 197 254 299 348
#     4  10  20  37  60  87 119 155 199 246 305 363
#     4  11  22  38  58  90 127 162 200 244 307 372
#     4  11  22  37  57  83 130 163 189 242 306 365
#     4  12  20  35  61  90 119 152 204 247 296 370
#     4   9  17  37  59  86 117 150 194 258 309 344
#     4  11  23  39  60  86 121 164 204 252 307 362
#     4  10  23  44  65  88 120 160 208 261 312 358
#
# _framework density 19.649538
#
# number of rings (size 3 to 8) (size 9 to 14) (size 15 to 20)
#    0.000    1.500    2.500    4.875    0.000    1.500 
#    2.250    1.250    2.750    0.000    0.000    0.000 
#    0.000    0.000    0.000    0.000    0.000    0.000 
#
# Total GULP energy -396575.738520 kJ/mol
# GULP energy per Si atom -12392.991829 kJ/mol
# Density = 1.960481 g / cm^3
# Si number density = 19.649538 Si / 1000 Ang^3
#
#
#
# Elastic Constant Matrix: (Units=GPa)
#
#
# Indices 1 2 3 4 5 6 
#
# 1 145.7568 44.2055 72.0614 0.0000 0.0000 0.0000
# 2 44.2055 78.0380 30.1906 0.0000 0.0000 0.0000
# 3 72.0614 30.1906 151.7825 0.0000 0.0000 0.0000
# 4 0.0000 0.0000 0.0000 21.6711 0.0000 0.0000
# 5 0.0000 0.0000 0.0000 0.0000 24.9472 0.0000
# 6 0.0000 0.0000 0.0000 0.0000 0.0000 -78.9477
#
#
#
# Elastic Compliance Matrix: (Units=1/GPa)
#
#
# Indices 1 2 3 4 5 6 
#
# 1 0.010085 -0.004182 -0.003956 0.000000 0.000000 0.000000
# 2 -0.004182 0.015617 -0.001121 0.000000 0.000000 0.000000
# 3 -0.003956 -0.001121 0.008690 0.000000 0.000000 0.000000
# 4 0.000000 0.000000 0.000000 0.046144 0.000000 0.000000
# 5 0.000000 0.000000 0.000000 0.000000 0.040085 0.000000
# 6 0.000000 0.000000 0.000000 0.000000 0.000000 -0.012667
#
#
# Mechanical properties :
#
#
# Convention : Reuss Voigt Hill
#
# Bulk Modulus (GPa) = 62.99915 74.27696 68.63805
# Shear Modulus (GPa) = 37.94678 8.80876 23.37777
#
# Velocity S-wave (km/s) = 4.39929 2.11959 3.45300
# Velocity P-wave (km/s) = 7.61157 6.62368 7.13474
#
# Compressibility (1/GPa) = 0.01587323
#
# Stress axis : x y z
#
# Youngs Moduli (GPa) = 99.15649 64.03305 115.08064
#
# Poissons Ratio (x) = 0.26780 0.45528
# Poissons Ratio (y) = 0.41470 0.12897
# Poissons Ratio (z) = 0.39228 0.07176
#
# Static dielectric constant tensor:
#      x y z
#    x 3.857570 0.000000 0.000000 
#    y 0.000000 3.420000 0.000000 
#    z 0.000000 0.000000 4.907280 
# 
# 
# High freq. dielectric constant tensor:
#      x y z
#    x 1.763150 0.000000 0.000000 
#    y 0.000000 1.741900 0.000000 
#    z 0.000000 0.000000 1.783090 
# 
# From -- ./inp_files/35846.got.cif
#   From: 2010.03.12/outbox.cif.g09.slc.cpg/sg24_18_cif.got.tgz:35846.got - 2010.04.14 03:06:53.
