data_PCOD8164585
_publ_section_title
;
Structure prediction by ZEFSAII (Michael W. Deem and Ramdas Pophale) SiO2 
 PCOD8164585
Probable space group: I 21 21 21
;
_chemical_formula_sum "Si O2"
_cell_formula_units_Z 52
_cell_length_a 14.846764
_cell_length_b 9.049645
_cell_length_c 20.311292
_cell_angle_alpha 90.000000
_cell_angle_beta 90.000000
_cell_angle_gamma 90.000000
_cell_volume 2728.983425
_symmetry_space_group_name_H-M "I 21 21 21"
_symmetry_group_IT_number 24
_symmetry_cell_setting 'orthorhombic'
loop_
_space_group_symop_operation_xyz
x,y,z
-x,1/2-y,z
x,-y,1/2-z
1/2-x,y,-z
1/2+x,1/2+y,1/2+z
1/2-x,-y,1/2+z
1/2+x,1/2-y,-z
-x,1/2+y,1/2-z
loop_
_atom_site_type_symbol
_atom_site_label
_atom_site_fract_x
_atom_site_fract_y
_atom_site_fract_z
Si Si1 0.441610 0.967448 0.912607
Si Si2 0.636118 0.424726 0.315400
Si Si3 0.579134 0.633377 0.047604
Si Si4 0.183777 0.907746 0.312365
Si Si5 0.629971 0.139184 0.611738
Si Si6 0.756801 0.842652 0.769141
Si Si7 0.250000 0.300052 0.500000
O O1 0.545257 0.970811 0.890394
O O2 0.397690 0.809185 0.897489
O O3 0.388450 0.093118 0.871664
O O4 0.432870 0.994007 0.991683
O O5 0.591877 0.500000 0.250000
O O6 0.568837 0.430375 0.377988
O O7 0.725799 0.511441 0.336199
O O8 0.662641 0.255276 0.299351
O O9 0.500000 0.750000 0.033197
O O10 0.678743 0.702017 0.041299
O O11 0.209178 0.740646 0.292412
O O12 0.144309 0.000000 0.250000
O O13 0.677118 0.119682 0.680935
O O14 0.697849 0.097011 0.552279
O O15 0.800246 0.000000 0.750000
#
# Coordination Sequence:
#
# PCOD8164585 Si02
#       7
#     8   8   8   8   8   8   4
#     4  10  17  29  47  82 107 133 184 225 280 325
#     4   9  18  34  53  77 108 139 184 237 278 327
#     4  11  18  29  56  86 106 139 187 239 287 330
#     4   9  17  32  50  73 110 146 177 227 277 326
#     4  10  17  29  48  76 108 135 174 228 274 326
#     4  10  19  33  51  76 108 152 186 214 279 345
#     4  10  16  30  50  76 112 132 172 246 274 326
#
# _framework density 19.054714000000001
#
# number of rings (size 3 to 8) (size 9 to 14) (size 15 to 20)
#    0.000    2.462    7.692    0.923    0.000    0.615 
#    0.000    0.769    0.000    3.692    0.000    0.000 
#    0.000    0.000    0.000    0.000    0.000    0.000 
#
# Total GULP energy -322228.096280 kJ/mol
# GULP energy per Si atom -12393.388318 kJ/mol
# Density = 1.901134 g / cm^3
# Si number density = 19.054714 Si / 1000 Ang^3
#
#
#
# Elastic Constant Matrix: (Units=GPa)
#
#
# Indices 1 2 3 4 5 6 
#
# 1 42.8289 6.1104 20.0112 0.0000 0.0000 0.0000
# 2 6.1104 75.5799 29.9432 0.0000 0.0000 0.0000
# 3 20.0112 29.9432 123.8809 0.0000 0.0000 0.0000
# 4 0.0000 0.0000 0.0000 17.9712 0.0000 0.0000
# 5 0.0000 0.0000 0.0000 0.0000 33.1755 0.0000
# 6 0.0000 0.0000 0.0000 0.0000 0.0000 11.3245
#
#
#
# Elastic Compliance Matrix: (Units=1/GPa)
#
#
# Indices 1 2 3 4 5 6 
#
# 1 0.025270 -0.000471 -0.003968 0.000000 0.000000 0.000000
# 2 -0.000471 0.014641 -0.003463 0.000000 0.000000 0.000000
# 3 -0.003968 -0.003463 0.009550 0.000000 0.000000 0.000000
# 4 0.000000 0.000000 0.000000 0.055645 0.000000 0.000000
# 5 0.000000 0.000000 0.000000 0.000000 0.030143 0.000000
# 6 0.000000 0.000000 0.000000 0.000000 0.000000 0.088304
#
#
# Mechanical properties :
#
#
# Convention : Reuss Voigt Hill
#
# Bulk Modulus (GPa) = 29.71106 39.37992 34.54549
# Shear Modulus (GPa) = 19.95409 24.90924 22.43167
#
# Velocity S-wave (km/s) = 3.23956 3.61951 3.43479
# Velocity P-wave (km/s) = 5.44236 6.17895 5.82232
#
# Compressibility (1/GPa) = 0.03365750
#
# Stress axis : x y z
#
# Youngs Moduli (GPa) = 39.57267 68.30138 104.70910
#
# Poissons Ratio (x) = 0.03216 0.41551
# Poissons Ratio (y) = 0.01863 0.36259
# Poissons Ratio (z) = 0.15703 0.23651
#
# Static dielectric constant tensor:
#      x y z
#    x 3.333640 0.000000 0.000000 
#    y 0.000000 3.054100 0.000000 
#    z 0.000000 0.000000 3.783460 
# 
# 
# High freq. dielectric constant tensor:
#      x y z
#    x 1.726390 0.000000 0.000000 
#    y 0.000000 1.680750 0.000000 
#    z 0.000000 0.000000 1.753830 
# 
# From -- ./inp_files/33708.got.cif
#   From: 2010.03.12/outbox.cif.g09.slc.cpg/sg24_17_cif.got.tgz:33708.got - 2010.04.14 03:06:53.
