data_PCOD8164872
_publ_section_title
;
Structure prediction by ZEFSAII (Michael W. Deem and Ramdas Pophale) SiO2 
 PCOD8164872
Probable space group: I 21 21 21
;
_chemical_formula_sum "Si O2"
_cell_formula_units_Z 32
_cell_length_a 36.722455
_cell_length_b 8.356580
_cell_length_c 5.122837
_cell_angle_alpha 90.000000
_cell_angle_beta 90.000000
_cell_angle_gamma 90.000000
_cell_volume 1572.066163
_symmetry_space_group_name_H-M "I 21 21 21"
_symmetry_group_IT_number 24
_symmetry_cell_setting 'orthorhombic'
loop_
_space_group_symop_operation_xyz
x,y,z
-x,1/2-y,z
x,-y,1/2-z
1/2-x,y,-z
1/2+x,1/2+y,1/2+z
1/2-x,-y,1/2+z
1/2+x,1/2-y,-z
-x,1/2+y,1/2-z
loop_
_atom_site_type_symbol
_atom_site_label
_atom_site_fract_x
_atom_site_fract_y
_atom_site_fract_z
Si Si1 0.577562 0.182616 0.207514
Si Si2 0.292431 0.102145 0.997586
Si Si3 0.344597 0.605509 0.488532
Si Si4 0.539814 0.809829 0.788924
O O1 0.619245 0.195625 0.114036
O O2 0.567966 0.258138 0.489932
O O3 0.566087 0.000000 0.250000
O O4 0.552738 0.266330 0.985785
O O5 0.303419 0.000000 0.750000
O O6 0.250000 0.145736 0.000000
O O7 0.313571 0.266637 0.960908
O O8 0.304005 0.000000 0.250000
O O9 0.329756 0.500000 0.250000
O O10 0.352427 0.500000 0.750000
O O11 0.500000 0.750000 0.864948
O O12 0.541291 0.000000 0.750000
#
# Coordination Sequence:
#
# PCOD8164872 Si02
#       4
#     8   8   8   8
#     4   9  18  33  52  74 104 139 173 222 282 325
#     4  10  22  40  59  83 120 158 184 222 290 348
#     4  11  21  36  61  88 111 146 198 241 274 328
#     4  10  19  33  52  73 101 137 176 219 272 329
#
# _framework density 20.355377000000001
#
# number of rings (size 3 to 8) (size 9 to 14) (size 15 to 20)
#    0.000    2.000    0.000    6.000    0.000    1.000 
#    0.000    3.750    0.000    0.000    0.000    0.000 
#    0.000    0.000    0.000    0.000    0.000    0.000 
#
# Total GULP energy -198275.952193 kJ/mol
# GULP energy per Si atom -12392.247012 kJ/mol
# Density = 2.030905 g / cm^3
# Si number density = 20.355377 Si / 1000 Ang^3
#
#
#
# Elastic Constant Matrix: (Units=GPa)
#
#
# Indices 1 2 3 4 5 6 
#
# 1 100.0927 47.0071 53.8071 -0.0002 0.0004 0.0003
# 2 47.0071 45.9568 34.1366 -0.0003 0.0001 0.0000
# 3 53.8071 34.1366 164.5533 -0.0003 0.0000 0.0003
# 4 -0.0002 -0.0003 -0.0003 17.1520 -0.0001 0.0000
# 5 0.0004 0.0001 0.0000 -0.0001 47.5804 -0.0001
# 6 0.0003 0.0000 0.0003 0.0000 -0.0001 33.5740
#
#
#
# Elastic Compliance Matrix: (Units=1/GPa)
#
#
# Indices 1 2 3 4 5 6 
#
# 1 0.020223 -0.018647 -0.002745 0.000000 0.000000 0.000000
# 2 -0.018647 0.042917 -0.002806 0.000000 0.000000 0.000000
# 3 -0.002745 -0.002806 0.007557 0.000000 0.000000 0.000000
# 4 0.000000 0.000000 0.000000 0.058302 0.000000 0.000000
# 5 0.000000 0.000000 0.000000 0.000000 0.021017 0.000000
# 6 0.000000 0.000000 0.000000 0.000000 0.000000 0.029785
#
#
# Mechanical properties :
#
#
# Convention : Reuss Voigt Hill
#
# Bulk Modulus (GPa) = 44.83849 64.50049 54.66949
# Shear Modulus (GPa) = 21.21975 31.37140 26.29558
#
# Velocity S-wave (km/s) = 3.23222 3.93005 3.59810
# Velocity P-wave (km/s) = 6.00045 7.23531 6.64662
#
# Compressibility (1/GPa) = 0.02230227
#
# Stress axis : x y z
#
# Youngs Moduli (GPa) = 49.44762 23.30092 132.33580
#
# Poissons Ratio (x) = 0.43449 0.36320
# Poissons Ratio (y) = 0.92205 0.37130
# Poissons Ratio (z) = 0.13571 0.06538
#
# Static dielectric constant tensor:
#      x y z
#    x 3.544680 0.000000 0.000000 
#    y 0.000000 3.211530 0.000000 
#    z 0.000000 0.000000 4.407710 
# 
# 
# High freq. dielectric constant tensor:
#      x y z
#    x 1.793510 0.000000 0.000000 
#    y 0.000000 1.750970 0.000000 
#    z 0.000000 0.000000 1.829810 
# 
# From -- ./inp_files/7457.got.cif
#   From: 2010.03.12/outbox.cif.g09.slc.cpg/sg24_4_cif.got.tgz:7457.got - 2010.04.14 03:06:53.
