data_PCOD8164001
_publ_section_title
;
Structure prediction by ZEFSAII (Michael W. Deem and Ramdas Pophale) SiO2 
 PCOD8164001
Probable space group: I 2 2 2
;
_chemical_formula_sum "Si O2"
_cell_formula_units_Z 56
_cell_length_a 10.022946
_cell_length_b 14.959781
_cell_length_c 18.201462
_cell_angle_alpha 90.000000
_cell_angle_beta 90.000000
_cell_angle_gamma 90.000000
_cell_volume 2729.146818
_symmetry_space_group_name_H-M "I 2 2 2"
_symmetry_group_IT_number 23
_symmetry_cell_setting 'orthorhombic'
loop_
_space_group_symop_operation_xyz
x,y,z
-x,-y,z
x,-y,-z
-x,y,-z
1/2+x,1/2+y,1/2+z
1/2-x,1/2-y,1/2+z
1/2+x,1/2-y,1/2-z
1/2-x,1/2+y,1/2-z
loop_
_atom_site_type_symbol
_atom_site_label
_atom_site_fract_x
_atom_site_fract_y
_atom_site_fract_z
Si Si1 0.544008 0.096641 0.776601
Si Si2 0.726013 0.298484 0.905687
Si Si3 0.047633 0.226129 0.346977
Si Si4 0.986358 0.104116 0.080157
Si Si5 0.976997 0.601174 0.109125
Si Si6 0.807181 0.746498 0.937430
Si Si7 0.675128 0.662562 0.704361
O O1 0.489254 0.169818 0.834205
O O2 0.487492 0.114574 0.696084
O O3 0.704804 0.098420 0.770311
O O4 0.500000 0.000000 0.806755
O O5 0.569202 0.321484 0.895298
O O6 0.822218 0.383838 0.913096
O O7 0.764212 0.253365 0.827796
O O8 0.754577 0.239215 0.978814
O O9 0.183279 0.212269 0.390631
O O10 0.068248 0.177529 0.268889
O O11 0.851327 0.158397 0.101768
O O12 0.102507 0.118147 0.136709
O O13 0.000000 0.000000 0.067902
O O14 0.000000 0.151458 0.000000
O O15 0.000000 0.500000 0.083321
O O16 0.074663 0.672104 0.068740
#
# Coordination Sequence:
#
# PCOD8164001 Si02
#       7
#     8   8   8   8   8   8   8
#     4  10  22  39  63  94 128 160 214 266 312 383
#     4  11  23  41  63  91 130 164 210 266 315 382
#     4  11  24  40  67  92 127 171 207 261 334 379
#     4  11  23  39  64  94 127 167 212 262 313 380
#     4  11  22  41  69  93 119 165 216 259 316 382
#     4  12  22  43  65  94 127 170 211 262 321 388
#     4  11  21  42  61  93 124 171 209 264 314 380
#
# _framework density 20.519234000000001
#
# number of rings (size 3 to 8) (size 9 to 14) (size 15 to 20)
#    0.000    1.000    5.714    0.857    4.000    1.143 
#    2.571    0.714    0.000    2.571    0.000    0.000 
#    0.000    0.000    0.000    0.000    0.000    0.000 
#
# Total GULP energy -346873.811379 kJ/mol
# GULP energy per Si atom -12388.350406 kJ/mol
# Density = 2.047253 g / cm^3
# Si number density = 20.519234 Si / 1000 Ang^3
#
#
#
# Elastic Constant Matrix: (Units=GPa)
#
#
# Indices 1 2 3 4 5 6 
#
# 1 127.9654 60.4493 33.2173 0.0000 0.0000 0.0000
# 2 60.4493 103.4128 28.6258 0.0000 0.0000 0.0000
# 3 33.2173 28.6258 74.4969 0.0000 0.0000 0.0000
# 4 0.0000 0.0000 0.0000 16.1791 0.0000 0.0000
# 5 0.0000 0.0000 0.0000 0.0000 30.4315 0.0000
# 6 0.0000 0.0000 0.0000 0.0000 0.0000 27.1650
#
#
#
# Elastic Compliance Matrix: (Units=1/GPa)
#
#
# Indices 1 2 3 4 5 6 
#
# 1 0.011293 -0.005827 -0.002796 0.000000 0.000000 0.000000
# 2 -0.005827 0.013828 -0.002715 0.000000 0.000000 0.000000
# 3 -0.002796 -0.002715 0.015714 0.000000 0.000000 0.000000
# 4 0.000000 0.000000 0.000000 0.061808 0.000000 0.000000
# 5 0.000000 0.000000 0.000000 0.000000 0.032861 0.000000
# 6 0.000000 0.000000 0.000000 0.000000 0.000000 0.036812
#
#
# Mechanical properties :
#
#
# Convention : Reuss Voigt Hill
#
# Bulk Modulus (GPa) = 55.07485 61.16221 58.11853
# Shear Modulus (GPa) = 24.87000 26.99397 25.93198
#
# Velocity S-wave (km/s) = 3.48520 3.63098 3.55884
# Velocity P-wave (km/s) = 6.56463 6.88844 6.72849
#
# Compressibility (1/GPa) = 0.01815711
#
# Stress axis : x y z
#
# Youngs Moduli (GPa) = 88.54850 72.31765 63.63943
#
# Poissons Ratio (x) = 0.42142 0.17796
# Poissons Ratio (y) = 0.51600 0.17279
# Poissons Ratio (z) = 0.24761 0.19635
#
# Static dielectric constant tensor:
#      x y z
#    x 4.714470 0.000000 0.000000 
#    y 0.000000 3.714660 0.000000 
#    z 0.000000 0.000000 3.746700 
# 
# 
# High freq. dielectric constant tensor:
#      x y z
#    x 1.807390 0.000000 0.000000 
#    y 0.000000 1.778050 0.000000 
#    z 0.000000 0.000000 1.814540 
# 
# From -- ./inp_files/26253.got.cif
#   From: 2010.03.12/outbox.cif.g09.slc.cpg/sg23_14_cif.got.tgz:26253.got - 2010.04.14 02:50:06.
