data_PCOD8164332
_publ_section_title
;
Structure prediction by ZEFSAII (Michael W. Deem and Ramdas Pophale) SiO2 
 PCOD8164332
Probable space group: I 2 2 2
;
_chemical_formula_sum "Si O2"
_cell_formula_units_Z 48
_cell_length_a 18.570792
_cell_length_b 8.895411
_cell_length_c 13.214409
_cell_angle_alpha 90.000000
_cell_angle_beta 90.000000
_cell_angle_gamma 90.000000
_cell_volume 2182.952014
_symmetry_space_group_name_H-M "I 2 2 2"
_symmetry_group_IT_number 23
_symmetry_cell_setting 'orthorhombic'
loop_
_space_group_symop_operation_xyz
x,y,z
-x,-y,z
x,-y,-z
-x,y,-z
1/2+x,1/2+y,1/2+z
1/2-x,1/2-y,1/2+z
1/2+x,1/2-y,1/2-z
1/2-x,1/2+y,1/2-z
loop_
_atom_site_type_symbol
_atom_site_label
_atom_site_fract_x
_atom_site_fract_y
_atom_site_fract_z
Si Si1 0.466324 0.160036 0.244172
Si Si2 0.770895 0.163851 0.954001
Si Si3 0.441372 0.378933 0.852624
Si Si4 0.299436 0.531483 0.252092
Si Si5 0.389335 0.170770 0.032703
Si Si6 0.320202 0.784760 0.652387
O O1 0.529124 0.286159 0.245522
O O2 0.437607 0.177776 0.131051
O O3 0.404203 0.192112 0.325065
O O4 0.500000 0.000000 0.268930
O O5 0.809040 0.150309 0.844787
O O6 0.690444 0.231082 0.940672
O O7 0.815123 0.270623 0.030499
O O8 0.764119 0.000000 0.000000
O O9 0.500000 0.500000 0.888942
O O10 0.369104 0.464029 0.818950
O O11 0.424136 0.269915 0.945325
O O12 0.288152 0.363805 0.294001
O O13 0.227340 0.573902 0.189603
O O14 0.386186 0.000000 0.000000
#
# Coordination Sequence:
#
# PCOD8164332 Si02
#       6
#     8   8   8   8   8   8
#     4  12  25  40  65  98 139 182 219 270 351 414
#     4   9  20  39  69  95 122 174 228 267 324 400
#     4  12  25  42  62 100 143 175 219 286 348 400
#     4  11  23  43  67  97 134 173 228 282 337 410
#     4  11  21  39  64 100 133 172 216 268 334 416
#     4  11  23  43  68  98 132 177 229 278 335 412
#
# _framework density 21.988572000000001
#
# number of rings (size 3 to 8) (size 9 to 14) (size 15 to 20)
#    0.000    1.000    6.667    0.500    2.333    1.333 
#    0.000    3.333    0.000    1.000    0.000    0.000 
#    0.000    0.000    0.000    0.000    0.000    0.000 
#
# Total GULP energy -297607.834260 kJ/mol
# GULP energy per Si atom -12400.326428 kJ/mol
# Density = 2.193853 g / cm^3
# Si number density = 21.988572 Si / 1000 Ang^3
#
#
#
# Elastic Constant Matrix: (Units=GPa)
#
#
# Indices 1 2 3 4 5 6 
#
# 1 98.9874 18.9450 20.9643 0.0000 0.0000 0.0000
# 2 18.9450 76.1028 3.3599 0.0000 0.0000 0.0000
# 3 20.9643 3.3599 67.5285 0.0000 0.0000 0.0000
# 4 0.0000 0.0000 0.0000 20.3847 0.0000 0.0000
# 5 0.0000 0.0000 0.0000 0.0000 30.4868 0.0000
# 6 0.0000 0.0000 0.0000 0.0000 0.0000 41.7353
#
#
#
# Elastic Compliance Matrix: (Units=1/GPa)
#
#
# Indices 1 2 3 4 5 6 
#
# 1 0.011330 -0.002671 -0.003385 0.000000 0.000000 0.000000
# 2 -0.002671 0.013799 0.000143 0.000000 0.000000 0.000000
# 3 -0.003385 0.000143 0.015852 0.000000 0.000000 0.000000
# 4 0.000000 0.000000 0.000000 0.049056 0.000000 0.000000
# 5 0.000000 0.000000 0.000000 0.000000 0.032801 0.000000
# 6 0.000000 0.000000 0.000000 0.000000 0.000000 0.023961
#
#
# Mechanical properties :
#
#
# Convention : Reuss Voigt Hill
#
# Bulk Modulus (GPa) = 34.29918 36.57301 35.43609
# Shear Modulus (GPa) = 29.70114 31.81135 30.75624
#
# Velocity S-wave (km/s) = 3.67925 3.80771 3.74403
# Velocity P-wave (km/s) = 5.80359 6.00003 5.90263
#
# Compressibility (1/GPa) = 0.02915522
#
# Stress axis : x y z
#
# Youngs Moduli (GPa) = 88.25860 72.47022 63.08270
#
# Poissons Ratio (x) = 0.19358 0.21351
# Poissons Ratio (y) = 0.23575 -0.00900
# Poissons Ratio (z) = 0.29872 -0.01034
#
# Static dielectric constant tensor:
#      x y z
#    x 4.160410 0.000000 0.000000 
#    y 0.000000 4.025300 0.000000 
#    z 0.000000 0.000000 3.938160 
# 
# 
# High freq. dielectric constant tensor:
#      x y z
#    x 1.867230 0.000000 0.000000 
#    y 0.000000 1.868000 0.000000 
#    z 0.000000 0.000000 1.849530 
# 
# From -- ./inp_files/11038.got.cif
#   From: 2010.03.12/outbox.cif.g09.slc.cpg/sg23_6_cif.got.tgz:11038.got - 2010.04.14 02:50:06.
