data_PCOD8164941
_publ_section_title
;
Structure prediction by ZEFSAII (Michael W. Deem and Ramdas Pophale) SiO2 
 PCOD8164941
Probable space group: I 21 21 21
;
_chemical_formula_sum "Si O2"
_cell_formula_units_Z 36
_cell_length_a 24.870312
_cell_length_b 14.503403
_cell_length_c 4.864689
_cell_angle_alpha 90.000000
_cell_angle_beta 90.000000
_cell_angle_gamma 90.000000
_cell_volume 1754.713548
_symmetry_space_group_name_H-M "I 21 21 21"
_symmetry_group_IT_number 24
_symmetry_cell_setting 'orthorhombic'
loop_
_space_group_symop_operation_xyz
x,y,z
-x,1/2-y,z
x,-y,1/2-z
1/2-x,y,-z
1/2+x,1/2+y,1/2+z
1/2-x,-y,1/2+z
1/2+x,1/2-y,-z
-x,1/2+y,1/2-z
loop_
_atom_site_type_symbol
_atom_site_label
_atom_site_fract_x
_atom_site_fract_y
_atom_site_fract_z
Si Si1 0.909431 0.398628 0.143412
Si Si2 0.056876 0.790213 0.868419
Si Si3 0.163056 0.688313 0.843821
Si Si4 0.803520 0.297464 0.153470
Si Si5 0.286286 0.500000 0.250000
O O1 0.922756 0.500000 0.250000
O O2 0.945864 0.330992 0.326578
O O3 0.845429 0.381743 0.177458
O O4 0.925372 0.375023 0.830147
O O5 0.099884 0.706895 0.887656
O O6 0.000000 0.750000 0.775732
O O7 0.174087 0.714817 0.530612
O O8 0.176518 0.580746 0.875444
O O9 0.201218 0.750650 0.044386
O O10 0.750000 0.335495 0.000000
O O11 0.250000 0.538619 0.500000
#
# Coordination Sequence:
#
# PCOD8164941 Si02
#       5
#     8   8   8   8   4
#     4  10  21  38  59  89 116 147 193 241 287 349
#     4  10  21  40  63  80 116 155 194 244 299 346
#     4  10  21  35  54  82 111 147 197 230 280 353
#     4  10  19  35  57  79 112 153 183 224 284 346
#     4  12  22  34  54  80 118 150 186 242 288 340
#
# _framework density 20.516169000000001
#
# number of rings (size 3 to 8) (size 9 to 14) (size 15 to 20)
#    0.000    1.778    0.000    5.333    0.000    0.000 
#    4.000    6.667    0.000    0.000    0.000    0.000 
#    0.000    0.000    0.000    0.000    0.000    0.000 
#
# Total GULP energy -223095.266307 kJ/mol
# GULP energy per Si atom -12394.181461 kJ/mol
# Density = 2.046947 g / cm^3
# Si number density = 20.516169 Si / 1000 Ang^3
#
#
#
# Elastic Constant Matrix: (Units=GPa)
#
#
# Indices 1 2 3 4 5 6 
#
# 1 118.8033 48.6025 19.6753 0.0000 0.0000 0.0000
# 2 48.6025 73.6810 12.0446 0.0000 0.0000 0.0000
# 3 19.6753 12.0446 81.7340 0.0000 0.0000 0.0000
# 4 0.0000 0.0000 0.0000 19.0791 0.0000 0.0000
# 5 0.0000 0.0000 0.0000 0.0000 27.9782 0.0000
# 6 0.0000 0.0000 0.0000 0.0000 0.0000 17.5741
#
#
#
# Elastic Compliance Matrix: (Units=1/GPa)
#
#
# Indices 1 2 3 4 5 6 
#
# 1 0.011762 -0.007476 -0.001730 0.000000 0.000000 0.000000
# 2 -0.007476 0.018659 -0.000950 0.000000 0.000000 0.000000
# 3 -0.001730 -0.000950 0.012791 0.000000 0.000000 0.000000
# 4 0.000000 0.000000 0.000000 0.052413 0.000000 0.000000
# 5 0.000000 0.000000 0.000000 0.000000 0.035742 0.000000
# 6 0.000000 0.000000 0.000000 0.000000 0.000000 0.056902
#
#
# Mechanical properties :
#
#
# Convention : Reuss Voigt Hill
#
# Bulk Modulus (GPa) = 43.66679 48.31813 45.99246
# Shear Modulus (GPa) = 23.12520 25.85268 24.48894
#
# Velocity S-wave (km/s) = 3.36098 3.55366 3.45866
# Velocity P-wave (km/s) = 6.03257 6.35927 6.19807
#
# Compressibility (1/GPa) = 0.02290070
#
# Stress axis : x y z
#
# Youngs Moduli (GPa) = 85.01845 53.59430 78.17881
#
# Poissons Ratio (x) = 0.40067 0.13523
# Poissons Ratio (y) = 0.63559 0.07427
# Poissons Ratio (z) = 0.14706 0.05091
#
# Static dielectric constant tensor:
#      x y z
#    x 3.619980 0.000000 0.000000 
#    y 0.000000 3.327980 0.000000 
#    z 0.000000 0.000000 3.914230 
# 
# 
# High freq. dielectric constant tensor:
#      x y z
#    x 1.789620 0.000000 0.000000 
#    y 0.000000 1.773410 0.000000 
#    z 0.000000 0.000000 1.826230 
# 
# From -- ./inp_files/6178.got.cif
#   From: 2010.03.12/outbox.cif.g09.slc.cpg/sg24_4_cif.got.tgz:6178.got - 2010.04.14 03:06:53.
