data_PCOD8164492
_publ_section_title
;
Structure prediction by ZEFSAII (Michael W. Deem and Ramdas Pophale) SiO2 
 PCOD8164492
Probable space group: I 2 2 2
;
_chemical_formula_sum "Si O2"
_cell_formula_units_Z 40
_cell_length_a 9.050952
_cell_length_b 25.344999
_cell_length_c 7.660638
_cell_angle_alpha 90.000000
_cell_angle_beta 90.000000
_cell_angle_gamma 90.000000
_cell_volume 1757.322544
_symmetry_space_group_name_H-M "I 2 2 2"
_symmetry_group_IT_number 23
_symmetry_cell_setting 'orthorhombic'
loop_
_space_group_symop_operation_xyz
x,y,z
-x,-y,z
x,-y,-z
-x,y,-z
1/2+x,1/2+y,1/2+z
1/2-x,1/2-y,1/2+z
1/2+x,1/2-y,1/2-z
1/2-x,1/2+y,1/2-z
loop_
_atom_site_type_symbol
_atom_site_label
_atom_site_fract_x
_atom_site_fract_y
_atom_site_fract_z
Si Si1 0.066001 0.444337 0.183512
Si Si2 0.370203 0.407436 0.146200
Si Si3 0.329549 0.186919 0.517167
Si Si4 0.500000 0.865419 0.000000
Si Si5 0.235301 0.803124 0.870428
Si Si6 0.500000 0.380038 0.500000
O O1 0.241970 0.452008 0.145796
O O2 0.022073 0.401273 0.329205
O O3 0.000000 0.500000 0.245273
O O4 0.000000 0.425213 0.000000
O O5 0.429488 0.414377 0.344427
O O6 0.500000 0.415500 0.000000
O O7 0.276478 0.353236 0.123112
O O8 0.500000 0.168918 0.500000
O O9 0.270281 0.190899 0.327445
O O10 0.314599 0.243525 0.604884
O O11 0.634030 0.824198 0.007575
O O12 0.103488 0.842441 0.892787
#
# Coordination Sequence:
#
# PCOD8164492 Si02
#       6
#     8   8   8   4   8   4
#     4  11  26  50  80 109 142 194 256 313 380 447
#     4  12  25  46  75 106 152 190 243 312 376 440
#     4  12  27  43  65 106 151 207 252 300 364 458
#     4  12  25  46  76 106 148 200 248 317 370 448
#     4  12  26  41  68 102 151 202 253 301 368 442
#     4  12  24  46  66 107 146 190 245 300 374 434
#
# _framework density 22.761900000000001
#
# number of rings (size 3 to 8) (size 9 to 14) (size 15 to 20)
#    0.000    0.200    5.000    4.500    4.200    0.000 
#    0.000    2.000    0.000    1.200    0.000    0.000 
#    0.000    0.000    0.000    0.000    0.000    0.000 
#
# Total GULP energy -247794.291310 kJ/mol
# GULP energy per Si atom -12389.714566 kJ/mol
# Density = 2.271009 g / cm^3
# Si number density = 22.761900 Si / 1000 Ang^3
#
#
#
# Elastic Constant Matrix: (Units=GPa)
#
#
# Indices 1 2 3 4 5 6 
#
# 1 148.9309 19.7698 40.7344 -0.0011 0.0016 0.0002
# 2 19.7698 62.0740 7.4697 0.0091 -0.0016 0.0016
# 3 40.7344 7.4697 150.3616 -0.0075 0.0149 0.0008
# 4 -0.0011 0.0091 -0.0075 45.0913 0.0005 0.0018
# 5 0.0016 -0.0016 0.0149 0.0005 51.5648 0.0019
# 6 0.0002 0.0016 0.0008 0.0018 0.0019 41.4043
#
#
#
# Elastic Compliance Matrix: (Units=1/GPa)
#
#
# Indices 1 2 3 4 5 6 
#
# 1 0.007531 -0.002166 -0.001933 0.000000 0.000000 0.000000
# 2 -0.002166 0.016830 -0.000249 -0.000003 0.000001 -0.000001
# 3 -0.001933 -0.000249 0.007187 0.000001 -0.000002 0.000000
# 4 0.000000 -0.000003 0.000001 0.022177 0.000000 -0.000001
# 5 0.000000 0.000001 -0.000002 0.000000 0.019393 -0.000001
# 6 0.000000 -0.000001 0.000000 -0.000001 -0.000001 0.024152
#
#
# Mechanical properties :
#
#
# Convention : Reuss Voigt Hill
#
# Bulk Modulus (GPa) = 43.76102 55.25715 49.50908
# Shear Modulus (GPa) = 44.02119 47.17158 45.59639
#
# Velocity S-wave (km/s) = 4.40248 4.55729 4.48056
# Velocity P-wave (km/s) = 6.71638 7.21254 6.96888
#
# Compressibility (1/GPa) = 0.02285139
#
# Stress axis : x y z
#
# Youngs Moduli (GPa) = 132.79166 59.41909 139.14870
#
# Poissons Ratio (x) = 0.12869 0.26891
# Poissons Ratio (y) = 0.28761 0.03469
# Poissons Ratio (z) = 0.25662 0.01481
#
# Static dielectric constant tensor:
#      x y z
#    x 4.380810 0.000000 -0.000030 
#    y 0.000000 3.684370 -0.000010 
#    z -0.000030 -0.000010 4.306970 
# 
# 
# High freq. dielectric constant tensor:
#      x y z
#    x 1.919150 0.000000 0.000000 
#    y 0.000000 1.887290 0.000000 
#    z 0.000000 0.000000 1.923230 
# 
# From -- ./inp_files/7122.got.cif
#   From: 2010.03.12/outbox.cif.g09.slc.cpg/sg23_4_cif.got.tgz:7122.got - 2010.04.14 02:50:06.
