data_PCOD8164380
_publ_section_title
;
Structure prediction by ZEFSAII (Michael W. Deem and Ramdas Pophale) SiO2 
 PCOD8164380
Probable space group: I 2 2 2
;
_chemical_formula_sum "Si O2"
_cell_formula_units_Z 64
_cell_length_a 14.245023
_cell_length_b 8.562497
_cell_length_c 24.567330
_cell_angle_alpha 90.000000
_cell_angle_beta 90.000000
_cell_angle_gamma 90.000000
_cell_volume 2996.550124
_symmetry_space_group_name_H-M "I 2 2 2"
_symmetry_group_IT_number 23
_symmetry_cell_setting 'orthorhombic'
loop_
_space_group_symop_operation_xyz
x,y,z
-x,-y,z
x,-y,-z
-x,y,-z
1/2+x,1/2+y,1/2+z
1/2-x,1/2-y,1/2+z
1/2+x,1/2-y,1/2-z
1/2-x,1/2+y,1/2-z
loop_
_atom_site_type_symbol
_atom_site_label
_atom_site_fract_x
_atom_site_fract_y
_atom_site_fract_z
Si Si1 0.792855 0.684361 0.302975
Si Si2 0.815167 0.319900 0.296908
Si Si3 0.260077 0.829014 0.003518
Si Si4 0.487255 0.682161 0.168534
Si Si5 0.210039 0.683390 0.897305
Si Si6 0.682660 0.821266 0.398952
Si Si7 0.542592 0.168557 0.054608
Si Si8 0.491575 0.816792 0.439652
O O1 0.812265 0.504559 0.292926
O O2 0.719102 0.751023 0.260021
O O3 0.744896 0.708517 0.361684
O O4 0.893854 0.768460 0.298902
O O5 0.921976 0.270157 0.308211
O O6 0.742903 0.262381 0.342193
O O7 0.196703 0.707927 0.036666
O O8 0.349739 0.858548 0.041337
O O9 0.279253 0.746139 0.945211
O O10 0.211559 0.000000 0.000000
O O11 0.500000 0.500000 0.176872
O O12 0.473867 0.716469 0.104670
O O13 0.213253 0.498535 0.887157
O O14 0.105664 0.739208 0.912900
O O15 0.572108 0.778288 0.394376
O O16 0.500000 0.000000 0.068972
O O17 0.500000 0.244785 0.000000
O O18 0.500000 0.737669 0.500000
O O19 0.500000 0.000000 0.448545
#
# Coordination Sequence:
#
# PCOD8164380 Si02
#       8
#     8   8   8   8   8   8   8   8
#     4  12  26  49  71 100 134 176 225 276 344 401
#     4  12  27  47  73  99 135 176 222 281 339 405
#     4  12  22  37  61  94 135 178 220 275 336 403
#     4  12  26  46  70 101 134 172 225 279 332 401
#     4  11  23  41  66  98 133 177 230 280 338 402
#     4  11  22  41  67  95 134 177 228 280 337 404
#     4  11  22  40  60  90 133 181 221 268 334 402
#     4   9  18  37  62  92 131 177 220 272 331 390
#
# _framework density 21.357894000000002
#
# number of rings (size 3 to 8) (size 9 to 14) (size 15 to 20)
#    0.000    0.750    3.750    5.250    0.000    1.250 
#    2.250    6.875    0.000    0.000    0.000    0.000 
#    0.000    0.000    0.000    0.000    0.000    0.000 
#
# Total GULP energy -396720.323328 kJ/mol
# GULP energy per Si atom -12397.510104 kJ/mol
# Density = 2.130928 g / cm^3
# Si number density = 21.357894 Si / 1000 Ang^3
#
#
#
# Elastic Constant Matrix: (Units=GPa)
#
#
# Indices 1 2 3 4 5 6 
#
# 1 126.1327 35.8599 27.7968 0.0000 0.0000 0.0000
# 2 35.8599 117.1043 24.3685 0.0000 0.0000 0.0000
# 3 27.7968 24.3685 86.9205 0.0000 0.0000 0.0000
# 4 0.0000 0.0000 0.0000 39.5109 0.0000 0.0000
# 5 0.0000 0.0000 0.0000 0.0000 45.1216 0.0000
# 6 0.0000 0.0000 0.0000 0.0000 0.0000 19.8207
#
#
#
# Elastic Compliance Matrix: (Units=1/GPa)
#
#
# Indices 1 2 3 4 5 6 
#
# 1 0.009083 -0.002312 -0.002256 0.000000 0.000000 0.000000
# 2 -0.002312 0.009657 -0.001968 0.000000 0.000000 0.000000
# 3 -0.002256 -0.001968 0.012778 0.000000 0.000000 0.000000
# 4 0.000000 0.000000 0.000000 0.025309 0.000000 0.000000
# 5 0.000000 0.000000 0.000000 0.000000 0.022162 0.000000
# 6 0.000000 0.000000 0.000000 0.000000 0.000000 0.050452
#
#
# Mechanical properties :
#
#
# Convention : Reuss Voigt Hill
#
# Bulk Modulus (GPa) = 54.21505 56.24532 55.23019
# Shear Modulus (GPa) = 33.63321 37.03280 35.33300
#
# Velocity S-wave (km/s) = 3.97261 4.16855 4.07176
# Velocity P-wave (km/s) = 6.81772 7.03995 6.92973
#
# Compressibility (1/GPa) = 0.01844506
#
# Stress axis : x y z
#
# Youngs Moduli (GPa) = 110.09969 103.55357 78.25872
#
# Poissons Ratio (x) = 0.23939 0.17659
# Poissons Ratio (y) = 0.25452 0.15402
# Poissons Ratio (z) = 0.24844 0.20380
#
# Static dielectric constant tensor:
#      x y z
#    x 4.101600 0.000000 0.000000 
#    y 0.000000 0.040100 0.000000 
#    z 0.000000 0.000000 3.915700 
# 
# 
# High freq. dielectric constant tensor:
#      x y z
#    x 1.853510 0.000000 0.000000 
#    y 0.000000 1.833040 0.000000 
#    z 0.000000 0.000000 1.835210 
# 
# From -- ./inp_files/28560.got.cif
#   From: 2010.03.12/outbox.cif.g09.slc.cpg/sg23_15_cif.got.tgz:28560.got - 2010.04.14 02:50:06.
