data_PCOD8164321
_publ_section_title
;
Structure prediction by ZEFSAII (Michael W. Deem and Ramdas Pophale) SiO2 
 PCOD8164321
Probable space group: I 2 2 2
;
_chemical_formula_sum "Si O2"
_cell_formula_units_Z 58
_cell_length_a 15.482788
_cell_length_b 9.376437
_cell_length_c 18.731905
_cell_angle_alpha 90.000000
_cell_angle_beta 90.000000
_cell_angle_gamma 90.000000
_cell_volume 2719.374080
_symmetry_space_group_name_H-M "I 2 2 2"
_symmetry_group_IT_number 23
_symmetry_cell_setting 'orthorhombic'
loop_
_space_group_symop_operation_xyz
x,y,z
-x,-y,z
x,-y,-z
-x,y,-z
1/2+x,1/2+y,1/2+z
1/2-x,1/2-y,1/2+z
1/2+x,1/2-y,1/2-z
1/2-x,1/2+y,1/2-z
loop_
_atom_site_type_symbol
_atom_site_label
_atom_site_fract_x
_atom_site_fract_y
_atom_site_fract_z
Si Si1 0.805703 0.176553 0.367630
Si Si2 0.094329 0.167827 0.495755
Si Si3 0.000000 0.000000 0.000000
Si Si4 0.225356 0.604696 0.167234
Si Si5 0.529415 0.345356 0.775004
Si Si6 0.397852 0.346826 0.371876
Si Si7 0.125219 0.705235 0.651651
Si Si8 0.761122 0.465572 0.322867
O O1 0.851079 0.227584 0.439432
O O2 0.873252 0.172379 0.302070
O O3 0.742080 0.306310 0.350137
O O4 0.757115 0.027017 0.382236
O O5 0.136756 0.215150 0.423001
O O6 0.000000 0.238496 0.500000
O O7 0.086764 0.000000 0.500000
O O8 0.060120 0.899202 0.052131
O O9 0.148687 0.689946 0.125074
O O10 0.299821 0.713082 0.195295
O O11 0.203023 0.527798 0.241657
O O12 0.500000 0.500000 0.802834
O O13 0.527137 0.335071 0.688596
O O14 0.467000 0.225278 0.809685
O O15 0.328494 0.457564 0.340938
O O16 0.155407 0.541898 0.639884
#
# Coordination Sequence:
#
# PCOD8164321 Si02
#       8
#     8   8   2   8   8   8   8   8
#     4  12  22  38  70  97 138 179 229 286 363 430
#     4  11  21  37  59  95 132 175 213 265 341 434
#     4  12  28  52  76 106 148 200 252 306 380 448
#     4  11  21  43  68 102 131 176 243 298 350 423
#     4  12  19  38  70 103 127 185 237 291 355 430
#     4  11  25  45  74 100 141 187 247 301 361 437
#     4  11  23  38  67  99 139 171 230 285 350 432
#     4  11  24  42  67 105 136 177 236 307 361 423
#
# _framework density 21.328437999999998
#
# number of rings (size 3 to 8) (size 9 to 14) (size 15 to 20)
#    0.000    0.690    7.586    0.828    0.000    3.310 
#    0.000    0.690    0.000    0.828    0.000    0.000 
#    0.000    0.000    0.000    0.000    0.000    0.000 
#
# Total GULP energy -359310.105882 kJ/mol
# GULP energy per Si atom -12390.003651 kJ/mol
# Density = 2.127989 g / cm^3
# Si number density = 21.328438 Si / 1000 Ang^3
#
#
#
# Elastic Constant Matrix: (Units=GPa)
#
#
# Indices 1 2 3 4 5 6 
#
# 1 77.4704 49.3029 37.3922 0.0000 0.0000 0.0000
# 2 49.3029 110.5539 28.9002 0.0000 0.0000 0.0000
# 3 37.3922 28.9002 134.4660 0.0000 0.0000 0.0000
# 4 0.0000 0.0000 0.0000 26.1360 0.0000 0.0000
# 5 0.0000 0.0000 0.0000 0.0000 29.1308 0.0000
# 6 0.0000 0.0000 0.0000 0.0000 0.0000 69.9877
#
#
#
# Elastic Compliance Matrix: (Units=1/GPa)
#
#
# Indices 1 2 3 4 5 6 
#
# 1 0.019704 -0.007793 -0.003804 0.000000 0.000000 0.000000
# 2 -0.007793 0.012666 -0.000555 0.000000 0.000000 0.000000
# 3 -0.003804 -0.000555 0.008614 0.000000 0.000000 0.000000
# 4 0.000000 0.000000 0.000000 0.038261 0.000000 0.000000
# 5 0.000000 0.000000 0.000000 0.000000 0.034328 0.000000
# 6 0.000000 0.000000 0.000000 0.000000 0.000000 0.014288
#
#
# Mechanical properties :
#
#
# Convention : Reuss Voigt Hill
#
# Bulk Modulus (GPa) = 59.95528 61.52010 60.73769
# Shear Modulus (GPa) = 31.70075 38.84389 35.27232
#
# Velocity S-wave (km/s) = 3.85946 4.27221 4.07107
# Velocity P-wave (km/s) = 6.93052 7.29675 7.11599
#
# Compressibility (1/GPa) = 0.01667910
#
# Stress axis : x y z
#
# Youngs Moduli (GPa) = 50.75205 78.95345 116.08912
#
# Poissons Ratio (x) = 0.61525 0.44164
# Poissons Ratio (y) = 0.39549 0.06446
# Poissons Ratio (z) = 0.19308 0.04384
#
# Static dielectric constant tensor:
#      x y z
#    x 3.846340 0.000000 0.000000 
#    y 0.000000 3.923030 0.000000 
#    z 0.000000 0.000000 3.545710 
# 
# 
# High freq. dielectric constant tensor:
#      x y z
#    x 1.822600 0.000000 0.000000 
#    y 0.000000 1.835280 0.000000 
#    z 0.000000 0.000000 1.830930 
# 
# From -- ./inp_files/25078.got.cif
#   From: 2010.03.12/outbox.cif.g09.slc.cpg/sg23_13_cif.got.tgz:25078.got - 2010.04.14 02:50:06.
