data_PCOD8164849
_publ_section_title
;
Structure prediction by ZEFSAII (Michael W. Deem and Ramdas Pophale) SiO2 
 PCOD8164849
Probable space group: I 21 21 21
;
_chemical_formula_sum "Si O2"
_cell_formula_units_Z 24
_cell_length_a 20.784035
_cell_length_b 10.609713
_cell_length_c 4.940915
_cell_angle_alpha 90.000000
_cell_angle_beta 90.000000
_cell_angle_gamma 90.000000
_cell_volume 1089.534242
_symmetry_space_group_name_H-M "I 21 21 21"
_symmetry_group_IT_number 24
_symmetry_cell_setting 'orthorhombic'
loop_
_space_group_symop_operation_xyz
x,y,z
-x,1/2-y,z
x,-y,1/2-z
1/2-x,y,-z
1/2+x,1/2+y,1/2+z
1/2-x,-y,1/2+z
1/2+x,1/2-y,-z
-x,1/2+y,1/2-z
loop_
_atom_site_type_symbol
_atom_site_label
_atom_site_fract_x
_atom_site_fract_y
_atom_site_fract_z
Si Si1 0.504547 0.500000 0.750000
Si Si2 0.603990 0.198173 0.837793
Si Si3 0.063963 0.828902 0.842783
Si Si4 0.708374 0.000000 0.750000
O O1 0.461969 0.383612 0.854798
O O2 0.547656 0.465787 0.481132
O O3 0.613271 0.259204 0.545333
O O4 0.665079 0.109213 0.887016
O O5 0.598314 0.315547 0.049763
O O6 0.000000 0.750000 0.838213
O O7 0.750000 0.053441 0.500000
#
# Coordination Sequence:
#
# PCOD8164849 Si02
#       4
#     4   8   8   4
#     4   9  20  34  54  80 120 158 182 219 284 348
#     4  10  21  34  52  82 114 147 194 234 270 336
#     4  10  19  32  51  79 116 154 184 221 272 340
#     4  11  22  38  58  78 108 152 196 245 292 320
#
# _framework density 22.027761999999999
#
# number of rings (size 3 to 8) (size 9 to 14) (size 15 to 20)
#    0.000    2.000    0.000    5.000    0.000   17.333 
#    0.000    0.000    0.000    0.000    0.000    7.000 
#    0.000    5.333    0.000    0.333    0.000    0.000 
#
# Total GULP energy -148657.550366 kJ/mol
# GULP energy per Si atom -12388.129197 kJ/mol
# Density = 2.197763 g / cm^3
# Si number density = 22.027762 Si / 1000 Ang^3
#
#
#
# Elastic Constant Matrix: (Units=GPa)
#
#
# Indices 1 2 3 4 5 6 
#
# 1 70.8192 27.8269 33.5540 0.0000 0.0000 0.0000
# 2 27.8269 67.6464 18.9764 0.0000 0.0000 0.0000
# 3 33.5540 18.9764 152.4668 0.0000 0.0000 0.0000
# 4 0.0000 0.0000 0.0000 29.2564 0.0000 0.0000
# 5 0.0000 0.0000 0.0000 0.0000 25.3793 0.0000
# 6 0.0000 0.0000 0.0000 0.0000 0.0000 16.0742
#
#
#
# Elastic Compliance Matrix: (Units=1/GPa)
#
#
# Indices 1 2 3 4 5 6 
#
# 1 0.018226 -0.006603 -0.003189 0.000000 0.000000 0.000000
# 2 -0.006603 0.017710 -0.000751 0.000000 0.000000 0.000000
# 3 -0.003189 -0.000751 0.007354 0.000000 0.000000 0.000000
# 4 0.000000 0.000000 0.000000 0.034181 0.000000 0.000000
# 5 0.000000 0.000000 0.000000 0.000000 0.039402 0.000000
# 6 0.000000 0.000000 0.000000 0.000000 0.000000 0.062211
#
#
# Mechanical properties :
#
#
# Convention : Reuss Voigt Hill
#
# Bulk Modulus (GPa) = 45.03797 50.18299 47.61048
# Shear Modulus (GPa) = 24.08814 28.18033 26.13423
#
# Velocity S-wave (km/s) = 3.31045 3.58062 3.44819
# Velocity P-wave (km/s) = 5.92474 6.31867 6.12487
#
# Compressibility (1/GPa) = 0.02220349
#
# Stress axis : x y z
#
# Youngs Moduli (GPa) = 54.86691 56.46680 135.97741
#
# Poissons Ratio (x) = 0.37283 0.43367
# Poissons Ratio (y) = 0.36227 0.10213
# Poissons Ratio (z) = 0.17499 0.04241
#
# Static dielectric constant tensor:
#      x y z
#    x 3.592100 0.000000 0.000000 
#    y 0.000000 4.174500 0.000000 
#    z 0.000000 0.000000 4.583850 
# 
# 
# High freq. dielectric constant tensor:
#      x y z
#    x 1.800260 0.000000 0.000000 
#    y 0.000000 1.866540 0.000000 
#    z 0.000000 0.000000 1.900610 
# 
# From -- ./inp_files/1736.got.cif
#   From: 2010.03.12/outbox.cif.g09.slc.cpg/sg24_1_cif.got.tgz:1736.got - 2010.04.14 03:06:53.
