data_PCOD8164958
_publ_section_title
;
Structure prediction by ZEFSAII (Michael W. Deem and Ramdas Pophale) SiO2 
 PCOD8164958
Probable space group: I 21 21 21
;
_chemical_formula_sum "Si O2"
_cell_formula_units_Z 64
_cell_length_a 18.115520
_cell_length_b 19.631626
_cell_length_c 9.224020
_cell_angle_alpha 90.000000
_cell_angle_beta 90.000000
_cell_angle_gamma 90.000000
_cell_volume 3280.403847
_symmetry_space_group_name_H-M "I 21 21 21"
_symmetry_group_IT_number 24
_symmetry_cell_setting 'orthorhombic'
loop_
_space_group_symop_operation_xyz
x,y,z
-x,1/2-y,z
x,-y,1/2-z
1/2-x,y,-z
1/2+x,1/2+y,1/2+z
1/2-x,-y,1/2+z
1/2+x,1/2-y,-z
-x,1/2+y,1/2-z
loop_
_atom_site_type_symbol
_atom_site_label
_atom_site_fract_x
_atom_site_fract_y
_atom_site_fract_z
Si Si1 0.079519 0.278906 0.014131
Si Si2 0.437871 0.031620 0.892942
Si Si3 0.439813 0.613457 0.747348
Si Si4 0.169754 0.340100 0.457172
Si Si5 0.045241 0.110776 0.502932
Si Si6 0.827127 0.349985 0.077201
Si Si7 0.819381 0.688623 0.096907
Si Si8 0.052727 0.686113 0.805190
O O1 0.095545 0.331860 0.140208
O O2 0.141707 0.220578 0.012641
O O3 0.000000 0.250000 0.051932
O O4 0.077902 0.317358 0.860676
O O5 0.522877 0.053403 0.848790
O O6 0.388903 0.092548 0.957913
O O7 0.398839 0.000000 0.750000
O O8 0.441890 0.970456 0.007707
O O9 0.370842 0.601091 0.859523
O O10 0.504794 0.637949 0.855569
O O11 0.250000 0.368921 0.500000
O O12 0.174054 0.269015 0.368984
O O13 0.127126 0.317658 0.602341
O O14 0.117447 0.156747 0.504020
O O15 0.998063 0.122244 0.649016
O O16 0.814619 0.348669 0.248791
O O17 0.750000 0.368020 0.000000
O O18 0.750000 0.671723 0.000000
O O19 0.000000 0.750000 0.839492
#
# Coordination Sequence:
#
# PCOD8164958 Si02
#       8
#     8   8   8   8   8   8   8   8
#     4  11  21  35  58  83 119 154 205 259 321 355
#     4  10  20  39  62  86 118 166 228 250 289 383
#     4  10  19  35  63  83 110 160 209 258 303 367
#     4  10  21  34  56  90 119 151 202 258 324 373
#     4  10  20  38  61  85 115 158 220 255 291 374
#     4  12  25  38  59  90 130 170 209 260 316 375
#     4  11  21  34  56  82 123 165 207 254 316 369
#     4  10  21  34  58  87 122 152 199 263 316 358
#
# _framework density 19.509793999999999
#
# number of rings (size 3 to 8) (size 9 to 14) (size 15 to 20)
#    0.000    1.500    6.250    0.000    3.500    0.500 
#    0.000    0.625    0.000    0.000    0.000   49.000 
#    0.000    0.000    0.000    0.000    0.000    0.000 
#
# Total GULP energy -396437.211278 kJ/mol
# GULP energy per Si atom -12388.662852 kJ/mol
# Density = 1.946539 g / cm^3
# Si number density = 19.509794 Si / 1000 Ang^3
#
#
#
# Elastic Constant Matrix: (Units=GPa)
#
#
# Indices 1 2 3 4 5 6 
#
# 1 118.4469 26.0834 31.6841 0.0000 0.0000 0.0000
# 2 26.0834 67.8512 22.1415 0.0000 0.0000 0.0000
# 3 31.6841 22.1415 88.4715 0.0000 0.0000 0.0000
# 4 0.0000 0.0000 0.0000 17.6070 0.0000 0.0000
# 5 0.0000 0.0000 0.0000 0.0000 26.8649 0.0000
# 6 0.0000 0.0000 0.0000 0.0000 0.0000 19.7627
#
#
#
# Elastic Compliance Matrix: (Units=1/GPa)
#
#
# Indices 1 2 3 4 5 6 
#
# 1 0.009822 -0.002862 -0.002801 0.000000 0.000000 0.000000
# 2 -0.002862 0.016883 -0.003200 0.000000 0.000000 0.000000
# 3 -0.002801 -0.003200 0.013107 0.000000 0.000000 0.000000
# 4 0.000000 0.000000 0.000000 0.056795 0.000000 0.000000
# 5 0.000000 0.000000 0.000000 0.000000 0.037223 0.000000
# 6 0.000000 0.000000 0.000000 0.000000 0.000000 0.050600
#
#
# Mechanical properties :
#
#
# Convention : Reuss Voigt Hill
#
# Bulk Modulus (GPa) = 45.27916 48.28751 46.78333
# Shear Modulus (GPa) = 23.86412 25.83764 24.85088
#
# Velocity S-wave (km/s) = 3.50120 3.64310 3.57286
# Velocity P-wave (km/s) = 6.29312 6.51923 6.40717
#
# Compressibility (1/GPa) = 0.02208522
#
# Stress axis : x y z
#
# Youngs Moduli (GPa) = 101.81084 59.23271 76.29354
#
# Poissons Ratio (x) = 0.16950 0.21373
# Poissons Ratio (y) = 0.29135 0.24416
# Poissons Ratio (z) = 0.28521 0.18956
#
# Static dielectric constant tensor:
#      x y z
#    x 3.583240 0.000000 0.000000 
#    y 0.000000 3.470190 0.000000 
#    z 0.000000 0.000000 3.476040 
# 
# 
# High freq. dielectric constant tensor:
#      x y z
#    x 1.756190 0.000000 0.000000 
#    y 0.000000 1.733420 0.000000 
#    z 0.000000 0.000000 1.756110 
# 
# From -- ./inp_files/14586.got.cif
#   From: 2010.03.12/outbox.cif.g09.slc.cpg/sg24_8_cif.got.tgz:14586.got - 2010.04.14 03:06:53.
