data_PCOD8164882
_publ_section_title
;
Structure prediction by ZEFSAII (Michael W. Deem and Ramdas Pophale) SiO2 
 PCOD8164882
Probable space group: I 21 21 21
;
_chemical_formula_sum "Si O2"
_cell_formula_units_Z 36
_cell_length_a 13.233671
_cell_length_b 5.090411
_cell_length_c 24.406995
_cell_angle_alpha 90.000000
_cell_angle_beta 90.000000
_cell_angle_gamma 90.000000
_cell_volume 1644.172933
_symmetry_space_group_name_H-M "I 21 21 21"
_symmetry_group_IT_number 24
_symmetry_cell_setting 'orthorhombic'
loop_
_space_group_symop_operation_xyz
x,y,z
-x,1/2-y,z
x,-y,1/2-z
1/2-x,y,-z
1/2+x,1/2+y,1/2+z
1/2-x,-y,1/2+z
1/2+x,1/2-y,-z
-x,1/2+y,1/2-z
loop_
_atom_site_type_symbol
_atom_site_label
_atom_site_fract_x
_atom_site_fract_y
_atom_site_fract_z
Si Si1 0.153370 0.339277 0.074435
Si Si2 0.621576 0.144728 0.044730
Si Si3 0.564614 0.500000 0.750000
Si Si4 0.597859 0.364456 0.389022
Si Si5 0.677990 0.361216 0.642722
O O1 0.264107 0.265950 0.053472
O O2 0.147926 0.591446 0.113535
O O3 0.119389 0.089231 0.109845
O O4 0.087090 0.361576 0.019077
O O5 0.561058 0.370746 0.079216
O O6 0.615870 0.847570 0.064060
O O7 0.500000 0.250000 0.771829
O O8 0.635884 0.372516 0.703784
O O9 0.500000 0.250000 0.354368
O O10 0.699344 0.399330 0.352967
#
# Coordination Sequence:
#
# PCOD8164882 Si02
#       5
#     8   8   4   8   8
#     4   9  17  33  56  82 113 153 192 228 276 335
#     4   9  17  30  52  82 119 157 188 218 264 334
#     4  12  26  46  66  84 108 146 202 262 312 346
#     4  10  19  33  55  86 121 155 185 223 283 357
#     4  10  21  38  61  82 111 151 193 245 298 342
#
# _framework density 21.895506000000001
#
# number of rings (size 3 to 8) (size 9 to 14) (size 15 to 20)
#    0.000    2.222    0.000    3.333    0.000    5.333 
#    0.000   11.111    0.000    9.333    0.000    0.000 
#    0.000    0.000    0.000    0.000    0.000    0.000 
#
# Total GULP energy -222989.787438 kJ/mol
# GULP energy per Si atom -12388.321524 kJ/mol
# Density = 2.184567 g / cm^3
# Si number density = 21.895506 Si / 1000 Ang^3
#
#
#
# Elastic Constant Matrix: (Units=GPa)
#
#
# Indices 1 2 3 4 5 6 
#
# 1 82.2661 32.0204 40.8894 0.0000 0.0000 0.0000
# 2 32.0204 142.5648 42.0336 0.0000 0.0000 0.0000
# 3 40.8894 42.0336 109.1979 0.0000 0.0000 0.0000
# 4 0.0000 0.0000 0.0000 24.5595 0.0000 0.0000
# 5 0.0000 0.0000 0.0000 0.0000 0.5055 0.0000
# 6 0.0000 0.0000 0.0000 0.0000 0.0000 27.3081
#
#
#
# Elastic Compliance Matrix: (Units=1/GPa)
#
#
# Indices 1 2 3 4 5 6 
#
# 1 0.015418 -0.001986 -0.005009 0.000000 0.000000 0.000000
# 2 -0.001986 0.008168 -0.002400 0.000000 0.000000 0.000000
# 3 -0.005009 -0.002400 0.011957 0.000000 0.000000 0.000000
# 4 0.000000 0.000000 0.000000 0.040717 0.000000 0.000000
# 5 0.000000 0.000000 0.000000 0.000000 1.978156 0.000000
# 6 0.000000 0.000000 0.000000 0.000000 0.000000 0.036619
#
#
# Mechanical properties :
#
#
# Convention : Reuss Voigt Hill
#
# Bulk Modulus (GPa) = 59.69158 62.65727 61.17442
# Shear Modulus (GPa) = 2.36361 25.08032 13.72196
#
# Velocity S-wave (km/s) = 1.04011 3.38813 2.50612
# Velocity P-wave (km/s) = 5.36318 6.63208 6.03109
#
# Compressibility (1/GPa) = 0.01675278
#
# Stress axis : x y z
#
# Youngs Moduli (GPa) = 64.85768 122.42597 83.63106
#
# Poissons Ratio (x) = 0.24316 0.41890
# Poissons Ratio (y) = 0.12882 0.20075
# Poissons Ratio (z) = 0.32487 0.29388
#
# Static dielectric constant tensor:
#      x y z
#    x 4.617290 0.000000 0.000000 
#    y 0.000000 4.109480 0.000000 
#    z 0.000000 0.000000 3.597590 
# 
# 
# High freq. dielectric constant tensor:
#      x y z
#    x 1.881930 0.000000 0.000000 
#    y 0.000000 1.885700 0.000000 
#    z 0.000000 0.000000 1.810710 
# 
# From -- ./inp_files/33565.got.cif
#   From: 2010.03.12/outbox.cif.g09.slc.cpg/sg24_17_cif.got.tgz:33565.got - 2010.04.14 03:06:53.
