data_PCOD8164555
_publ_section_title
;
Structure prediction by ZEFSAII (Michael W. Deem and Ramdas Pophale) SiO2 
 PCOD8164555
Probable space group: I 2 2 2
;
_chemical_formula_sum "Si O2"
_cell_formula_units_Z 20
_cell_length_a 15.572380
_cell_length_b 8.879578
_cell_length_c 4.938613
_cell_angle_alpha 90.000000
_cell_angle_beta 90.000000
_cell_angle_gamma 90.000000
_cell_volume 682.892455
_symmetry_space_group_name_H-M "I 2 2 2"
_symmetry_group_IT_number 23
_symmetry_cell_setting 'orthorhombic'
loop_
_space_group_symop_operation_xyz
x,y,z
-x,-y,z
x,-y,-z
-x,y,-z
1/2+x,1/2+y,1/2+z
1/2-x,1/2-y,1/2+z
1/2+x,1/2-y,1/2-z
1/2-x,1/2+y,1/2-z
loop_
_atom_site_type_symbol
_atom_site_label
_atom_site_fract_x
_atom_site_fract_y
_atom_site_fract_z
Si Si1 0.390353 0.766008 0.656012
Si Si2 0.000000 0.500000 0.500000
Si Si3 0.000000 0.000000 0.000000
Si Si4 0.222388 0.394250 0.239990
O O1 0.441281 0.609539 0.680016
O O2 0.294270 0.738317 0.770170
O O3 0.371594 0.819577 0.341560
O O4 0.438785 0.897630 0.811897
O O5 0.214943 0.500000 0.500000
O O6 0.252256 0.500000 0.000000
#
# Coordination Sequence:
#
# PCOD8164555 Si02
#       4
#     8   2   2   8
#     4  12  32  60  96 141 195 254 326 388 493 560
#     4  12  36  58 102 148 198 248 310 420 482 568
#     4  12  32  58  88 144 190 252 310 416 482 556
#     4  12  30  57  99 136 185 261 326 389 460 595
#
# _framework density 29.287191
#
# number of rings (size 3 to 8) (size 9 to 14) (size 15 to 20)
#    0.000    0.000    2.000    2.400   19.600    0.000 
#    0.000    1.000    0.000    0.000    0.000    0.000 
#    0.000    0.000    0.000    0.000    0.000    0.000 
#
# Total GULP energy -123886.847162 kJ/mol
# GULP energy per Si atom -12388.684716 kJ/mol
# Density = 2.922053 g / cm^3
# Si number density = 29.287191 Si / 1000 Ang^3
#
#
#
# Elastic Constant Matrix: (Units=GPa)
#
#
# Indices 1 2 3 4 5 6 
#
# 1 207.1052 119.4031 95.6535 0.0000 0.0000 0.0000
# 2 119.4031 268.3790 97.7568 0.0000 0.0000 0.0000
# 3 95.6535 97.7568 174.2346 0.0000 0.0000 0.0000
# 4 0.0000 0.0000 0.0000 40.8870 0.0000 0.0000
# 5 0.0000 0.0000 0.0000 0.0000 10.9699 0.0000
# 6 0.0000 0.0000 0.0000 0.0000 0.0000 75.9172
#
#
#
# Elastic Compliance Matrix: (Units=1/GPa)
#
#
# Indices 1 2 3 4 5 6 
#
# 1 0.007443 -0.002291 -0.002801 0.000000 0.000000 0.000000
# 2 -0.002291 0.005389 -0.001765 0.000000 0.000000 0.000000
# 3 -0.002801 -0.001765 0.008267 0.000000 0.000000 0.000000
# 4 0.000000 0.000000 0.000000 0.024458 0.000000 0.000000
# 5 0.000000 0.000000 0.000000 0.000000 0.091159 0.000000
# 6 0.000000 0.000000 0.000000 0.000000 0.000000 0.013172
#
#
# Mechanical properties :
#
#
# Convention : Reuss Voigt Hill
#
# Bulk Modulus (GPa) = 135.42187 141.70506 138.56346
# Shear Modulus (GPa) = 30.10899 48.01517 39.06208
#
# Velocity S-wave (km/s) = 3.20982 4.05342 3.65603
# Velocity P-wave (km/s) = 7.75093 8.39027 8.07693
#
# Compressibility (1/GPa) = 0.00738433
#
# Stress axis : x y z
#
# Youngs Moduli (GPa) = 134.35555 185.57931 120.95747
#
# Poissons Ratio (x) = 0.42522 0.33875
# Poissons Ratio (y) = 0.30785 0.21354
# Poissons Ratio (z) = 0.37627 0.32762
#
# Static dielectric constant tensor:
#      x y z
#    x 6.443300 0.000000 0.000000 
#    y 0.000000 6.241030 0.000000 
#    z 0.000000 0.000000 6.453540 
# 
# 
# High freq. dielectric constant tensor:
#      x y z
#    x 2.208170 0.000000 0.000000 
#    y 0.000000 2.243360 0.000000 
#    z 0.000000 0.000000 2.197370 
# 
# From -- ./inp_files/2828.got.cif
#   From: 2010.03.12/outbox.cif.g09.slc.cpg/sg23_2_cif.got.tgz:2828.got - 2010.04.14 02:50:06.
