data_PCOD8164306
_publ_section_title
;
Structure prediction by ZEFSAII (Michael W. Deem and Ramdas Pophale) SiO2 
 PCOD8164306
Probable space group: I 2 2 2
;
_chemical_formula_sum "Si O2"
_cell_formula_units_Z 58
_cell_length_a 15.192008
_cell_length_b 16.960334
_cell_length_c 11.255872
_cell_angle_alpha 90.000000
_cell_angle_beta 90.000000
_cell_angle_gamma 90.000000
_cell_volume 2900.205199
_symmetry_space_group_name_H-M "I 2 2 2"
_symmetry_group_IT_number 23
_symmetry_cell_setting 'orthorhombic'
loop_
_space_group_symop_operation_xyz
x,y,z
-x,-y,z
x,-y,-z
-x,y,-z
1/2+x,1/2+y,1/2+z
1/2-x,1/2-y,1/2+z
1/2+x,1/2-y,1/2-z
1/2-x,1/2+y,1/2-z
loop_
_atom_site_type_symbol
_atom_site_label
_atom_site_fract_x
_atom_site_fract_y
_atom_site_fract_z
Si Si1 0.096518 0.086397 0.545188
Si Si2 0.248595 0.917731 0.800736
Si Si3 0.245612 0.325824 0.935369
Si Si4 0.500000 0.000000 0.000000
Si Si5 0.372459 0.941154 0.188755
Si Si6 0.721922 0.643011 0.440473
Si Si7 0.906071 0.962285 0.807940
Si Si8 0.912629 0.413044 0.948616
O O1 0.160992 0.154926 0.497522
O O2 0.090207 0.088087 0.687319
O O3 0.000000 0.106948 0.500000
O O4 0.128299 0.000000 0.500000
O O5 0.252497 0.850724 0.701633
O O6 0.333758 0.972443 0.785001
O O7 0.158523 0.964920 0.786386
O O8 0.254223 0.879995 0.929737
O O9 0.215001 0.236103 0.935935
O O10 0.175199 0.370381 0.014130
O O11 0.441595 0.057159 0.918411
O O12 0.293378 0.882814 0.156620
O O13 0.421183 0.911219 0.306304
O O14 0.630119 0.597197 0.410383
O O15 0.000000 0.000000 0.844181
O O16 0.907782 0.500000 0.000000
O O17 0.000000 0.370238 0.000000
#
# Coordination Sequence:
#
# PCOD8164306 Si02
#       8
#     8   8   8   2   8   8   8   8
#     4  11  20  40  68 103 123 166 236 280 333 398
#     4  11  22  42  64  90 126 171 219 261 325 405
#     4  12  24  42  64  95 139 175 208 287 344 388
#     4  12  20  40  70  88 118 160 214 278 312 372
#     4  11  22  42  67  92 124 167 224 265 313 395
#     4  11  27  41  60  99 134 173 214 265 350 401
#     4  11  21  42  71  95 125 171 229 276 319 403
#     4  11  23  41  66  98 122 170 228 267 318 394
#
# _framework density 19.998584999999999
#
# number of rings (size 3 to 8) (size 9 to 14) (size 15 to 20)
#    0.000    0.828    5.517    4.138    3.862    1.103 
#    3.724    1.379    0.000    0.000    0.000    0.000 
#    0.000    0.000    0.000    0.000    0.000    0.000 
#
# Total GULP energy -359666.806330 kJ/mol
# GULP energy per Si atom -12402.303667 kJ/mol
# Density = 1.995307 g / cm^3
# Si number density = 19.998585 Si / 1000 Ang^3
#
#
#
# Elastic Constant Matrix: (Units=GPa)
#
#
# Indices 1 2 3 4 5 6 
#
# 1 122.1645 34.1240 43.3861 0.0000 0.0000 0.0000
# 2 34.1240 71.6178 20.2038 0.0000 0.0000 0.0000
# 3 43.3861 20.2038 136.6983 0.0000 0.0000 0.0000
# 4 0.0000 0.0000 0.0000 -11.3836 0.0000 0.0000
# 5 0.0000 0.0000 0.0000 0.0000 36.6062 0.0000
# 6 0.0000 0.0000 0.0000 0.0000 0.0000 20.9447
#
#
#
# Elastic Compliance Matrix: (Units=1/GPa)
#
#
# Indices 1 2 3 4 5 6 
#
# 1 0.010288 -0.004154 -0.002651 0.000000 0.000000 0.000000
# 2 -0.004154 0.016248 -0.001083 0.000000 0.000000 0.000000
# 3 -0.002651 -0.001083 0.008317 0.000000 0.000000 0.000000
# 4 0.000000 0.000000 0.000000 -0.087846 0.000000 0.000000
# 5 0.000000 0.000000 0.000000 0.000000 0.027318 0.000000
# 6 0.000000 0.000000 0.000000 0.000000 0.000000 0.047745
#
#
# Mechanical properties :
#
#
# Convention : Reuss Voigt Hill
#
# Bulk Modulus (GPa) = 52.42165 58.43427 55.42796
# Shear Modulus (GPa) = 113.11235 24.75124 68.93180
#
# Velocity S-wave (km/s) = 7.52881 3.52184 5.87734
# Velocity P-wave (km/s) = 10.09192 6.76908 8.59265
#
# Compressibility (1/GPa) = 0.01907609
#
# Stress axis : x y z
#
# Youngs Moduli (GPa) = 97.20521 61.54705 120.23718
#
# Poissons Ratio (x) = 0.25566 0.31877
# Poissons Ratio (y) = 0.40377 0.13022
# Poissons Ratio (z) = 0.25771 0.06666
#
# Static dielectric constant tensor:
#      x y z
#    x 4.151760 0.000000 0.000000 
#    y 0.000000 3.473970 0.000000 
#    z 0.000000 0.000000 3.741330 
# 
# 
# High freq. dielectric constant tensor:
#      x y z
#    x 1.790650 0.000000 0.000000 
#    y 0.000000 1.746690 0.000000 
#    z 0.000000 0.000000 1.802970 
# 
# From -- ./inp_files/16952.got.cif
#   From: 2010.03.12/outbox.cif.g09.slc.cpg/sg23_9_cif.got.tgz:16952.got - 2010.04.14 02:50:06.
