data_PCOD8164441
_publ_section_title
;
Structure prediction by ZEFSAII (Michael W. Deem and Ramdas Pophale) SiO2 
 PCOD8164441
Probable space group: I 2 2 2
;
_chemical_formula_sum "Si O2"
_cell_formula_units_Z 48
_cell_length_a 15.980412
_cell_length_b 9.344191
_cell_length_c 14.490150
_cell_angle_alpha 90.000000
_cell_angle_beta 90.000000
_cell_angle_gamma 90.000000
_cell_volume 2163.727477
_symmetry_space_group_name_H-M "I 2 2 2"
_symmetry_group_IT_number 23
_symmetry_cell_setting 'orthorhombic'
loop_
_space_group_symop_operation_xyz
x,y,z
-x,-y,z
x,-y,-z
-x,y,-z
1/2+x,1/2+y,1/2+z
1/2-x,1/2-y,1/2+z
1/2+x,1/2-y,1/2-z
1/2-x,1/2+y,1/2-z
loop_
_atom_site_type_symbol
_atom_site_label
_atom_site_fract_x
_atom_site_fract_y
_atom_site_fract_z
Si Si1 0.587286 0.068100 0.692358
Si Si2 0.500000 0.500000 0.821143
Si Si3 0.429177 0.247587 0.941217
Si Si4 0.791798 0.785423 0.571546
Si Si5 0.646656 0.634861 0.267021
Si Si6 0.159623 0.500000 0.000000
Si Si7 0.303046 0.978394 0.142713
O O1 0.585512 0.239196 0.698574
O O2 0.600829 0.023230 0.587395
O O3 0.500000 0.000000 0.728213
O O4 0.665601 0.026409 0.756574
O O5 0.482680 0.356847 0.879259
O O6 0.582441 0.490762 0.757513
O O7 0.371307 0.136939 0.887758
O O8 0.500000 0.162294 0.000000
O O9 0.371135 0.337904 0.011786
O O10 0.797469 0.833338 0.676861
O O11 0.791922 0.610451 0.570679
O O12 0.712759 0.856587 0.520923
O O13 0.711186 0.591261 0.347357
#
# Coordination Sequence:
#
# PCOD8164441 Si02
#       7
#     8   4   8   8   8   4   8
#     4  11  25  43  67 100 136 188 241 294 358 423
#     4  12  25  42  72 104 147 186 242 293 360 432
#     4  12  25  42  68 105 145 183 234 300 363 425
#     4  11  24  40  68 103 136 186 238 292 364 424
#     4  11  24  44  67 105 141 188 232 296 358 433
#     4  12  23  46  73  92 140 186 252 293 344 444
#     4  11  26  44  68 102 148 187 233 292 374 430
#
# _framework density 22.18394
#
# number of rings (size 3 to 8) (size 9 to 14) (size 15 to 20)
#    0.000    0.667    3.333    4.000    7.000    2.000 
#    0.000    0.000    0.000    0.000    0.000    0.000 
#    0.000    0.000    0.000    0.000    0.000    0.000 
#
# Total GULP energy -297505.624801 kJ/mol
# GULP energy per Si atom -12396.067700 kJ/mol
# Density = 2.213345 g / cm^3
# Si number density = 22.183940 Si / 1000 Ang^3
#
#
#
# Elastic Constant Matrix: (Units=GPa)
#
#
# Indices 1 2 3 4 5 6 
#
# 1 116.6669 45.8742 23.1842 0.0000 0.0000 0.0000
# 2 45.8742 104.7665 23.7435 0.0000 0.0000 0.0000
# 3 23.1842 23.7435 61.7885 0.0000 0.0000 0.0000
# 4 0.0000 0.0000 0.0000 22.1270 0.0000 0.0000
# 5 0.0000 0.0000 0.0000 0.0000 49.1676 0.0000
# 6 0.0000 0.0000 0.0000 0.0000 0.0000 38.9973
#
#
#
# Elastic Compliance Matrix: (Units=1/GPa)
#
#
# Indices 1 2 3 4 5 6 
#
# 1 0.010675 -0.004126 -0.002420 0.000000 0.000000 0.000000
# 2 -0.004126 0.012050 -0.003083 0.000000 0.000000 0.000000
# 3 -0.002420 -0.003083 0.018277 0.000000 0.000000 0.000000
# 4 0.000000 0.000000 0.000000 0.045194 0.000000 0.000000
# 5 0.000000 0.000000 0.000000 0.000000 0.020339 0.000000
# 6 0.000000 0.000000 0.000000 0.000000 0.000000 0.025643
#
#
# Mechanical properties :
#
#
# Convention : Reuss Voigt Hill
#
# Bulk Modulus (GPa) = 45.98693 52.09175 49.03934
# Shear Modulus (GPa) = 31.50976 34.75304 33.13140
#
# Velocity S-wave (km/s) = 3.77289 3.96231 3.86876
# Velocity P-wave (km/s) = 6.30511 6.66827 6.48923
#
# Compressibility (1/GPa) = 0.02174531
#
# Stress axis : x y z
#
# Youngs Moduli (GPa) = 93.68089 82.98661 54.71430
#
# Poissons Ratio (x) = 0.34237 0.13240
# Poissons Ratio (y) = 0.38649 0.16866
# Poissons Ratio (z) = 0.22670 0.25581
#
# Static dielectric constant tensor:
#      x y z
#    x 4.015990 0.000000 0.000000 
#    y 0.000000 3.999510 0.000000 
#    z 0.000000 0.000000 4.013240 
# 
# 
# High freq. dielectric constant tensor:
#      x y z
#    x 1.875340 0.000000 0.000000 
#    y 0.000000 1.870390 0.000000 
#    z 0.000000 0.000000 1.873750 
# 
# From -- ./inp_files/22048.got.cif
#   From: 2010.03.12/outbox.cif.g09.slc.cpg/sg23_12_cif.got.tgz:22048.got - 2010.04.14 02:50:06.
