data_PCOD8164511
_publ_section_title
;
Structure prediction by ZEFSAII (Michael W. Deem and Ramdas Pophale) SiO2 
 PCOD8164511
Probable space group: I 2 2 2
;
_chemical_formula_sum "Si O2"
_cell_formula_units_Z 54
_cell_length_a 14.519372
_cell_length_b 13.926721
_cell_length_c 11.862205
_cell_angle_alpha 90.000000
_cell_angle_beta 90.000000
_cell_angle_gamma 90.000000
_cell_volume 2398.623768
_symmetry_space_group_name_H-M "I 2 2 2"
_symmetry_group_IT_number 23
_symmetry_cell_setting 'orthorhombic'
loop_
_space_group_symop_operation_xyz
x,y,z
-x,-y,z
x,-y,-z
-x,y,-z
1/2+x,1/2+y,1/2+z
1/2-x,1/2-y,1/2+z
1/2+x,1/2-y,1/2-z
1/2-x,1/2+y,1/2-z
loop_
_atom_site_type_symbol
_atom_site_label
_atom_site_fract_x
_atom_site_fract_y
_atom_site_fract_z
Si Si1 0.150906 0.965089 0.669831
Si Si2 0.352020 0.038443 0.386223
Si Si3 0.103297 0.265662 0.975142
Si Si4 0.835289 0.763807 0.224278
Si Si5 0.853948 0.831281 0.765721
Si Si6 0.991179 0.707355 0.628604
Si Si7 0.500000 0.500000 0.000000
Si Si8 0.500000 0.000000 0.207299
O O1 0.246648 0.996807 0.613396
O O2 0.175742 0.877519 0.753027
O O3 0.069716 0.937077 0.579388
O O4 0.118638 0.060163 0.734929
O O5 0.353116 0.153805 0.392354
O O6 0.399185 0.000000 0.500000
O O7 0.408405 0.991295 0.284011
O O8 0.107869 0.173100 0.894249
O O9 0.158496 0.251242 0.090141
O O10 0.000000 0.295726 0.000000
O O11 0.753744 0.695505 0.267161
O O12 0.924935 0.733546 0.291323
O O13 0.900922 0.757639 0.678507
O O14 0.984470 0.592061 0.628866
O O15 0.000000 0.742594 0.500000
#
# Coordination Sequence:
#
# PCOD8164511 Si02
#       8
#     8   8   8   8   8   8   2   4
#     4  12  27  46  69 108 141 198 250 291 364 439
#     4  12  22  42  74 105 137 182 249 305 356 432
#     4  12  24  48  73 107 147 189 241 315 374 425
#     4  12  27  47  74 106 145 191 246 304 367 437
#     4  12  27  48  73 107 147 191 247 303 370 437
#     4  12  27  45  71 105 151 194 242 304 365 439
#     4  12  28  44  72  96 152 194 256 288 338 438
#     4  12  22  46  70 110 142 187 243 300 382 430
#
# _framework density 22.512910999999999
#
# number of rings (size 3 to 8) (size 9 to 14) (size 15 to 20)
#    0.000    0.000    5.185    4.889    6.222    0.593 
#    0.000    0.741    0.000    0.000    0.000    0.000 
#    0.000    0.000    0.000    0.000    0.000    0.000 
#
# Total GULP energy -334774.128757 kJ/mol
# GULP energy per Si atom -12399.041806 kJ/mol
# Density = 2.246167 g / cm^3
# Si number density = 22.512911 Si / 1000 Ang^3
#
#
#
# Elastic Constant Matrix: (Units=GPa)
#
#
# Indices 1 2 3 4 5 6 
#
# 1 100.3312 1.8987 15.9575 0.0000 0.0000 0.0000
# 2 1.8987 99.4906 5.6616 0.0000 0.0000 0.0000
# 3 15.9575 5.6616 109.4863 0.0000 0.0000 0.0000
# 4 0.0000 0.0000 0.0000 27.1150 0.0000 0.0000
# 5 0.0000 0.0000 0.0000 0.0000 25.1466 0.0000
# 6 0.0000 0.0000 0.0000 0.0000 0.0000 30.5932
#
#
#
# Elastic Compliance Matrix: (Units=1/GPa)
#
#
# Indices 1 2 3 4 5 6 
#
# 1 0.010205 -0.000110 -0.001482 0.000000 0.000000 0.000000
# 2 -0.000110 0.010082 -0.000505 0.000000 0.000000 0.000000
# 3 -0.001482 -0.000505 0.009376 0.000000 0.000000 0.000000
# 4 0.000000 0.000000 0.000000 0.036880 0.000000 0.000000
# 5 0.000000 0.000000 0.000000 0.000000 0.039767 0.000000
# 6 0.000000 0.000000 0.000000 0.000000 0.000000 0.032687
#
#
# Mechanical properties :
#
#
# Convention : Reuss Voigt Hill
#
# Bulk Modulus (GPa) = 39.26523 39.59372 39.42948
# Shear Modulus (GPa) = 32.96412 35.62364 34.29388
#
# Velocity S-wave (km/s) = 3.83068 3.98221 3.90718
# Velocity P-wave (km/s) = 6.08642 6.22650 6.15686
#
# Compressibility (1/GPa) = 0.02546782
#
# Stress axis : x y z
#
# Youngs Moduli (GPa) = 97.99380 99.18605 106.65945
#
# Poissons Ratio (x) = 0.01095 0.15803
# Poissons Ratio (y) = 0.01082 0.05389
# Poissons Ratio (z) = 0.14519 0.05011
#
# Static dielectric constant tensor:
#      x y z
#    x 4.082660 0.000000 0.000000 
#    y 0.000000 4.190710 0.000000 
#    z 0.000000 0.000000 4.188340 
# 
# 
# High freq. dielectric constant tensor:
#      x y z
#    x 1.898270 0.000000 0.000000 
#    y 0.000000 1.889010 0.000000 
#    z 0.000000 0.000000 1.886850 
# 
# From -- ./inp_files/16821.got.cif
#   From: 2010.03.12/outbox.cif.g09.slc.cpg/sg23_9_cif.got.tgz:16821.got - 2010.04.14 02:50:06.
