data_PCOD8164691
_publ_section_title
;
Structure prediction by ZEFSAII (Michael W. Deem and Ramdas Pophale) SiO2 
 PCOD8164691
Probable space group: I 21 21 21
;
_chemical_formula_sum "Si O2"
_cell_formula_units_Z 52
_cell_length_a 11.590940
_cell_length_b 13.052396
_cell_length_c 19.983178
_cell_angle_alpha 90.000000
_cell_angle_beta 90.000000
_cell_angle_gamma 90.000000
_cell_volume 3023.245785
_symmetry_space_group_name_H-M "I 21 21 21"
_symmetry_group_IT_number 24
_symmetry_cell_setting 'orthorhombic'
loop_
_space_group_symop_operation_xyz
x,y,z
-x,1/2-y,z
x,-y,1/2-z
1/2-x,y,-z
1/2+x,1/2+y,1/2+z
1/2-x,-y,1/2+z
1/2+x,1/2-y,-z
-x,1/2+y,1/2-z
loop_
_atom_site_type_symbol
_atom_site_label
_atom_site_fract_x
_atom_site_fract_y
_atom_site_fract_z
Si Si1 0.754879 0.962996 0.923427
Si Si2 0.847002 0.378742 0.691422
Si Si3 0.567558 0.965558 0.818064
Si Si4 0.851252 0.500000 0.250000
Si Si5 0.230883 0.223310 0.426634
Si Si6 0.000000 0.250000 0.359151
Si Si7 0.000000 0.750000 0.719137
Si Si8 0.557553 0.031578 0.179362
O O1 0.639005 0.999102 0.883837
O O2 0.764792 0.841735 0.922993
O O3 0.867800 0.003134 0.885185
O O4 0.750000 0.004820 0.000000
O O5 0.730493 0.405182 0.732169
O O6 0.818173 0.340527 0.618086
O O7 0.897181 0.284021 0.732441
O O8 0.933508 0.474315 0.681480
O O9 0.439075 0.018984 0.813716
O O10 0.551682 0.841903 0.814557
O O11 0.635552 0.000000 0.750000
O O12 0.250000 0.178845 0.500000
O O13 0.098808 0.203826 0.406665
O O14 0.961609 0.846169 0.673893
O O15 0.619236 0.000000 0.250000
#
# Coordination Sequence:
#
# PCOD8164691 Si02
#       8
#     8   8   8   4   8   4   4   8
#     4  10  21  36  53  80 112 145 179 221 271 327
#     4  11  19  35  54  83 108 138 176 231 275 323
#     4   9  19  33  53  74 107 141 172 217 263 320
#     4  10  18  36  52  74 116 136 172 224 270 312
#     4  10  20  31  50  76 109 142 173 210 268 336
#     4  10  18  31  48  71 106 138 168 214 258 314
#     4  10  20  33  58  79 104 136 182 228 272 312
#     4  10  20  35  57  81 105 138 182 228 275 323
#
# _framework density 17.200057000000001
#
# number of rings (size 3 to 8) (size 9 to 14) (size 15 to 20)
#    0.462    1.538    3.846    2.308    0.000    5.538 
#    0.000    0.000    0.000    3.692    0.000    0.000 
#    0.000    0.000    0.000    0.000    0.000    0.000 
#
# Total GULP energy -322099.621833 kJ/mol
# GULP energy per Si atom -12388.446994 kJ/mol
# Density = 1.716091 g / cm^3
# Si number density = 17.200057 Si / 1000 Ang^3
#
#
#
# Elastic Constant Matrix: (Units=GPa)
#
#
# Indices 1 2 3 4 5 6 
#
# 1 111.1864 32.1130 59.7979 0.0000 0.0000 0.0000
# 2 32.1130 70.0705 42.5341 0.0000 0.0000 0.0000
# 3 59.7979 42.5341 137.9944 0.0000 0.0000 0.0000
# 4 0.0000 0.0000 0.0000 22.8678 0.0000 0.0000
# 5 0.0000 0.0000 0.0000 0.0000 26.1927 0.0000
# 6 0.0000 0.0000 0.0000 0.0000 0.0000 18.9196
#
#
#
# Elastic Compliance Matrix: (Units=1/GPa)
#
#
# Indices 1 2 3 4 5 6 
#
# 1 0.012197 -0.002930 -0.004382 0.000000 0.000000 0.000000
# 2 -0.002930 0.018260 -0.004359 0.000000 0.000000 0.000000
# 3 -0.004382 -0.004359 0.010489 0.000000 0.000000 0.000000
# 4 0.000000 0.000000 0.000000 0.043730 0.000000 0.000000
# 5 0.000000 0.000000 0.000000 0.000000 0.038179 0.000000
# 6 0.000000 0.000000 0.000000 0.000000 0.000000 0.052855
#
#
# Mechanical properties :
#
#
# Convention : Reuss Voigt Hill
#
# Bulk Modulus (GPa) = 56.80360 65.34902 61.07631
# Shear Modulus (GPa) = 24.39989 25.91645 25.15817
#
# Velocity S-wave (km/s) = 3.77051 3.88592 3.82865
# Velocity P-wave (km/s) = 7.21475 7.62953 7.42504
#
# Compressibility (1/GPa) = 0.01760452
#
# Stress axis : x y z
#
# Youngs Moduli (GPa) = 81.98764 54.76512 95.33622
#
# Poissons Ratio (x) = 0.16044 0.41780
# Poissons Ratio (y) = 0.24019 0.41554
# Poissons Ratio (z) = 0.35930 0.23871
#
# Static dielectric constant tensor:
#      x y z
#    x 3.327070 0.000000 0.000000 
#    y 0.000000 3.078870 0.000000 
#    z 0.000000 0.000000 3.304280 
# 
# 
# High freq. dielectric constant tensor:
#      x y z
#    x 1.676510 0.000000 0.000000 
#    y 0.000000 1.643720 0.000000 
#    z 0.000000 0.000000 1.648230 
# 
# From -- ./inp_files/33481.got.cif
#   From: 2010.03.12/outbox.cif.g09.slc.cpg/sg24_17_cif.got.tgz:33481.got - 2010.04.14 03:06:53.
