data_PCOD8164391
_publ_section_title
;
Structure prediction by ZEFSAII (Michael W. Deem and Ramdas Pophale) SiO2 
 PCOD8164391
Probable space group: I 2 2 2
;
_chemical_formula_sum "Si O2"
_cell_formula_units_Z 34
_cell_length_a 7.147240
_cell_length_b 15.038123
_cell_length_c 13.304691
_cell_angle_alpha 90.000000
_cell_angle_beta 90.000000
_cell_angle_gamma 90.000000
_cell_volume 1430.002481
_symmetry_space_group_name_H-M "I 2 2 2"
_symmetry_group_IT_number 23
_symmetry_cell_setting 'orthorhombic'
loop_
_space_group_symop_operation_xyz
x,y,z
-x,-y,z
x,-y,-z
-x,y,-z
1/2+x,1/2+y,1/2+z
1/2-x,1/2-y,1/2+z
1/2+x,1/2-y,1/2-z
1/2-x,1/2+y,1/2-z
loop_
_atom_site_type_symbol
_atom_site_label
_atom_site_fract_x
_atom_site_fract_y
_atom_site_fract_z
Si Si1 0.810686 0.636010 0.776067
Si Si2 0.694308 0.533831 0.348830
Si Si3 0.500000 0.000000 0.000000
Si Si4 0.778282 0.399999 0.007146
Si Si5 0.237080 0.675212 0.802267
O O1 0.767828 0.544190 0.722120
O O2 0.713010 0.640369 0.885905
O O3 0.739831 0.719566 0.712454
O O4 0.031510 0.636797 0.789053
O O5 0.500000 0.500000 0.399650
O O6 0.856205 0.557986 0.431132
O O7 0.643497 0.621468 0.282181
O O8 0.703139 0.500000 0.000000
O O9 0.688484 0.344368 0.915040
O O10 0.000000 0.396512 0.000000
#
# Coordination Sequence:
#
# PCOD8164391 Si02
#       5
#     8   8   2   8   8
#     4  11  22  42  68 103 144 184 235 293 352 421
#     4  12  25  46  72 103 138 185 237 297 358 428
#     4  12  26  48  72  96 144 190 234 284 376 428
#     4   9  18  37  70  95 130 186 229 279 346 411
#     4  11  22  42  68 103 144 184 235 293 352 421
#
# _framework density 23.776183
#
# number of rings (size 3 to 8) (size 9 to 14) (size 15 to 20)
#    0.000    1.176    4.706    1.765    0.000    1.882 
#    0.000    9.412    0.000    0.000    0.000    0.000 
#    0.000    0.000    0.000    0.000    0.000    0.000 
#
# Total GULP energy -210732.949143 kJ/mol
# GULP energy per Si atom -12396.055832 kJ/mol
# Density = 2.372207 g / cm^3
# Si number density = 23.776183 Si / 1000 Ang^3
#
#
#
# Elastic Constant Matrix: (Units=GPa)
#
#
# Indices 1 2 3 4 5 6 
#
# 1 78.4220 -14.7247 10.5713 0.0000 0.0000 0.0000
# 2 -14.7247 122.9640 56.2832 0.0000 0.0000 0.0000
# 3 10.5713 56.2832 173.9170 0.0000 0.0000 0.0000
# 4 0.0000 0.0000 0.0000 40.5447 0.0000 0.0000
# 5 0.0000 0.0000 0.0000 0.0000 17.5861 0.0000
# 6 0.0000 0.0000 0.0000 0.0000 0.0000 29.0420
#
#
#
# Elastic Compliance Matrix: (Units=1/GPa)
#
#
# Indices 1 2 3 4 5 6 
#
# 1 0.013398 0.002321 -0.001566 0.000000 0.000000 0.000000
# 2 0.002321 0.009949 -0.003361 0.000000 0.000000 0.000000
# 3 -0.001566 -0.003361 0.006933 0.000000 0.000000 0.000000
# 4 0.000000 0.000000 0.000000 0.024664 0.000000 0.000000
# 5 0.000000 0.000000 0.000000 0.000000 0.056863 0.000000
# 6 0.000000 0.000000 0.000000 0.000000 0.000000 0.034433
#
#
# Mechanical properties :
#
#
# Convention : Reuss Voigt Hill
#
# Bulk Modulus (GPa) = 39.88956 53.28473 46.58715
# Shear Modulus (GPa) = 31.28781 38.97943 35.13362
#
# Velocity S-wave (km/s) = 3.63151 4.05338 3.84823
# Velocity P-wave (km/s) = 5.86493 6.66079 6.27549
#
# Compressibility (1/GPa) = 0.02506921
#
# Stress axis : x y z
#
# Youngs Moduli (GPa) = 74.63606 100.51625 144.24588
#
# Poissons Ratio (x) = -0.23330 0.22582
# Poissons Ratio (y) = -0.17323 0.48476
# Poissons Ratio (z) = 0.11684 0.33780
#
# Static dielectric constant tensor:
#      x y z
#    x 4.363370 0.000000 0.000000 
#    y 0.000000 4.243100 0.000000 
#    z 0.000000 0.000000 4.971840 
# 
# 
# High freq. dielectric constant tensor:
#      x y z
#    x 1.949210 0.000000 0.000000 
#    y 0.000000 1.917770 0.000000 
#    z 0.000000 0.000000 1.951400 
# 
# From -- ./inp_files/14309.got.cif
#   From: 2010.03.12/outbox.cif.g09.slc.cpg/sg23_8_cif.got.tgz:14309.got - 2010.04.14 02:50:06.
