data_PCOD8164461
_publ_section_title
;
Structure prediction by ZEFSAII (Michael W. Deem and Ramdas Pophale) SiO2 
 PCOD8164461
Probable space group: I 2 2 2
;
_chemical_formula_sum "Si O2"
_cell_formula_units_Z 36
_cell_length_a 11.593503
_cell_length_b 21.222957
_cell_length_c 6.107371
_cell_angle_alpha 90.000000
_cell_angle_beta 90.000000
_cell_angle_gamma 90.000000
_cell_volume 1502.708958
_symmetry_space_group_name_H-M "I 2 2 2"
_symmetry_group_IT_number 23
_symmetry_cell_setting 'orthorhombic'
loop_
_space_group_symop_operation_xyz
x,y,z
-x,-y,z
x,-y,-z
-x,y,-z
1/2+x,1/2+y,1/2+z
1/2-x,1/2-y,1/2+z
1/2+x,1/2-y,1/2-z
1/2-x,1/2+y,1/2-z
loop_
_atom_site_type_symbol
_atom_site_label
_atom_site_fract_x
_atom_site_fract_y
_atom_site_fract_z
Si Si1 0.500000 0.000000 0.000000
Si Si2 0.812199 0.590810 0.338195
Si Si3 0.377770 0.215238 0.074650
Si Si4 0.000000 0.000000 0.500000
Si Si5 0.890800 0.090015 0.850454
Si Si6 0.254342 0.832746 0.550971
O O1 0.420633 0.956426 0.154915
O O2 0.848327 0.661201 0.402166
O O3 0.709315 0.563200 0.488940
O O4 0.771138 0.602851 0.088553
O O5 0.372498 0.184516 0.318469
O O6 0.500000 0.242983 0.000000
O O7 0.287652 0.272881 0.086993
O O8 0.080611 0.040145 0.338679
O O9 0.843934 0.152965 0.734378
O O10 0.000000 0.107550 0.000000
#
# Coordination Sequence:
#
# PCOD8164461 Si02
#       6
#     2   8   8   2   8   8
#     4  12  28  52  78 104 162 216 268 314 376 492
#     4  11  26  50  72 110 153 210 263 315 390 478
#     4  11  24  45  72 109 149 197 256 319 399 469
#     4  12  26  48  74 108 148 200 238 338 398 462
#     4  11  27  45  75 111 149 193 254 323 398 470
#     4  11  25  46  76 111 150 198 254 327 397 470
#
# _framework density 23.956733
#
# number of rings (size 3 to 8) (size 9 to 14) (size 15 to 20)
#    0.000    0.889    3.333    1.667   10.889    0.889 
#    0.000    4.444    0.000    0.000    0.000    0.000 
#    0.000    0.000    0.000    0.000    0.000    0.000 
#
# Total GULP energy -223127.025542 kJ/mol
# GULP energy per Si atom -12395.945863 kJ/mol
# Density = 2.390221 g / cm^3
# Si number density = 23.956733 Si / 1000 Ang^3
#
#
#
# Elastic Constant Matrix: (Units=GPa)
#
#
# Indices 1 2 3 4 5 6 
#
# 1 141.4495 53.1976 66.8647 0.0002 -0.0014 -0.0019
# 2 53.1976 110.1575 48.2665 0.0105 -0.0038 -0.0005
# 3 66.8647 48.2665 147.3941 0.0613 -0.0086 0.0183
# 4 0.0002 0.0105 0.0613 33.1133 -0.0054 0.0025
# 5 -0.0014 -0.0038 -0.0086 -0.0054 34.0682 0.0005
# 6 -0.0019 -0.0005 0.0183 0.0025 0.0005 41.3847
#
#
#
# Elastic Compliance Matrix: (Units=1/GPa)
#
#
# Indices 1 2 3 4 5 6 
#
# 1 0.009927 -0.003293 -0.003425 0.000007 -0.000001 0.000002
# 2 -0.003293 0.011691 -0.002334 0.000001 0.000001 0.000001
# 3 -0.003425 -0.002334 0.009103 -0.000016 0.000002 -0.000004
# 4 0.000007 0.000001 -0.000016 0.030199 0.000005 -0.000002
# 5 -0.000001 0.000001 0.000002 0.000005 0.029353 0.000000
# 6 0.000002 0.000001 -0.000004 -0.000002 0.000000 0.024164
#
#
# Mechanical properties :
#
#
# Convention : Reuss Voigt Hill
#
# Bulk Modulus (GPa) = 79.26723 81.73984 80.50353
# Shear Modulus (GPa) = 36.56362 37.09141 36.82751
#
# Velocity S-wave (km/s) = 3.91094 3.93907 3.92503
# Velocity P-wave (km/s) = 7.31802 7.40825 7.36328
#
# Compressibility (1/GPa) = 0.01261555
#
# Stress axis : x y z
#
# Youngs Moduli (GPa) = 100.73218 85.53417 109.85734
#
# Poissons Ratio (x) = 0.28170 0.37626
# Poissons Ratio (y) = 0.33175 0.25645
# Poissons Ratio (z) = 0.34501 0.19967
#
# Static dielectric constant tensor:
#      x y z
#    x 4.406270 0.000020 -0.000020 
#    y 0.000020 4.107390 -0.000030 
#    z -0.000020 -0.000030 4.559060 
# 
# 
# High freq. dielectric constant tensor:
#      x y z
#    x 1.944860 0.000000 0.000000 
#    y 0.000000 1.950850 0.000000 
#    z 0.000000 0.000000 1.955970 
# 
# From -- ./inp_files/1606.got.cif
#   From: 2010.03.12/outbox.cif.g09.slc.cpg/sg23_1_cif.got.tgz:1606.got - 2010.04.14 02:50:06.
