data_PCOD8164124
_publ_section_title
;
Structure prediction by ZEFSAII (Michael W. Deem and Ramdas Pophale) SiO2 
 PCOD8164124
Probable space group: I 2 2 2
;
_chemical_formula_sum "Si O2"
_cell_formula_units_Z 58
_cell_length_a 16.178373
_cell_length_b 11.311991
_cell_length_c 14.522898
_cell_angle_alpha 90.000000
_cell_angle_beta 90.000000
_cell_angle_gamma 90.000000
_cell_volume 2657.829896
_symmetry_space_group_name_H-M "I 2 2 2"
_symmetry_group_IT_number 23
_symmetry_cell_setting 'orthorhombic'
loop_
_space_group_symop_operation_xyz
x,y,z
-x,-y,z
x,-y,-z
-x,y,-z
1/2+x,1/2+y,1/2+z
1/2-x,1/2-y,1/2+z
1/2+x,1/2-y,1/2-z
1/2-x,1/2+y,1/2-z
loop_
_atom_site_type_symbol
_atom_site_label
_atom_site_fract_x
_atom_site_fract_y
_atom_site_fract_z
Si Si1 0.819387 0.217329 0.147259
Si Si2 0.308791 0.960366 0.099131
Si Si3 0.602135 0.158860 0.364729
Si Si4 0.500000 0.000000 0.500000
Si Si5 0.363075 0.212222 0.153787
Si Si6 0.503267 0.371678 0.606145
Si Si7 0.759588 0.136564 0.478599
Si Si8 0.962759 0.623012 0.332939
O O1 0.773271 0.092147 0.144767
O O2 0.814984 0.253976 0.253298
O O3 0.915468 0.204672 0.125133
O O4 0.776832 0.306474 0.072996
O O5 0.383471 0.860731 0.098421
O O6 0.339201 0.075674 0.151280
O O7 0.280115 0.000000 0.000000
O O8 0.576254 0.296518 0.363183
O O9 0.697163 0.146621 0.392427
O O10 0.581057 0.106515 0.265759
O O11 0.555066 0.085009 0.440501
O O12 0.337244 0.289816 0.063876
O O13 0.464699 0.222262 0.161975
O O14 0.500000 0.500000 0.657380
O O15 0.500000 0.397904 0.500000
O O16 0.783466 0.000000 0.500000
O O17 0.000000 0.500000 0.365153
#
# Coordination Sequence:
#
# PCOD8164124 Si02
#       8
#     8   8   8   2   8   8   8   8
#     4  12  25  46  67 103 145 182 235 286 360 424
#     4  11  25  47  73 101 133 189 242 296 342 412
#     4  12  21  39  64 103 136 179 222 285 349 424
#     4  12  20  32  62 100 134 172 222 274 368 404
#     4  11  26  45  70 102 140 182 236 297 351 419
#     4  11  24  38  64  98 139 184 219 279 356 435
#     4  12  27  43  70 104 143 183 229 289 362 427
#     4  10  23  41  70 100 133 171 238 289 339 395
#
# _framework density 21.822313000000001
#
# number of rings (size 3 to 8) (size 9 to 14) (size 15 to 20)
#    0.000    0.690    6.207    0.828    9.655    2.483 
#    0.000    0.000    0.000    0.828    0.000    0.000 
#    0.000    0.000    0.000    0.000    0.000    0.000 
#
# Total GULP energy -359304.042354 kJ/mol
# GULP energy per Si atom -12389.794564 kJ/mol
# Density = 2.177264 g / cm^3
# Si number density = 21.822313 Si / 1000 Ang^3
#
#
#
# Elastic Constant Matrix: (Units=GPa)
#
#
# Indices 1 2 3 4 5 6 
#
# 1 85.4305 26.4155 28.2822 0.0000 0.0000 0.0000
# 2 26.4155 101.9898 29.3786 0.0000 0.0000 0.0000
# 3 28.2822 29.3786 78.9329 0.0000 0.0000 0.0000
# 4 0.0000 0.0000 0.0000 134.2084 0.0000 0.0000
# 5 0.0000 0.0000 0.0000 0.0000 17.1326 0.0000
# 6 0.0000 0.0000 0.0000 0.0000 0.0000 33.4048
#
#
#
# Elastic Compliance Matrix: (Units=1/GPa)
#
#
# Indices 1 2 3 4 5 6 
#
# 1 0.013789 -0.002406 -0.004045 0.000000 0.000000 0.000000
# 2 -0.002406 0.011402 -0.003382 0.000000 0.000000 0.000000
# 3 -0.004045 -0.003382 0.015377 0.000000 0.000000 0.000000
# 4 0.000000 0.000000 0.000000 0.007451 0.000000 0.000000
# 5 0.000000 0.000000 0.000000 0.000000 0.058368 0.000000
# 6 0.000000 0.000000 0.000000 0.000000 0.000000 0.029936
#
#
# Mechanical properties :
#
#
# Convention : Reuss Voigt Hill
#
# Bulk Modulus (GPa) = 47.84207 48.27843 48.06025
# Shear Modulus (GPa) = 30.68316 49.10095 39.89206
#
# Velocity S-wave (km/s) = 3.75380 4.74860 4.28020
# Velocity P-wave (km/s) = 6.38428 7.22752 6.81895
#
# Compressibility (1/GPa) = 0.02090210
#
# Stress axis : x y z
#
# Youngs Moduli (GPa) = 72.52420 87.70230 65.03208
#
# Poissons Ratio (x) = 0.21102 0.26305
# Poissons Ratio (y) = 0.17450 0.21992
# Poissons Ratio (z) = 0.29336 0.29659
#
# Static dielectric constant tensor:
#      x y z
#    x 3.801080 0.000000 0.000000 
#    y 0.000000 4.116870 0.000000 
#    z 0.000000 0.000000 3.949360 
# 
# 
# High freq. dielectric constant tensor:
#      x y z
#    x 1.860520 0.000000 0.000000 
#    y 0.000000 1.849700 0.000000 
#    z 0.000000 0.000000 1.856910 
# 
# From -- ./inp_files/16948.got.cif
#   From: 2010.03.12/outbox.cif.g09.slc.cpg/sg23_9_cif.got.tgz:16948.got - 2010.04.14 02:50:06.
