data_PCOD8164600
_publ_section_title
;
Structure prediction by ZEFSAII (Michael W. Deem and Ramdas Pophale) SiO2 
 PCOD8164600
Probable space group: I 21 21 21
;
_chemical_formula_sum "Si O2"
_cell_formula_units_Z 64
_cell_length_a 5.026635
_cell_length_b 30.236150
_cell_length_c 30.267515
_cell_angle_alpha 90.000000
_cell_angle_beta 90.000000
_cell_angle_gamma 90.000000
_cell_volume 4600.241254
_symmetry_space_group_name_H-M "I 21 21 21"
_symmetry_group_IT_number 24
_symmetry_cell_setting 'orthorhombic'
loop_
_space_group_symop_operation_xyz
x,y,z
-x,1/2-y,z
x,-y,1/2-z
1/2-x,y,-z
1/2+x,1/2+y,1/2+z
1/2-x,-y,1/2+z
1/2+x,1/2-y,-z
-x,1/2+y,1/2-z
loop_
_atom_site_type_symbol
_atom_site_label
_atom_site_fract_x
_atom_site_fract_y
_atom_site_fract_z
Si Si1 0.353147 0.429059 0.252219
Si Si2 0.143601 0.110859 0.213012
Si Si3 0.497704 0.799858 0.383917
Si Si4 0.243793 0.921529 0.550881
Si Si5 0.395709 0.497638 0.320935
Si Si6 0.006118 0.300942 0.171406
Si Si7 0.252392 0.633858 0.549797
Si Si8 0.608387 0.536822 0.639071
O O1 0.574401 0.393430 0.237547
O O2 0.374084 0.447278 0.302590
O O3 0.376366 0.470324 0.220288
O O4 0.065911 0.407521 0.247980
O O5 0.080508 0.162921 0.207392
O O6 0.126770 0.083561 0.166321
O O7 0.500000 0.750000 0.400389
O O8 0.193809 0.809763 0.370038
O O9 0.625079 0.826682 0.423360
O O10 0.688931 0.809566 0.342099
O O11 0.250000 0.939169 0.500000
O O12 0.443688 0.880034 0.559671
O O13 0.330380 0.957528 0.587005
O O14 0.938814 0.908009 0.559465
O O15 0.681872 0.501679 0.342891
O O16 0.173655 0.512397 0.356323
O O17 0.000000 0.250000 0.189002
O O18 0.250000 0.650389 0.500000
#
# Coordination Sequence:
#
# PCOD8164600 Si02
#       8
#     8   8   8   8   8   8   8   8
#     4   9  17  27  39  58  80  97 117 147 183 226
#     4  10  17  26  42  58  74 100 125 148 187 234
#     4  10  19  31  43  55  71  91 117 156 199 239
#     4  10  20  31  43  58  76  96 124 159 191 226
#     4   9  17  27  39  58  80  97 117 147 183 226
#     4  10  20  31  43  58  76  96 124 159 191 226
#     4  10  19  31  43  55  71  91 117 156 199 239
#     4  10  17  26  42  58  74 100 125 148 187 234
#
# _framework density 13.912314
#
# number of rings (size 3 to 8) (size 9 to 14) (size 15 to 20)
#    0.000    2.250    0.000    4.500    0.000    5.000 
#    0.000    3.750    0.000    0.000    0.000    0.000 
#    0.000    0.000    0.000    0.000    0.000    0.000 
#
# Total GULP energy -396466.759123 kJ/mol
# GULP energy per Si atom -12389.586223 kJ/mol
# Density = 1.388065 g / cm^3
# Si number density = 13.912314 Si / 1000 Ang^3
#
#
#
# Elastic Constant Matrix: (Units=GPa)
#
#
# Indices 1 2 3 4 5 6 
#
# 1 54.1464 7.3016 7.6455 0.0000 0.0000 0.0000
# 2 7.3016 45.1493 41.7052 0.0000 0.0000 0.0000
# 3 7.6455 41.7052 45.8397 0.0000 0.0000 0.0000
# 4 0.0000 0.0000 0.0000 18.3211 0.0000 0.0000
# 5 0.0000 0.0000 0.0000 0.0000 23.2888 0.0000
# 6 0.0000 0.0000 0.0000 0.0000 0.0000 23.0294
#
#
#
# Elastic Compliance Matrix: (Units=1/GPa)
#
#
# Indices 1 2 3 4 5 6 
#
# 1 0.018920 -0.000908 -0.002330 0.000000 0.000000 0.000000
# 2 -0.000908 0.138823 -0.126150 0.000000 0.000000 0.000000
# 3 -0.002330 -0.126150 0.136976 0.000000 0.000000 0.000000
# 4 0.000000 0.000000 0.000000 0.054582 0.000000 0.000000
# 5 0.000000 0.000000 0.000000 0.000000 0.042939 0.000000
# 6 0.000000 0.000000 0.000000 0.000000 0.000000 0.043423
#
#
# Mechanical properties :
#
#
# Convention : Reuss Voigt Hill
#
# Bulk Modulus (GPa) = 27.82183 28.71556 28.26869
# Shear Modulus (GPa) = 7.07796 18.82674 12.95235
#
# Velocity S-wave (km/s) = 2.25801 3.68264 3.05454
# Velocity P-wave (km/s) = 5.18069 6.22636 5.72744
#
# Compressibility (1/GPa) = 0.03594300
#
# Stress axis : x y z
#
# Youngs Moduli (GPa) = 52.85465 7.20344 7.30055
#
# Poissons Ratio (x) = 0.00654 0.01701
# Poissons Ratio (y) = 0.04797 0.92097
# Poissons Ratio (z) = 0.12315 0.90872
#
# Static dielectric constant tensor:
#      x y z
#    x 3.463590 0.000000 0.000000 
#    y 0.000000 2.568550 0.000000 
#    z 0.000000 0.000000 2.567350 
# 
# 
# High freq. dielectric constant tensor:
#      x y z
#    x 1.560170 0.000000 0.000000 
#    y 0.000000 1.492110 0.000000 
#    z 0.000000 0.000000 1.492380 
# 
# From -- ./inp_files/36644.got.cif
#   From: 2010.03.12/outbox.cif.g09.slc.cpg/sg24_19_cif.got.tgz:36644.got - 2010.04.14 03:06:53.
