data_PCOD8164712
_publ_section_title
;
Structure prediction by ZEFSAII (Michael W. Deem and Ramdas Pophale) SiO2 
 PCOD8164712
Probable space group: I 21 21 21
;
_chemical_formula_sum "Si O2"
_cell_formula_units_Z 40
_cell_length_a 32.733450
_cell_length_b 13.308075
_cell_length_c 5.213003
_cell_angle_alpha 90.000000
_cell_angle_beta 90.000000
_cell_angle_gamma 90.000000
_cell_volume 2270.884236
_symmetry_space_group_name_H-M "I 21 21 21"
_symmetry_group_IT_number 24
_symmetry_cell_setting 'orthorhombic'
loop_
_space_group_symop_operation_xyz
x,y,z
-x,1/2-y,z
x,-y,1/2-z
1/2-x,y,-z
1/2+x,1/2+y,1/2+z
1/2-x,-y,1/2+z
1/2+x,1/2-y,-z
-x,1/2+y,1/2-z
loop_
_atom_site_type_symbol
_atom_site_label
_atom_site_fract_x
_atom_site_fract_y
_atom_site_fract_z
Si Si1 0.477692 0.000000 0.250000
Si Si2 0.454367 0.215477 0.125980
Si Si3 0.796833 0.097078 0.993595
Si Si4 0.169174 0.622368 0.012138
Si Si5 0.079075 0.691135 0.141631
Si Si6 0.531164 0.000000 0.750000
O O1 0.450319 0.098214 0.199369
O O2 0.504858 0.018179 0.498562
O O3 0.500000 0.250000 0.042011
O O4 0.443519 0.277143 0.381586
O O5 0.424447 0.228873 0.877139
O O6 0.809777 0.163997 0.747919
O O7 0.826342 0.999191 0.001153
O O8 0.750000 0.061221 0.000000
O O9 0.805266 0.163814 0.244963
O O10 0.124002 0.663501 0.046675
O O11 0.059572 0.595871 0.282179
#
# Coordination Sequence:
#
# PCOD8164712 Si02
#       6
#     4   8   8   8   8   4
#     4  12  24  36  58  70  96 133 190 227 286 344
#     4  12  23  41  53  76  99 140 183 243 288 333
#     4  10  18  32  51  74 113 152 182 204 246 330
#     4  10  19  30  46  74 102 142 182 209 258 305
#     4  12  23  35  55  76 111 135 181 241 273 314
#     4  12  20  34  54  78  96 137 172 231 288 322
#
# _framework density 17.614281999999999
#
# number of rings (size 3 to 8) (size 9 to 14) (size 15 to 20)
#    0.000    0.800    4.000    7.200    0.000    3.200 
#    0.000    0.000    0.000    0.000    0.000    0.000 
#    0.000    0.000    0.000   81.000    0.000    0.400 
#
# Total GULP energy -247777.289589 kJ/mol
# GULP energy per Si atom -12388.864479 kJ/mol
# Density = 1.757419 g / cm^3
# Si number density = 17.614282 Si / 1000 Ang^3
#
#
#
# Elastic Constant Matrix: (Units=GPa)
#
#
# Indices 1 2 3 4 5 6 
#
# 1 97.9521 38.5156 50.4737 -0.0003 -0.0021 0.0000
# 2 38.5156 61.2909 21.4145 0.0043 0.0035 0.0011
# 3 50.4737 21.4145 179.2558 0.0037 -0.0097 0.0018
# 4 -0.0003 0.0043 0.0037 22.3295 -0.0004 0.0010
# 5 -0.0021 0.0035 -0.0097 -0.0004 22.9496 -0.0004
# 6 0.0000 0.0011 0.0018 0.0010 -0.0004 11.9051
#
#
#
# Elastic Compliance Matrix: (Units=1/GPa)
#
#
# Indices 1 2 3 4 5 6 
#
# 1 0.015204 -0.008410 -0.003276 0.000002 0.000001 0.000001
# 2 -0.008410 0.021678 -0.000222 -0.000004 -0.000004 -0.000002
# 3 -0.003276 -0.000222 0.006528 -0.000001 0.000002 -0.000001
# 4 0.000002 -0.000004 -0.000001 0.044784 0.000001 -0.000004
# 5 0.000001 -0.000004 0.000002 0.000001 0.043574 0.000002
# 6 0.000001 -0.000002 -0.000001 -0.000004 0.000002 0.083998
#
#
# Mechanical properties :
#
#
# Convention : Reuss Voigt Hill
#
# Bulk Modulus (GPa) = 51.03624 62.14515 56.59070
# Shear Modulus (GPa) = 20.31599 26.64318 23.47959
#
# Velocity S-wave (km/s) = 3.39983 3.89342 3.65497
# Velocity P-wave (km/s) = 6.66701 7.45449 7.07172
#
# Compressibility (1/GPa) = 0.01959392
#
# Stress axis : x y z
#
# Youngs Moduli (GPa) = 65.77171 46.13020 153.19393
#
# Poissons Ratio (x) = 0.38794 0.50193
# Poissons Ratio (y) = 0.55311 0.03398
# Poissons Ratio (z) = 0.21550 0.01023
#
# Static dielectric constant tensor:
#      x y z
#    x 3.137790 0.000000 0.000000 
#    y 0.000000 3.074410 0.000010 
#    z 0.000000 0.000010 4.946240 
# 
# 
# High freq. dielectric constant tensor:
#      x y z
#    x 1.659710 0.000000 0.000000 
#    y 0.000000 1.623360 0.000000 
#    z 0.000000 0.000000 1.729360 
# 
# From -- ./inp_files/2676.got.cif
#   From: 2010.03.12/outbox.cif.g09.slc.cpg/sg24_2_cif.got.tgz:2676.got - 2010.04.14 03:06:53.
