data_PCOD8164723
_publ_section_title
;
Structure prediction by ZEFSAII (Michael W. Deem and Ramdas Pophale) SiO2 
 PCOD8164723
Probable space group: I 21 21 21
;
_chemical_formula_sum "Si O2"
_cell_formula_units_Z 32
_cell_length_a 8.271007
_cell_length_b 14.465589
_cell_length_c 13.120957
_cell_angle_alpha 90.000000
_cell_angle_beta 90.000000
_cell_angle_gamma 90.000000
_cell_volume 1569.856741
_symmetry_space_group_name_H-M "I 21 21 21"
_symmetry_group_IT_number 24
_symmetry_cell_setting 'orthorhombic'
loop_
_space_group_symop_operation_xyz
x,y,z
-x,1/2-y,z
x,-y,1/2-z
1/2-x,y,-z
1/2+x,1/2+y,1/2+z
1/2-x,-y,1/2+z
1/2+x,1/2-y,-z
-x,1/2+y,1/2-z
loop_
_atom_site_type_symbol
_atom_site_label
_atom_site_fract_x
_atom_site_fract_y
_atom_site_fract_z
Si Si1 0.865095 0.179144 0.586286
Si Si2 0.569719 0.849114 0.789933
Si Si3 0.070267 0.038719 0.466371
Si Si4 0.074061 0.348259 0.049685
O O1 0.750000 0.226252 0.500000
O O2 0.758691 0.146584 0.681302
O O3 0.000000 0.250000 0.625157
O O4 0.944658 0.088651 0.539714
O O5 0.500000 0.750000 0.823445
O O6 0.465918 0.927879 0.849641
O O7 0.570687 0.862459 0.670348
O O8 0.250000 0.064588 0.500000
O O9 0.042174 0.930241 0.487725
O O10 0.000000 0.250000 0.016630
O O11 0.250000 0.358036 0.000000
#
# Coordination Sequence:
#
# PCOD8164723 Si02
#       4
#     8   8   8   8
#     4  10  18  32  57  89 118 142 179 235 297 349
#     4  10  21  37  59  86 117 149 185 235 288 339
#     4  11  21  37  60  86 116 148 186 237 292 341
#     4  11  24  42  59  79 113 157 198 233 274 331
#
# _framework density 20.384025000000001
#
# number of rings (size 3 to 8) (size 9 to 14) (size 15 to 20)
#    0.000    1.500    0.000    9.000    0.000    1.000 
#    0.000    5.000    0.000    0.000    0.000    0.000 
#    0.000    0.000    0.000    0.000    0.000    0.000 
#
# Total GULP energy -198362.095945 kJ/mol
# GULP energy per Si atom -12397.630997 kJ/mol
# Density = 2.033763 g / cm^3
# Si number density = 20.384025 Si / 1000 Ang^3
#
#
#
# Elastic Constant Matrix: (Units=GPa)
#
#
# Indices 1 2 3 4 5 6 
#
# 1 136.1044 35.2830 42.5437 0.0000 0.0000 0.0000
# 2 35.2830 122.2863 31.8839 0.0000 0.0000 0.0000
# 3 42.5437 31.8839 54.4200 0.0001 0.0000 0.0000
# 4 0.0000 0.0000 0.0001 6.1440 0.0000 0.0000
# 5 0.0000 0.0000 0.0000 0.0000 22.7357 0.0000
# 6 0.0000 0.0000 0.0000 0.0000 0.0000 24.0510
#
#
#
# Elastic Compliance Matrix: (Units=1/GPa)
#
#
# Indices 1 2 3 4 5 6 
#
# 1 0.009822 -0.000982 -0.007103 0.000000 0.000000 0.000000
# 2 -0.000982 0.009750 -0.004945 0.000000 0.000000 0.000000
# 3 -0.007103 -0.004945 0.026826 -0.000001 0.000000 0.000000
# 4 0.000000 0.000000 -0.000001 0.162761 0.000000 0.000000
# 5 0.000000 0.000000 0.000000 0.000000 0.043984 0.000000
# 6 0.000000 0.000000 0.000000 0.000000 0.000000 0.041578
#
#
# Mechanical properties :
#
#
# Convention : Reuss Voigt Hill
#
# Bulk Modulus (GPa) = 49.16908 59.13685 54.15297
# Shear Modulus (GPa) = 15.26436 24.12614 19.69525
#
# Velocity S-wave (km/s) = 2.73946 3.44405 3.11176
# Velocity P-wave (km/s) = 5.84636 6.69998 6.28767
#
# Compressibility (1/GPa) = 0.02033798
#
# Stress axis : x y z
#
# Youngs Moduli (GPa) = 101.80975 102.56294 37.27738
#
# Poissons Ratio (x) = 0.10071 0.26480
# Poissons Ratio (y) = 0.09997 0.18433
# Poissons Ratio (z) = 0.72320 0.50716
#
# Static dielectric constant tensor:
#      x y z
#    x 3.980440 0.000000 0.000000 
#    y 0.000000 3.863740 0.000000 
#    z 0.000000 0.000000 3.519580 
# 
# 
# High freq. dielectric constant tensor:
#      x y z
#    x 1.804340 0.000000 0.000000 
#    y 0.000000 1.808320 0.000000 
#    z 0.000000 0.000000 1.778890 
# 
# From -- ./inp_files/10215.got.cif
#   From: 2010.03.12/outbox.cif.g09.slc.cpg/sg24_6_cif.got.tgz:10215.got - 2010.04.14 03:06:53.
