data_PCOD8164168
_publ_section_title
;
Structure prediction by ZEFSAII (Michael W. Deem and Ramdas Pophale) SiO2 
 PCOD8164168
Probable space group: I 2 2 2
;
_chemical_formula_sum "Si O2"
_cell_formula_units_Z 64
_cell_length_a 14.140870
_cell_length_b 9.711713
_cell_length_c 26.791902
_cell_angle_alpha 90.000000
_cell_angle_beta 90.000000
_cell_angle_gamma 90.000000
_cell_volume 3679.387388
_symmetry_space_group_name_H-M "I 2 2 2"
_symmetry_group_IT_number 23
_symmetry_cell_setting 'orthorhombic'
loop_
_space_group_symop_operation_xyz
x,y,z
-x,-y,z
x,-y,-z
-x,y,-z
1/2+x,1/2+y,1/2+z
1/2-x,1/2-y,1/2+z
1/2+x,1/2-y,1/2-z
1/2-x,1/2+y,1/2-z
loop_
_atom_site_type_symbol
_atom_site_label
_atom_site_fract_x
_atom_site_fract_y
_atom_site_fract_z
Si Si1 0.393127 0.983303 0.941928
Si Si2 0.202854 0.159925 0.199674
Si Si3 0.167649 0.273376 0.384711
Si Si4 0.500517 0.347929 0.731262
Si Si5 0.112874 0.012196 0.441338
Si Si6 0.213879 0.839137 0.208510
Si Si7 0.326059 0.743842 0.882247
Si Si8 0.004964 0.337086 0.678856
O O1 0.353092 0.833866 0.930263
O O2 0.500000 0.000000 0.919741
O O3 0.319845 0.088030 0.916790
O O4 0.396791 0.000000 0.000000
O O5 0.241884 0.260683 0.243589
O O6 0.227096 0.221117 0.144534
O O7 0.089079 0.155923 0.194399
O O8 0.241439 0.002688 0.209288
O O9 0.163753 0.151434 0.424498
O O10 0.247119 0.266717 0.341928
O O11 0.064830 0.273858 0.361075
O O12 0.500000 0.500000 0.757322
O O13 0.600884 0.320311 0.704962
O O14 0.477374 0.225570 0.768567
O O15 0.136121 0.000000 0.500000
O O16 0.166364 0.907947 0.404127
O O17 0.000000 0.000000 0.432718
O O18 0.392715 0.780829 0.835359
O O19 0.000000 0.500000 0.683039
#
# Coordination Sequence:
#
# PCOD8164168 Si02
#       8
#     8   8   8   8   8   8   8   8
#     4  11  20  34  55  81 109 139 181 232 281 331
#     4  11  23  37  56  82 112 149 189 226 271 329
#     4  12  21  36  55  79 113 154 183 221 276 331
#     4  10  24  38  54  79 114 151 190 228 266 321
#     4  11  24  38  55  83 117 149 185 228 277 337
#     4  11  23  37  56  82 112 149 189 226 271 329
#     4  12  21  36  55  79 113 154 183 221 276 331
#     4  12  20  32  51  83 115 145 185 224 269 323
#
# _framework density 17.394197999999999
#
# number of rings (size 3 to 8) (size 9 to 14) (size 15 to 20)
#    0.000    0.750    7.500    0.750    3.500    2.000 
#    0.000    0.000    0.000    0.000    0.000    5.250 
#    0.000    0.000    0.000    0.000    0.000    0.000 
#
# Total GULP energy -396518.937160 kJ/mol
# GULP energy per Si atom -12391.216786 kJ/mol
# Density = 1.735461 g / cm^3
# Si number density = 17.394198 Si / 1000 Ang^3
#
#
#
# Elastic Constant Matrix: (Units=GPa)
#
#
# Indices 1 2 3 4 5 6 
#
# 1 76.0600 26.0350 32.4600 0.0000 0.0000 0.0000
# 2 26.0350 58.3322 40.6322 0.0000 0.0000 0.0000
# 3 32.4600 40.6322 89.7579 0.0000 0.0000 0.0000
# 4 0.0000 0.0000 0.0000 45.9890 0.0000 0.0000
# 5 0.0000 0.0000 0.0000 0.0000 31.8399 0.0000
# 6 0.0000 0.0000 0.0000 0.0000 0.0000 4.5367
#
#
#
# Elastic Compliance Matrix: (Units=1/GPa)
#
#
# Indices 1 2 3 4 5 6 
#
# 1 0.016366 -0.004647 -0.003815 0.000000 0.000000 0.000000
# 2 -0.004647 0.026358 -0.010251 0.000000 0.000000 0.000000
# 3 -0.003815 -0.010251 0.017161 0.000000 0.000000 0.000000
# 4 0.000000 0.000000 0.000000 0.021744 0.000000 0.000000
# 5 0.000000 0.000000 0.000000 0.000000 0.031407 0.000000
# 6 0.000000 0.000000 0.000000 0.000000 0.000000 0.220424
#
#
# Mechanical properties :
#
#
# Convention : Reuss Voigt Hill
#
# Bulk Modulus (GPa) = 44.52624 46.93384 45.73004
# Shear Modulus (GPa) = 13.21440 24.80799 19.01120
#
# Velocity S-wave (km/s) = 2.75926 3.78063 3.30958
# Velocity P-wave (km/s) = 5.98375 6.78960 6.39937
#
# Compressibility (1/GPa) = 0.02245867
#
# Stress axis : x y z
#
# Youngs Moduli (GPa) = 61.10093 37.93902 58.27050
#
# Poissons Ratio (x) = 0.17631 0.22230
# Poissons Ratio (y) = 0.28395 0.59735
# Poissons Ratio (z) = 0.23310 0.38892
#
# Static dielectric constant tensor:
#      x y z
#    x 3.184770 0.000000 0.000000 
#    y 0.000000 3.200750 0.000000 
#    z 0.000000 0.000000 3.364260 
# 
# 
# High freq. dielectric constant tensor:
#      x y z
#    x 1.647360 0.000000 0.000000 
#    y 0.000000 1.689060 0.000000 
#    z 0.000000 0.000000 1.663320 
# 
# From -- ./inp_files/30593.got.cif
#   From: 2010.03.12/outbox.cif.g09.slc.cpg/sg23_16_cif.got.tgz:30593.got - 2010.04.14 02:50:06.
