data_PCOD8164025
_publ_section_title
;
Structure prediction by ZEFSAII (Michael W. Deem and Ramdas Pophale) SiO2 
 PCOD8164025
Probable space group: I 2 2 2
;
_chemical_formula_sum "Si O2"
_cell_formula_units_Z 48
_cell_length_a 12.114179
_cell_length_b 9.119227
_cell_length_c 21.311783
_cell_angle_alpha 90.000000
_cell_angle_beta 90.000000
_cell_angle_gamma 90.000000
_cell_volume 2354.354188
_symmetry_space_group_name_H-M "I 2 2 2"
_symmetry_group_IT_number 23
_symmetry_cell_setting 'orthorhombic'
loop_
_space_group_symop_operation_xyz
x,y,z
-x,-y,z
x,-y,-z
-x,y,-z
1/2+x,1/2+y,1/2+z
1/2-x,1/2-y,1/2+z
1/2+x,1/2-y,1/2-z
1/2-x,1/2+y,1/2-z
loop_
_atom_site_type_symbol
_atom_site_label
_atom_site_fract_x
_atom_site_fract_y
_atom_site_fract_z
Si Si1 0.467405 0.334050 0.327700
Si Si2 0.105013 0.398841 0.584399
Si Si3 0.557443 0.842895 0.559634
Si Si4 0.511283 0.165939 0.203296
Si Si5 0.294150 0.660493 0.998577
Si Si6 0.273694 0.831715 0.122810
O O1 0.500000 0.500000 0.333343
O O2 0.542142 0.247287 0.377173
O O3 0.492694 0.279970 0.258099
O O4 0.338600 0.317142 0.339514
O O5 0.123327 0.280476 0.530309
O O6 0.210820 0.506469 0.591800
O O7 0.000000 0.500000 0.566898
O O8 0.081722 0.313342 0.649450
O O9 0.500000 0.761681 0.500000
O O10 0.686760 0.856618 0.545390
O O11 0.500000 0.000000 0.568165
O O12 0.629902 0.198511 0.172654
O O13 0.500000 0.000000 0.229629
O O14 0.267786 0.708489 0.069201
O O15 0.351464 0.500000 0.000000
#
# Coordination Sequence:
#
# PCOD8164025 Si02
#       6
#     8   8   8   8   8   8
#     4  12  24  37  62  95 125 157 208 264 310 371
#     4   9  22  44  63  87 126 171 211 255 316 380
#     4  11  21  41  61  91 134 163 200 255 316 375
#     4   9  23  44  62  80 118 168 209 251 312 379
#     4  12  22  37  67  97 123 167 212 257 315 374
#     4  10  22  41  61  88 124 167 205 255 321 372
#
# _framework density 20.387754999999999
#
# number of rings (size 3 to 8) (size 9 to 14) (size 15 to 20)
#    0.000    1.833    3.333    2.000    0.000   11.000 
#    0.000    5.833    0.000    0.000    0.000    0.000 
#    0.000    0.000    0.000    0.000    0.000    0.000 
#
# Total GULP energy -297592.066323 kJ/mol
# GULP energy per Si atom -12399.669430 kJ/mol
# Density = 2.034135 g / cm^3
# Si number density = 20.387755 Si / 1000 Ang^3
#
#
#
# Elastic Constant Matrix: (Units=GPa)
#
#
# Indices 1 2 3 4 5 6 
#
# 1 83.9919 49.8762 52.3456 0.0000 0.0000 0.0000
# 2 49.8762 116.7367 75.3792 0.0000 0.0000 0.0000
# 3 52.3456 75.3792 130.3182 0.0000 0.0000 0.0000
# 4 0.0000 0.0000 0.0000 22.9135 0.0000 0.0000
# 5 0.0000 0.0000 0.0000 0.0000 31.4080 0.0000
# 6 0.0000 0.0000 0.0000 0.0000 0.0000 27.8570
#
#
#
# Elastic Compliance Matrix: (Units=1/GPa)
#
#
# Indices 1 2 3 4 5 6 
#
# 1 0.017327 -0.004643 -0.004274 0.000000 0.000000 0.000000
# 2 -0.004643 0.014917 -0.006764 0.000000 0.000000 0.000000
# 3 -0.004274 -0.006764 0.013303 0.000000 0.000000 0.000000
# 4 0.000000 0.000000 0.000000 0.043642 0.000000 0.000000
# 5 0.000000 0.000000 0.000000 0.000000 0.031839 0.000000
# 6 0.000000 0.000000 0.000000 0.000000 0.000000 0.035898
#
#
# Mechanical properties :
#
#
# Convention : Reuss Voigt Hill
#
# Bulk Modulus (GPa) = 70.49570 76.24987 73.37278
# Shear Modulus (GPa) = 25.90464 26.66544 26.28504
#
# Velocity S-wave (km/s) = 3.56841 3.62043 3.59452
# Velocity P-wave (km/s) = 7.18545 7.41335 7.30029
#
# Compressibility (1/GPa) = 0.01418526
#
# Stress axis : x y z
#
# Youngs Moduli (GPa) = 57.71419 67.03559 75.17365
#
# Poissons Ratio (x) = 0.31125 0.32130
# Poissons Ratio (y) = 0.26797 0.50844
# Poissons Ratio (z) = 0.24667 0.45340
#
# Static dielectric constant tensor:
#      x y z
#    x 3.696980 0.000000 0.000000 
#    y 0.000000 3.742020 0.000000 
#    z 0.000000 0.000000 3.768550 
# 
# 
# High freq. dielectric constant tensor:
#      x y z
#    x 1.796220 0.000000 0.000000 
#    y 0.000000 1.793460 0.000000 
#    z 0.000000 0.000000 1.802350 
# 
# From -- ./inp_files/18288.got.cif
#   From: 2010.03.12/outbox.cif.g09.slc.cpg/sg23_10_cif.got.tgz:18288.got - 2010.04.14 02:50:06.
