data_PCOD8164245
_publ_section_title
;
Structure prediction by ZEFSAII (Michael W. Deem and Ramdas Pophale) SiO2 
 PCOD8164245
Probable space group: I 2 2 2
;
_chemical_formula_sum "Si O2"
_cell_formula_units_Z 38
_cell_length_a 24.092941
_cell_length_b 9.358757
_cell_length_c 8.427893
_cell_angle_alpha 90.000000
_cell_angle_beta 90.000000
_cell_angle_gamma 90.000000
_cell_volume 1900.321147
_symmetry_space_group_name_H-M "I 2 2 2"
_symmetry_group_IT_number 23
_symmetry_cell_setting 'orthorhombic'
loop_
_space_group_symop_operation_xyz
x,y,z
-x,-y,z
x,-y,-z
-x,y,-z
1/2+x,1/2+y,1/2+z
1/2-x,1/2-y,1/2+z
1/2+x,1/2-y,1/2-z
1/2-x,1/2+y,1/2-z
loop_
_atom_site_type_symbol
_atom_site_label
_atom_site_fract_x
_atom_site_fract_y
_atom_site_fract_z
Si Si1 0.338765 0.541193 0.169893
Si Si2 0.138013 0.319263 0.140717
Si Si3 0.410960 0.319424 0.339604
Si Si4 0.000000 0.000000 0.000000
Si Si5 0.437759 0.037743 0.181895
Si Si6 0.732224 0.000000 0.500000
O O1 0.355145 0.699091 0.225160
O O2 0.358987 0.420839 0.293869
O O3 0.271703 0.542845 0.149251
O O4 0.366905 0.500000 0.000000
O O5 0.107515 0.454885 0.214791
O O6 0.196012 0.367509 0.062432
O O7 0.100298 0.260157 0.002443
O O8 0.464861 0.411870 0.373168
O O9 0.425462 0.205897 0.202403
O O10 0.500000 0.000000 0.239159
O O11 0.429282 0.000000 0.000000
#
# Coordination Sequence:
#
# PCOD8164245 Si02
#       6
#     8   8   8   2   8   4
#     4  10  25  43  65  96 135 172 224 271 335 384
#     4  12  22  46  68  99 134 174 228 272 330 406
#     4  12  23  44  69  98 136 174 224 275 328 403
#     4  12  24  40  72 104 136 176 228 268 342 396
#     4  11  25  43  69 101 136 174 219 277 340 395
#     4  10  26  40  69  97 132 180 226 272 342 376
#
# _framework density 19.99662
#
# number of rings (size 3 to 8) (size 9 to 14) (size 15 to 20)
#    0.632    0.211    4.211    2.526    2.947    0.842 
#    0.000    0.000    0.000    0.000    0.000    0.000 
#    0.000    0.000    0.000    0.000    0.000    0.000 
#
# Total GULP energy -235573.215259 kJ/mol
# GULP energy per Si atom -12398.590277 kJ/mol
# Density = 1.995111 g / cm^3
# Si number density = 19.996620 Si / 1000 Ang^3
#
#
#
# Elastic Constant Matrix: (Units=GPa)
#
#
# Indices 1 2 3 4 5 6 
#
# 1 123.8637 58.8097 43.1598 0.0000 0.0000 0.0000
# 2 58.8097 146.2960 55.0415 0.0000 0.0000 0.0000
# 3 43.1598 55.0415 94.7827 0.0000 0.0000 0.0000
# 4 0.0000 0.0000 0.0000 50.0986 0.0000 0.0000
# 5 0.0000 0.0000 0.0000 0.0000 42.0954 0.0000
# 6 0.0000 0.0000 0.0000 0.0000 0.0000 5.7843
#
#
#
# Elastic Compliance Matrix: (Units=1/GPa)
#
#
# Indices 1 2 3 4 5 6 
#
# 1 0.010610 -0.003132 -0.003013 0.000000 0.000000 0.000000
# 2 -0.003132 0.009671 -0.004190 0.000000 0.000000 0.000000
# 3 -0.003013 -0.004190 0.014355 0.000000 0.000000 0.000000
# 4 0.000000 0.000000 0.000000 0.019961 0.000000 0.000000
# 5 0.000000 0.000000 0.000000 0.000000 0.023756 0.000000
# 6 0.000000 0.000000 0.000000 0.000000 0.000000 0.172882
#
#
# Mechanical properties :
#
#
# Convention : Reuss Voigt Hill
#
# Bulk Modulus (GPa) = 71.59413 75.44049 73.51731
# Shear Modulus (GPa) = 18.07931 33.45775 25.76853
#
# Velocity S-wave (km/s) = 3.01012 4.09488 3.59366
# Velocity P-wave (km/s) = 6.92545 7.75667 7.35282
#
# Compressibility (1/GPa) = 0.01396763
#
# Stress axis : x y z
#
# Youngs Moduli (GPa) = 94.25013 103.40474 69.65992
#
# Poissons Ratio (x) = 0.32383 0.20987
# Poissons Ratio (y) = 0.29516 0.29187
# Poissons Ratio (z) = 0.28395 0.43326
#
# Static dielectric constant tensor:
#      x y z
#    x 3.617400 0.000000 0.000000 
#    y 0.000000 4.016570 0.000000 
#    z 0.000000 0.000000 3.670480 
# 
# 
# High freq. dielectric constant tensor:
#      x y z
#    x 1.780490 0.000000 0.000000 
#    y 0.000000 1.793420 0.000000 
#    z 0.000000 0.000000 1.782500 
# 
# From -- ./inp_files/12438.got.cif
#   From: 2010.03.12/outbox.cif.g09.slc.cpg/sg23_7_cif.got.tgz:12438.got - 2010.04.14 02:50:06.
