data_PCOD8164472
_publ_section_title
;
Structure prediction by ZEFSAII (Michael W. Deem and Ramdas Pophale) SiO2 
 PCOD8164472
Probable space group: I 2 2 2
;
_chemical_formula_sum "Si O2"
_cell_formula_units_Z 26
_cell_length_a 7.079721
_cell_length_b 14.657295
_cell_length_c 9.641709
_cell_angle_alpha 90.000000
_cell_angle_beta 90.000000
_cell_angle_gamma 90.000000
_cell_volume 1000.515893
_symmetry_space_group_name_H-M "I 2 2 2"
_symmetry_group_IT_number 23
_symmetry_cell_setting 'orthorhombic'
loop_
_space_group_symop_operation_xyz
x,y,z
-x,-y,z
x,-y,-z
-x,y,-z
1/2+x,1/2+y,1/2+z
1/2-x,1/2-y,1/2+z
1/2+x,1/2-y,1/2-z
1/2-x,1/2+y,1/2-z
loop_
_atom_site_type_symbol
_atom_site_label
_atom_site_fract_x
_atom_site_fract_y
_atom_site_fract_z
Si Si1 0.500000 0.500000 0.500000
Si Si2 0.684092 0.349509 0.825295
Si Si3 0.255994 0.695565 0.120995
Si Si4 0.306756 0.034224 0.204336
O O1 0.641923 0.561149 0.593763
O O2 0.465505 0.341583 0.858772
O O3 0.733555 0.296513 0.682989
O O4 0.729311 0.455677 0.806142
O O5 0.798116 0.306408 0.957273
O O6 0.129628 0.623393 0.208086
O O7 0.500000 0.000000 0.130605
#
# Coordination Sequence:
#
# PCOD8164472 Si02
#       4
#     2   8   8   8
#     4  12  26  48  74 102 152 178 240 304 348 426
#     4  11  25  45  70 103 145 190 239 294 355 422
#     4  11  25  45  70 103 145 190 239 294 355 422
#     4  12  26  46  74 105 140 193 237 290 361 423
#
# _framework density 25.986594
#
# number of rings (size 3 to 8) (size 9 to 14) (size 15 to 20)
#    0.000    0.615    3.077    3.231    4.308    8.615 
#    0.000    0.000    0.000    0.000    0.000    0.000 
#    0.000    0.000    0.000    0.000    0.000    0.000 
#
# Total GULP energy -161187.499872 kJ/mol
# GULP energy per Si atom -12399.038452 kJ/mol
# Density = 2.592745 g / cm^3
# Si number density = 25.986594 Si / 1000 Ang^3
#
#
#
# Elastic Constant Matrix: (Units=GPa)
#
#
# Indices 1 2 3 4 5 6 
#
# 1 77.4248 -18.7510 3.5610 0.0000 0.0000 0.0000
# 2 -18.7510 96.5292 31.6799 0.0000 0.0000 0.0000
# 3 3.5610 31.6799 164.7363 0.0001 0.0000 0.0000
# 4 0.0000 0.0000 0.0001 29.5212 0.0000 0.0000
# 5 0.0000 0.0000 0.0000 0.0000 35.4760 0.0000
# 6 0.0000 0.0000 0.0000 0.0000 0.0000 34.5237
#
#
#
# Elastic Compliance Matrix: (Units=1/GPa)
#
#
# Indices 1 2 3 4 5 6 
#
# 1 0.013667 0.002937 -0.000860 0.000000 0.000000 0.000000
# 2 0.002937 0.011689 -0.002311 0.000000 0.000000 0.000000
# 3 -0.000860 -0.002311 0.006533 0.000000 0.000000 0.000000
# 4 0.000000 0.000000 0.000000 0.033874 0.000000 0.000000
# 5 0.000000 0.000000 0.000000 0.000000 0.028188 0.000000
# 6 0.000000 0.000000 0.000000 0.000000 0.000000 0.028966
#
#
# Mechanical properties :
#
#
# Convention : Reuss Voigt Hill
#
# Bulk Modulus (GPa) = 31.82708 41.29666 36.56187
# Shear Modulus (GPa) = 37.35290 41.38422 39.36856
#
# Velocity S-wave (km/s) = 3.79541 3.99497 3.89647
# Velocity P-wave (km/s) = 5.61079 6.09965 5.86032
#
# Compressibility (1/GPa) = 0.03141979
#
# Stress axis : x y z
#
# Youngs Moduli (GPa) = 73.17090 85.55313 153.06008
#
# Poissons Ratio (x) = -0.25128 0.13167
# Poissons Ratio (y) = -0.21491 0.35377
# Poissons Ratio (z) = 0.06294 0.19774
#
# Static dielectric constant tensor:
#      x y z
#    x 4.869650 0.000000 0.000000 
#    y 0.000000 4.343900 0.000000 
#    z 0.000000 0.000000 5.388020 
# 
# 
# High freq. dielectric constant tensor:
#      x y z
#    x 2.060420 0.000000 0.000000 
#    y 0.000000 2.019620 0.000000 
#    z 0.000000 0.000000 2.040450 
# 
# From -- ./inp_files/6432.got.cif
#   From: 2010.03.12/outbox.cif.g09.slc.cpg/sg23_4_cif.got.tgz:6432.got - 2010.04.14 02:50:06.
