data_PCOD8164186
_publ_section_title
;
Structure prediction by ZEFSAII (Michael W. Deem and Ramdas Pophale) SiO2 
 PCOD8164186
Probable space group: I 2 2 2
;
_chemical_formula_sum "Si O2"
_cell_formula_units_Z 34
_cell_length_a 14.588894
_cell_length_b 5.454853
_cell_length_c 17.665393
_cell_angle_alpha 90.000000
_cell_angle_beta 90.000000
_cell_angle_gamma 90.000000
_cell_volume 1405.816784
_symmetry_space_group_name_H-M "I 2 2 2"
_symmetry_group_IT_number 23
_symmetry_cell_setting 'orthorhombic'
loop_
_space_group_symop_operation_xyz
x,y,z
-x,-y,z
x,-y,-z
-x,y,-z
1/2+x,1/2+y,1/2+z
1/2-x,1/2-y,1/2+z
1/2+x,1/2-y,1/2-z
1/2-x,1/2+y,1/2-z
loop_
_atom_site_type_symbol
_atom_site_label
_atom_site_fract_x
_atom_site_fract_y
_atom_site_fract_z
Si Si1 0.804252 0.542962 0.361734
Si Si2 0.000000 0.000000 0.000000
Si Si3 0.854299 0.663452 0.927440
Si Si4 0.000000 0.500000 0.341883
Si Si5 0.500000 0.500000 0.255670
Si Si6 0.839867 0.283985 0.806786
O O1 0.744347 0.708626 0.417056
O O2 0.813138 0.656953 0.278413
O O3 0.752320 0.284258 0.352818
O O4 0.908224 0.514812 0.393650
O O5 0.062190 0.844434 0.056736
O O6 0.883476 0.511401 0.852368
O O7 0.839498 0.500000 0.000000
O O8 0.011970 0.747496 0.291861
O O9 0.409255 0.548819 0.306968
#
# Coordination Sequence:
#
# PCOD8164186 Si02
#       6
#     8   2   8   4   4   8
#     4  11  23  45  73 114 155 205 274 339 396 484
#     4  12  30  58  72 120 172 216 278 322 430 516
#     4  12  28  50  77 112 167 220 270 333 420 499
#     4  10  24  44  74 115 161 196 266 342 406 456
#     4  10  24  41  70 121 157 203 260 338 411 474
#     4  11  23  44  76 112 156 210 269 342 403 479
#
# _framework density 24.185227000000001
#
# number of rings (size 3 to 8) (size 9 to 14) (size 15 to 20)
#    0.000    0.941    2.353    3.176    6.588    5.647 
#   12.706    0.000    0.000   10.588    0.000    0.000 
#    0.000    0.000    0.000    0.000    0.000    0.000 
#
# Total GULP energy -210706.730196 kJ/mol
# GULP energy per Si atom -12394.513541 kJ/mol
# Density = 2.413018 g / cm^3
# Si number density = 24.185227 Si / 1000 Ang^3
#
#
#
# Elastic Constant Matrix: (Units=GPa)
#
#
# Indices 1 2 3 4 5 6 
#
# 1 227.2860 77.0833 47.4873 0.0000 0.0000 0.0000
# 2 77.0833 138.4321 31.6243 0.0000 0.0000 0.0000
# 3 47.4873 31.6243 75.6927 0.0000 0.0000 0.0000
# 4 0.0000 0.0000 0.0000 31.8816 0.0000 0.0000
# 5 0.0000 0.0000 0.0000 0.0000 108.8548 0.0000
# 6 0.0000 0.0000 0.0000 0.0000 0.0000 25.4999
#
#
#
# Elastic Compliance Matrix: (Units=1/GPa)
#
#
# Indices 1 2 3 4 5 6 
#
# 1 0.005837 -0.002668 -0.002547 0.000000 0.000000 0.000000
# 2 -0.002668 0.009206 -0.002172 0.000000 0.000000 0.000000
# 3 -0.002547 -0.002172 0.015717 0.000000 0.000000 0.000000
# 4 0.000000 0.000000 0.000000 0.031366 0.000000 0.000000
# 5 0.000000 0.000000 0.000000 0.000000 0.009187 0.000000
# 6 0.000000 0.000000 0.000000 0.000000 0.000000 0.039216
#
#
# Mechanical properties :
#
#
# Convention : Reuss Voigt Hill
#
# Bulk Modulus (GPa) = 62.56096 83.75564 73.15830
# Shear Modulus (GPa) = 38.27577 52.26165 45.26871
#
# Velocity S-wave (km/s) = 3.98252 4.65358 4.33107
# Velocity P-wave (km/s) = 6.86082 7.97374 7.43812
#
# Compressibility (1/GPa) = 0.01598441
#
# Stress axis : x y z
#
# Youngs Moduli (GPa) = 171.32561 108.62771 63.62620
#
# Poissons Ratio (x) = 0.28985 0.16206
# Poissons Ratio (y) = 0.45714 0.13821
# Poissons Ratio (z) = 0.43638 0.23596
#
# Static dielectric constant tensor:
#      x y z
#    x 5.769620 0.000000 0.000000 
#    y 0.000000 3.930170 0.000000 
#    z 0.000000 0.000000 3.982420 
# 
# 
# High freq. dielectric constant tensor:
#      x y z
#    x 1.981450 0.000000 0.000000 
#    y 0.000000 1.974930 0.000000 
#    z 0.000000 0.000000 1.926410 
# 
# From -- ./inp_files/3012.got.cif
#   From: 2010.03.12/outbox.cif.g09.slc.cpg/sg23_2_cif.got.tgz:3012.got - 2010.04.14 02:50:06.
