data_PCOD8164241
_publ_section_title
;
Structure prediction by ZEFSAII (Michael W. Deem and Ramdas Pophale) SiO2 
 PCOD8164241
Probable space group: I 2 2 2
;
_chemical_formula_sum "Si O2"
_cell_formula_units_Z 64
_cell_length_a 11.478329
_cell_length_b 17.306481
_cell_length_c 16.200937
_cell_angle_alpha 90.000000
_cell_angle_beta 90.000000
_cell_angle_gamma 90.000000
_cell_volume 3218.307755
_symmetry_space_group_name_H-M "I 2 2 2"
_symmetry_group_IT_number 23
_symmetry_cell_setting 'orthorhombic'
loop_
_space_group_symop_operation_xyz
x,y,z
-x,-y,z
x,-y,-z
-x,y,-z
1/2+x,1/2+y,1/2+z
1/2-x,1/2-y,1/2+z
1/2+x,1/2-y,1/2-z
1/2-x,1/2+y,1/2-z
loop_
_atom_site_type_symbol
_atom_site_label
_atom_site_fract_x
_atom_site_fract_y
_atom_site_fract_z
Si Si1 0.577626 0.172273 0.666560
Si Si2 0.104941 0.196281 0.708681
Si Si3 0.367463 0.969853 0.915079
Si Si4 0.267875 0.337983 0.971674
Si Si5 0.929613 0.925532 0.348561
Si Si6 0.609066 0.797997 0.054273
Si Si7 0.324183 0.119656 0.642125
Si Si8 0.301182 0.030451 0.261758
O O1 0.594445 0.256021 0.707180
O O2 0.657005 0.166590 0.586392
O O3 0.444539 0.165899 0.638050
O O4 0.613702 0.104471 0.730098
O O5 0.068009 0.249194 0.632230
O O6 0.237415 0.166239 0.702434
O O7 0.016049 0.125292 0.707050
O O8 0.341161 0.878573 0.913750
O O9 0.304885 0.001208 0.832275
O O10 0.500000 0.000000 0.911759
O O11 0.308741 0.000000 0.000000
O O12 0.377248 0.379507 0.927148
O O13 0.299874 0.251184 0.999770
O O14 0.233852 0.388341 0.051814
O O15 0.830263 0.949530 0.284668
O O16 0.000000 0.000000 0.382064
O O17 0.500000 0.821510 0.000000
O O18 0.348549 0.034387 0.675930
#
# Coordination Sequence:
#
# PCOD8164241 Si02
#       8
#     8   8   8   8   8   8   8   8
#     4  11  24  41  68  92 135 172 219 263 336 396
#     4  11  24  40  66  97 124 180 210 277 320 392
#     4  11  22  37  64  97 127 167 219 276 333 380
#     4  10  25  41  66  98 130 178 213 273 333 392
#     4  11  23  44  63  94 134 172 223 264 328 399
#     4  11  20  39  59  94 131 157 219 276 320 382
#     4  11  24  43  64  96 134 167 222 265 333 391
#     4  11  24  42  64  96 130 176 210 274 329 394
#
# _framework density 19.886227999999999
#
# number of rings (size 3 to 8) (size 9 to 14) (size 15 to 20)
#    0.000    1.125    5.000    1.500    3.500    3.000 
#    4.500    2.500    0.000    0.375    0.000    0.000 
#    0.000    0.000    0.000    0.000    0.000    0.000 
#
# Total GULP energy -396850.240321 kJ/mol
# GULP energy per Si atom -12401.570010 kJ/mol
# Density = 1.984097 g / cm^3
# Si number density = 19.886228 Si / 1000 Ang^3
#
#
#
# Elastic Constant Matrix: (Units=GPa)
#
#
# Indices 1 2 3 4 5 6 
#
# 1 105.1635 38.4656 32.1088 0.0000 0.0000 0.0000
# 2 38.4656 114.3613 40.7443 0.0000 0.0000 0.0000
# 3 32.1088 40.7443 112.2790 0.0000 0.0000 0.0000
# 4 0.0000 0.0000 0.0000 33.8643 0.0000 0.0000
# 5 0.0000 0.0000 0.0000 0.0000 27.4357 0.0000
# 6 0.0000 0.0000 0.0000 0.0000 0.0000 27.9344
#
#
#
# Elastic Compliance Matrix: (Units=1/GPa)
#
#
# Indices 1 2 3 4 5 6 
#
# 1 0.011266 -0.003034 -0.002121 0.000000 0.000000 0.000000
# 2 -0.003034 0.010860 -0.003073 0.000000 0.000000 0.000000
# 3 -0.002121 -0.003073 0.010628 0.000000 0.000000 0.000000
# 4 0.000000 0.000000 0.000000 0.029530 0.000000 0.000000
# 5 0.000000 0.000000 0.000000 0.000000 0.036449 0.000000
# 6 0.000000 0.000000 0.000000 0.000000 0.000000 0.035798
#
#
# Mechanical properties :
#
#
# Convention : Reuss Voigt Hill
#
# Bulk Modulus (GPa) = 61.35676 61.60457 61.48066
# Shear Modulus (GPa) = 31.96541 32.54587 32.25564
#
# Velocity S-wave (km/s) = 4.01361 4.04988 4.03179
# Velocity P-wave (km/s) = 7.23876 7.27424 7.25652
#
# Compressibility (1/GPa) = 0.01629812
#
# Stress axis : x y z
#
# Youngs Moduli (GPa) = 88.76077 92.08492 94.08993
#
# Poissons Ratio (x) = 0.27937 0.19956
# Poissons Ratio (y) = 0.26928 0.28916
# Poissons Ratio (z) = 0.18826 0.28299
#
# Static dielectric constant tensor:
#      x y z
#    x 3.558670 0.000000 0.000000 
#    y 0.000000 3.759100 0.000000 
#    z 0.000000 0.000000 3.687770 
# 
# 
# High freq. dielectric constant tensor:
#      x y z
#    x 1.766640 0.000000 0.000000 
#    y 0.000000 1.782270 0.000000 
#    z 0.000000 0.000000 1.777320 
# 
# From -- ./inp_files/21071.got.cif
#   From: 2010.03.12/outbox.cif.g09.slc.cpg/sg23_11_cif.got.tgz:21071.got - 2010.04.14 02:50:06.
