data_PCOD8164224
_publ_section_title
;
Structure prediction by ZEFSAII (Michael W. Deem and Ramdas Pophale) SiO2 
 PCOD8164224
Probable space group: I 2 2 2
;
_chemical_formula_sum "Si O2"
_cell_formula_units_Z 32
_cell_length_a 8.802564
_cell_length_b 5.423584
_cell_length_c 28.416650
_cell_angle_alpha 90.000000
_cell_angle_beta 90.000000
_cell_angle_gamma 90.000000
_cell_volume 1356.651941
_symmetry_space_group_name_H-M "I 2 2 2"
_symmetry_group_IT_number 23
_symmetry_cell_setting 'orthorhombic'
loop_
_space_group_symop_operation_xyz
x,y,z
-x,-y,z
x,-y,-z
-x,y,-z
1/2+x,1/2+y,1/2+z
1/2-x,1/2-y,1/2+z
1/2+x,1/2-y,1/2-z
1/2-x,1/2+y,1/2-z
loop_
_atom_site_type_symbol
_atom_site_label
_atom_site_fract_x
_atom_site_fract_y
_atom_site_fract_z
Si Si1 0.000000 0.500000 0.415772
Si Si2 0.178557 0.457649 0.230101
Si Si3 0.255863 0.188890 0.624160
Si Si4 0.746859 0.319429 0.043119
Si Si5 0.500000 0.500000 0.570570
O O1 0.092379 0.679610 0.380888
O O2 0.107731 0.366270 0.453308
O O3 0.265464 0.715578 0.241076
O O4 0.211955 0.393663 0.176501
O O5 0.000000 0.500000 0.239487
O O6 0.386975 0.365663 0.605881
O O7 0.256209 0.945922 0.593368
O O8 0.717385 0.500000 0.000000
O O9 0.906202 0.178679 0.035682
#
# Coordination Sequence:
#
# PCOD8164224 Si02
#       5
#     4   8   8   8   4
#     4  10  26  45  74 104 148 196 250 308 387 450
#     4  12  30  51  83 119 159 209 267 330 404 477
#     4  11  26  47  75 108 150 194 251 315 380 462
#     4  11  25  45  72 107 147 197 251 308 380 457
#     4  10  24  45  74 104 146 194 250 308 379 452
#
# _framework density 23.587482000000001
#
# number of rings (size 3 to 8) (size 9 to 14) (size 15 to 20)
#    0.000    1.000    0.000    3.750   12.250   12.000 
#    0.000    3.750    0.000    0.000    0.000    0.000 
#    0.000    0.000    0.000    0.000    0.000    0.000 
#
# Total GULP energy -198402.483616 kJ/mol
# GULP energy per Si atom -12400.155226 kJ/mol
# Density = 2.353380 g / cm^3
# Si number density = 23.587482 Si / 1000 Ang^3
#
#
#
# Elastic Constant Matrix: (Units=GPa)
#
#
# Indices 1 2 3 4 5 6 
#
# 1 168.4906 67.2454 39.3921 0.0000 0.0000 0.0000
# 2 67.2454 140.5665 29.6178 0.0000 0.0000 0.0000
# 3 39.3921 29.6178 81.9970 0.0000 0.0000 0.0000
# 4 0.0000 0.0000 0.0000 48.3632 0.0000 0.0000
# 5 0.0000 0.0000 0.0000 0.0000 28.9184 0.0000
# 6 0.0000 0.0000 0.0000 0.0000 0.0000 -101.1462
#
#
#
# Elastic Compliance Matrix: (Units=1/GPa)
#
#
# Indices 1 2 3 4 5 6 
#
# 1 0.007817 -0.003191 -0.002603 0.000000 0.000000 0.000000
# 2 -0.003191 0.009003 -0.001719 0.000000 0.000000 0.000000
# 3 -0.002603 -0.001719 0.014067 0.000000 0.000000 0.000000
# 4 0.000000 0.000000 0.000000 0.020677 0.000000 0.000000
# 5 0.000000 0.000000 0.000000 0.000000 0.034580 0.000000
# 6 0.000000 0.000000 0.000000 0.000000 0.000000 -0.009887
#
#
# Mechanical properties :
#
#
# Convention : Reuss Voigt Hill
#
# Bulk Modulus (GPa) = 63.04659 73.72941 68.38800
# Shear Modulus (GPa) = 51.77602 12.21367 31.99485
#
# Velocity S-wave (km/s) = 4.69023 2.27800 3.68697
# Velocity P-wave (km/s) = 7.49119 6.18423 6.86887
#
# Compressibility (1/GPa) = 0.01586129
#
# Stress axis : x y z
#
# Youngs Moduli (GPa) = 127.92298 111.07552 71.08945
#
# Poissons Ratio (x) = 0.35447 0.18503
# Poissons Ratio (y) = 0.40823 0.12219
# Poissons Ratio (z) = 0.33295 0.19091
#
# Static dielectric constant tensor:
#      x y z
#    x 4.749540 0.000000 0.000000 
#    y 0.000000 16.472840 0.000000 
#    z 0.000000 0.000000 4.102570 
# 
# 
# High freq. dielectric constant tensor:
#      x y z
#    x 1.960890 0.000000 0.000000 
#    y 0.000000 1.958610 0.000000 
#    z 0.000000 0.000000 1.933380 
# 
# From -- ./inp_files/13165.got.cif
#   From: 2010.03.12/outbox.cif.g09.slc.cpg/sg23_7_cif.got.tgz:13165.got - 2010.04.14 02:50:06.
