data_PCOD8164444
_publ_section_title
;
Structure prediction by ZEFSAII (Michael W. Deem and Ramdas Pophale) SiO2 
 PCOD8164444
Probable space group: I 2 2 2
;
_chemical_formula_sum "Si O2"
_cell_formula_units_Z 56
_cell_length_a 13.576301
_cell_length_b 21.778820
_cell_length_c 10.170624
_cell_angle_alpha 90.000000
_cell_angle_beta 90.000000
_cell_angle_gamma 90.000000
_cell_volume 3007.207548
_symmetry_space_group_name_H-M "I 2 2 2"
_symmetry_group_IT_number 23
_symmetry_cell_setting 'orthorhombic'
loop_
_space_group_symop_operation_xyz
x,y,z
-x,-y,z
x,-y,-z
-x,y,-z
1/2+x,1/2+y,1/2+z
1/2-x,1/2-y,1/2+z
1/2+x,1/2-y,1/2-z
1/2-x,1/2+y,1/2-z
loop_
_atom_site_type_symbol
_atom_site_label
_atom_site_fract_x
_atom_site_fract_y
_atom_site_fract_z
Si Si1 0.502329 0.702033 0.743133
Si Si2 0.785252 0.672691 0.987987
Si Si3 0.000000 0.289761 0.000000
Si Si4 0.000000 0.725629 0.500000
Si Si5 0.182562 0.879411 0.768626
Si Si6 0.613743 0.494324 0.655797
Si Si7 0.709794 0.811524 0.000285
Si Si8 0.698459 0.365317 0.746501
O O1 0.523293 0.748033 0.625085
O O2 0.569394 0.642267 0.727252
O O3 0.388661 0.684295 0.746185
O O4 0.534646 0.732799 0.879004
O O5 0.903778 0.668406 0.975905
O O6 0.751231 0.742683 0.005076
O O7 0.749121 0.632440 0.111336
O O8 0.739871 0.642416 0.859217
O O9 0.094443 0.685037 0.461540
O O10 0.178488 0.952904 0.774647
O O11 0.234171 0.853344 0.897038
O O12 0.500000 0.500000 0.697635
O O13 0.625174 0.500000 0.500000
O O14 0.657662 0.431264 0.708238
O O15 0.721467 0.841051 0.856747
#
# Coordination Sequence:
#
# PCOD8164444 Si02
#       8
#     8   8   4   4   8   8   8   8
#     4  12  20  35  61  94 125 162 198 245 303 381
#     4  12  24  39  61  93 129 165 200 257 313 358
#     4  12  24  36  62  92 126 166 210 234 308 386
#     4  12  24  36  58  90 132 160 200 250 306 364
#     4  12  23  40  62  93 129 161 201 253 308 367
#     4  11  24  41  67  92 121 165 207 249 307 370
#     4  12  22  39  61  89 125 167 200 249 309 358
#     4  12  23  40  62  93 129 161 201 253 308 367
#
# _framework density 18.621925999999998
#
# number of rings (size 3 to 8) (size 9 to 14) (size 15 to 20)
#    0.000    0.143    8.571    2.571    0.000    0.571 
#    0.000    0.714    0.000    5.143    0.000    0.000 
#    0.000    0.000    0.000    0.000    0.000    0.000 
#
# Total GULP energy -347354.016784 kJ/mol
# GULP energy per Si atom -12405.500599 kJ/mol
# Density = 1.857954 g / cm^3
# Si number density = 18.621926 Si / 1000 Ang^3
#
#
#
# Elastic Constant Matrix: (Units=GPa)
#
#
# Indices 1 2 3 4 5 6 
#
# 1 113.1483 26.1711 11.0116 -0.0010 -0.0001 0.0006
# 2 26.1711 87.5695 21.3199 0.0002 0.0001 0.0005
# 3 11.0116 21.3199 89.7034 0.0022 0.0009 0.0025
# 4 -0.0010 0.0002 0.0022 17.3357 -0.0002 -0.0004
# 5 -0.0001 0.0001 0.0009 -0.0002 26.7322 0.0002
# 6 0.0006 0.0005 0.0025 -0.0004 0.0002 17.8881
#
#
#
# Elastic Compliance Matrix: (Units=1/GPa)
#
#
# Indices 1 2 3 4 5 6 
#
# 1 0.009517 -0.002717 -0.000523 0.000001 0.000000 0.000000
# 2 -0.002717 0.012897 -0.002732 0.000000 0.000000 0.000000
# 3 -0.000523 -0.002732 0.011861 -0.000002 0.000000 -0.000002
# 4 0.000001 0.000000 -0.000002 0.057685 0.000001 0.000001
# 5 0.000000 0.000000 0.000000 0.000001 0.037408 0.000000
# 6 0.000000 0.000000 -0.000002 0.000001 0.000000 0.055903
#
#
# Mechanical properties :
#
#
# Convention : Reuss Voigt Hill
#
# Bulk Modulus (GPa) = 44.77762 45.26960 45.02361
# Shear Modulus (GPa) = 24.43108 27.85245 26.14176
#
# Velocity S-wave (km/s) = 3.62602 3.87160 3.75082
# Velocity P-wave (km/s) = 6.45202 6.65945 6.55656
#
# Compressibility (1/GPa) = 0.02233258
#
# Stress axis : x y z
#
# Youngs Moduli (GPa) = 105.07210 77.53994 84.30843
#
# Poissons Ratio (x) = 0.21069 0.04405
# Poissons Ratio (y) = 0.28549 0.23030
# Poissons Ratio (z) = 0.05490 0.21181
#
# Static dielectric constant tensor:
#      x y z
#    x 3.597500 0.000000 0.000000 
#    y 0.000000 3.255870 0.000000 
#    z 0.000000 0.000000 3.610290 
# 
# 
# High freq. dielectric constant tensor:
#      x y z
#    x 1.731680 0.000000 0.000000 
#    y 0.000000 1.698450 0.000000 
#    z 0.000000 0.000000 1.740090 
# 
# From -- ./inp_files/10263.got.cif
#   From: 2010.03.12/outbox.cif.g09.slc.cpg/sg23_6_cif.got.tgz:10263.got - 2010.04.14 02:50:06.
