data_PCOD8164785
_publ_section_title
;
Structure prediction by ZEFSAII (Michael W. Deem and Ramdas Pophale) SiO2 
 PCOD8164785
Probable space group: I 21 21 21
;
_chemical_formula_sum "Si O2"
_cell_formula_units_Z 64
_cell_length_a 17.393444
_cell_length_b 8.432799
_cell_length_c 20.033502
_cell_angle_alpha 90.000000
_cell_angle_beta 90.000000
_cell_angle_gamma 90.000000
_cell_volume 2938.422263
_symmetry_space_group_name_H-M "I 21 21 21"
_symmetry_group_IT_number 24
_symmetry_cell_setting 'orthorhombic'
loop_
_space_group_symop_operation_xyz
x,y,z
-x,1/2-y,z
x,-y,1/2-z
1/2-x,y,-z
1/2+x,1/2+y,1/2+z
1/2-x,-y,1/2+z
1/2+x,1/2-y,-z
-x,1/2+y,1/2-z
loop_
_atom_site_type_symbol
_atom_site_label
_atom_site_fract_x
_atom_site_fract_y
_atom_site_fract_z
Si Si1 0.324156 0.060775 0.674350
Si Si2 0.079761 0.819126 0.738951
Si Si3 0.662291 0.738816 0.008958
Si Si4 0.544877 0.411831 0.579505
Si Si5 0.857462 0.130354 0.881085
Si Si6 0.717984 0.313398 0.933656
Si Si7 0.191877 0.704457 0.845038
Si Si8 0.095711 0.430946 0.020964
O O1 0.413864 0.068227 0.651606
O O2 0.280632 0.230397 0.660751
O O3 0.319829 0.000000 0.750000
O O4 0.283208 0.931047 0.628349
O O5 0.099616 0.760043 0.664363
O O6 0.153057 0.781287 0.782126
O O7 0.000000 0.750000 0.765270
O O8 0.064535 0.000000 0.750000
O O9 0.647258 0.742008 0.088020
O O10 0.750000 0.698223 0.000000
O O11 0.612915 0.596179 0.976027
O O12 0.644034 0.905404 0.971622
O O13 0.500000 0.250000 0.579208
O O14 0.486753 0.552812 0.558800
O O15 0.781646 0.183724 0.918743
O O16 0.823392 0.983403 0.838134
O O17 0.917419 0.090150 0.941024
O O18 0.637617 0.219469 0.944647
O O19 0.750000 0.402608 0.000000
#
# Coordination Sequence:
#
# PCOD8164785 Si02
#       8
#     8   8   8   8   8   8   8   8
#     4  12  26  44  65  98 140 181 233 292 349 427
#     4  12  26  44  63  96 148 190 228 280 346 427
#     4  10  18  36  67  98 125 166 224 289 343 417
#     4  10  23  41  67  96 133 173 234 292 359 412
#     4  10  21  42  69 101 136 182 230 283 350 423
#     4  10  22  41  68  98 133 172 225 289 353 422
#     4  11  22  38  71  98 134 178 233 279 348 419
#     4   9  20  40  65  98 131 169 227 293 353 413
#
# _framework density 21.780397000000001
#
# number of rings (size 3 to 8) (size 9 to 14) (size 15 to 20)
#    0.000    1.500    1.250    4.875    3.500    4.000 
#    6.750    0.000    0.000    0.000    0.000    0.000 
#    0.000    0.000    0.000    0.000    0.000    0.000 
#
# Total GULP energy -396534.893872 kJ/mol
# GULP energy per Si atom -12391.715433 kJ/mol
# Density = 2.173082 g / cm^3
# Si number density = 21.780397 Si / 1000 Ang^3
#
#
#
# Elastic Constant Matrix: (Units=GPa)
#
#
# Indices 1 2 3 4 5 6 
#
# 1 125.3008 36.0589 42.2780 0.0000 0.0000 0.0000
# 2 36.0589 86.8960 42.4328 0.0000 0.0000 0.0000
# 3 42.2780 42.4328 119.2552 0.0000 0.0000 0.0000
# 4 0.0000 0.0000 0.0000 28.8725 0.0000 0.0000
# 5 0.0000 0.0000 0.0000 0.0000 27.2134 0.0000
# 6 0.0000 0.0000 0.0000 0.0000 0.0000 -0.8534
#
#
#
# Elastic Compliance Matrix: (Units=1/GPa)
#
#
# Indices 1 2 3 4 5 6 
#
# 1 0.009601 -0.002810 -0.002404 0.000000 0.000000 0.000000
# 2 -0.002810 0.014751 -0.004252 0.000000 0.000000 0.000000
# 3 -0.002404 -0.004252 0.010751 0.000000 0.000000 0.000000
# 4 0.000000 0.000000 0.000000 0.034635 0.000000 0.000000
# 5 0.000000 0.000000 0.000000 0.000000 0.036747 0.000000
# 6 0.000000 0.000000 0.000000 0.000000 0.000000 -1.171721
#
#
# Mechanical properties :
#
#
# Convention : Reuss Voigt Hill
#
# Bulk Modulus (GPa) = 61.84469 63.66574 62.75521
# Shear Modulus (GPa) = -4.80346 25.09197 10.14425
#
# Velocity S-wave (km/s) = -1.48667 3.39786 2.16047
# Velocity P-wave (km/s) = 5.05068 6.68492 5.92442
#
# Compressibility (1/GPa) = 0.01616954
#
# Stress axis : x y z
#
# Youngs Moduli (GPa) = 104.16109 67.79405 93.01878
#
# Poissons Ratio (x) = 0.19051 0.22358
# Poissons Ratio (y) = 0.29271 0.39554
# Poissons Ratio (z) = 0.25037 0.28828
#
# Static dielectric constant tensor:
#      x y z
#    x 4.169170 0.000000 0.000000 
#    y 0.000000 4.547860 0.000000 
#    z 0.000000 0.000000 4.119710 
# 
# 
# High freq. dielectric constant tensor:
#      x y z
#    x 1.855860 0.000000 0.000000 
#    y 0.000000 1.862210 0.000000 
#    z 0.000000 0.000000 1.850070 
# 
# From -- ./inp_files/33995.got.cif
#   From: 2010.03.12/outbox.cif.g09.slc.cpg/sg24_17_cif.got.tgz:33995.got - 2010.04.14 03:06:53.
