data_PCOD8164806
_publ_section_title
;
Structure prediction by ZEFSAII (Michael W. Deem and Ramdas Pophale) SiO2 
 PCOD8164806
Probable space group: I 21 21 21
;
_chemical_formula_sum "Si O2"
_cell_formula_units_Z 60
_cell_length_a 17.516405
_cell_length_b 10.302667
_cell_length_c 16.758560
_cell_angle_alpha 90.000000
_cell_angle_beta 90.000000
_cell_angle_gamma 90.000000
_cell_volume 3024.345056
_symmetry_space_group_name_H-M "I 21 21 21"
_symmetry_group_IT_number 24
_symmetry_cell_setting 'orthorhombic'
loop_
_space_group_symop_operation_xyz
x,y,z
-x,1/2-y,z
x,-y,1/2-z
1/2-x,y,-z
1/2+x,1/2+y,1/2+z
1/2-x,-y,1/2+z
1/2+x,1/2-y,-z
-x,1/2+y,1/2-z
loop_
_atom_site_type_symbol
_atom_site_label
_atom_site_fract_x
_atom_site_fract_y
_atom_site_fract_z
Si Si1 0.767874 0.642308 0.784011
Si Si2 0.443202 0.129448 0.300543
Si Si3 0.678371 0.275595 0.856995
Si Si4 0.528940 0.392438 0.896808
Si Si5 0.189716 0.261476 0.432585
Si Si6 0.099036 0.066459 0.523669
Si Si7 0.121434 0.495548 0.158332
Si Si8 0.250000 0.918582 0.500000
O O1 0.750765 0.500000 0.750000
O O2 0.857544 0.674752 0.779857
O O3 0.725033 0.739827 0.724707
O O4 0.733013 0.662013 0.872419
O O5 0.500000 0.250000 0.281463
O O6 0.444491 0.096694 0.394327
O O7 0.466333 0.000000 0.250000
O O8 0.605653 0.371866 0.844316
O O9 0.654144 0.132391 0.883557
O O10 0.729596 0.327579 0.927387
O O11 0.500000 0.250000 0.920196
O O12 0.470533 0.483457 0.848013
O O13 0.545376 0.464515 0.979517
O O14 0.250000 0.306108 0.500000
O O15 0.114496 0.195268 0.471073
O O16 0.157286 0.383821 0.386457
O O17 0.183052 0.006820 0.536268
O O18 0.144808 0.500000 0.250000
#
# Coordination Sequence:
#
# PCOD8164806 Si02
#       8
#     8   8   8   8   8   8   8   4
#     4  11  21  41  69  93 126 169 222 271 323 385
#     4  11  25  44  64  94 131 172 224 278 329 390
#     4  10  21  40  64  93 123 173 215 265 322 390
#     4   9  22  40  63  93 131 164 209 262 328 404
#     4  12  24  40  65 101 128 168 221 272 317 391
#     4  11  21  40  66  93 124 166 216 268 327 381
#     4  11  24  43  58  94 139 169 206 263 329 392
#     4  10  18  38  68  96 116 156 228 266 316 390
#
# _framework density 19.839006000000001
#
# number of rings (size 3 to 8) (size 9 to 14) (size 15 to 20)
#    0.000    1.333    3.333    3.200    2.800    2.133 
#    4.800    1.333    0.000    0.000    0.000    0.000 
#    0.000    0.000    0.000    0.000    0.000    0.000 
#
# Total GULP energy -371926.153742 kJ/mol
# GULP energy per Si atom -12397.538458 kJ/mol
# Density = 1.979385 g / cm^3
# Si number density = 19.839006 Si / 1000 Ang^3
#
#
#
# Elastic Constant Matrix: (Units=GPa)
#
#
# Indices 1 2 3 4 5 6 
#
# 1 74.7077 43.8017 44.6937 0.0000 0.0000 0.0000
# 2 43.8017 100.9737 60.8827 0.0000 0.0000 0.0000
# 3 44.6937 60.8827 124.2516 0.0000 0.0000 0.0000
# 4 0.0000 0.0000 0.0000 34.3654 0.0000 0.0000
# 5 0.0000 0.0000 0.0000 0.0000 29.4161 0.0000
# 6 0.0000 0.0000 0.0000 0.0000 0.0000 27.2006
#
#
#
# Elastic Compliance Matrix: (Units=1/GPa)
#
#
# Indices 1 2 3 4 5 6 
#
# 1 0.019272 -0.005933 -0.004025 0.000000 0.000000 0.000000
# 2 -0.005933 0.015883 -0.005648 0.000000 0.000000 0.000000
# 3 -0.004025 -0.005648 0.012264 0.000000 0.000000 0.000000
# 4 0.000000 0.000000 0.000000 0.029099 0.000000 0.000000
# 5 0.000000 0.000000 0.000000 0.000000 0.033995 0.000000
# 6 0.000000 0.000000 0.000000 0.000000 0.000000 0.036764
#
#
# Mechanical properties :
#
#
# Convention : Reuss Voigt Hill
#
# Bulk Modulus (GPa) = 61.70699 66.52101 64.11400
# Shear Modulus (GPa) = 27.18986 28.23342 27.71164
#
# Velocity S-wave (km/s) = 3.70608 3.77653 3.74147
# Velocity P-wave (km/s) = 7.03454 7.25392 7.14507
#
# Compressibility (1/GPa) = 0.01620562
#
# Stress axis : x y z
#
# Youngs Moduli (GPa) = 51.88843 62.95987 81.54147
#
# Poissons Ratio (x) = 0.37355 0.32820
# Poissons Ratio (y) = 0.30787 0.46058
# Poissons Ratio (z) = 0.20885 0.35563
#
# Static dielectric constant tensor:
#      x y z
#    x 3.738190 0.000000 0.000000 
#    y 0.000000 3.643470 0.000000 
#    z 0.000000 0.000000 3.791320 
# 
# 
# High freq. dielectric constant tensor:
#      x y z
#    x 1.775020 0.000000 0.000000 
#    y 0.000000 1.774640 0.000000 
#    z 0.000000 0.000000 1.777150 
# 
# From -- ./inp_files/27198.got.cif
#   From: 2010.03.12/outbox.cif.g09.slc.cpg/sg24_14_cif.got.tgz:27198.got - 2010.04.14 03:06:53.
