data_PCOD8164293
_publ_section_title
;
Structure prediction by ZEFSAII (Michael W. Deem and Ramdas Pophale) SiO2 
 PCOD8164293
Probable space group: I 2 2 2
;
_chemical_formula_sum "Si O2"
_cell_formula_units_Z 48
_cell_length_a 16.684408
_cell_length_b 9.299265
_cell_length_c 16.390387
_cell_angle_alpha 90.000000
_cell_angle_beta 90.000000
_cell_angle_gamma 90.000000
_cell_volume 2543.013311
_symmetry_space_group_name_H-M "I 2 2 2"
_symmetry_group_IT_number 23
_symmetry_cell_setting 'orthorhombic'
loop_
_space_group_symop_operation_xyz
x,y,z
-x,-y,z
x,-y,-z
-x,y,-z
1/2+x,1/2+y,1/2+z
1/2-x,1/2-y,1/2+z
1/2+x,1/2-y,1/2-z
1/2-x,1/2+y,1/2-z
loop_
_atom_site_type_symbol
_atom_site_label
_atom_site_fract_x
_atom_site_fract_y
_atom_site_fract_z
Si Si1 0.254676 0.151174 0.960058
Si Si2 0.113666 0.403482 0.325135
Si Si3 0.758999 0.503232 0.785506
Si Si4 0.332474 0.612109 0.932844
Si Si5 0.833852 0.206287 0.188491
Si Si6 0.947635 0.716161 0.680917
O O1 0.326924 0.143638 0.896061
O O2 0.174401 0.203927 0.910165
O O3 0.280229 0.259740 0.030022
O O4 0.233889 0.000000 0.000000
O O5 0.158868 0.418150 0.238011
O O6 0.079036 0.559078 0.348526
O O7 0.044334 0.281671 0.319935
O O8 0.731641 0.470656 0.876947
O O9 0.771994 0.673840 0.775023
O O10 0.691027 0.450724 0.722133
O O11 0.409067 0.670106 0.882341
O O12 0.365075 0.500000 0.000000
O O13 0.920916 0.246425 0.225464
#
# Coordination Sequence:
#
# PCOD8164293 Si02
#       6
#     8   8   8   8   8   8
#     4  11  20  33  52  79 109 142 179 218 273 327
#     4   9  18  34  54  77 103 140 184 214 263 328
#     4   9  18  32  53  74 101 137 182 222 258 317
#     4  11  20  33  52  79 113 138 172 228 277 317
#     4   9  18  32  53  76 101 137 184 221 257 316
#     4   9  18  34  54  77 104 141 178 220 263 321
#
# _framework density 18.875246000000001
#
# number of rings (size 3 to 8) (size 9 to 14) (size 15 to 20)
#    0.000    2.333    3.333    0.000    2.333    0.667 
#    0.000    1.667    0.000    1.000    0.000    1.167 
#    0.000    0.000    0.000    0.000    0.000    0.000 
#
# Total GULP energy -297356.539034 kJ/mol
# GULP energy per Si atom -12389.855793 kJ/mol
# Density = 1.883228 g / cm^3
# Si number density = 18.875246 Si / 1000 Ang^3
#
#
#
# Elastic Constant Matrix: (Units=GPa)
#
#
# Indices 1 2 3 4 5 6 
#
# 1 59.7465 14.1184 47.6217 0.0000 0.0000 0.0000
# 2 14.1184 58.3858 12.0572 0.0000 0.0000 0.0000
# 3 47.6217 12.0572 76.1972 0.0000 0.0000 0.0000
# 4 0.0000 0.0000 0.0000 32.6363 0.0000 0.0000
# 5 0.0000 0.0000 0.0000 0.0000 21.6520 0.0000
# 6 0.0000 0.0000 0.0000 0.0000 0.0000 19.3822
#
#
#
# Elastic Compliance Matrix: (Units=1/GPa)
#
#
# Indices 1 2 3 4 5 6 
#
# 1 0.034227 -0.003989 -0.020760 0.000000 0.000000 0.000000
# 2 -0.003989 0.018171 -0.000382 0.000000 0.000000 0.000000
# 3 -0.020760 -0.000382 0.026159 0.000000 0.000000 0.000000
# 4 0.000000 0.000000 0.000000 0.030641 0.000000 0.000000
# 5 0.000000 0.000000 0.000000 0.000000 0.046185 0.000000
# 6 0.000000 0.000000 0.000000 0.000000 0.000000 0.051594
#
#
# Mechanical properties :
#
#
# Convention : Reuss Voigt Hill
#
# Bulk Modulus (GPa) = 35.34299 37.99158 36.66729
# Shear Modulus (GPa) = 18.74972 22.76958 20.75965
#
# Velocity S-wave (km/s) = 3.15516 3.47698 3.31997
# Velocity P-wave (km/s) = 5.66026 6.02417 5.84505
#
# Compressibility (1/GPa) = 0.02829415
#
# Stress axis : x y z
#
# Youngs Moduli (GPa) = 29.21664 55.03268 38.22799
#
# Poissons Ratio (x) = 0.21955 0.79361
# Poissons Ratio (y) = 0.11656 0.01460
# Poissons Ratio (z) = 0.60654 0.02102
#
# Static dielectric constant tensor:
#      x y z
#    x 3.399980 0.000000 0.000000 
#    y 0.000000 3.568440 0.000000 
#    z 0.000000 0.000000 3.623980 
# 
# 
# High freq. dielectric constant tensor:
#      x y z
#    x 1.696850 0.000000 0.000000 
#    y 0.000000 1.744180 0.000000 
#    z 0.000000 0.000000 1.724650 
# 
# From -- ./inp_files/9939.got.cif
#   From: 2010.03.12/outbox.cif.g09.slc.cpg/sg23_5_cif.got.tgz:9939.got - 2010.04.14 02:50:06.
