data_PCOD8164003
_publ_section_title
;
Structure prediction by ZEFSAII (Michael W. Deem and Ramdas Pophale) SiO2 
 PCOD8164003
Probable space group: I 2 2 2
;
_chemical_formula_sum "Si O2"
_cell_formula_units_Z 40
_cell_length_a 22.354327
_cell_length_b 7.571168
_cell_length_c 11.290311
_cell_angle_alpha 90.000000
_cell_angle_beta 90.000000
_cell_angle_gamma 90.000000
_cell_volume 1910.866680
_symmetry_space_group_name_H-M "I 2 2 2"
_symmetry_group_IT_number 23
_symmetry_cell_setting 'orthorhombic'
loop_
_space_group_symop_operation_xyz
x,y,z
-x,-y,z
x,-y,-z
-x,y,-z
1/2+x,1/2+y,1/2+z
1/2-x,1/2-y,1/2+z
1/2+x,1/2-y,1/2-z
1/2-x,1/2+y,1/2-z
loop_
_atom_site_type_symbol
_atom_site_label
_atom_site_fract_x
_atom_site_fract_y
_atom_site_fract_z
Si Si1 0.815646 0.821764 0.756399
Si Si2 0.131906 0.188883 0.515746
Si Si3 0.677423 0.262342 0.230121
Si Si4 0.611049 0.032931 0.633625
Si Si5 0.000000 0.500000 0.706460
Si Si6 0.500000 0.249428 0.000000
O O1 0.838764 0.729123 0.633927
O O2 0.745913 0.792908 0.770499
O O3 0.847859 0.709103 0.859657
O O4 0.832209 0.030024 0.761588
O O5 0.149235 0.295327 0.397287
O O6 0.060698 0.151422 0.537248
O O7 0.163627 0.000000 0.500000
O O8 0.644795 0.145372 0.328000
O O9 0.552982 0.070390 0.712306
O O10 0.590565 0.000000 0.500000
O O11 0.976291 0.352194 0.616014
#
# Coordination Sequence:
#
# PCOD8164003 Si02
#       6
#     8   8   8   8   4   4
#     4  11  24  42  66 100 133 173 220 269 331 398
#     4  10  22  39  66  97 135 166 213 279 336 390
#     4  11  24  42  66 100 133 173 220 269 331 398
#     4  12  26  45  66  93 137 183 220 268 329 389
#     4  11  23  42  66  98 125 171 228 274 328 395
#     4  11  19  38  70  96 125 167 220 275 341 382
#
# _framework density 20.932908000000001
#
# number of rings (size 3 to 8) (size 9 to 14) (size 15 to 20)
#    0.000    1.000    6.000    0.600    2.800    1.600 
#    0.000    1.000    0.000    2.400    0.000    0.000 
#    0.000    0.000    0.000    0.000    0.000    0.000 
#
# Total GULP energy -247821.252782 kJ/mol
# GULP energy per Si atom -12391.062639 kJ/mol
# Density = 2.088526 g / cm^3
# Si number density = 20.932908 Si / 1000 Ang^3
#
#
#
# Elastic Constant Matrix: (Units=GPa)
#
#
# Indices 1 2 3 4 5 6 
#
# 1 122.0217 3.0832 34.9186 0.0000 0.0000 0.0000
# 2 3.0832 81.0929 2.9873 0.0000 0.0000 0.0000
# 3 34.9186 2.9873 96.4263 0.0000 0.0000 0.0000
# 4 0.0000 0.0000 0.0000 -82.6800 0.0000 0.0000
# 5 0.0000 0.0000 0.0000 0.0000 36.1868 0.0000
# 6 0.0000 0.0000 0.0000 0.0000 0.0000 25.1851
#
#
#
# Elastic Compliance Matrix: (Units=1/GPa)
#
#
# Indices 1 2 3 4 5 6 
#
# 1 0.009147 -0.000226 -0.003305 0.000000 0.000000 0.000000
# 2 -0.000226 0.012351 -0.000301 0.000000 0.000000 0.000000
# 3 -0.003305 -0.000301 0.011577 0.000000 0.000000 0.000000
# 4 0.000000 0.000000 0.000000 -0.012095 0.000000 0.000000
# 5 0.000000 0.000000 0.000000 0.000000 0.027634 0.000000
# 6 0.000000 0.000000 0.000000 0.000000 0.000000 0.039706
#
#
# Mechanical properties :
#
#
# Convention : Reuss Voigt Hill
#
# Bulk Modulus (GPa) = 39.35353 42.39102 40.87228
# Shear Modulus (GPa) = 47.86753 12.97517 30.42135
#
# Velocity S-wave (km/s) = 4.78715 2.49237 3.81633
# Velocity P-wave (km/s) = 7.02825 5.34578 6.24395
#
# Compressibility (1/GPa) = 0.02541068
#
# Stress axis : x y z
#
# Youngs Moduli (GPa) = 109.32726 80.96370 86.37909
#
# Poissons Ratio (x) = 0.01830 0.28551
# Poissons Ratio (y) = 0.02471 0.02598
# Poissons Ratio (z) = 0.36136 0.02435
#
# Static dielectric constant tensor:
#      x y z
#    x 3.951220 0.000000 0.000000 
#    y 0.000000 3.761440 0.000000 
#    z 0.000000 0.000000 3.870750 
# 
# 
# High freq. dielectric constant tensor:
#      x y z
#    x 1.829480 0.000000 0.000000 
#    y 0.000000 1.814170 0.000000 
#    z 0.000000 0.000000 1.817150 
# 
# From -- ./inp_files/14622.got.cif
#   From: 2010.03.12/outbox.cif.g09.slc.cpg/sg23_8_cif.got.tgz:14622.got - 2010.04.14 02:50:06.
