data_PCOD8164890
_publ_section_title
;
Structure prediction by ZEFSAII (Michael W. Deem and Ramdas Pophale) SiO2 
 PCOD8164890
Probable space group: I 21 21 21
;
_chemical_formula_sum "Si O2"
_cell_formula_units_Z 48
_cell_length_a 12.259908
_cell_length_b 20.191252
_cell_length_c 10.048022
_cell_angle_alpha 90.000000
_cell_angle_beta 90.000000
_cell_angle_gamma 90.000000
_cell_volume 2487.316424
_symmetry_space_group_name_H-M "I 21 21 21"
_symmetry_group_IT_number 24
_symmetry_cell_setting 'orthorhombic'
loop_
_space_group_symop_operation_xyz
x,y,z
-x,1/2-y,z
x,-y,1/2-z
1/2-x,y,-z
1/2+x,1/2+y,1/2+z
1/2-x,-y,1/2+z
1/2+x,1/2-y,-z
-x,1/2+y,1/2-z
loop_
_atom_site_type_symbol
_atom_site_label
_atom_site_fract_x
_atom_site_fract_y
_atom_site_fract_z
Si Si1 0.129227 0.092181 0.494274
Si Si2 0.630437 0.559002 0.466648
Si Si3 0.035507 0.852547 0.754103
Si Si4 0.652645 0.221373 0.162926
Si Si5 0.497781 0.425346 0.771152
Si Si6 0.104656 0.296344 0.144340
O O1 0.250000 0.123437 0.500000
O O2 0.054565 0.136390 0.589750
O O3 0.081783 0.092218 0.346063
O O4 0.136041 0.019049 0.554528
O O5 0.750000 0.588328 0.500000
O O6 0.576092 0.585370 0.331900
O O7 0.559165 0.580170 0.590660
O O8 0.101276 0.791411 0.694985
O O9 0.905952 0.837443 0.746109
O O10 0.779787 0.229132 0.201753
O O11 0.623725 0.200646 0.012500
O O12 0.448993 0.500000 0.750000
O O13 0.406705 0.368646 0.785819
O O14 0.000000 0.250000 0.181088
#
# Coordination Sequence:
#
# PCOD8164890 Si02
#       6
#     8   8   8   8   8   8
#     4  10  22  36  55  91 127 157 192 248 312 357
#     4  10  19  33  61  88 118 158 204 246 297 363
#     4  11  20  39  59  88 123 156 196 251 302 354
#     4  10  23  37  61  90 116 153 207 250 295 362
#     4  10  21  39  60  88 120 157 203 247 295 360
#     4  11  21  40  64  91 114 155 207 252 299 354
#
# _framework density 19.297906999999999
#
# number of rings (size 3 to 8) (size 9 to 14) (size 15 to 20)
#    0.000    1.667    3.333    1.500    7.000    2.667 
#    3.000    2.500    0.000    0.000    0.000    0.000 
#    0.000    0.000    0.000    0.000    0.000    0.000 
#
# Total GULP energy -297432.954221 kJ/mol
# GULP energy per Si atom -12393.039759 kJ/mol
# Density = 1.925398 g / cm^3
# Si number density = 19.297907 Si / 1000 Ang^3
#
#
#
# Elastic Constant Matrix: (Units=GPa)
#
#
# Indices 1 2 3 4 5 6 
#
# 1 122.4475 30.1797 10.4212 0.0000 0.0000 0.0000
# 2 30.1797 67.5207 14.2986 0.0001 0.0000 0.0000
# 3 10.4212 14.2986 59.7942 0.0001 -0.0002 0.0001
# 4 0.0000 0.0001 0.0001 25.0857 0.0000 0.0000
# 5 0.0000 0.0000 -0.0002 0.0000 19.7987 0.0000
# 6 0.0000 0.0000 0.0001 0.0000 0.0000 27.6944
#
#
#
# Elastic Compliance Matrix: (Units=1/GPa)
#
#
# Indices 1 2 3 4 5 6 
#
# 1 0.009202 -0.003975 -0.000653 0.000000 0.000000 0.000000
# 2 -0.003975 0.017317 -0.003448 0.000000 0.000000 0.000000
# 3 -0.000653 -0.003448 0.017662 0.000000 0.000000 0.000000
# 4 0.000000 0.000000 0.000000 0.039863 0.000000 0.000000
# 5 0.000000 0.000000 0.000000 0.000000 0.050508 0.000000
# 6 0.000000 0.000000 0.000000 0.000000 0.000000 0.036108
#
#
# Mechanical properties :
#
#
# Convention : Reuss Voigt Hill
#
# Bulk Modulus (GPa) = 35.67734 39.95126 37.81430
# Shear Modulus (GPa) = 25.48977 27.50663 26.49820
#
# Velocity S-wave (km/s) = 3.63830 3.77950 3.70957
# Velocity P-wave (km/s) = 6.01477 6.30821 6.16324
#
# Compressibility (1/GPa) = 0.02802899
#
# Stress axis : x y z
#
# Youngs Moduli (GPa) = 108.67196 57.74656 56.61723
#
# Poissons Ratio (x) = 0.22952 0.03699
# Poissons Ratio (y) = 0.43193 0.19523
# Poissons Ratio (z) = 0.07100 0.19913
#
# Static dielectric constant tensor:
#      x y z
#    x 3.847360 0.000000 0.000000 
#    y 0.000000 3.628510 0.000000 
#    z 0.000000 0.000000 3.396750 
# 
# 
# High freq. dielectric constant tensor:
#      x y z
#    x 1.742520 0.000000 0.000000 
#    y 0.000000 1.749910 0.000000 
#    z 0.000000 0.000000 1.745150 
# 
# From -- ./inp_files/19717.got.cif
#   From: 2010.03.12/outbox.cif.g09.slc.cpg/sg24_10_cif.got.tgz:19717.got - 2010.04.14 03:06:53.
