data_PCOD8164979
_publ_section_title
;
Structure prediction by ZEFSAII (Michael W. Deem and Ramdas Pophale) SiO2 
 PCOD8164979
Probable space group: I 21 21 21
;
_chemical_formula_sum "Si O2"
_cell_formula_units_Z 52
_cell_length_a 18.532535
_cell_length_b 15.456471
_cell_length_c 9.413793
_cell_angle_alpha 90.000000
_cell_angle_beta 90.000000
_cell_angle_gamma 90.000000
_cell_volume 2696.558316
_symmetry_space_group_name_H-M "I 21 21 21"
_symmetry_group_IT_number 24
_symmetry_cell_setting 'orthorhombic'
loop_
_space_group_symop_operation_xyz
x,y,z
-x,1/2-y,z
x,-y,1/2-z
1/2-x,y,-z
1/2+x,1/2+y,1/2+z
1/2-x,-y,1/2+z
1/2+x,1/2-y,-z
-x,1/2+y,1/2-z
loop_
_atom_site_type_symbol
_atom_site_label
_atom_site_fract_x
_atom_site_fract_y
_atom_site_fract_z
Si Si1 0.978045 0.043547 0.470536
Si Si2 0.662895 0.283190 0.131991
Si Si3 0.071837 0.367062 0.961673
Si Si4 0.030846 0.836083 0.791426
Si Si5 0.065490 0.692999 0.224008
Si Si6 0.901654 0.500000 0.250000
Si Si7 0.826240 0.674633 0.318120
O O1 0.929572 0.109622 0.378111
O O2 0.015212 0.083419 0.609197
O O3 0.920826 0.971102 0.524451
O O4 0.045318 0.003549 0.384915
O O5 0.643399 0.180698 0.103001
O O6 0.615342 0.325129 0.257216
O O7 0.742817 0.299468 0.187901
O O8 0.648327 0.329395 0.981486
O O9 0.005319 0.345223 0.861736
O O10 0.049021 0.334492 0.116119
O O11 0.000000 0.750000 0.868083
O O12 0.137463 0.750630 0.221820
O O13 0.000000 0.750000 0.165540
O O14 0.848145 0.582310 0.252573
#
# Coordination Sequence:
#
# PCOD8164979 Si02
#       7
#     8   8   8   8   8   4   8
#     4  12  21  34  60  97 119 151 202 263 304 349
#     4   9  20  41  60  81 119 165 208 236 309 377
#     4  10  19  36  61  85 114 158 208 250 292 361
#     4  10  21  36  60  87 117 156 197 244 303 359
#     4  11  18  34  61  85 119 157 199 248 307 366
#     4  12  22  36  56  92 126 150 204 254 308 364
#     4  10  21  38  61  86 118 168 203 249 302 385
#
# _framework density 19.283842
#
# number of rings (size 3 to 8) (size 9 to 14) (size 15 to 20)
#    0.000    1.538    3.077    4.154    0.000    0.000 
#    8.308    0.000    0.000   27.692    0.000    0.000 
#    0.000    0.000    0.000    0.000    0.000    0.000 
#
# Total GULP energy -322216.517160 kJ/mol
# GULP energy per Si atom -12392.942968 kJ/mol
# Density = 1.923995 g / cm^3
# Si number density = 19.283842 Si / 1000 Ang^3
#
#
#
# Elastic Constant Matrix: (Units=GPa)
#
#
# Indices 1 2 3 4 5 6 
#
# 1 112.6646 62.9937 30.6865 0.0000 0.0000 0.0000
# 2 62.9937 148.5876 41.7273 0.0000 0.0000 0.0000
# 3 30.6865 41.7273 69.3536 0.0000 0.0000 0.0000
# 4 0.0000 0.0000 0.0000 40.5818 0.0000 0.0000
# 5 0.0000 0.0000 0.0000 0.0000 14.6716 0.0000
# 6 0.0000 0.0000 0.0000 0.0000 0.0000 29.0481
#
#
#
# Elastic Compliance Matrix: (Units=1/GPa)
#
#
# Indices 1 2 3 4 5 6 
#
# 1 0.012044 -0.004343 -0.002716 0.000000 0.000000 0.000000
# 2 -0.004343 0.009665 -0.003893 0.000000 0.000000 0.000000
# 3 -0.002716 -0.003893 0.017963 0.000000 0.000000 0.000000
# 4 0.000000 0.000000 0.000000 0.024642 0.000000 0.000000
# 5 0.000000 0.000000 0.000000 0.000000 0.068159 0.000000
# 6 0.000000 0.000000 0.000000 0.000000 0.000000 0.034426
#
#
# Mechanical properties :
#
#
# Convention : Reuss Voigt Hill
#
# Bulk Modulus (GPa) = 56.28406 66.82454 61.55430
# Shear Modulus (GPa) = 25.67727 29.87351 27.77539
#
# Velocity S-wave (km/s) = 3.65299 3.94019 3.79931
# Velocity P-wave (km/s) = 6.85879 7.44503 7.15791
#
# Compressibility (1/GPa) = 0.01776702
#
# Stress axis : x y z
#
# Youngs Moduli (GPa) = 83.02792 103.46930 55.67061
#
# Poissons Ratio (x) = 0.44941 0.15119
# Poissons Ratio (y) = 0.36063 0.21673
# Poissons Ratio (z) = 0.22549 0.40281
#
# Static dielectric constant tensor:
#      x y z
#    x 3.310840 0.000000 0.000000 
#    y 0.000000 3.826170 0.000000 
#    z 0.000000 0.000000 3.472040 
# 
# 
# High freq. dielectric constant tensor:
#      x y z
#    x 1.720780 0.000000 0.000000 
#    y 0.000000 1.761040 0.000000 
#    z 0.000000 0.000000 1.751060 
# 
# From -- ./inp_files/15166.got.cif
#   From: 2010.03.12/outbox.cif.g09.slc.cpg/sg24_8_cif.got.tgz:15166.got - 2010.04.14 03:06:53.
