data_PCOD8164164
_publ_section_title
;
Structure prediction by ZEFSAII (Michael W. Deem and Ramdas Pophale) SiO2 
 PCOD8164164
Probable space group: I 2 2 2
;
_chemical_formula_sum "Si O2"
_cell_formula_units_Z 30
_cell_length_a 4.928445
_cell_length_b 29.397755
_cell_length_c 8.511542
_cell_angle_alpha 90.000000
_cell_angle_beta 90.000000
_cell_angle_gamma 90.000000
_cell_volume 1233.196624
_symmetry_space_group_name_H-M "I 2 2 2"
_symmetry_group_IT_number 23
_symmetry_cell_setting 'orthorhombic'
loop_
_space_group_symop_operation_xyz
x,y,z
-x,-y,z
x,-y,-z
-x,y,-z
1/2+x,1/2+y,1/2+z
1/2-x,1/2-y,1/2+z
1/2+x,1/2-y,1/2-z
1/2-x,1/2+y,1/2-z
loop_
_atom_site_type_symbol
_atom_site_label
_atom_site_fract_x
_atom_site_fract_y
_atom_site_fract_z
Si Si1 0.381124 0.767425 0.333711
Si Si2 0.291278 0.130617 0.716494
Si Si3 0.000000 0.095385 0.000000
Si Si4 0.695550 0.425461 0.186695
Si Si5 0.500000 0.000000 0.500000
O O1 0.500000 0.751326 0.500000
O O2 0.127864 0.734898 0.291301
O O3 0.258047 0.818074 0.341328
O O4 0.592944 0.115757 0.672250
O O5 0.211038 0.127359 0.901613
O O6 0.093481 0.094699 0.621933
O O7 0.839113 0.063960 0.874156
O O8 0.795204 0.471317 0.106644
#
# Coordination Sequence:
#
# PCOD8164164 Si02
#       5
#     8   8   4   8   2
#     4  12  28  48  78 117 162 205 262 329 395 475
#     4  10  23  47  78 106 147 207 263 314 390 476
#     4   8  22  46  77 103 138 210 255 304 388 475
#     4  10  24  44  78 103 156 195 265 314 405 444
#     4  12  28  50  74 124 156 204 270 350 384 482
#
# _framework density 24.327017999999999
#
# number of rings (size 3 to 8) (size 9 to 14) (size 15 to 20)
#    1.600    0.000    0.000    3.200    3.733    5.333 
#    0.000    4.000    0.000    0.000    0.000    0.000 
#    0.000    0.000    0.000    0.000    0.000    0.000 
#
# Total GULP energy -185905.623833 kJ/mol
# GULP energy per Si atom -12393.708256 kJ/mol
# Density = 2.427165 g / cm^3
# Si number density = 24.327018 Si / 1000 Ang^3
#
#
#
# Elastic Constant Matrix: (Units=GPa)
#
#
# Indices 1 2 3 4 5 6 
#
# 1 138.5583 39.5410 10.8322 -0.0001 0.0000 0.0000
# 2 39.5410 115.0726 35.3271 -0.0004 -0.0001 -0.0001
# 3 10.8322 35.3271 66.9081 -0.0006 -0.0001 -0.0002
# 4 -0.0001 -0.0004 -0.0006 33.2281 0.0000 -0.0001
# 5 0.0000 -0.0001 -0.0001 0.0000 50.1128 0.0000
# 6 0.0000 -0.0001 -0.0002 -0.0001 0.0000 44.1779
#
#
#
# Elastic Compliance Matrix: (Units=1/GPa)
#
#
# Indices 1 2 3 4 5 6 
#
# 1 0.008004 -0.002808 0.000187 0.000000 0.000000 0.000000
# 2 -0.002808 0.011356 -0.005541 0.000000 0.000000 0.000000
# 3 0.000187 -0.005541 0.017842 0.000000 0.000000 0.000000
# 4 0.000000 0.000000 0.000000 0.030095 0.000000 0.000000
# 5 0.000000 0.000000 0.000000 0.000000 0.019955 0.000000
# 6 0.000000 0.000000 0.000000 0.000000 0.000000 0.022636
#
#
# Mechanical properties :
#
#
# Convention : Reuss Voigt Hill
#
# Bulk Modulus (GPa) = 47.90046 54.65997 51.28021
# Shear Modulus (GPa) = 37.54578 41.15967 39.35273
#
# Velocity S-wave (km/s) = 3.93285 4.11777 4.02637
# Velocity P-wave (km/s) = 6.35264 6.71757 6.53765
#
# Compressibility (1/GPa) = 0.02087663
#
# Stress axis : x y z
#
# Youngs Moduli (GPa) = 124.94090 88.05850 56.04909
#
# Poissons Ratio (x) = 0.24723 -0.01046
# Poissons Ratio (y) = 0.35077 0.31059
# Poissons Ratio (z) = -0.02331 0.48797
#
# Static dielectric constant tensor:
#      x y z
#    x 4.541100 0.000000 0.000000 
#    y 0.000000 3.786380 0.000000 
#    z 0.000000 0.000000 4.695340 
# 
# 
# High freq. dielectric constant tensor:
#      x y z
#    x 1.983830 0.000000 0.000000 
#    y 0.000000 1.933120 0.000000 
#    z 0.000000 0.000000 1.986120 
# 
# From -- ./inp_files/5759.got.cif
#   From: 2010.03.12/outbox.cif.g09.slc.cpg/sg23_3_cif.got.tgz:5759.got - 2010.04.14 02:50:06.
