data_PCOD8164556
_publ_section_title
;
Structure prediction by ZEFSAII (Michael W. Deem and Ramdas Pophale) SiO2 
 PCOD8164556
Probable space group: I 2 2 2
;
_chemical_formula_sum "Si O2"
_cell_formula_units_Z 14
_cell_length_a 7.015233
_cell_length_b 8.305467
_cell_length_c 7.073024
_cell_angle_alpha 90.000000
_cell_angle_beta 90.000000
_cell_angle_gamma 90.000000
_cell_volume 412.108231
_symmetry_space_group_name_H-M "I 2 2 2"
_symmetry_group_IT_number 23
_symmetry_cell_setting 'orthorhombic'
loop_
_space_group_symop_operation_xyz
x,y,z
-x,-y,z
x,-y,-z
-x,y,-z
1/2+x,1/2+y,1/2+z
1/2-x,1/2-y,1/2+z
1/2+x,1/2-y,1/2-z
1/2-x,1/2+y,1/2-z
loop_
_atom_site_type_symbol
_atom_site_label
_atom_site_fract_x
_atom_site_fract_y
_atom_site_fract_z
Si Si1 0.500000 0.000000 0.000000
Si Si2 0.000000 0.000000 0.725243
Si Si3 0.150419 0.316798 0.152803
O O1 0.377501 0.882651 0.135548
O O2 0.862294 0.120840 0.846810
O O3 0.137005 0.119517 0.599188
O O4 0.000000 0.384005 0.000000
#
# Coordination Sequence:
#
# PCOD8164556 Si02
#       3
#     2   4   8
#     4  12  30  60  92 146 196 260 330 394 508 592
#     4  12  31  65 104 148 202 262 338 408 514 596
#     4  12  31  62 101 147 201 261 331 419 495 600
#
# _framework density 33.971653000000003
#
# number of rings (size 3 to 8) (size 9 to 14) (size 15 to 20)
#    0.000    0.000    0.000    5.143   16.000    1.143 
#   10.286    2.857    0.000    0.000    0.000    0.000 
#    0.000    0.000    0.000    0.000    0.000    0.000 
#
# Total GULP energy -86736.219233 kJ/mol
# GULP energy per Si atom -12390.888462 kJ/mol
# Density = 3.389433 g / cm^3
# Si number density = 33.971653 Si / 1000 Ang^3
#
#
#
# Elastic Constant Matrix: (Units=GPa)
#
#
# Indices 1 2 3 4 5 6 
#
# 1 282.2041 134.7026 55.6022 0.0000 0.0000 0.0000
# 2 134.7026 323.9584 54.6865 0.0000 0.0000 0.0000
# 3 55.6022 54.6865 217.1911 0.0000 0.0000 0.0000
# 4 0.0000 0.0000 0.0000 49.6444 0.0000 0.0000
# 5 0.0000 0.0000 0.0000 0.0000 27.6677 0.0000
# 6 0.0000 0.0000 0.0000 0.0000 0.0000 104.1072
#
#
#
# Elastic Compliance Matrix: (Units=1/GPa)
#
#
# Indices 1 2 3 4 5 6 
#
# 1 0.004525 -0.001761 -0.000715 0.000000 0.000000 0.000000
# 2 -0.001761 0.003909 -0.000533 0.000000 0.000000 0.000000
# 3 -0.000715 -0.000533 0.004922 0.000000 0.000000 0.000000
# 4 0.000000 0.000000 0.000000 0.020143 0.000000 0.000000
# 5 0.000000 0.000000 0.000000 0.000000 0.036143 0.000000
# 6 0.000000 0.000000 0.000000 0.000000 0.000000 0.009605
#
#
# Mechanical properties :
#
#
# Convention : Reuss Voigt Hill
#
# Bulk Modulus (GPa) = 136.29699 145.92625 141.11162
# Shear Modulus (GPa) = 57.00498 74.84133 65.92315
#
# Velocity S-wave (km/s) = 4.10080 4.69876 4.40993
# Velocity P-wave (km/s) = 7.91391 8.51389 8.21938
#
# Compressibility (1/GPa) = 0.00733692
#
# Stress axis : x y z
#
# Youngs Moduli (GPa) = 221.00103 255.82037 203.18492
#
# Poissons Ratio (x) = 0.45043 0.14529
# Poissons Ratio (y) = 0.38913 0.10840
# Poissons Ratio (z) = 0.15803 0.13648
#
# Static dielectric constant tensor:
#      x y z
#    x 6.655220 0.000000 0.000000 
#    y 0.000000 7.212570 0.000000 
#    z 0.000000 0.000000 6.040320 
# 
# 
# High freq. dielectric constant tensor:
#      x y z
#    x 2.422530 0.000000 0.000000 
#    y 0.000000 2.476700 0.000000 
#    z 0.000000 0.000000 2.421150 
# 
# From -- ./inp_files/5858.got.cif
#   From: 2010.03.12/outbox.cif.g09.slc.cpg/sg23_3_cif.got.tgz:5858.got - 2010.04.14 02:50:06.
