data_PCOD8164617
_publ_section_title
;
Structure prediction by ZEFSAII (Michael W. Deem and Ramdas Pophale) SiO2 
 PCOD8164617
Probable space group: I 21 21 21
;
_chemical_formula_sum "Si O2"
_cell_formula_units_Z 64
_cell_length_a 14.907974
_cell_length_b 11.897425
_cell_length_c 19.813727
_cell_angle_alpha 90.000000
_cell_angle_beta 90.000000
_cell_angle_gamma 90.000000
_cell_volume 3514.291461
_symmetry_space_group_name_H-M "I 21 21 21"
_symmetry_group_IT_number 24
_symmetry_cell_setting 'orthorhombic'
loop_
_space_group_symop_operation_xyz
x,y,z
-x,1/2-y,z
x,-y,1/2-z
1/2-x,y,-z
1/2+x,1/2+y,1/2+z
1/2-x,-y,1/2+z
1/2+x,1/2-y,-z
-x,1/2+y,1/2-z
loop_
_atom_site_type_symbol
_atom_site_label
_atom_site_fract_x
_atom_site_fract_y
_atom_site_fract_z
Si Si1 0.806212 0.494568 0.068307
Si Si2 0.997392 0.878199 0.885856
Si Si3 0.394376 0.233035 0.957454
Si Si4 0.358303 0.524633 0.562423
Si Si5 0.393716 0.752131 0.388825
Si Si6 0.342833 0.020209 0.173095
Si Si7 0.020505 0.123080 0.455338
Si Si8 0.168485 0.487599 0.903352
O O1 0.858076 0.376625 0.080721
O O2 0.740462 0.523801 0.129466
O O3 0.879991 0.592921 0.068556
O O4 0.750000 0.494821 0.000000
O O5 0.000000 0.750000 0.861652
O O6 0.896501 0.920505 0.869632
O O7 0.067398 0.951970 0.844345
O O8 0.018854 0.892741 0.964439
O O9 0.500000 0.250000 0.955047
O O10 0.356021 0.342871 0.919946
O O11 0.362879 0.218861 0.035024
O O12 0.448245 0.457552 0.582433
O O13 0.272700 0.474471 0.603118
O O14 0.352116 0.518018 0.482268
O O15 0.500000 0.750000 0.382925
O O16 0.355907 0.847264 0.339574
O O17 0.352205 0.632041 0.368137
O O18 0.317403 0.000000 0.250000
O O19 0.000000 0.250000 0.433963
#
# Coordination Sequence:
#
# PCOD8164617 Si02
#       8
#     8   8   8   8   8   8   8   8
#     4  12  21  36  60  85 113 153 192 240 289 343
#     4  10  20  36  53  78 116 154 189 228 276 341
#     4  10  17  29  56  87 116 137 173 239 299 340
#     4   9  17  28  46  84 119 140 170 232 290 337
#     4  10  17  31  56  81 113 148 182 224 286 343
#     4  12  25  38  55  83 117 155 194 237 286 347
#     4  10  20  35  55  83 116 149 192 232 284 334
#     4   9  17  29  51  79 112 144 180 225 279 340
#
# _framework density 18.211352999999999
#
# number of rings (size 3 to 8) (size 9 to 14) (size 15 to 20)
#    0.000    1.750    5.000    0.750    1.750    1.500 
#    2.250    0.000    0.000    0.750    0.000    0.000 
#    0.000    0.000    0.000    0.000    0.000    0.000 
#
# Total GULP energy -396710.961910 kJ/mol
# GULP energy per Si atom -12397.217560 kJ/mol
# Density = 1.816990 g / cm^3
# Si number density = 18.211353 Si / 1000 Ang^3
#
#
#
# Elastic Constant Matrix: (Units=GPa)
#
#
# Indices 1 2 3 4 5 6 
#
# 1 119.9333 60.8241 37.6485 0.0000 0.0000 0.0000
# 2 60.8241 115.4035 29.8342 0.0000 0.0000 0.0000
# 3 37.6485 29.8342 56.7686 0.0000 0.0000 0.0000
# 4 0.0000 0.0000 0.0000 3.7852 0.0000 0.0000
# 5 0.0000 0.0000 0.0000 0.0000 14.4668 0.0000
# 6 0.0000 0.0000 0.0000 0.0000 0.0000 26.4870
#
#
#
# Elastic Compliance Matrix: (Units=1/GPa)
#
#
# Indices 1 2 3 4 5 6 
#
# 1 0.012808 -0.005271 -0.005724 0.000000 0.000000 0.000000
# 2 -0.005271 0.012197 -0.002914 0.000000 0.000000 0.000000
# 3 -0.005724 -0.002914 0.022943 0.000000 0.000000 0.000000
# 4 0.000000 0.000000 0.000000 0.264187 0.000000 0.000000
# 5 0.000000 0.000000 0.000000 0.000000 0.069124 0.000000
# 6 0.000000 0.000000 0.000000 0.000000 0.000000 0.037754
#
#
# Mechanical properties :
#
#
# Convention : Reuss Voigt Hill
#
# Bulk Modulus (GPa) = 49.67865 60.96878 55.32372
# Shear Modulus (GPa) = 11.02435 19.86770 15.44603
#
# Velocity S-wave (km/s) = 2.46307 3.30654 2.91547
# Velocity P-wave (km/s) = 5.95207 6.93749 6.46358
#
# Compressibility (1/GPa) = 0.02012937
#
# Stress axis : x y z
#
# Youngs Moduli (GPa) = 78.07714 81.99015 43.58592
#
# Poissons Ratio (x) = 0.43214 0.24949
# Poissons Ratio (y) = 0.41152 0.12702
# Poissons Ratio (z) = 0.44692 0.23895
#
# Static dielectric constant tensor:
#      x y z
#    x 3.625760 0.000000 0.000000 
#    y 0.000000 3.528450 0.000000 
#    z 0.000000 0.000000 2.760450 
# 
# 
# High freq. dielectric constant tensor:
#      x y z
#    x 1.725650 0.000000 0.000000 
#    y 0.000000 1.713740 0.000000 
#    z 0.000000 0.000000 1.626900 
# 
# From -- ./inp_files/30891.got.cif
#   From: 2010.03.12/outbox.cif.g09.slc.cpg/sg24_16_cif.got.tgz:30891.got - 2010.04.14 03:06:53.
