data_PCOD8164010
_publ_section_title
;
Structure prediction by ZEFSAII (Michael W. Deem and Ramdas Pophale) SiO2 
 PCOD8164010
Probable space group: I 2 2 2
;
_chemical_formula_sum "Si O2"
_cell_formula_units_Z 22
_cell_length_a 11.385893
_cell_length_b 13.368406
_cell_length_c 6.893671
_cell_angle_alpha 90.000000
_cell_angle_beta 90.000000
_cell_angle_gamma 90.000000
_cell_volume 1049.294213
_symmetry_space_group_name_H-M "I 2 2 2"
_symmetry_group_IT_number 23
_symmetry_cell_setting 'orthorhombic'
loop_
_space_group_symop_operation_xyz
x,y,z
-x,-y,z
x,-y,-z
-x,y,-z
1/2+x,1/2+y,1/2+z
1/2-x,1/2-y,1/2+z
1/2+x,1/2-y,1/2-z
1/2-x,1/2+y,1/2-z
loop_
_atom_site_type_symbol
_atom_site_label
_atom_site_fract_x
_atom_site_fract_y
_atom_site_fract_z
Si Si1 0.105311 0.560525 0.698314
Si Si2 0.500000 0.500000 0.500000
Si Si3 0.500000 0.241813 0.000000
Si Si4 0.141570 0.918667 0.344315
O O1 0.134938 0.500000 0.500000
O O2 0.218523 0.569973 0.832627
O O3 0.000000 0.500000 0.806088
O O4 0.060669 0.673052 0.661653
O O5 0.583005 0.432495 0.634206
O O6 0.605280 0.308800 0.914321
O O7 0.095934 0.000000 0.500000
#
# Coordination Sequence:
#
# PCOD8164010 Si02
#       4
#     8   2   4   8
#     4   9  22  43  64  90 136 169 206 265 328 379
#     4  12  22  40  66  98 130 172 206 286 312 370
#     4  10  22  40  62 106 118 170 224 260 314 398
#     4  12  23  41  70  95 130 170 224 264 328 385
#
# _framework density 20.966474999999999
#
# number of rings (size 3 to 8) (size 9 to 14) (size 15 to 20)
#    0.000    1.818    5.455    0.000    0.000    9.455 
#    0.000    0.000    0.000    0.000    0.000    0.000 
#    0.000    0.000    0.000    0.000    0.000    0.000 
#
# Total GULP energy -136359.019298 kJ/mol
# GULP energy per Si atom -12396.274482 kJ/mol
# Density = 2.091875 g / cm^3
# Si number density = 20.966475 Si / 1000 Ang^3
#
#
#
# Elastic Constant Matrix: (Units=GPa)
#
#
# Indices 1 2 3 4 5 6 
#
# 1 187.4196 70.0270 49.3922 0.0000 0.0000 0.0000
# 2 70.0270 167.7368 45.6782 0.0000 0.0000 0.0000
# 3 49.3922 45.6782 77.3935 0.0000 0.0000 0.0000
# 4 0.0000 0.0000 0.0000 4.1549 0.0000 0.0000
# 5 0.0000 0.0000 0.0000 0.0000 39.5506 0.0000
# 6 0.0000 0.0000 0.0000 0.0000 0.0000 26.9584
#
#
#
# Elastic Compliance Matrix: (Units=1/GPa)
#
#
# Indices 1 2 3 4 5 6 
#
# 1 0.006943 -0.002016 -0.003241 0.000000 0.000000 0.000000
# 2 -0.002016 0.007689 -0.003251 0.000000 0.000000 0.000000
# 3 -0.003241 -0.003251 0.016908 0.000000 0.000000 0.000000
# 4 0.000000 0.000000 0.000000 0.240681 0.000000 0.000000
# 5 0.000000 0.000000 0.000000 0.000000 0.025284 0.000000
# 6 0.000000 0.000000 0.000000 0.000000 0.000000 0.037094
#
#
# Mechanical properties :
#
#
# Convention : Reuss Voigt Hill
#
# Bulk Modulus (GPa) = 68.85522 84.74942 76.80232
# Shear Modulus (GPa) = 14.02693 31.96294 22.99493
#
# Velocity S-wave (km/s) = 2.58934 3.90869 3.31531
# Velocity P-wave (km/s) = 6.46927 7.80254 7.16698
#
# Compressibility (1/GPa) = 0.01452323
#
# Stress axis : x y z
#
# Youngs Moduli (GPa) = 144.02937 130.05994 59.14186
#
# Poissons Ratio (x) = 0.26219 0.19169
# Poissons Ratio (y) = 0.29035 0.19229
# Poissons Ratio (z) = 0.46683 0.42288
#
# Static dielectric constant tensor:
#      x y z
#    x 3.946710 0.000000 0.000000 
#    y 0.000000 3.696370 0.000000 
#    z 0.000000 0.000000 3.630750 
# 
# 
# High freq. dielectric constant tensor:
#      x y z
#    x 1.843750 0.000000 0.000000 
#    y 0.000000 1.819070 0.000000 
#    z 0.000000 0.000000 1.801170 
# 
# From -- ./inp_files/1942.got.cif
#   From: 2010.03.12/outbox.cif.g09.slc.cpg/sg23_1_cif.got.tgz:1942.got - 2010.04.14 02:50:06.
