data_PCOD8164666
_publ_section_title
;
Structure prediction by ZEFSAII (Michael W. Deem and Ramdas Pophale) SiO2 
 PCOD8164666
Probable space group: I 21 21 21
;
_chemical_formula_sum "Si O2"
_cell_formula_units_Z 56
_cell_length_a 24.469167
_cell_length_b 28.858565
_cell_length_c 5.003946
_cell_angle_alpha 90.000000
_cell_angle_beta 90.000000
_cell_angle_gamma 90.000000
_cell_volume 3533.511680
_symmetry_space_group_name_H-M "I 21 21 21"
_symmetry_group_IT_number 24
_symmetry_cell_setting 'orthorhombic'
loop_
_space_group_symop_operation_xyz
x,y,z
-x,1/2-y,z
x,-y,1/2-z
1/2-x,y,-z
1/2+x,1/2+y,1/2+z
1/2-x,-y,1/2+z
1/2+x,1/2-y,-z
-x,1/2+y,1/2-z
loop_
_atom_site_type_symbol
_atom_site_label
_atom_site_fract_x
_atom_site_fract_y
_atom_site_fract_z
Si Si1 0.033585 0.030823 0.994422
Si Si2 0.029653 0.679493 0.832982
Si Si3 0.498643 0.871880 0.662091
Si Si4 0.883515 0.677842 0.351659
Si Si5 0.414680 0.770655 0.139516
Si Si6 0.807876 0.601230 0.144999
Si Si7 0.843620 0.450549 0.851189
O O1 0.093623 0.048573 0.929111
O O2 0.009189 0.000000 0.750000
O O3 0.996169 0.074606 0.073211
O O4 0.038421 0.000000 0.250000
O O5 0.081082 0.714724 0.846749
O O6 0.034459 0.656984 0.544683
O O7 0.974856 0.708749 0.855075
O O8 0.027721 0.638644 0.054731
O O9 0.435257 0.856629 0.660689
O O10 0.878178 0.704290 0.633552
O O11 0.829667 0.648324 0.280628
O O12 0.887118 0.719176 0.141609
O O13 0.806771 0.564728 0.393241
O O14 0.750000 0.608193 0.000000
O O15 0.845615 0.584470 0.900605
O O16 0.820776 0.500000 0.750000
#
# Coordination Sequence:
#
# PCOD8164666 Si02
#       7
#     8   8   8   8   8   8   8
#     4  11  21  32  47  63  82 109 144 178 216 267
#     4   9  17  27  43  67  85 105 126 160 199 259
#     4  10  18  28  46  62  85 106 136 165 212 255
#     4  10  19  30  47  61  82 108 131 165 217 268
#     4   9  17  29  44  64  87 104 126 155 204 266
#     4  12  24  37  50  65  81 105 142 185 234 283
#     4  11  23  37  51  61  78 102 141 188 236 281
#
# _framework density 15.848258
#
# number of rings (size 3 to 8) (size 9 to 14) (size 15 to 20)
#    0.000    1.714    1.429    5.143    4.000    4.571 
#    0.000    0.714    0.000    0.000    0.000    0.000 
#    0.000    0.000    0.000    0.000    0.000    0.000 
#
# Total GULP energy -346998.959540 kJ/mol
# GULP energy per Si atom -12392.819984 kJ/mol
# Density = 1.581219 g / cm^3
# Si number density = 15.848258 Si / 1000 Ang^3
#
#
#
# Elastic Constant Matrix: (Units=GPa)
#
#
# Indices 1 2 3 4 5 6 
#
# 1 19.8444 35.8023 14.6800 0.0000 0.0000 0.0000
# 2 35.8023 87.0264 31.9679 0.0000 0.0000 0.0000
# 3 14.6800 31.9679 98.7216 0.0000 0.0000 0.0000
# 4 0.0000 0.0000 0.0000 14.4110 0.0000 0.0000
# 5 0.0000 0.0000 0.0000 0.0000 9.2809 0.0000
# 6 0.0000 0.0000 0.0000 0.0000 0.0000 12.1975
#
#
#
# Elastic Compliance Matrix: (Units=1/GPa)
#
#
# Indices 1 2 3 4 5 6 
#
# 1 0.196516 -0.079577 -0.003454 0.000000 0.000000 0.000000
# 2 -0.079577 0.045266 -0.002825 0.000000 0.000000 0.000000
# 3 -0.003454 -0.002825 0.011558 0.000000 0.000000 0.000000
# 4 0.000000 0.000000 0.000000 0.069391 0.000000 0.000000
# 5 0.000000 0.000000 0.000000 0.000000 0.107748 0.000000
# 6 0.000000 0.000000 0.000000 0.000000 0.000000 0.081984
#
#
# Mechanical properties :
#
#
# Convention : Reuss Voigt Hill
#
# Bulk Modulus (GPa) = 12.25060 41.16588 26.70824
# Shear Modulus (GPa) = 7.02856 15.38738 11.20797
#
# Velocity S-wave (km/s) = 2.10821 3.11934 2.66222
# Velocity P-wave (km/s) = 3.69767 6.24541 5.13215
#
# Compressibility (1/GPa) = 0.08162867
#
# Stress axis : x y z
#
# Youngs Moduli (GPa) = 5.08864 22.09156 86.52191
#
# Poissons Ratio (x) = 1.75799 0.29881
# Poissons Ratio (y) = 0.40494 0.24440
# Poissons Ratio (z) = 0.01757 0.06240
#
# Static dielectric constant tensor:
#      x y z
#    x 2.466180 0.000000 0.000000 
#    y 0.000000 3.110990 0.000000 
#    z 0.000000 0.000000 3.459620 
# 
# 
# High freq. dielectric constant tensor:
#      x y z
#    x 1.523390 0.000000 0.000000 
#    y 0.000000 1.604960 0.000000 
#    z 0.000000 0.000000 1.641620 
# 
# From -- ./inp_files/7348.got.cif
#   From: 2010.03.12/outbox.cif.g09.slc.cpg/sg24_4_cif.got.tgz:7348.got - 2010.04.14 03:06:53.
