data_PCOD8164097
_publ_section_title
;
Structure prediction by ZEFSAII (Michael W. Deem and Ramdas Pophale) SiO2 
 PCOD8164097
Probable space group: I 2 2 2
;
_chemical_formula_sum "Si O2"
_cell_formula_units_Z 48
_cell_length_a 14.044066
_cell_length_b 13.044758
_cell_length_c 13.862514
_cell_angle_alpha 90.000000
_cell_angle_beta 90.000000
_cell_angle_gamma 90.000000
_cell_volume 2539.632559
_symmetry_space_group_name_H-M "I 2 2 2"
_symmetry_group_IT_number 23
_symmetry_cell_setting 'orthorhombic'
loop_
_space_group_symop_operation_xyz
x,y,z
-x,-y,z
x,-y,-z
-x,y,-z
1/2+x,1/2+y,1/2+z
1/2-x,1/2-y,1/2+z
1/2+x,1/2-y,1/2-z
1/2-x,1/2+y,1/2-z
loop_
_atom_site_type_symbol
_atom_site_label
_atom_site_fract_x
_atom_site_fract_y
_atom_site_fract_z
Si Si1 0.032966 0.110234 0.744452
Si Si2 0.324413 0.339712 0.782974
Si Si3 0.836084 0.237794 0.117234
Si Si4 0.181567 0.955932 0.395469
Si Si5 0.991612 0.389248 0.113166
Si Si6 0.826631 0.271085 0.899933
O O1 0.104579 0.151503 0.826488
O O2 0.088738 0.102444 0.643339
O O3 0.938903 0.175493 0.717230
O O4 0.000000 0.000000 0.784418
O O5 0.273202 0.252007 0.848272
O O6 0.293647 0.452555 0.819927
O O7 0.287124 0.315459 0.673760
O O8 0.888292 0.345488 0.139906
O O9 0.836550 0.215042 0.003019
O O10 0.265878 0.874879 0.406197
O O11 0.157093 0.000000 0.500000
O O12 0.071908 0.307446 0.143481
O O13 0.000000 0.500000 0.165167
O O14 0.000000 0.405474 0.000000
#
# Coordination Sequence:
#
# PCOD8164097 Si02
#       6
#     8   8   8   8   8   8
#     4  10  23  39  59  90 125 165 203 252 304 374
#     4  11  22  37  59  87 122 163 204 249 311 362
#     4  11  20  38  58  85 126 157 201 254 309 365
#     4  11  22  40  62  91 122 160 207 256 303 366
#     4   9  18  30  54  84 111 144 194 251 306 348
#     4  11  21  36  61  90 120 156 202 253 308 369
#
# _framework density 18.900372000000001
#
# number of rings (size 3 to 8) (size 9 to 14) (size 15 to 20)
#    0.000    1.500    5.000    1.000    2.333    3.000 
#    0.000    5.833    0.000    0.000    0.000    0.000 
#    0.000    0.000    0.000    0.000    0.000    0.000 
#
# Total GULP energy -297356.919792 kJ/mol
# GULP energy per Si atom -12389.871658 kJ/mol
# Density = 1.885735 g / cm^3
# Si number density = 18.900372 Si / 1000 Ang^3
#
#
#
# Elastic Constant Matrix: (Units=GPa)
#
#
# Indices 1 2 3 4 5 6 
#
# 1 92.6764 30.1048 45.6265 0.0000 0.0000 0.0000
# 2 30.1048 68.3610 56.0013 0.0000 0.0000 0.0000
# 3 45.6265 56.0013 129.0000 0.0000 0.0000 0.0000
# 4 0.0000 0.0000 0.0000 33.7024 0.0000 0.0000
# 5 0.0000 0.0000 0.0000 0.0000 21.8164 0.0000
# 6 0.0000 0.0000 0.0000 0.0000 0.0000 25.5156
#
#
#
# Elastic Compliance Matrix: (Units=1/GPa)
#
#
# Indices 1 2 3 4 5 6 
#
# 1 0.013490 -0.003153 -0.003402 0.000000 0.000000 0.000000
# 2 -0.003153 0.023439 -0.009060 0.000000 0.000000 0.000000
# 3 -0.003402 -0.009060 0.012888 0.000000 0.000000 0.000000
# 4 0.000000 0.000000 0.000000 0.029671 0.000000 0.000000
# 5 0.000000 0.000000 0.000000 0.000000 0.045837 0.000000
# 6 0.000000 0.000000 0.000000 0.000000 0.000000 0.039192
#
#
# Mechanical properties :
#
#
# Convention : Reuss Voigt Hill
#
# Bulk Modulus (GPa) = 53.80491 61.50027 57.65259
# Shear Modulus (GPa) = 24.75944 26.76054 25.75999
#
# Velocity S-wave (km/s) = 3.62332 3.76689 3.69580
# Velocity P-wave (km/s) = 6.78484 7.17838 6.98438
#
# Compressibility (1/GPa) = 0.01858566
#
# Stress axis : x y z
#
# Youngs Moduli (GPa) = 74.13137 42.66432 77.58956
#
# Poissons Ratio (x) = 0.13454 0.26398
# Poissons Ratio (y) = 0.23377 0.70295
# Poissons Ratio (z) = 0.25221 0.38653
#
# Static dielectric constant tensor:
#      x y z
#    x 3.690080 0.000000 0.000000 
#    y 0.000000 3.505370 0.000000 
#    z 0.000000 0.000000 3.416940 
# 
# 
# High freq. dielectric constant tensor:
#      x y z
#    x 1.743500 0.000000 0.000000 
#    y 0.000000 1.720720 0.000000 
#    z 0.000000 0.000000 1.719410 
# 
# From -- ./inp_files/16669.got.cif
#   From: 2010.03.12/outbox.cif.g09.slc.cpg/sg23_9_cif.got.tgz:16669.got - 2010.04.14 02:50:06.
