data_PCOD8164573
_publ_section_title
;
Structure prediction by ZEFSAII (Michael W. Deem and Ramdas Pophale) SiO2 
 PCOD8164573
Probable space group: I 21 21 21
;
_chemical_formula_sum "Si O2"
_cell_formula_units_Z 40
_cell_length_a 11.640608
_cell_length_b 5.380107
_cell_length_c 25.838710
_cell_angle_alpha 90.000000
_cell_angle_beta 90.000000
_cell_angle_gamma 90.000000
_cell_volume 1618.219407
_symmetry_space_group_name_H-M "I 21 21 21"
_symmetry_group_IT_number 24
_symmetry_cell_setting 'orthorhombic'
loop_
_space_group_symop_operation_xyz
x,y,z
-x,1/2-y,z
x,-y,1/2-z
1/2-x,y,-z
1/2+x,1/2+y,1/2+z
1/2-x,-y,1/2+z
1/2+x,1/2-y,-z
-x,1/2+y,1/2-z
loop_
_atom_site_type_symbol
_atom_site_label
_atom_site_fract_x
_atom_site_fract_y
_atom_site_fract_z
Si Si1 0.878306 0.896761 0.980142
Si Si2 0.876065 0.606181 0.477192
Si Si3 0.626524 0.684110 0.638311
Si Si4 0.160451 0.474295 0.864370
Si Si5 0.328729 0.980911 0.189984
O O1 0.888382 0.982027 0.921177
O O2 0.750000 0.834971 0.000000
O O3 0.934273 0.116853 0.016075
O O4 0.933890 0.618559 0.988642
O O5 0.750000 0.666191 0.500000
O O6 0.874121 0.538907 0.416629
O O7 0.500000 0.750000 0.658521
O O8 0.700684 0.939573 0.632692
O O9 0.690864 0.503142 0.679368
O O10 0.126370 0.713080 0.829712
O O11 0.109923 0.213799 0.840151
O O12 0.357095 0.000000 0.250000
#
# Coordination Sequence:
#
# PCOD8164573 Si02
#       5
#     8   8   8   8   8
#     4  10  15  28  48  66  85 106 151 199 233 292
#     4  10  17  29  48  67  86 115 153 199 237 293
#     4  10  22  34  47  69  97 126 167 209 242 283
#     4  10  19  33  48  68  86 121 164 208 240 276
#     4  10  20  35  46  63  90 127 169 209 244 268
#
# _framework density 24.718526000000001
#
# number of rings (size 3 to 8) (size 9 to 14) (size 15 to 20)
#    1.200    0.800    4.000    4.200    0.000    0.800 
#    3.600    0.000    0.000    0.000    0.000    0.000 
#    0.000    0.000    0.000    0.000    0.000  144.000 
#
# Total GULP energy -247920.709565 kJ/mol
# GULP energy per Si atom -12396.035478 kJ/mol
# Density = 2.466227 g / cm^3
# Si number density = 24.718526 Si / 1000 Ang^3
#
#
#
# Elastic Constant Matrix: (Units=GPa)
#
#
# Indices 1 2 3 4 5 6 
#
# 1 56.6664 3.1790 -17.9695 0.0000 0.0000 0.0000
# 2 3.1790 205.1627 49.1281 0.0000 0.0000 0.0000
# 3 -17.9695 49.1281 139.3696 0.0000 0.0000 0.0000
# 4 0.0000 0.0000 0.0000 45.1040 0.0000 0.0000
# 5 0.0000 0.0000 0.0000 0.0000 22.6893 0.0000
# 6 0.0000 0.0000 0.0000 0.0000 0.0000 11.4560
#
#
#
# Elastic Compliance Matrix: (Units=1/GPa)
#
#
# Indices 1 2 3 4 5 6 
#
# 1 0.018564 -0.000940 0.002725 0.000000 0.000000 0.000000
# 2 -0.000940 0.005371 -0.002015 0.000000 0.000000 0.000000
# 3 0.002725 -0.002015 0.008237 0.000000 0.000000 0.000000
# 4 0.000000 0.000000 0.000000 0.022171 0.000000 0.000000
# 5 0.000000 0.000000 0.000000 0.000000 0.044074 0.000000
# 6 0.000000 0.000000 0.000000 0.000000 0.000000 0.087290
#
#
# Mechanical properties :
#
#
# Convention : Reuss Voigt Hill
#
# Bulk Modulus (GPa) = 31.53361 52.20823 41.87092
# Shear Modulus (GPa) = 25.41465 40.30728 32.86097
#
# Velocity S-wave (km/s) = 3.20998 4.04251 3.65006
# Velocity P-wave (km/s) = 5.15008 6.55409 5.89404
#
# Compressibility (1/GPa) = 0.03171220
#
# Stress axis : x y z
#
# Youngs Moduli (GPa) = 53.86776 186.17975 121.40876
#
# Poissons Ratio (x) = 0.17504 -0.33083
# Poissons Ratio (y) = 0.05064 0.24459
# Poissons Ratio (z) = -0.14679 0.37507
#
# Static dielectric constant tensor:
#      x y z
#    x 5.000350 0.000000 0.000000 
#    y 0.000000 4.898270 0.000000 
#    z 0.000000 0.000000 3.916340 
# 
# 
# High freq. dielectric constant tensor:
#      x y z
#    x 2.027130 0.000000 0.000000 
#    y 0.000000 2.012540 0.000000 
#    z 0.000000 0.000000 1.946590 
# 
# From -- ./inp_files/38663.got.cif
#   From: 2010.03.12/outbox.cif.g09.slc.cpg/sg24_20_cif.got.tgz:38663.got - 2010.04.14 03:06:53.
