data_PCOD8164247
_publ_section_title
;
Structure prediction by ZEFSAII (Michael W. Deem and Ramdas Pophale) SiO2 
 PCOD8164247
Probable space group: I 2 2 2
;
_chemical_formula_sum "Si O2"
_cell_formula_units_Z 40
_cell_length_a 28.189738
_cell_length_b 8.009733
_cell_length_c 7.786184
_cell_angle_alpha 90.000000
_cell_angle_beta 90.000000
_cell_angle_gamma 90.000000
_cell_volume 1758.060197
_symmetry_space_group_name_H-M "I 2 2 2"
_symmetry_group_IT_number 23
_symmetry_cell_setting 'orthorhombic'
loop_
_space_group_symop_operation_xyz
x,y,z
-x,-y,z
x,-y,-z
-x,y,-z
1/2+x,1/2+y,1/2+z
1/2-x,1/2-y,1/2+z
1/2+x,1/2-y,1/2-z
1/2-x,1/2+y,1/2-z
loop_
_atom_site_type_symbol
_atom_site_label
_atom_site_fract_x
_atom_site_fract_y
_atom_site_fract_z
Si Si1 0.680137 0.638151 0.789738
Si Si2 0.000000 0.000000 0.500000
Si Si3 0.221744 0.490692 0.193220
Si Si4 0.649682 0.830414 0.093419
Si Si5 0.610653 0.500000 0.500000
Si Si6 0.000000 0.500000 0.000000
Si Si7 0.444387 0.265344 0.273735
O O1 0.721218 0.499437 0.792013
O O2 0.705059 0.816017 0.766900
O O3 0.642716 0.586620 0.645697
O O4 0.654835 0.664020 0.974737
O O5 0.970432 0.874482 0.624565
O O6 0.197710 0.644555 0.295298
O O7 0.203984 0.500000 0.000000
O O8 0.604377 0.808289 0.207930
O O9 0.637858 0.000000 0.000000
O O10 0.572117 0.625408 0.431023
O O11 0.972963 0.615318 0.861862
#
# Coordination Sequence:
#
# PCOD8164247 Si02
#       7
#     8   2   8   8   4   2   8
#     4  11  26  42  70 107 151 205 247 304 360 444
#     4  12  28  52  84 108 158 192 248 320 420 492
#     4  11  24  41  68 101 151 195 256 298 362 426
#     4  10  25  43  71 104 144 190 251 305 371 442
#     4  12  28  47  74 106 158 196 250 299 396 462
#     4  12  32  48  88 112 146 184 260 328 404 456
#     4  12  28  50  79 110 146 192 248 320 394 475
#
# _framework density 22.75235
#
# number of rings (size 3 to 8) (size 9 to 14) (size 15 to 20)
#    0.000    0.800    0.000    4.800   22.400    0.000 
#    0.000    0.000    0.000    0.000    0.000    0.000 
#    0.000    0.000    0.000    0.000    0.000    0.000 
#
# Total GULP energy -247816.501508 kJ/mol
# GULP energy per Si atom -12390.825075 kJ/mol
# Density = 2.270056 g / cm^3
# Si number density = 22.752350 Si / 1000 Ang^3
#
#
#
# Elastic Constant Matrix: (Units=GPa)
#
#
# Indices 1 2 3 4 5 6 
#
# 1 42.5168 37.6839 -4.9856 0.0000 0.0000 0.0000
# 2 37.6839 116.0364 33.4335 0.0000 0.0000 0.0000
# 3 -4.9856 33.4335 95.4519 0.0000 0.0000 0.0000
# 4 0.0000 0.0000 0.0000 30.2519 0.0000 0.0000
# 5 0.0000 0.0000 0.0000 0.0000 56.6543 0.0000
# 6 0.0000 0.0000 0.0000 0.0000 0.0000 -6.9592
#
#
#
# Elastic Compliance Matrix: (Units=1/GPa)
#
#
# Indices 1 2 3 4 5 6 
#
# 1 0.036558 -0.013817 0.006749 0.000000 0.000000 0.000000
# 2 -0.013817 0.014808 -0.005908 0.000000 0.000000 0.000000
# 3 0.006749 -0.005908 0.012898 0.000000 0.000000 0.000000
# 4 0.000000 0.000000 0.000000 0.033056 0.000000 0.000000
# 5 0.000000 0.000000 0.000000 0.000000 0.017651 0.000000
# 6 0.000000 0.000000 0.000000 0.000000 0.000000 -0.143695
#
#
# Mechanical properties :
#
#
# Convention : Reuss Voigt Hill
#
# Bulk Modulus (GPa) = 26.10181 42.91878 34.51029
# Shear Modulus (GPa) = 500.04380 28.51429 264.27904
#
# Velocity S-wave (km/s) = 14.84095 3.54396 10.78920
# Velocity P-wave (km/s) = 17.46908 5.97081 13.05411
#
# Compressibility (1/GPa) = 0.03831152
#
# Stress axis : x y z
#
# Youngs Moduli (GPa) = 27.35368 67.53278 77.52860
#
# Poissons Ratio (x) = 0.93312 -0.52325
# Poissons Ratio (y) = 0.37795 0.45806
# Poissons Ratio (z) = -0.18461 0.39900
#
# Static dielectric constant tensor:
#      x y z
#    x 4.275670 0.000000 0.000000 
#    y 0.000000 4.262190 0.000000 
#    z 0.000000 0.000000 4.545160 
# 
# 
# High freq. dielectric constant tensor:
#      x y z
#    x 1.902350 0.000000 0.000000 
#    y 0.000000 1.922260 0.000000 
#    z 0.000000 0.000000 1.919220 
# 
# From -- ./inp_files/12942.got.cif
#   From: 2010.03.12/outbox.cif.g09.slc.cpg/sg23_7_cif.got.tgz:12942.got - 2010.04.14 02:50:06.
