data_PCOD8164553
_publ_section_title
;
Structure prediction by ZEFSAII (Michael W. Deem and Ramdas Pophale) SiO2 
 PCOD8164553
Probable space group: I 2 2 2
;
_chemical_formula_sum "Si O2"
_cell_formula_units_Z 32
_cell_length_a 31.315397
_cell_length_b 5.119443
_cell_length_c 7.847522
_cell_angle_alpha 90.000000
_cell_angle_beta 90.000000
_cell_angle_gamma 90.000000
_cell_volume 1258.094245
_symmetry_space_group_name_H-M "I 2 2 2"
_symmetry_group_IT_number 23
_symmetry_cell_setting 'orthorhombic'
loop_
_space_group_symop_operation_xyz
x,y,z
-x,-y,z
x,-y,-z
-x,y,-z
1/2+x,1/2+y,1/2+z
1/2-x,1/2-y,1/2+z
1/2+x,1/2-y,1/2-z
1/2-x,1/2+y,1/2-z
loop_
_atom_site_type_symbol
_atom_site_label
_atom_site_fract_x
_atom_site_fract_y
_atom_site_fract_z
Si Si1 0.568855 0.500000 0.500000
Si Si2 0.471548 0.258717 0.190554
Si Si3 0.600513 0.000000 0.000000
Si Si4 0.231773 0.882781 0.824476
Si Si5 0.640408 0.185724 0.337812
O O1 0.541062 0.700041 0.388408
O O2 0.597240 0.343813 0.365987
O O3 0.500000 0.500000 0.127025
O O4 0.430316 0.233761 0.066378
O O5 0.500000 0.000000 0.179647
O O6 0.632656 0.050910 0.156666
O O7 0.250764 0.590036 0.813563
O O8 0.180444 0.878603 0.817484
O O9 0.248729 0.000000 0.000000
O O10 0.649448 0.000000 0.500000
#
# Coordination Sequence:
#
# PCOD8164553 Si02
#       5
#     4   8   4   8   8
#     4  12  27  50  85 112 164 222 274 334 423 488
#     4  12  29  52  80 122 165 217 280 348 414 488
#     4  12  29  52  85 118 164 220 278 340 413 486
#     4  12  28  55  85 123 167 214 268 335 408 489
#     4  12  27  55  82 122 164 220 271 343 401 498
#
# _framework density 25.435293000000001
#
# number of rings (size 3 to 8) (size 9 to 14) (size 15 to 20)
#    0.000    0.000    3.750    4.500    1.750   10.000 
#    9.000    0.000    0.000    0.000    0.000    0.000 
#    0.000    0.000    0.000    0.000    0.000    0.000 
#
# Total GULP energy -198368.747253 kJ/mol
# GULP energy per Si atom -12398.046703 kJ/mol
# Density = 2.537740 g / cm^3
# Si number density = 25.435293 Si / 1000 Ang^3
#
#
#
# Elastic Constant Matrix: (Units=GPa)
#
#
# Indices 1 2 3 4 5 6 
#
# 1 99.8779 36.2759 61.0825 0.0000 0.0000 0.0000
# 2 36.2759 128.7630 37.6306 0.0000 0.0000 0.0000
# 3 61.0825 37.6306 182.9241 0.0000 0.0000 0.0000
# 4 0.0000 0.0000 0.0000 61.5153 0.0000 0.0000
# 5 0.0000 0.0000 0.0000 0.0000 24.4556 0.0000
# 6 0.0000 0.0000 0.0000 0.0000 0.0000 38.2576
#
#
#
# Elastic Compliance Matrix: (Units=1/GPa)
#
#
# Indices 1 2 3 4 5 6 
#
# 1 0.013363 -0.002618 -0.003924 0.000000 0.000000 0.000000
# 2 -0.002618 0.008776 -0.000931 0.000000 0.000000 0.000000
# 3 -0.003924 -0.000931 0.006968 0.000000 0.000000 0.000000
# 4 0.000000 0.000000 0.000000 0.016256 0.000000 0.000000
# 5 0.000000 0.000000 0.000000 0.000000 0.040890 0.000000
# 6 0.000000 0.000000 0.000000 0.000000 0.000000 0.026139
#
#
# Mechanical properties :
#
#
# Convention : Reuss Voigt Hill
#
# Bulk Modulus (GPa) = 70.61311 75.72700 73.17005
# Shear Modulus (GPa) = 37.86219 43.28410 40.57314
#
# Velocity S-wave (km/s) = 3.86238 4.12968 3.99827
# Velocity P-wave (km/s) = 6.90745 7.25094 7.08127
#
# Compressibility (1/GPa) = 0.01416168
#
# Stress axis : x y z
#
# Youngs Moduli (GPa) = 74.83582 113.94870 143.50391
#
# Poissons Ratio (x) = 0.29831 0.56304
# Poissons Ratio (y) = 0.19592 0.13362
# Poissons Ratio (z) = 0.29362 0.10610
#
# Static dielectric constant tensor:
#      x y z
#    x 4.631740 0.000000 0.000000 
#    y 0.000000 5.066130 0.000000 
#    z 0.000000 0.000000 4.839020 
# 
# 
# High freq. dielectric constant tensor:
#      x y z
#    x 2.021310 0.000000 0.000000 
#    y 0.000000 2.011400 0.000000 
#    z 0.000000 0.000000 2.044180 
# 
# From -- ./inp_files/13214.got.cif
#   From: 2010.03.12/outbox.cif.g09.slc.cpg/sg23_7_cif.got.tgz:13214.got - 2010.04.14 02:50:06.
