data_PCOD8164719
_publ_section_title
;
Structure prediction by ZEFSAII (Michael W. Deem and Ramdas Pophale) SiO2 
 PCOD8164719
Probable space group: I 21 21 21
;
_chemical_formula_sum "Si O2"
_cell_formula_units_Z 48
_cell_length_a 10.479577
_cell_length_b 9.715900
_cell_length_c 24.613914
_cell_angle_alpha 90.000000
_cell_angle_beta 90.000000
_cell_angle_gamma 90.000000
_cell_volume 2506.152348
_symmetry_space_group_name_H-M "I 21 21 21"
_symmetry_group_IT_number 24
_symmetry_cell_setting 'orthorhombic'
loop_
_space_group_symop_operation_xyz
x,y,z
-x,1/2-y,z
x,-y,1/2-z
1/2-x,y,-z
1/2+x,1/2+y,1/2+z
1/2-x,-y,1/2+z
1/2+x,1/2-y,-z
-x,1/2+y,1/2-z
loop_
_atom_site_type_symbol
_atom_site_label
_atom_site_fract_x
_atom_site_fract_y
_atom_site_fract_z
Si Si1 0.857920 0.749944 0.222634
Si Si2 0.348644 0.250660 0.840441
Si Si3 0.654144 0.749309 0.949570
Si Si4 0.499969 0.589712 0.194541
Si Si5 0.762214 0.957363 0.138722
Si Si6 0.737798 0.541865 0.860628
O O1 0.783617 0.751826 0.279970
O O2 0.836236 0.888507 0.188971
O O3 0.834494 0.609503 0.190372
O O4 0.000000 0.750000 0.242998
O O5 0.500000 0.250000 0.842699
O O6 0.297542 0.384803 0.870892
O O7 0.296633 0.116120 0.870336
O O8 0.500000 0.750000 0.963260
O O9 0.693779 0.884357 0.916300
O O10 0.691107 0.615563 0.915052
O O11 0.750000 0.746621 0.000000
O O12 0.500000 0.750000 0.212236
O O13 0.500286 0.500000 0.250000
O O14 0.384918 0.558257 0.153834
O O15 0.614576 0.558431 0.153530
#
# Coordination Sequence:
#
# PCOD8164719 Si02
#       6
#     8   8   8   8   8   8
#     4  10  18  32  55  85 123 165 208 246 309 392
#     4  11  21  35  59  90 129 163 203 262 329 402
#     4  11  25  45  74  93 122 168 233 300 356 393
#     4  12  24  38  62  94 146 182 226 264 326 404
#     4  11  23  38  60  90 129 168 221 265 330 398
#     4  11  23  38  60  90 129 168 221 265 330 398
#
# _framework density 19.152864999999998
#
# number of rings (size 3 to 8) (size 9 to 14) (size 15 to 20)
#    0.000    1.000    3.333    7.000    4.667    2.667 
#    0.000    0.833    0.000    0.000    0.000    0.000 
#    0.000    0.000    0.000    0.000    0.000    0.000 
#
# Total GULP energy -297411.305203 kJ/mol
# GULP energy per Si atom -12392.137717 kJ/mol
# Density = 1.910927 g / cm^3
# Si number density = 19.152865 Si / 1000 Ang^3
#
#
#
# Elastic Constant Matrix: (Units=GPa)
#
#
# Indices 1 2 3 4 5 6 
#
# 1 137.3439 41.1303 38.5612 0.0000 0.0000 0.0000
# 2 41.1303 177.6206 35.9219 0.0000 0.0000 0.0000
# 3 38.5612 35.9219 87.2830 0.0000 0.0000 0.0000
# 4 0.0000 0.0000 0.0000 6.6605 0.0000 0.0000
# 5 0.0000 0.0000 0.0000 0.0000 35.5340 0.0000
# 6 0.0000 0.0000 0.0000 0.0000 0.0000 20.6861
#
#
#
# Elastic Compliance Matrix: (Units=1/GPa)
#
#
# Indices 1 2 3 4 5 6 
#
# 1 0.008592 -0.001333 -0.003247 0.000000 0.000000 0.000000
# 2 -0.001333 0.006348 -0.002024 0.000000 0.000000 0.000000
# 3 -0.003247 -0.002024 0.013724 0.000000 0.000000 0.000000
# 4 0.000000 0.000000 0.000000 0.150140 0.000000 0.000000
# 5 0.000000 0.000000 0.000000 0.000000 0.028142 0.000000
# 6 0.000000 0.000000 0.000000 0.000000 0.000000 0.048342
#
#
# Mechanical properties :
#
#
# Convention : Reuss Voigt Hill
#
# Bulk Modulus (GPa) = 64.69726 70.38604 67.54165
# Shear Modulus (GPa) = 18.27168 31.68505 24.97837
#
# Velocity S-wave (km/s) = 3.09203 4.07175 3.61523
# Velocity P-wave (km/s) = 6.82644 7.67691 7.26413
#
# Compressibility (1/GPa) = 0.01545661
#
# Stress axis : x y z
#
# Youngs Moduli (GPa) = 116.38921 157.53300 72.86250
#
# Poissons Ratio (x) = 0.20996 0.23661
# Poissons Ratio (y) = 0.15513 0.14745
# Poissons Ratio (z) = 0.37795 0.31880
#
# Static dielectric constant tensor:
#      x y z
#    x 3.763450 0.000000 0.000000 
#    y 0.000000 3.792200 0.000000 
#    z 0.000000 0.000000 3.436500 
# 
# 
# High freq. dielectric constant tensor:
#      x y z
#    x 1.762530 0.000000 0.000000 
#    y 0.000000 1.753820 0.000000 
#    z 0.000000 0.000000 1.713090 
# 
# From -- ./inp_files/35546.got.cif
#   From: 2010.03.12/outbox.cif.g09.slc.cpg/sg24_18_cif.got.tgz:35546.got - 2010.04.14 03:06:53.
