data_PCOD8164891
_publ_section_title
;
Structure prediction by ZEFSAII (Michael W. Deem and Ramdas Pophale) SiO2 
 PCOD8164891
Probable space group: I 21 21 21
;
_chemical_formula_sum "Si O2"
_cell_formula_units_Z 48
_cell_length_a 16.846026
_cell_length_b 9.800294
_cell_length_c 14.131481
_cell_angle_alpha 90.000000
_cell_angle_beta 90.000000
_cell_angle_gamma 90.000000
_cell_volume 2333.051094
_symmetry_space_group_name_H-M "I 21 21 21"
_symmetry_group_IT_number 24
_symmetry_cell_setting 'orthorhombic'
loop_
_space_group_symop_operation_xyz
x,y,z
-x,1/2-y,z
x,-y,1/2-z
1/2-x,y,-z
1/2+x,1/2+y,1/2+z
1/2-x,-y,1/2+z
1/2+x,1/2-y,-z
-x,1/2+y,1/2-z
loop_
_atom_site_type_symbol
_atom_site_label
_atom_site_fract_x
_atom_site_fract_y
_atom_site_fract_z
Si Si1 0.378313 0.299455 0.602590
Si Si2 0.890750 0.956087 0.914843
Si Si3 0.526886 0.459599 0.646694
Si Si4 0.186759 0.251276 0.918986
Si Si5 0.232301 0.354457 0.723768
Si Si6 0.463460 0.893354 0.461129
O O1 0.368285 0.350369 0.496239
O O2 0.437766 0.400816 0.658505
O O3 0.414706 0.149456 0.599497
O O4 0.292108 0.286657 0.649954
O O5 0.855376 0.887772 0.819961
O O6 0.851799 0.101600 0.939959
O O7 0.986439 0.983925 0.909386
O O8 0.558441 0.500000 0.750000
O O9 0.529987 0.587149 0.574910
O O10 0.224445 0.254853 0.813921
O O11 0.250000 0.222559 0.000000
O O12 0.126981 0.121094 0.924798
O O13 0.271122 0.500000 0.750000
O O14 0.500000 0.750000 0.432763
#
# Coordination Sequence:
#
# PCOD8164891 Si02
#       6
#     8   8   8   8   8   8
#     4  10  20  35  58  86 119 148 196 246 301 349
#     4   9  18  37  60  86 115 152 205 247 294 346
#     4  10  22  34  55  86 118 158 190 236 308 370
#     4  10  20  33  59  92 119 154 193 249 305 349
#     4  10  19  33  62  91 115 150 200 253 291 346
#     4   9  20  37  60  80 121 157 198 242 289 357
#
# _framework density 20.573917000000002
#
# number of rings (size 3 to 8) (size 9 to 14) (size 15 to 20)
#    0.000    2.333    0.000    3.000    4.667    1.333 
#    0.000    1.667   55.000    0.000    0.000    0.000 
#    0.000    0.000    0.000    0.000    0.000    0.000 
#
# Total GULP energy -297455.032437 kJ/mol
# GULP energy per Si atom -12393.959685 kJ/mol
# Density = 2.052709 g / cm^3
# Si number density = 20.573917 Si / 1000 Ang^3
#
#
#
# Elastic Constant Matrix: (Units=GPa)
#
#
# Indices 1 2 3 4 5 6 
#
# 1 121.7632 30.4636 54.3217 0.0000 0.0000 0.0000
# 2 30.4636 36.4083 28.3739 0.0000 0.0000 0.0000
# 3 54.3217 28.3739 106.0376 0.0000 0.0000 0.0000
# 4 0.0000 0.0000 0.0000 17.1666 0.0000 0.0000
# 5 0.0000 0.0000 0.0000 0.0000 28.1539 0.0000
# 6 0.0000 0.0000 0.0000 0.0000 0.0000 20.9401
#
#
#
# Elastic Compliance Matrix: (Units=1/GPa)
#
#
# Indices 1 2 3 4 5 6 
#
# 1 0.011747 -0.006493 -0.004280 0.000000 0.000000 0.000000
# 2 -0.006493 0.038292 -0.006920 0.000000 0.000000 0.000000
# 3 -0.004280 -0.006920 0.013475 0.000000 0.000000 0.000000
# 4 0.000000 0.000000 0.000000 0.058253 0.000000 0.000000
# 5 0.000000 0.000000 0.000000 0.000000 0.035519 0.000000
# 6 0.000000 0.000000 0.000000 0.000000 0.000000 0.047755
#
#
# Mechanical properties :
#
#
# Convention : Reuss Voigt Hill
#
# Bulk Modulus (GPa) = 35.55280 54.50304 45.02792
# Shear Modulus (GPa) = 20.01580 23.32213 21.66897
#
# Velocity S-wave (km/s) = 3.12247 3.37052 3.24886
# Velocity P-wave (km/s) = 5.50616 6.45725 6.00058
#
# Compressibility (1/GPa) = 0.02812718
#
# Stress axis : x y z
#
# Youngs Moduli (GPa) = 85.13074 26.11513 74.21144
#
# Poissons Ratio (x) = 0.16956 0.31764
# Poissons Ratio (y) = 0.55275 0.51355
# Poissons Ratio (z) = 0.36438 0.18072
#
# Static dielectric constant tensor:
#      x y z
#    x 3.932560 0.000000 0.000000 
#    y 0.000000 3.524570 0.000000 
#    z 0.000000 0.000000 3.556170 
# 
# 
# High freq. dielectric constant tensor:
#      x y z
#    x 1.803670 0.000000 0.000000 
#    y 0.000000 1.777630 0.000000 
#    z 0.000000 0.000000 1.797090 
# 
# From -- ./inp_files/26440.got.cif
#   From: 2010.03.12/outbox.cif.g09.slc.cpg/sg24_14_cif.got.tgz:26440.got - 2010.04.14 03:06:53.
