data_PCOD8164237
_publ_section_title
;
Structure prediction by ZEFSAII (Michael W. Deem and Ramdas Pophale) SiO2 
 PCOD8164237
Probable space group: I 2 2 2
;
_chemical_formula_sum "Si O2"
_cell_formula_units_Z 32
_cell_length_a 5.426328
_cell_length_b 7.298405
_cell_length_c 32.103564
_cell_angle_alpha 90.000000
_cell_angle_beta 90.000000
_cell_angle_gamma 90.000000
_cell_volume 1271.414762
_symmetry_space_group_name_H-M "I 2 2 2"
_symmetry_group_IT_number 23
_symmetry_cell_setting 'orthorhombic'
loop_
_space_group_symop_operation_xyz
x,y,z
-x,-y,z
x,-y,-z
-x,y,-z
1/2+x,1/2+y,1/2+z
1/2-x,1/2-y,1/2+z
1/2+x,1/2-y,1/2-z
1/2-x,1/2+y,1/2-z
loop_
_atom_site_type_symbol
_atom_site_label
_atom_site_fract_x
_atom_site_fract_y
_atom_site_fract_z
Si Si1 0.650700 0.813662 0.891406
Si Si2 0.748718 0.706507 0.982958
Si Si3 0.225640 0.265646 0.224338
Si Si4 0.000000 0.000000 0.333301
Si Si5 0.500000 0.500000 0.334366
O O1 0.741572 0.714608 0.933277
O O2 0.499421 0.674612 0.863217
O O3 0.500000 0.000000 0.900746
O O4 0.892624 0.845807 0.864404
O O5 0.749809 0.500000 0.000000
O O6 0.500000 0.805615 0.000000
O O7 0.000000 0.803622 0.000000
O O8 0.467260 0.221270 0.251691
O O9 0.271151 0.454766 0.198096
O O10 0.711875 0.410336 0.306014
#
# Coordination Sequence:
#
# PCOD8164237 Si02
#       5
#     8   8   8   4   4
#     4  12  28  52  80 119 164 212 271 341 404 490
#     4  10  24  48  79 114 156 205 265 322 399 483
#     4  12  29  51  80 120 161 218 278 341 410 490
#     4  12  27  52  87 110 164 222 270 334 421 486
#     4  12  29  50  77 116 170 204 278 336 413 474
#
# _framework density 25.168813
#
# number of rings (size 3 to 8) (size 9 to 14) (size 15 to 20)
#    0.000    0.500    2.500    3.750    3.500   14.500 
#    0.000    0.000    0.000    0.000    0.000    0.000 
#    0.000    0.000    0.000    0.000    0.000    0.000 
#
# Total GULP energy -198251.240295 kJ/mol
# GULP energy per Si atom -12390.702518 kJ/mol
# Density = 2.511153 g / cm^3
# Si number density = 25.168813 Si / 1000 Ang^3
#
#
#
# Elastic Constant Matrix: (Units=GPa)
#
#
# Indices 1 2 3 4 5 6 
#
# 1 191.7001 27.3320 87.7103 0.0000 -0.0006 0.0000
# 2 27.3320 113.3364 62.3999 0.0000 -0.0040 0.0000
# 3 87.7103 62.3999 207.3646 0.0000 -0.0025 0.0000
# 4 0.0000 0.0000 0.0000 46.5223 -0.0025 0.0000
# 5 -0.0006 -0.0040 -0.0025 -0.0025 870.3459 -0.0002
# 6 0.0000 0.0000 0.0000 0.0000 -0.0002 28.1554
#
#
#
# Elastic Compliance Matrix: (Units=1/GPa)
#
#
# Indices 1 2 3 4 5 6 
#
# 1 0.006469 -0.000064 -0.002717 0.000000 0.000000 0.000000
# 2 -0.000064 0.010576 -0.003155 0.000000 0.000000 0.000000
# 3 -0.002717 -0.003155 0.006921 0.000000 0.000000 0.000000
# 4 0.000000 0.000000 0.000000 0.021495 0.000000 0.000000
# 5 0.000000 0.000000 0.000000 0.000000 0.001149 0.000000
# 6 0.000000 0.000000 0.000000 0.000000 0.000000 0.035517
#
#
# Mechanical properties :
#
#
# Convention : Reuss Voigt Hill
#
# Bulk Modulus (GPa) = 82.69190 96.36504 89.52847
# Shear Modulus (GPa) = 51.00444 211.33532 131.16988
#
# Velocity S-wave (km/s) = 4.50654 9.17330 7.22698
# Velocity P-wave (km/s) = 7.74628 12.27069 10.26096
#
# Compressibility (1/GPa) = 0.01209308
#
# Stress axis : x y z
#
# Youngs Moduli (GPa) = 154.59141 94.55341 144.48639
#
# Poissons Ratio (x) = 0.00607 0.39254
# Poissons Ratio (y) = 0.00992 0.45591
# Poissons Ratio (z) = 0.41999 0.29835
#
# Static dielectric constant tensor:
#      x y z
#    x 5.430650 0.000000 0.000000 
#    y 0.000000 1.910040 0.000000 
#    z 0.000000 0.000000 4.767080 
# 
# 
# High freq. dielectric constant tensor:
#      x y z
#    x 2.011310 0.000000 0.000000 
#    y 0.000000 2.000360 0.000000 
#    z 0.000000 0.000000 2.022480 
# 
# From -- ./inp_files/29837.got.cif
#   From: 2010.03.12/outbox.cif.g09.slc.cpg/sg23_15_cif.got.tgz:29837.got - 2010.04.14 02:50:06.
