data_PCOD8164621
_publ_section_title
;
Structure prediction by ZEFSAII (Michael W. Deem and Ramdas Pophale) SiO2 
 PCOD8164621
Probable space group: I 21 21 21
;
_chemical_formula_sum "Si O2"
_cell_formula_units_Z 52
_cell_length_a 30.315950
_cell_length_b 19.322568
_cell_length_c 5.153484
_cell_angle_alpha 90.000000
_cell_angle_beta 90.000000
_cell_angle_gamma 90.000000
_cell_volume 3018.818192
_symmetry_space_group_name_H-M "I 21 21 21"
_symmetry_group_IT_number 24
_symmetry_cell_setting 'orthorhombic'
loop_
_space_group_symop_operation_xyz
x,y,z
-x,1/2-y,z
x,-y,1/2-z
1/2-x,y,-z
1/2+x,1/2+y,1/2+z
1/2-x,-y,1/2+z
1/2+x,1/2-y,-z
-x,1/2+y,1/2-z
loop_
_atom_site_type_symbol
_atom_site_label
_atom_site_fract_x
_atom_site_fract_y
_atom_site_fract_z
Si Si1 0.433383 0.205847 0.544371
Si Si2 0.524251 0.856672 0.958242
Si Si3 0.700236 0.808422 0.478426
Si Si4 0.113861 0.238879 0.959081
Si Si5 0.799804 0.898815 0.018503
Si Si6 0.862894 0.000000 0.750000
Si Si7 0.571816 0.890067 0.455610
O O1 0.471159 0.147198 0.545524
O O2 0.455995 0.280257 0.544520
O O3 0.400916 0.198314 0.298924
O O4 0.404925 0.195179 0.802114
O O5 0.543515 0.900233 0.717114
O O6 0.537867 0.896098 0.218183
O O7 0.750000 0.779721 0.500000
O O8 0.666814 0.743620 0.494444
O O9 0.692484 0.840459 0.196243
O O10 0.690527 0.865960 0.699687
O O11 0.096111 0.316849 0.956460
O O12 0.833106 0.961301 0.964447
O O13 0.750000 0.927990 0.000000
O O14 0.891832 0.050898 0.925802
#
# Coordination Sequence:
#
# PCOD8164621 Si02
#       7
#     8   8   8   8   8   4   8
#     4   9  17  28  51  64  84 101 135 172 233 279
#     4   9  18  33  43  67  83 106 127 181 235 279
#     4  10  20  35  48  64  89 117 146 193 238 269
#     4  10  17  30  47  68  81 110 140 183 218 282
#     4  10  23  36  48  59  82 117 160 201 235 268
#     4  12  24  36  48  66  84 124 158 200 232 280
#     4  10  21  30  46  60  89 107 145 184 229 273
#
# _framework density 17.225285
#
# number of rings (size 3 to 8) (size 9 to 14) (size 15 to 20)
#    0.000    2.154    1.538    1.846    4.308    8.000 
#    0.000    0.000    0.000    0.000    0.000    0.000 
#    0.000    0.000    0.000    0.000    0.000    0.000 
#
# Total GULP energy -322396.352895 kJ/mol
# GULP energy per Si atom -12399.859727 kJ/mol
# Density = 1.718608 g / cm^3
# Si number density = 17.225285 Si / 1000 Ang^3
#
#
#
# Elastic Constant Matrix: (Units=GPa)
#
#
# Indices 1 2 3 4 5 6 
#
# 1 141.3484 33.3964 55.3688 0.0000 0.0000 0.0000
# 2 33.3964 15.4123 12.6747 0.0000 0.0000 0.0000
# 3 55.3688 12.6747 119.0094 0.0000 0.0000 0.0000
# 4 0.0000 0.0000 0.0000 11.3975 0.0000 0.0000
# 5 0.0000 0.0000 0.0000 0.0000 28.3639 0.0000
# 6 0.0000 0.0000 0.0000 0.0000 0.0000 28.5671
#
#
#
# Elastic Compliance Matrix: (Units=1/GPa)
#
#
# Indices 1 2 3 4 5 6 
#
# 1 0.016178 -0.031637 -0.004157 0.000000 0.000000 0.000000
# 2 -0.031637 0.132978 0.000556 0.000000 0.000000 0.000000
# 3 -0.004157 0.000556 0.010278 0.000000 0.000000 0.000000
# 4 0.000000 0.000000 0.000000 0.087739 0.000000 0.000000
# 5 0.000000 0.000000 0.000000 0.000000 0.035256 0.000000
# 6 0.000000 0.000000 0.000000 0.000000 0.000000 0.035005
#
#
# Mechanical properties :
#
#
# Convention : Reuss Voigt Hill
#
# Bulk Modulus (GPa) = 11.24124 53.18333 32.21229
# Shear Modulus (GPa) = 11.97429 25.28770 18.63099
#
# Velocity S-wave (km/s) = 2.63944 3.83568 3.29235
# Velocity P-wave (km/s) = 3.97858 7.11047 5.76142
#
# Compressibility (1/GPa) = 0.08895818
#
# Stress axis : x y z
#
# Youngs Moduli (GPa) = 61.81210 7.52006 97.29839
#
# Poissons Ratio (x) = 0.23791 0.40451
# Poissons Ratio (y) = 1.95553 -0.05414
# Poissons Ratio (z) = 0.25698 -0.00418
#
# Static dielectric constant tensor:
#      x y z
#    x 3.491480 0.000000 0.000000 
#    y 0.000000 2.602360 0.000000 
#    z 0.000000 0.000000 3.479990 
# 
# 
# High freq. dielectric constant tensor:
#      x y z
#    x 1.670850 0.000000 0.000000 
#    y 0.000000 1.577640 0.000000 
#    z 0.000000 0.000000 1.690930 
# 
# From -- ./inp_files/7239.got.cif
#   From: 2010.03.12/outbox.cif.g09.slc.cpg/sg24_4_cif.got.tgz:7239.got - 2010.04.14 03:06:53.
