data_PCOD8164965
_publ_section_title
;
Structure prediction by ZEFSAII (Michael W. Deem and Ramdas Pophale) SiO2 
 PCOD8164965
Probable space group: I 21 21 21
;
_chemical_formula_sum "Si O2"
_cell_formula_units_Z 36
_cell_length_a 14.886624
_cell_length_b 8.569420
_cell_length_c 15.240885
_cell_angle_alpha 90.000000
_cell_angle_beta 90.000000
_cell_angle_gamma 90.000000
_cell_volume 1944.275637
_symmetry_space_group_name_H-M "I 21 21 21"
_symmetry_group_IT_number 24
_symmetry_cell_setting 'orthorhombic'
loop_
_space_group_symop_operation_xyz
x,y,z
-x,1/2-y,z
x,-y,1/2-z
1/2-x,y,-z
1/2+x,1/2+y,1/2+z
1/2-x,-y,1/2+z
1/2+x,1/2-y,-z
-x,1/2+y,1/2-z
loop_
_atom_site_type_symbol
_atom_site_label
_atom_site_fract_x
_atom_site_fract_y
_atom_site_fract_z
Si Si1 0.412419 0.674907 0.335784
Si Si2 0.172353 0.543934 0.428614
Si Si3 0.267656 0.500000 0.250000
Si Si4 0.984576 0.072433 0.529968
Si Si5 0.150151 0.866248 0.501707
O O1 0.500000 0.750000 0.289862
O O2 0.336291 0.645140 0.262859
O O3 0.445434 0.518753 0.385905
O O4 0.366907 0.791031 0.403830
O O5 0.250000 0.521645 0.500000
O O6 0.205656 0.482408 0.334809
O O7 0.143045 0.727547 0.428686
O O8 0.088073 0.435590 0.451943
O O9 0.000000 0.250000 0.558067
O O10 0.075771 0.999223 0.488840
O O11 0.250000 0.941487 0.500000
#
# Coordination Sequence:
#
# PCOD8164965 Si02
#       5
#     8   8   4   8   8
#     4   9  19  34  57  85 110 148 194 235 290 348
#     4  10  19  36  57  84 112 151 194 231 284 352
#     4  12  18  34  64  82 114 148 196 238 282 352
#     4  10  20  35  57  84 116 149 186 244 295 336
#     4   9  16  36  59  83 108 150 199 228 283 349
#
# _framework density 18.515892000000001
#
# number of rings (size 3 to 8) (size 9 to 14) (size 15 to 20)
#    0.000    2.222    6.667    2.000    0.000    1.778 
#    0.000    2.222    0.000    2.667    0.000    0.000 
#    0.000    0.000    0.000    0.000    0.000    0.000 
#
# Total GULP energy -223034.676833 kJ/mol
# GULP energy per Si atom -12390.815380 kJ/mol
# Density = 1.847375 g / cm^3
# Si number density = 18.515892 Si / 1000 Ang^3
#
#
#
# Elastic Constant Matrix: (Units=GPa)
#
#
# Indices 1 2 3 4 5 6 
#
# 1 111.1397 49.5289 21.8834 0.0000 0.0000 0.0000
# 2 49.5289 76.7872 24.9219 0.0000 0.0000 0.0000
# 3 21.8834 24.9219 76.4300 0.0000 0.0000 0.0000
# 4 0.0000 0.0000 0.0000 11.6075 0.0000 0.0000
# 5 0.0000 0.0000 0.0000 0.0000 35.6257 0.0000
# 6 0.0000 0.0000 0.0000 0.0000 0.0000 32.7988
#
#
#
# Elastic Compliance Matrix: (Units=1/GPa)
#
#
# Indices 1 2 3 4 5 6 
#
# 1 0.012707 -0.007845 -0.001080 0.000000 0.000000 0.000000
# 2 -0.007845 0.019408 -0.004082 0.000000 0.000000 0.000000
# 3 -0.001080 -0.004082 0.014724 0.000000 0.000000 0.000000
# 4 0.000000 0.000000 0.000000 0.086152 0.000000 0.000000
# 5 0.000000 0.000000 0.000000 0.000000 0.028070 0.000000
# 6 0.000000 0.000000 0.000000 0.000000 0.000000 0.030489
#
#
# Mechanical properties :
#
#
# Convention : Reuss Voigt Hill
#
# Bulk Modulus (GPa) = 48.02188 50.78060 49.40124
# Shear Modulus (GPa) = 22.27113 27.20791 24.73952
#
# Velocity S-wave (km/s) = 3.47192 3.83748 3.65927
# Velocity P-wave (km/s) = 6.48568 6.86440 6.67773
#
# Compressibility (1/GPa) = 0.02082384
#
# Stress axis : x y z
#
# Youngs Moduli (GPa) = 78.69911 51.52416 67.91540
#
# Poissons Ratio (x) = 0.40423 0.07335
# Poissons Ratio (y) = 0.61743 0.27725
# Poissons Ratio (z) = 0.08499 0.21034
#
# Static dielectric constant tensor:
#      x y z
#    x 3.936620 0.000000 0.000000 
#    y 0.000000 3.308850 0.000000 
#    z 0.000000 0.000000 3.208710 
# 
# 
# High freq. dielectric constant tensor:
#      x y z
#    x 1.743630 0.000000 0.000000 
#    y 0.000000 1.691880 0.000000 
#    z 0.000000 0.000000 1.682650 
# 
# From -- ./inp_files/12159.got.cif
#   From: 2010.03.12/outbox.cif.g09.slc.cpg/sg24_7_cif.got.tgz:12159.got - 2010.04.14 03:06:53.
