data_PCOD8164268
_publ_section_title
;
Structure prediction by ZEFSAII (Michael W. Deem and Ramdas Pophale) SiO2 
 PCOD8164268
Probable space group: I 2 2 2
;
_chemical_formula_sum "Si O2"
_cell_formula_units_Z 34
_cell_length_a 5.940901
_cell_length_b 14.032504
_cell_length_c 16.587031
_cell_angle_alpha 90.000000
_cell_angle_beta 90.000000
_cell_angle_gamma 90.000000
_cell_volume 1382.789733
_symmetry_space_group_name_H-M "I 2 2 2"
_symmetry_group_IT_number 23
_symmetry_cell_setting 'orthorhombic'
loop_
_space_group_symop_operation_xyz
x,y,z
-x,-y,z
x,-y,-z
-x,y,-z
1/2+x,1/2+y,1/2+z
1/2-x,1/2-y,1/2+z
1/2+x,1/2-y,1/2-z
1/2-x,1/2+y,1/2-z
loop_
_atom_site_type_symbol
_atom_site_label
_atom_site_fract_x
_atom_site_fract_y
_atom_site_fract_z
Si Si1 0.000000 0.306834 0.000000
Si Si2 0.654298 0.147887 0.794322
Si Si3 0.000000 0.000000 0.250367
Si Si4 0.000000 0.000000 0.000000
Si Si5 0.687382 0.150039 0.067166
Si Si6 0.326335 0.856556 0.338302
O O1 0.143044 0.368434 0.064622
O O2 0.834228 0.245258 0.057054
O O3 0.428281 0.134632 0.846811
O O4 0.571411 0.132276 0.702778
O O5 0.744205 0.251470 0.814908
O O6 0.849213 0.068867 0.807485
O O7 0.150481 0.935027 0.309149
O O8 0.150508 0.061029 0.940266
O O9 0.500000 0.149460 0.000000
#
# Coordination Sequence:
#
# PCOD8164268 Si02
#       6
#     4   8   4   2   8   8
#     4  11  26  49  81 113 154 214 258 318 398 456
#     4  12  26  51  81 114 156 210 261 329 395 465
#     4  12  30  51  83 119 153 212 266 324 395 473
#     4  10  26  42  64 116 166 198 252 334 390 476
#     4  11  24  45  73 110 156 207 257 322 397 467
#     4  12  26  52  82 113 161 205 265 327 396 466
#
# _framework density 24.587976999999999
#
# number of rings (size 3 to 8) (size 9 to 14) (size 15 to 20)
#    0.000    0.471    4.706    2.471    0.000    5.647 
#    0.000    3.529    0.000    0.000    0.000    0.000 
#    0.000    0.000    0.000    0.000    0.000    0.000 
#
# Total GULP energy -210806.681515 kJ/mol
# GULP energy per Si atom -12400.393030 kJ/mol
# Density = 2.453201 g / cm^3
# Si number density = 24.587977 Si / 1000 Ang^3
#
#
#
# Elastic Constant Matrix: (Units=GPa)
#
#
# Indices 1 2 3 4 5 6 
#
# 1 120.7856 53.7892 37.8201 0.0000 0.0000 0.0000
# 2 53.7892 128.7648 34.2493 0.0000 0.0000 0.0000
# 3 37.8201 34.2493 117.0487 0.0000 0.0000 0.0000
# 4 0.0000 0.0000 0.0000 20.1674 0.0000 0.0000
# 5 0.0000 0.0000 0.0000 0.0000 47.2277 0.0000
# 6 0.0000 0.0000 0.0000 0.0000 0.0000 35.5304
#
#
#
# Elastic Compliance Matrix: (Units=1/GPa)
#
#
# Indices 1 2 3 4 5 6 
#
# 1 0.010730 -0.003861 -0.002337 0.000000 0.000000 0.000000
# 2 -0.003861 0.009811 -0.001623 0.000000 0.000000 0.000000
# 3 -0.002337 -0.001623 0.009774 0.000000 0.000000 0.000000
# 4 0.000000 0.000000 0.000000 0.049585 0.000000 0.000000
# 5 0.000000 0.000000 0.000000 0.000000 0.021174 0.000000
# 6 0.000000 0.000000 0.000000 0.000000 0.000000 0.028145
#
#
# Mechanical properties :
#
#
# Convention : Reuss Voigt Hill
#
# Bulk Modulus (GPa) = 68.15755 68.70182 68.42969
# Shear Modulus (GPa) = 33.38861 36.63447 35.01154
#
# Velocity S-wave (km/s) = 3.68900 3.86415 3.77759
# Velocity P-wave (km/s) = 6.77680 6.92176 6.84966
#
# Compressibility (1/GPa) = 0.01467189
#
# Stress axis : x y z
#
# Youngs Moduli (GPa) = 93.19408 101.93085 102.31556
#
# Poissons Ratio (x) = 0.39352 0.23916
# Poissons Ratio (y) = 0.35979 0.16608
# Poissons Ratio (z) = 0.21784 0.16546
#
# Static dielectric constant tensor:
#      x y z
#    x 3.311070 0.000000 0.000000 
#    y 0.000000 4.505500 0.000000 
#    z 0.000000 0.000000 4.667990 
# 
# 
# High freq. dielectric constant tensor:
#      x y z
#    x 2.000660 0.000000 0.000000 
#    y 0.000000 1.973330 0.000000 
#    z 0.000000 0.000000 1.979600 
# 
# From -- ./inp_files/2231.got.cif
#   From: 2010.03.12/outbox.cif.g09.slc.cpg/sg23_2_cif.got.tgz:2231.got - 2010.04.14 02:50:06.
