data_PCOD8164674
_publ_section_title
;
Structure prediction by ZEFSAII (Michael W. Deem and Ramdas Pophale) SiO2 
 PCOD8164674
Probable space group: I 21 21 21
;
_chemical_formula_sum "Si O2"
_cell_formula_units_Z 44
_cell_length_a 5.340089
_cell_length_b 16.748678
_cell_length_c 16.485661
_cell_angle_alpha 90.000000
_cell_angle_beta 90.000000
_cell_angle_gamma 90.000000
_cell_volume 1474.468142
_symmetry_space_group_name_H-M "I 21 21 21"
_symmetry_group_IT_number 24
_symmetry_cell_setting 'orthorhombic'
loop_
_space_group_symop_operation_xyz
x,y,z
-x,1/2-y,z
x,-y,1/2-z
1/2-x,y,-z
1/2+x,1/2+y,1/2+z
1/2-x,-y,1/2+z
1/2+x,1/2-y,-z
-x,1/2+y,1/2-z
loop_
_atom_site_type_symbol
_atom_site_label
_atom_site_fract_x
_atom_site_fract_y
_atom_site_fract_z
Si Si1 0.568557 0.908321 0.261330
Si Si2 0.500975 0.424960 0.947326
Si Si3 0.067856 0.157452 0.226476
Si Si4 0.404873 0.094545 0.594591
Si Si5 0.408310 0.339380 0.415229
Si Si6 0.000000 0.250000 0.051438
O O1 0.340339 0.867901 0.312403
O O2 0.640253 0.861265 0.178668
O O3 0.835787 0.898697 0.307739
O O4 0.494799 0.000000 0.250000
O O5 0.508549 0.503268 0.890627
O O6 0.517187 0.335993 0.900515
O O7 0.750000 0.428324 0.000000
O O8 0.250000 0.427892 0.000000
O O9 0.000000 0.250000 0.211508
O O10 0.137491 0.138747 0.320116
O O11 0.624651 0.145002 0.546728
O O12 0.127727 0.100135 0.551793
O O13 0.500000 0.250000 0.425964
O O14 0.750000 0.241121 0.000000
#
# Coordination Sequence:
#
# PCOD8164674 Si02
#       6
#     8   8   8   8   8   4
#     4  10  18  29  48  77  97 118 159 217 245 275
#     4  10  19  32  50  75 100 123 163 205 248 288
#     4  10  19  33  51  72  97 134 173 198 238 294
#     4  10  18  30  51  73  96 130 163 207 234 284
#     4  10  19  33  52  73  95 130 172 197 234 290
#     4   8  16  30  48  70  92 116 152 198 242 286
#
# _framework density 29.841266999999998
#
# number of rings (size 3 to 8) (size 9 to 14) (size 15 to 20)
#    0.000    2.182    0.000    7.091    0.000    0.000 
#    0.000    0.000    0.000   18.545   75.636    0.000 
#    0.000    0.000    0.000    0.000    0.000    0.000 
#
# Total GULP energy -272703.291590 kJ/mol
# GULP energy per Si atom -12395.604163 kJ/mol
# Density = 2.977335 g / cm^3
# Si number density = 29.841267 Si / 1000 Ang^3
#
#
#
# Elastic Constant Matrix: (Units=GPa)
#
#
# Indices 1 2 3 4 5 6 
#
# 1 313.8448 86.9811 44.2449 0.0000 0.0000 0.0000
# 2 86.9811 266.8246 43.4258 0.0000 0.0000 0.0000
# 3 44.2449 43.4258 85.1276 0.0000 0.0000 0.0000
# 4 0.0000 0.0000 0.0000 54.4067 0.0000 0.0000
# 5 0.0000 0.0000 0.0000 0.0000 27.3396 0.0000
# 6 0.0000 0.0000 0.0000 0.0000 0.0000 57.9598
#
#
#
# Elastic Compliance Matrix: (Units=1/GPa)
#
#
# Indices 1 2 3 4 5 6 
#
# 1 0.003651 -0.000961 -0.001407 0.000000 0.000000 0.000000
# 2 -0.000961 0.004340 -0.001714 0.000000 0.000000 0.000000
# 3 -0.001407 -0.001714 0.013353 0.000000 0.000000 0.000000
# 4 0.000000 0.000000 0.000000 0.018380 0.000000 0.000000
# 5 0.000000 0.000000 0.000000 0.000000 0.036577 0.000000
# 6 0.000000 0.000000 0.000000 0.000000 0.000000 0.017253
#
#
# Mechanical properties :
#
#
# Convention : Reuss Voigt Hill
#
# Bulk Modulus (GPa) = 75.88147 112.78895 94.33521
# Shear Modulus (GPa) = 47.11937 60.68423 53.90180
#
# Velocity S-wave (km/s) = 3.97797 4.51440 4.25465
# Velocity P-wave (km/s) = 6.82515 8.06545 7.47108
#
# Compressibility (1/GPa) = 0.01317845
#
# Stress axis : x y z
#
# Youngs Moduli (GPa) = 273.89237 230.40779 74.88888
#
# Poissons Ratio (x) = 0.22146 0.10539
# Poissons Ratio (y) = 0.26325 0.12839
# Poissons Ratio (z) = 0.38546 0.39502
#
# Static dielectric constant tensor:
#      x y z
#    x 6.899980 0.000000 0.000000 
#    y 0.000000 5.771130 0.000000 
#    z 0.000000 0.000000 5.931750 
# 
# 
# High freq. dielectric constant tensor:
#      x y z
#    x 2.282680 0.000000 0.000000 
#    y 0.000000 2.221620 0.000000 
#    z 0.000000 0.000000 2.275380 
# 
# From -- ./inp_files/23837.got.cif
#   From: 2010.03.12/outbox.cif.g09.slc.cpg/sg24_12_cif.got.tgz:23837.got - 2010.04.14 03:06:53.
