data_PCOD8164417
_publ_section_title
;
Structure prediction by ZEFSAII (Michael W. Deem and Ramdas Pophale) SiO2 
 PCOD8164417
Probable space group: I 2 2 2
;
_chemical_formula_sum "Si O2"
_cell_formula_units_Z 32
_cell_length_a 13.260660
_cell_length_b 12.279378
_cell_length_c 8.302308
_cell_angle_alpha 90.000000
_cell_angle_beta 90.000000
_cell_angle_gamma 90.000000
_cell_volume 1351.886868
_symmetry_space_group_name_H-M "I 2 2 2"
_symmetry_group_IT_number 23
_symmetry_cell_setting 'orthorhombic'
loop_
_space_group_symop_operation_xyz
x,y,z
-x,-y,z
x,-y,-z
-x,y,-z
1/2+x,1/2+y,1/2+z
1/2-x,1/2-y,1/2+z
1/2+x,1/2-y,1/2-z
1/2-x,1/2+y,1/2-z
loop_
_atom_site_type_symbol
_atom_site_label
_atom_site_fract_x
_atom_site_fract_y
_atom_site_fract_z
Si Si1 0.166008 0.000000 0.500000
Si Si2 0.527757 0.124974 0.822747
Si Si3 0.500000 0.500000 0.254710
Si Si4 0.896355 0.783529 0.136102
Si Si5 0.214330 0.311710 0.851319
O O1 0.094115 0.960228 0.354111
O O2 0.242319 0.902895 0.531612
O O3 0.475574 0.188827 0.675602
O O4 0.647033 0.137306 0.792345
O O5 0.500000 0.000000 0.811685
O O6 0.500000 0.172592 0.000000
O O7 0.454632 0.600312 0.358282
O O8 0.810901 0.759606 0.267540
O O9 0.849559 0.774605 0.957207
#
# Coordination Sequence:
#
# PCOD8164417 Si02
#       5
#     4   8   4   8   8
#     4   9  20  40  71 100 138 192 243 286 357 430
#     4  11  25  45  70 100 136 179 236 298 351 418
#     4   9  22  40  69 104 147 191 228 300 360 430
#     4  11  24  42  72 103 145 183 239 289 360 430
#     4  11  23  42  71 103 135 188 233 290 349 429
#
# _framework density 23.670621000000001
#
# number of rings (size 3 to 8) (size 9 to 14) (size 15 to 20)
#    0.000    1.500    0.000    3.750   10.500    1.000 
#    0.000    2.500    5.500    0.000    0.000    0.000 
#    0.000    0.000    0.000    0.000    0.000    0.000 
#
# Total GULP energy -198338.541132 kJ/mol
# GULP energy per Si atom -12396.158821 kJ/mol
# Density = 2.361675 g / cm^3
# Si number density = 23.670621 Si / 1000 Ang^3
#
#
#
# Elastic Constant Matrix: (Units=GPa)
#
#
# Indices 1 2 3 4 5 6 
#
# 1 139.1015 54.7572 58.1128 0.0000 0.0000 0.0000
# 2 54.7572 93.6207 40.5751 0.0000 0.0000 0.0000
# 3 58.1128 40.5751 108.1183 0.0000 0.0000 0.0000
# 4 0.0000 0.0000 0.0000 -9.0334 0.0000 0.0000
# 5 0.0000 0.0000 0.0000 0.0000 38.7411 0.0000
# 6 0.0000 0.0000 0.0000 0.0000 0.0000 15.4205
#
#
#
# Elastic Compliance Matrix: (Units=1/GPa)
#
#
# Indices 1 2 3 4 5 6 
#
# 1 0.010636 -0.004470 -0.004039 0.000000 0.000000 0.000000
# 2 -0.004470 0.014635 -0.003090 0.000000 0.000000 0.000000
# 3 -0.004039 -0.003090 0.012580 0.000000 0.000000 0.000000
# 4 0.000000 0.000000 0.000000 -0.110701 0.000000 0.000000
# 5 0.000000 0.000000 0.000000 0.000000 0.025812 0.000000
# 6 0.000000 0.000000 0.000000 0.000000 0.000000 0.064849
#
#
# Mechanical properties :
#
#
# Convention : Reuss Voigt Hill
#
# Bulk Modulus (GPa) = 68.24695 71.97010 70.10853
# Shear Modulus (GPa) = 108.94714 21.51866 65.23290
#
# Velocity S-wave (km/s) = 6.79163 3.01838 5.25532
# Velocity P-wave (km/s) = 9.50769 6.52827 8.15520
#
# Compressibility (1/GPa) = 0.01465267
#
# Stress axis : x y z
#
# Youngs Moduli (GPa) = 94.01825 68.32921 79.49353
#
# Poissons Ratio (x) = 0.30546 0.32109
# Poissons Ratio (y) = 0.42029 0.24560
# Poissons Ratio (z) = 0.37976 0.21110
#
# Static dielectric constant tensor:
#      x y z
#    x 4.667420 0.000000 0.000000 
#    y 0.000000 4.033870 0.000000 
#    z 0.000000 0.000000 4.522860 
# 
# 
# High freq. dielectric constant tensor:
#      x y z
#    x 1.968670 0.000000 0.000000 
#    y 0.000000 1.919870 0.000000 
#    z 0.000000 0.000000 1.943490 
# 
# From -- ./inp_files/7962.got.cif
#   From: 2010.03.12/outbox.cif.g09.slc.cpg/sg23_4_cif.got.tgz:7962.got - 2010.04.14 02:50:06.
