data_PCOD8164708
_publ_section_title
;
Structure prediction by ZEFSAII (Michael W. Deem and Ramdas Pophale) SiO2 
 PCOD8164708
Probable space group: I 21 21 21
;
_chemical_formula_sum "Si O2"
_cell_formula_units_Z 64
_cell_length_a 5.334628
_cell_length_b 23.586398
_cell_length_c 24.268175
_cell_angle_alpha 90.000000
_cell_angle_beta 90.000000
_cell_angle_gamma 90.000000
_cell_volume 3053.534849
_symmetry_space_group_name_H-M "I 21 21 21"
_symmetry_group_IT_number 24
_symmetry_cell_setting 'orthorhombic'
loop_
_space_group_symop_operation_xyz
x,y,z
-x,1/2-y,z
x,-y,1/2-z
1/2-x,y,-z
1/2+x,1/2+y,1/2+z
1/2-x,-y,1/2+z
1/2+x,1/2-y,-z
-x,1/2+y,1/2-z
loop_
_atom_site_type_symbol
_atom_site_label
_atom_site_fract_x
_atom_site_fract_y
_atom_site_fract_z
Si Si1 0.250000 0.939345 0.279510
Si Si2 0.250000 0.723015 0.195781
Si Si3 0.250000 0.913661 0.592707
Si Si4 0.250000 0.723714 0.322970
Si Si5 0.250000 0.388261 0.120155
Si Si6 0.250000 0.401621 0.272894
Si Si7 0.750000 0.023652 0.624555
Si Si8 0.250000 0.967625 0.060783
O O1 0.250000 0.943064 0.345774
O O2 0.497957 0.903933 0.263643
O O3 0.002043 0.903933 0.263643
O O4 0.250000 0.000000 0.250000
O O5 0.500000 0.750000 0.167745
O O6 0.250000 0.740919 0.259505
O O7 0.250000 0.655141 0.189946
O O8 0.000000 0.750000 0.167745
O O9 0.498646 0.875435 0.584827
O O10 0.001354 0.875435 0.584827
O O11 0.250000 0.964757 0.549733
O O12 0.500000 0.750000 0.351147
O O13 0.250000 0.655029 0.328146
O O14 0.000000 0.750000 0.351147
O O15 0.250000 0.455722 0.133007
O O16 0.250000 0.455162 0.313292
O O17 0.504291 0.048196 0.593417
O O18 0.995709 0.048195 0.593417
O O19 0.250000 0.938773 0.000000
#
# Coordination Sequence:
#
# PCOD8164708 Si02
#       8
#     8   8   8   8   8   8   8   8
#     4  12  21  31  48  76 110 146 174 204 251 307
#     4  10  21  35  49  68  98 140 186 222 251 297
#     4  10  19  30  47  70  98 131 171 207 248 304
#     4  10  19  30  45  65  94 137 182 214 243 283
#     4  10  18  32  47  67 101 130 163 220 258 289
#     4  12  23  36  54  77 111 149 181 213 262 314
#     4  10  21  36  54  81 107 133 173 212 256 322
#     4  10  20  36  54  74 106 138 166 210 264 316
#
# _framework density 20.959313999999999
#
# number of rings (size 3 to 8) (size 9 to 14) (size 15 to 20)
#    0.000    1.500    0.000    8.250    0.000    2.000 
#    0.000    0.000    0.000    0.000    0.000    0.000 
#    0.000  170.000    0.000    0.000    0.000    0.000 
#
# Total GULP energy -396479.341035 kJ/mol
# GULP energy per Si atom -12389.979407 kJ/mol
# Density = 2.091161 g / cm^3
# Si number density = 20.959314 Si / 1000 Ang^3
#
#
#
# Elastic Constant Matrix: (Units=GPa)
#
#
# Indices 1 2 3 4 5 6 
#
# 1 224.0325 24.8196 11.5081 0.0000 0.0000 0.0000
# 2 24.8196 72.6439 -5.3113 0.0000 0.0000 0.0000
# 3 11.5081 -5.3113 47.2449 0.0000 0.0000 0.0000
# 4 0.0000 0.0000 0.0000 8.0405 0.0000 0.0000
# 5 0.0000 0.0000 0.0000 0.0000 15.4663 0.0000
# 6 0.0000 0.0000 0.0000 0.0000 0.0000 25.7352
#
#
#
# Elastic Compliance Matrix: (Units=1/GPa)
#
#
# Indices 1 2 3 4 5 6 
#
# 1 0.004722 -0.001712 -0.001343 0.000000 0.000000 0.000000
# 2 -0.001712 0.014500 0.002047 0.000000 0.000000 0.000000
# 3 -0.001343 0.002047 0.021723 0.000000 0.000000 0.000000
# 4 0.000000 0.000000 0.000000 0.124370 0.000000 0.000000
# 5 0.000000 0.000000 0.000000 0.000000 0.064657 0.000000
# 6 0.000000 0.000000 0.000000 0.000000 0.000000 0.038857
#
#
# Mechanical properties :
#
#
# Convention : Reuss Voigt Hill
#
# Bulk Modulus (GPa) = 25.68615 45.10602 35.39608
# Shear Modulus (GPa) = 17.61672 30.70873 24.16272
#
# Velocity S-wave (km/s) = 2.90232 3.83189 3.39903
# Velocity P-wave (km/s) = 4.84903 6.41446 5.68588
#
# Compressibility (1/GPa) = 0.03893149
#
# Stress axis : x y z
#
# Youngs Moduli (GPa) = 211.76450 68.96447 46.03315
#
# Poissons Ratio (x) = 0.11804 0.06181
# Poissons Ratio (y) = 0.36245 -0.09423
# Poissons Ratio (z) = 0.28433 -0.14117
#
# Static dielectric constant tensor:
#      x y z
#    x 5.453780 0.000000 0.000000 
#    y 0.000000 3.380580 0.000000 
#    z 0.000000 0.000000 3.164820 
# 
# 
# High freq. dielectric constant tensor:
#      x y z
#    x 1.873230 0.000000 0.000000 
#    y 0.000000 1.782220 0.000000 
#    z 0.000000 0.000000 1.751920 
# 
# From -- ./inp_files/36150.got.cif
#   From: 2010.03.12/outbox.cif.g09.slc.cpg/sg24_19_cif.got.tgz:36150.got - 2010.04.14 03:06:53.
