data_PCOD8164754
_publ_section_title
;
Structure prediction by ZEFSAII (Michael W. Deem and Ramdas Pophale) SiO2 
 PCOD8164754
Probable space group: I 21 21 21
;
_chemical_formula_sum "Si O2"
_cell_formula_units_Z 48
_cell_length_a 10.876407
_cell_length_b 7.351280
_cell_length_c 31.675037
_cell_angle_alpha 90.000000
_cell_angle_beta 90.000000
_cell_angle_gamma 90.000000
_cell_volume 2532.593841
_symmetry_space_group_name_H-M "I 21 21 21"
_symmetry_group_IT_number 24
_symmetry_cell_setting 'orthorhombic'
loop_
_space_group_symop_operation_xyz
x,y,z
-x,1/2-y,z
x,-y,1/2-z
1/2-x,y,-z
1/2+x,1/2+y,1/2+z
1/2-x,-y,1/2+z
1/2+x,1/2-y,-z
-x,1/2+y,1/2-z
loop_
_atom_site_type_symbol
_atom_site_label
_atom_site_fract_x
_atom_site_fract_y
_atom_site_fract_z
Si Si1 0.730655 0.733000 0.863351
Si Si2 0.321525 0.109770 0.181547
Si Si3 0.500000 0.750000 0.811856
Si Si4 0.307493 0.750497 0.045345
Si Si5 0.996261 0.953878 0.562174
Si Si6 0.574358 0.975320 0.344099
Si Si7 0.352506 0.000000 0.750000
O O1 0.746474 0.522940 0.850061
O O2 0.609500 0.822035 0.842198
O O3 0.716264 0.749605 0.914118
O O4 0.851978 0.835833 0.845330
O O5 0.328525 0.312666 0.162664
O O6 0.241755 0.130191 0.224432
O O7 0.461510 0.032222 0.189808
O O8 0.556231 0.597227 0.782046
O O9 0.376455 0.558067 0.045984
O O10 0.387499 0.931517 0.047880
O O11 0.250000 0.763284 0.000000
O O12 0.000000 0.750000 0.542912
O O13 0.998678 0.945374 0.612512
#
# Coordination Sequence:
#
# PCOD8164754 Si02
#       7
#     8   8   4   8   8   8   4
#     4  10  20  38  59  81 115 158 195 232 292 366
#     4  10  19  37  57  87 112 140 191 246 300 349
#     4  10  24  40  58  74 120 170 196 230 288 364
#     4  10  21  34  58  89 118 150 195 252 304 360
#     4  10  18  35  58  82 114 149 189 244 306 355
#     4  10  18  34  64  85 105 144 187 245 303 344
#     4  10  24  40  52  84 118 154 200 250 288 352
#
# _framework density 18.952901000000001
#
# number of rings (size 3 to 8) (size 9 to 14) (size 15 to 20)
#    0.000    2.000    3.333    0.500    2.333    2.000 
#   12.000    0.000    0.000    0.000    0.000    0.000 
#    0.000    0.000    0.000    0.000    0.000    0.000 
#
# Total GULP energy -297372.137057 kJ/mol
# GULP energy per Si atom -12390.505711 kJ/mol
# Density = 1.890976 g / cm^3
# Si number density = 18.952901 Si / 1000 Ang^3
#
#
#
# Elastic Constant Matrix: (Units=GPa)
#
#
# Indices 1 2 3 4 5 6 
#
# 1 89.6470 21.7909 61.7312 0.0000 0.0000 0.0000
# 2 21.7909 99.6193 34.7182 0.0000 0.0000 0.0000
# 3 61.7312 34.7182 122.1443 0.0000 0.0000 0.0000
# 4 0.0000 0.0000 0.0000 19.2205 0.0000 0.0000
# 5 0.0000 0.0000 0.0000 0.0000 -36.8636 0.0000
# 6 0.0000 0.0000 0.0000 0.0000 0.0000 25.8232
#
#
#
# Elastic Compliance Matrix: (Units=1/GPa)
#
#
# Indices 1 2 3 4 5 6 
#
# 1 0.017168 -0.000812 -0.008446 0.000000 0.000000 0.000000
# 2 -0.000812 0.011180 -0.002768 0.000000 0.000000 0.000000
# 3 -0.008446 -0.002768 0.013242 0.000000 0.000000 0.000000
# 4 0.000000 0.000000 0.000000 0.052028 0.000000 0.000000
# 5 0.000000 0.000000 0.000000 0.000000 -0.027127 0.000000
# 6 0.000000 0.000000 0.000000 0.000000 0.000000 0.038725
#
#
# Mechanical properties :
#
#
# Convention : Reuss Voigt Hill
#
# Bulk Modulus (GPa) = 57.01287 60.87681 58.94484
# Shear Modulus (GPa) = 37.00584 14.51402 25.75993
#
# Velocity S-wave (km/s) = 4.42352 2.77030 3.69067
# Velocity P-wave (km/s) = 7.49911 6.51326 7.02350
#
# Compressibility (1/GPa) = 0.01753990
#
# Stress axis : x y z
#
# Youngs Moduli (GPa) = 58.24758 89.44280 75.51609
#
# Poissons Ratio (x) = 0.07262 0.63780
# Poissons Ratio (y) = 0.04729 0.20899
# Poissons Ratio (z) = 0.49195 0.24754
#
# Static dielectric constant tensor:
#      x y z
#    x 3.588550 0.000000 0.000000 
#    y 0.000000 5.489400 0.000000 
#    z 0.000000 0.000000 3.492150 
# 
# 
# High freq. dielectric constant tensor:
#      x y z
#    x 1.729690 0.000000 0.000000 
#    y 0.000000 1.735810 0.000000 
#    z 0.000000 0.000000 1.723550 
# 
# From -- ./inp_files/38549.got.cif
#   From: 2010.03.12/outbox.cif.g09.slc.cpg/sg24_20_cif.got.tgz:38549.got - 2010.04.14 03:06:53.
