data_PCOD8164571
_publ_section_title
;
Structure prediction by ZEFSAII (Michael W. Deem and Ramdas Pophale) SiO2 
 PCOD8164571
Probable space group: I 21 21 21
;
_chemical_formula_sum "Si O2"
_cell_formula_units_Z 48
_cell_length_a 28.609895
_cell_length_b 12.718599
_cell_length_c 5.329075
_cell_angle_alpha 90.000000
_cell_angle_beta 90.000000
_cell_angle_gamma 90.000000
_cell_volume 1939.131991
_symmetry_space_group_name_H-M "I 21 21 21"
_symmetry_group_IT_number 24
_symmetry_cell_setting 'orthorhombic'
loop_
_space_group_symop_operation_xyz
x,y,z
-x,1/2-y,z
x,-y,1/2-z
1/2-x,y,-z
1/2+x,1/2+y,1/2+z
1/2-x,-y,1/2+z
1/2+x,1/2-y,-z
-x,1/2+y,1/2-z
loop_
_atom_site_type_symbol
_atom_site_label
_atom_site_fract_x
_atom_site_fract_y
_atom_site_fract_z
Si Si1 0.200147 0.089130 0.079472
Si Si2 0.020466 0.631200 0.131062
Si Si3 0.517592 0.629510 0.366747
Si Si4 0.278305 0.320446 0.751213
Si Si5 0.378010 0.310870 0.709581
Si Si6 0.619989 0.678922 0.291989
O O1 0.209606 0.197116 0.229323
O O2 0.175640 0.000000 0.250000
O O3 0.250000 0.041953 0.000000
O O4 0.166000 0.108182 0.842326
O O5 0.997888 0.573950 0.373107
O O6 0.076475 0.620270 0.153908
O O7 0.000000 0.750000 0.112422
O O8 0.006454 0.573278 0.872753
O O9 0.500000 0.750000 0.386222
O O10 0.572468 0.613563 0.317423
O O11 0.250000 0.345881 0.500000
O O12 0.329115 0.377077 0.719168
O O13 0.250000 0.358993 0.000000
O O14 0.374804 0.224757 0.486711
O O15 0.383907 0.264378 0.987243
#
# Coordination Sequence:
#
# PCOD8164571 Si02
#       6
#     8   8   8   8   8   8
#     4  10  21  34  46  56  73 102 143 186 220 248
#     4  10  15  24  39  59  80  98 110 139 190 256
#     4  10  15  25  39  61  83  95 110 143 197 262
#     4  10  20  32  42  56  72  96 130 171 207 241
#     4  11  17  27  43  59  77  97 122 151 199 256
#     4  11  19  28  44  61  75  97 125 161 210 260
#
# _framework density 24.753346000000001
#
# number of rings (size 3 to 8) (size 9 to 14) (size 15 to 20)
#    0.000    1.667    6.667    3.500    0.000    1.333 
#    0.000    0.000    0.000    0.000    0.000    0.000 
#    0.000    0.000    0.000    0.000    0.000    0.000 
#
# Total GULP energy -297370.299762 kJ/mol
# GULP energy per Si atom -12390.429157 kJ/mol
# Density = 2.469701 g / cm^3
# Si number density = 24.753346 Si / 1000 Ang^3
#
#
#
# Elastic Constant Matrix: (Units=GPa)
#
#
# Indices 1 2 3 4 5 6 
#
# 1 235.1935 -2.2208 53.4703 0.0002 0.0001 0.0001
# 2 -2.2208 27.3994 15.4980 0.0001 0.0000 0.0000
# 3 53.4703 15.4980 172.6202 0.0011 0.0001 0.0005
# 4 0.0002 0.0001 0.0011 23.1619 0.0001 0.0001
# 5 0.0001 0.0000 0.0001 0.0001 52.0541 0.0001
# 6 0.0001 0.0000 0.0005 0.0001 0.0001 -20.1482
#
#
#
# Elastic Compliance Matrix: (Units=1/GPa)
#
#
# Indices 1 2 3 4 5 6 
#
# 1 0.004614 0.001246 -0.001541 0.000000 0.000000 0.000000
# 2 0.001246 0.038786 -0.003868 0.000000 0.000000 0.000000
# 3 -0.001541 -0.003868 0.006618 0.000000 0.000000 0.000000
# 4 0.000000 0.000000 0.000000 0.043174 0.000000 0.000000
# 5 0.000000 0.000000 0.000000 0.000000 0.019211 0.000000
# 6 0.000000 0.000000 0.000000 0.000000 0.000000 -0.049632
#
#
# Mechanical properties :
#
#
# Convention : Reuss Voigt Hill
#
# Bulk Modulus (GPa) = 23.98620 63.18979 43.58799
# Shear Modulus (GPa) = 58.82747 35.57794 47.20270
#
# Velocity S-wave (km/s) = 4.88027 3.79528 4.37157
# Velocity P-wave (km/s) = 6.43950 6.69244 6.56719
#
# Compressibility (1/GPa) = 0.04169065
#
# Stress axis : x y z
#
# Youngs Moduli (GPa) = 216.73508 25.78251 151.11019
#
# Poissons Ratio (x) = -0.03212 0.23287
# Poissons Ratio (y) = -0.26997 0.58451
# Poissons Ratio (z) = 0.33400 0.09973
#
# Static dielectric constant tensor:
#      x y z
#    x 5.158000 0.000000 0.000000 
#    y 0.000000 3.654830 0.000000 
#    z 0.000000 0.000000 5.420450 
# 
# 
# High freq. dielectric constant tensor:
#      x y z
#    x 2.003840 0.000000 0.000000 
#    y 0.000000 1.935620 0.000000 
#    z 0.000000 0.000000 2.017480 
# 
# From -- ./inp_files/7196.got.cif
#   From: 2010.03.12/outbox.cif.g09.slc.cpg/sg24_4_cif.got.tgz:7196.got - 2010.04.14 03:06:53.
