data_PCOD8164930
_publ_section_title
;
Structure prediction by ZEFSAII (Michael W. Deem and Ramdas Pophale) SiO2 
 PCOD8164930
Probable space group: I 21 21 21
;
_chemical_formula_sum "Si O2"
_cell_formula_units_Z 60
_cell_length_a 15.998938
_cell_length_b 21.588530
_cell_length_c 9.060746
_cell_angle_alpha 90.000000
_cell_angle_beta 90.000000
_cell_angle_gamma 90.000000
_cell_volume 3129.523254
_symmetry_space_group_name_H-M "I 21 21 21"
_symmetry_group_IT_number 24
_symmetry_cell_setting 'orthorhombic'
loop_
_space_group_symop_operation_xyz
x,y,z
-x,1/2-y,z
x,-y,1/2-z
1/2-x,y,-z
1/2+x,1/2+y,1/2+z
1/2-x,-y,1/2+z
1/2+x,1/2-y,-z
-x,1/2+y,1/2-z
loop_
_atom_site_type_symbol
_atom_site_label
_atom_site_fract_x
_atom_site_fract_y
_atom_site_fract_z
Si Si1 0.098599 0.515363 0.082373
Si Si2 0.465811 0.613829 0.518163
Si Si3 0.652754 0.198387 0.631458
Si Si4 0.842010 0.223129 0.050485
Si Si5 0.750000 0.906207 0.000000
Si Si6 0.011720 0.123771 0.340907
Si Si7 0.341968 0.180120 0.474793
Si Si8 0.564007 0.697024 0.317908
O O1 0.131757 0.500000 0.250000
O O2 0.070635 0.454616 0.993738
O O3 0.169778 0.548936 0.981179
O O4 0.016322 0.557712 0.093835
O O5 0.386683 0.657545 0.539252
O O6 0.523453 0.617773 0.664517
O O7 0.516224 0.635593 0.373829
O O8 0.661222 0.240863 0.777079
O O9 0.721523 0.141917 0.630591
O O10 0.559241 0.173027 0.617853
O O11 0.663969 0.245737 0.496961
O O12 0.750000 0.211836 0.000000
O O13 0.887091 0.276626 0.959186
O O14 0.097870 0.144793 0.412655
O O15 0.250000 0.150800 0.500000
O O16 0.373560 0.172927 0.307280
O O17 0.500000 0.750000 0.258784
#
# Coordination Sequence:
#
# PCOD8164930 Si02
#       8
#     8   8   8   8   4   8   8   8
#     4   9  19  38  58  82 114 160 199 239 280 352
#     4   9  19  37  58  78 110 157 197 232 284 352
#     4  10  19  35  54  82 119 155 189 226 287 362
#     4  10  20  33  55  83 117 151 188 237 290 346
#     4  10  20  34  56  90 124 146 202 232 274 348
#     4   9  19  36  59  77 108 155 196 231 286 354
#     4  12  22  35  57  82 111 146 192 251 300 343
#     4  10  21  36  53  83 117 148 193 241 294 345
#
# _framework density 19.172249999999998
#
# number of rings (size 3 to 8) (size 9 to 14) (size 15 to 20)
#    0.000    2.133    0.667    3.600    0.933    2.133 
#    2.400    0.667    0.000    5.600    0.000    0.000 
#    0.000    0.000    0.000    0.000    0.000    0.000 
#
# Total GULP energy -371802.398189 kJ/mol
# GULP energy per Si atom -12393.413273 kJ/mol
# Density = 1.912861 g / cm^3
# Si number density = 19.172250 Si / 1000 Ang^3
#
#
#
# Elastic Constant Matrix: (Units=GPa)
#
#
# Indices 1 2 3 4 5 6 
#
# 1 122.7847 36.8382 38.0299 0.0000 0.0000 0.0000
# 2 36.8382 82.5671 9.8304 0.0000 0.0000 0.0000
# 3 38.0299 9.8304 29.4866 0.0000 0.0000 0.0000
# 4 0.0000 0.0000 0.0000 19.2180 0.0000 0.0000
# 5 0.0000 0.0000 0.0000 0.0000 25.8113 0.0000
# 6 0.0000 0.0000 0.0000 0.0000 0.0000 35.6202
#
#
#
# Elastic Compliance Matrix: (Units=1/GPa)
#
#
# Indices 1 2 3 4 5 6 
#
# 1 0.015066 -0.004591 -0.017901 0.000000 0.000000 0.000000
# 2 -0.004591 0.014011 0.001250 0.000000 0.000000 0.000000
# 3 -0.017901 0.001250 0.056584 0.000000 0.000000 0.000000
# 4 0.000000 0.000000 0.000000 0.052035 0.000000 0.000000
# 5 0.000000 0.000000 0.000000 0.000000 0.038743 0.000000
# 6 0.000000 0.000000 0.000000 0.000000 0.000000 0.028074
#
#
# Mechanical properties :
#
#
# Convention : Reuss Voigt Hill
#
# Bulk Modulus (GPa) = 23.16004 44.91504 34.03754
# Shear Modulus (GPa) = 19.12865 26.13922 22.63393
#
# Velocity S-wave (km/s) = 3.16211 3.69641 3.43965
# Velocity P-wave (km/s) = 5.04362 6.45724 5.79371
#
# Compressibility (1/GPa) = 0.04317781
#
# Stress axis : x y z
#
# Youngs Moduli (GPa) = 66.37475 71.37396 17.67274
#
# Poissons Ratio (x) = 0.32765 0.31635
# Poissons Ratio (y) = 0.30470 -0.02209
# Poissons Ratio (z) = 1.18815 -0.08920
#
# Static dielectric constant tensor:
#      x y z
#    x 3.503610 0.000000 0.000000 
#    y 0.000000 3.484970 0.000000 
#    z 0.000000 0.000000 3.497520 
# 
# 
# High freq. dielectric constant tensor:
#      x y z
#    x 1.739330 0.000000 0.000000 
#    y 0.000000 1.732180 0.000000 
#    z 0.000000 0.000000 1.735500 
# 
# From -- ./inp_files/13332.got.cif
#   From: 2010.03.12/outbox.cif.g09.slc.cpg/sg24_7_cif.got.tgz:13332.got - 2010.04.14 03:06:53.
