data_PCOD8164185
_publ_section_title
;
Structure prediction by ZEFSAII (Michael W. Deem and Ramdas Pophale) SiO2 
 PCOD8164185
Probable space group: I 2 2 2
;
_chemical_formula_sum "Si O2"
_cell_formula_units_Z 32
_cell_length_a 7.440664
_cell_length_b 8.060513
_cell_length_c 21.925522
_cell_angle_alpha 90.000000
_cell_angle_beta 90.000000
_cell_angle_gamma 90.000000
_cell_volume 1314.995655
_symmetry_space_group_name_H-M "I 2 2 2"
_symmetry_group_IT_number 23
_symmetry_cell_setting 'orthorhombic'
loop_
_space_group_symop_operation_xyz
x,y,z
-x,-y,z
x,-y,-z
-x,y,-z
1/2+x,1/2+y,1/2+z
1/2-x,1/2-y,1/2+z
1/2+x,1/2-y,1/2-z
1/2-x,1/2+y,1/2-z
loop_
_atom_site_type_symbol
_atom_site_label
_atom_site_fract_x
_atom_site_fract_y
_atom_site_fract_z
Si Si1 0.324151 0.107905 0.268197
Si Si2 0.068652 0.184755 0.874784
Si Si3 0.559535 0.811830 0.933269
Si Si4 0.282767 0.679223 0.844182
O O1 0.356271 0.276611 0.306953
O O2 0.251688 0.166337 0.202880
O O3 0.500000 0.000000 0.256171
O O4 0.190487 0.993050 0.307871
O O5 0.226172 0.212258 0.924816
O O6 0.899626 0.311774 0.885632
O O7 0.000000 0.000000 0.881591
O O8 0.459494 0.697144 0.884409
O O9 0.500000 0.000000 0.921878
O O10 0.500000 0.751963 0.000000
#
# Coordination Sequence:
#
# PCOD8164185 Si02
#       4
#     8   8   8   8
#     4  10  24  41  68 107 145 187 231 291 366 429
#     4  11  23  42  68  99 136 184 225 286 358 418
#     4  11  25  45  69 102 134 184 245 297 358 433
#     4  11  23  44  66 102 143 180 234 290 354 434
#
# _framework density 24.334682000000001
#
# number of rings (size 3 to 8) (size 9 to 14) (size 15 to 20)
#    0.000    1.250    2.500    2.250    7.000    2.000 
#    0.000    2.500    0.000    4.500    0.000    0.000 
#    0.000    0.000    0.000    0.000    0.000    0.000 
#
# Total GULP energy -198349.097817 kJ/mol
# GULP energy per Si atom -12396.818614 kJ/mol
# Density = 2.427930 g / cm^3
# Si number density = 24.334682 Si / 1000 Ang^3
#
#
#
# Elastic Constant Matrix: (Units=GPa)
#
#
# Indices 1 2 3 4 5 6 
#
# 1 139.9959 40.0711 63.2574 0.0000 0.0000 0.0000
# 2 40.0711 73.6246 46.5690 0.0000 0.0000 0.0000
# 3 63.2574 46.5690 118.6747 0.0000 0.0000 0.0000
# 4 0.0000 0.0000 0.0000 14.1127 0.0000 0.0000
# 5 0.0000 0.0000 0.0000 0.0000 36.2528 0.0000
# 6 0.0000 0.0000 0.0000 0.0000 0.0000 32.6855
#
#
#
# Elastic Compliance Matrix: (Units=1/GPa)
#
#
# Indices 1 2 3 4 5 6 
#
# 1 0.009797 -0.002699 -0.004163 0.000000 0.000000 0.000000
# 2 -0.002699 0.018810 -0.005943 0.000000 0.000000 0.000000
# 3 -0.004163 -0.005943 0.012977 0.000000 0.000000 0.000000
# 4 0.000000 0.000000 0.000000 0.070858 0.000000 0.000000
# 5 0.000000 0.000000 0.000000 0.000000 0.027584 0.000000
# 6 0.000000 0.000000 0.000000 0.000000 0.000000 0.030595
#
#
# Mechanical properties :
#
#
# Convention : Reuss Voigt Hill
#
# Bulk Modulus (GPa) = 62.59677 70.23225 66.41451
# Shear Modulus (GPa) = 24.80715 28.77005 26.78860
#
# Velocity S-wave (km/s) = 3.19629 3.44214 3.32149
# Velocity P-wave (km/s) = 6.27701 6.68740 6.48545
#
# Compressibility (1/GPa) = 0.01597526
#
# Stress axis : x y z
#
# Youngs Moduli (GPa) = 102.07697 53.16275 77.05764
#
# Poissons Ratio (x) = 0.14348 0.32078
# Poissons Ratio (y) = 0.27549 0.45793
# Poissons Ratio (z) = 0.42493 0.31593
#
# Static dielectric constant tensor:
#      x y z
#    x 4.595170 0.000000 0.000000 
#    y 0.000000 4.397940 0.000000 
#    z 0.000000 0.000000 4.154960 
# 
# 
# High freq. dielectric constant tensor:
#      x y z
#    x 1.982770 0.000000 0.000000 
#    y 0.000000 1.965470 0.000000 
#    z 0.000000 0.000000 1.932610 
# 
# From -- ./inp_files/12376.got.cif
#   From: 2010.03.12/outbox.cif.g09.slc.cpg/sg23_7_cif.got.tgz:12376.got - 2010.04.14 02:50:06.
