data_PCOD8164782
_publ_section_title
;
Structure prediction by ZEFSAII (Michael W. Deem and Ramdas Pophale) SiO2 
 PCOD8164782
Probable space group: I 21 21 21
;
_chemical_formula_sum "Si O2"
_cell_formula_units_Z 60
_cell_length_a 18.686327
_cell_length_b 9.205270
_cell_length_c 17.050529
_cell_angle_alpha 90.000000
_cell_angle_beta 90.000000
_cell_angle_gamma 90.000000
_cell_volume 2932.907280
_symmetry_space_group_name_H-M "I 21 21 21"
_symmetry_group_IT_number 24
_symmetry_cell_setting 'orthorhombic'
loop_
_space_group_symop_operation_xyz
x,y,z
-x,1/2-y,z
x,-y,1/2-z
1/2-x,y,-z
1/2+x,1/2+y,1/2+z
1/2-x,-y,1/2+z
1/2+x,1/2-y,-z
-x,1/2+y,1/2-z
loop_
_atom_site_type_symbol
_atom_site_label
_atom_site_fract_x
_atom_site_fract_y
_atom_site_fract_z
Si Si1 0.960499 0.107092 0.678250
Si Si2 0.303738 0.585479 0.824680
Si Si3 0.091917 0.522897 0.054092
Si Si4 0.669478 0.833524 0.078280
Si Si5 0.129027 0.110750 0.317672
Si Si6 0.170582 0.973751 0.009045
Si Si7 0.000000 0.750000 0.126993
Si Si8 0.476609 0.095008 0.046595
O O1 0.883298 0.163520 0.651885
O O2 0.000000 0.250000 0.708830
O O3 0.951089 0.000000 0.750000
O O4 0.003922 0.032908 0.606954
O O5 0.272104 0.500000 0.750000
O O6 0.364229 0.482416 0.866771
O O7 0.246815 0.622444 0.891228
O O8 0.336478 0.735751 0.794205
O O9 0.058816 0.682183 0.069327
O O10 0.146201 0.540730 0.981950
O O11 0.026535 0.416037 0.032054
O O12 0.671237 0.675888 0.039073
O O13 0.158363 0.050599 0.399422
O O14 0.042400 0.131090 0.320918
O O15 0.150233 0.000000 0.250000
O O16 0.250000 0.046291 0.000000
O O17 0.107607 0.080310 0.975589
O O18 0.500000 0.250000 0.083768
#
# Coordination Sequence:
#
# PCOD8164782 Si02
#       8
#     8   8   8   8   8   8   4   8
#     4  11  23  40  67  98 138 177 231 288 355 406
#     4  11  23  39  62  98 140 175 224 283 353 401
#     4  10  19  36  65  91 122 173 231 273 323 401
#     4  11  19  39  71  98 122 182 238 280 321 427
#     4  11  24  40  63  99 135 177 229 278 346 415
#     4  12  21  43  74  96 126 186 236 272 339 421
#     4  10  18  36  64  92 126 168 226 270 330 406
#     4  11  24  42  65 100 134 171 233 289 334 408
#
# _framework density 20.457515999999998
#
# number of rings (size 3 to 8) (size 9 to 14) (size 15 to 20)
#    0.000    1.067    6.667    1.200    1.867    3.200 
#    1.200    9.333    0.000    0.000    0.000    0.000 
#    0.000    0.000    0.000    0.000    0.000    0.000 
#
# Total GULP energy -371838.021355 kJ/mol
# GULP energy per Si atom -12394.600712 kJ/mol
# Density = 2.041095 g / cm^3
# Si number density = 20.457516 Si / 1000 Ang^3
#
#
#
# Elastic Constant Matrix: (Units=GPa)
#
#
# Indices 1 2 3 4 5 6 
#
# 1 136.8199 35.9004 44.5877 0.0000 0.0000 0.0000
# 2 35.9004 70.6176 39.0102 0.0000 0.0000 0.0000
# 3 44.5877 39.0102 103.6257 0.0000 0.0000 0.0000
# 4 0.0000 0.0000 0.0000 38.5325 0.0000 0.0000
# 5 0.0000 0.0000 0.0000 0.0000 18.3364 0.0000
# 6 0.0000 0.0000 0.0000 0.0000 0.0000 26.1983
#
#
#
# Elastic Compliance Matrix: (Units=1/GPa)
#
#
# Indices 1 2 3 4 5 6 
#
# 1 0.009001 -0.003076 -0.002715 0.000000 0.000000 0.000000
# 2 -0.003076 0.018930 -0.005803 0.000000 0.000000 0.000000
# 3 -0.002715 -0.005803 0.013003 0.000000 0.000000 0.000000
# 4 0.000000 0.000000 0.000000 0.025952 0.000000 0.000000
# 5 0.000000 0.000000 0.000000 0.000000 0.054536 0.000000
# 6 0.000000 0.000000 0.000000 0.000000 0.000000 0.038170
#
#
# Mechanical properties :
#
#
# Convention : Reuss Voigt Hill
#
# Bulk Modulus (GPa) = 56.34978 61.11775 58.73377
# Shear Modulus (GPa) = 26.49781 29.38445 27.94113
#
# Velocity S-wave (km/s) = 3.60288 3.79405 3.69970
# Velocity P-wave (km/s) = 6.70166 7.00952 6.85732
#
# Compressibility (1/GPa) = 0.01774630
#
# Stress axis : x y z
#
# Youngs Moduli (GPa) = 111.10206 52.82600 76.90727
#
# Poissons Ratio (x) = 0.16250 0.20879
# Poissons Ratio (y) = 0.34176 0.44627
# Poissons Ratio (z) = 0.30162 0.30653
#
# Static dielectric constant tensor:
#      x y z
#    x 4.068790 0.000000 0.000000 
#    y 0.000000 3.459130 0.000000 
#    z 0.000000 0.000000 3.623040 
# 
# 
# High freq. dielectric constant tensor:
#      x y z
#    x 1.815240 0.000000 0.000000 
#    y 0.000000 1.770830 0.000000 
#    z 0.000000 0.000000 1.795960 
# 
# From -- ./inp_files/31195.got.cif
#   From: 2010.03.12/outbox.cif.g09.slc.cpg/sg24_16_cif.got.tgz:31195.got - 2010.04.14 03:06:53.
