data_PCOD8164518
_publ_section_title
;
Structure prediction by ZEFSAII (Michael W. Deem and Ramdas Pophale) SiO2 
 PCOD8164518
Probable space group: I 2 2 2
;
_chemical_formula_sum "Si O2"
_cell_formula_units_Z 30
_cell_length_a 7.105497
_cell_length_b 25.564131
_cell_length_c 6.313084
_cell_angle_alpha 90.000000
_cell_angle_beta 90.000000
_cell_angle_gamma 90.000000
_cell_volume 1146.745548
_symmetry_space_group_name_H-M "I 2 2 2"
_symmetry_group_IT_number 23
_symmetry_cell_setting 'orthorhombic'
loop_
_space_group_symop_operation_xyz
x,y,z
-x,-y,z
x,-y,-z
-x,y,-z
1/2+x,1/2+y,1/2+z
1/2-x,1/2-y,1/2+z
1/2+x,1/2-y,1/2-z
1/2-x,1/2+y,1/2-z
loop_
_atom_site_type_symbol
_atom_site_label
_atom_site_fract_x
_atom_site_fract_y
_atom_site_fract_z
Si Si1 0.247966 0.181588 0.177391
Si Si2 0.000000 0.000000 0.000000
Si Si3 0.500000 0.098670 0.000000
Si Si4 0.225825 0.453388 0.166218
Si Si5 0.500000 0.629020 0.000000
Si Si6 0.000000 0.733167 0.000000
O O1 0.060075 0.165951 0.306223
O O2 0.435308 0.195373 0.310547
O O3 0.185282 0.232336 0.046302
O O4 0.312089 0.133562 0.028372
O O5 0.872968 0.965030 0.850389
O O6 0.467703 0.062792 0.788165
O O7 0.313111 0.404968 0.039560
O O8 0.188003 0.500000 0.000000
#
# Coordination Sequence:
#
# PCOD8164518 Si02
#       6
#     8   2   4   8   4   4
#     4  12  25  46  74 110 148 195 242 313 369 460
#     4  12  22  52  72 110 132 210 246 312 378 428
#     4  12  28  48  74 114 150 196 258 311 377 440
#     4  12  26  50  76 107 151 204 255 313 375 444
#     4  12  23  49  72 104 150 198 252 301 377 436
#     4  12  24  45  74 110 148 192 246 298 391 446
#
# _framework density 26.160990999999999
#
# number of rings (size 3 to 8) (size 9 to 14) (size 15 to 20)
#    0.000    0.000    2.667    8.000    0.000    0.533 
#    4.800    0.000    0.000    0.000    0.000    0.000 
#    0.000    0.000    0.000    0.000    0.000    0.000 
#
# Total GULP energy -186079.806051 kJ/mol
# GULP energy per Si atom -12405.320403 kJ/mol
# Density = 2.610145 g / cm^3
# Si number density = 26.160991 Si / 1000 Ang^3
#
#
#
# Elastic Constant Matrix: (Units=GPa)
#
#
# Indices 1 2 3 4 5 6 
#
# 1 100.0027 31.5145 28.6679 0.0014 0.0005 0.0006
# 2 31.5145 105.7186 43.4959 0.0033 -0.0006 -0.0002
# 3 28.6679 43.4959 96.2294 0.0097 -0.0021 0.0005
# 4 0.0014 0.0033 0.0097 43.1225 -0.0008 -0.0006
# 5 0.0005 -0.0006 -0.0021 -0.0008 81.2816 0.0021
# 6 0.0006 -0.0002 0.0005 -0.0006 0.0021 43.5777
#
#
#
# Elastic Compliance Matrix: (Units=1/GPa)
#
#
# Indices 1 2 3 4 5 6 
#
# 1 0.011434 -0.002465 -0.002292 0.000000 0.000000 0.000000
# 2 -0.002465 0.012152 -0.004758 0.000000 0.000000 0.000000
# 3 -0.002292 -0.004758 0.013225 -0.000003 0.000000 0.000000
# 4 0.000000 0.000000 -0.000003 0.023190 0.000000 0.000000
# 5 0.000000 0.000000 0.000000 0.000000 0.012303 -0.000001
# 6 0.000000 0.000000 0.000000 0.000000 -0.000001 0.022948
#
#
# Mechanical properties :
#
#
# Convention : Reuss Voigt Hill
#
# Bulk Modulus (GPa) = 56.24341 56.58971 56.41656
# Shear Modulus (GPa) = 41.59454 46.81454 44.20454
#
# Velocity S-wave (km/s) = 3.99174 4.23481 4.11507
# Velocity P-wave (km/s) = 6.54148 6.75202 6.64758
#
# Compressibility (1/GPa) = 0.01777986
#
# Stress axis : x y z
#
# Youngs Moduli (GPa) = 87.46093 82.29351 75.61278
#
# Poissons Ratio (x) = 0.20289 0.17329
# Poissons Ratio (y) = 0.21563 0.35977
# Poissons Ratio (z) = 0.20045 0.39156
#
# Static dielectric constant tensor:
#      x y z
#    x 4.555110 0.000000 0.000030 
#    y 0.000000 4.671350 0.000010 
#    z 0.000030 0.000010 5.488510 
# 
# 
# High freq. dielectric constant tensor:
#      x y z
#    x 2.047950 0.000000 0.000000 
#    y 0.000000 2.062270 0.000000 
#    z 0.000000 0.000000 2.056960 
# 
# From -- ./inp_files/780.got.cif
#   From: 2010.03.12/outbox.cif.g09.slc.cpg/sg23_1_cif.got.tgz:780.got - 2010.04.14 02:50:06.
