data_PCOD8164769
_publ_section_title
;
Structure prediction by ZEFSAII (Michael W. Deem and Ramdas Pophale) SiO2 
 PCOD8164769
Probable space group: I 21 21 21
;
_chemical_formula_sum "Si O2"
_cell_formula_units_Z 40
_cell_length_a 7.493865
_cell_length_b 13.483289
_cell_length_c 17.500673
_cell_angle_alpha 90.000000
_cell_angle_beta 90.000000
_cell_angle_gamma 90.000000
_cell_volume 1768.302083
_symmetry_space_group_name_H-M "I 21 21 21"
_symmetry_group_IT_number 24
_symmetry_cell_setting 'orthorhombic'
loop_
_space_group_symop_operation_xyz
x,y,z
-x,1/2-y,z
x,-y,1/2-z
1/2-x,y,-z
1/2+x,1/2+y,1/2+z
1/2-x,-y,1/2+z
1/2+x,1/2-y,-z
-x,1/2+y,1/2-z
loop_
_atom_site_type_symbol
_atom_site_label
_atom_site_fract_x
_atom_site_fract_y
_atom_site_fract_z
Si Si1 0.681166 0.782947 0.291763
Si Si2 0.159149 0.823310 0.422293
Si Si3 0.412235 0.587859 0.809416
Si Si4 0.425641 0.514133 0.338826
Si Si5 0.288537 0.043228 0.582290
O O1 0.500000 0.750000 0.245642
O O2 0.723760 0.688333 0.345236
O O3 0.845042 0.813360 0.235838
O O4 0.632849 0.872041 0.350881
O O5 0.250000 0.787076 0.500000
O O6 0.105460 0.938974 0.429146
O O7 0.000000 0.750000 0.405946
O O8 0.462996 0.500000 0.750000
O O9 0.244769 0.553986 0.861640
O O10 0.586711 0.610851 0.862269
O O11 0.468422 0.500000 0.250000
O O12 0.594095 0.479472 0.385896
O O13 0.250000 0.094678 0.500000
#
# Coordination Sequence:
#
# PCOD8164769 Si02
#       5
#     8   8   8   8   8
#     4  10  18  36  57  82 120 158 205 257 307 359
#     4  11  22  32  51  86 129 170 198 245 309 387
#     4   9  20  37  55  81 119 164 208 250 291 366
#     4   9  19  35  56  78 120 158 196 252 293 370
#     4  11  22  35  55  84 123 169 203 245 309 374
#
# _framework density 22.620570000000001
#
# number of rings (size 3 to 8) (size 9 to 14) (size 15 to 20)
#    0.000    2.400    2.000    3.600    2.800    0.800 
#    0.000    0.000    0.000    0.000    0.000    0.000 
#   48.000    4.000    0.000    0.000    0.000    0.000 
#
# Total GULP energy -247774.439310 kJ/mol
# GULP energy per Si atom -12388.721966 kJ/mol
# Density = 2.256908 g / cm^3
# Si number density = 22.620570 Si / 1000 Ang^3
#
#
#
# Elastic Constant Matrix: (Units=GPa)
#
#
# Indices 1 2 3 4 5 6 
#
# 1 114.3782 1.3344 57.2375 0.0000 0.0000 0.0000
# 2 1.3344 30.6764 15.0513 0.0000 0.0000 0.0000
# 3 57.2375 15.0513 104.1800 0.0000 0.0000 0.0000
# 4 0.0000 0.0000 0.0000 19.0420 0.0000 0.0000
# 5 0.0000 0.0000 0.0000 0.0000 30.1692 0.0000
# 6 0.0000 0.0000 0.0000 0.0000 0.0000 26.3626
#
#
#
# Elastic Compliance Matrix: (Units=1/GPa)
#
#
# Indices 1 2 3 4 5 6 
#
# 1 0.012309 0.002995 -0.007195 0.000000 0.000000 0.000000
# 2 0.002995 0.035814 -0.006820 0.000000 0.000000 0.000000
# 3 -0.007195 -0.006820 0.014537 0.000000 0.000000 0.000000
# 4 0.000000 0.000000 0.000000 0.052516 0.000000 0.000000
# 5 0.000000 0.000000 0.000000 0.000000 0.033146 0.000000
# 6 0.000000 0.000000 0.000000 0.000000 0.000000 0.037933
#
#
# Mechanical properties :
#
#
# Convention : Reuss Voigt Hill
#
# Bulk Modulus (GPa) = 24.61840 44.05346 34.33593
# Shear Modulus (GPa) = 22.53934 26.82216 24.68075
#
# Velocity S-wave (km/s) = 3.16002 3.44720 3.30673
# Velocity P-wave (km/s) = 4.92150 5.94655 5.45814
#
# Compressibility (1/GPa) = 0.04062003
#
# Stress axis : x y z
#
# Youngs Moduli (GPa) = 81.24391 27.92195 68.78937
#
# Poissons Ratio (x) = -0.08362 0.49495
# Poissons Ratio (y) = -0.24332 0.46912
# Poissons Ratio (z) = 0.58456 0.19042
#
# Static dielectric constant tensor:
#      x y z
#    x 4.355330 0.000000 0.000000 
#    y 0.000000 3.882180 0.000000 
#    z 0.000000 0.000000 4.002000 
# 
# 
# High freq. dielectric constant tensor:
#      x y z
#    x 1.905820 0.000000 0.000000 
#    y 0.000000 1.860670 0.000000 
#    z 0.000000 0.000000 1.859590 
# 
# From -- ./inp_files/18224.got.cif
#   From: 2010.03.12/outbox.cif.g09.slc.cpg/sg24_10_cif.got.tgz:18224.got - 2010.04.14 03:06:53.
