data_PCOD8164896
_publ_section_title
;
Structure prediction by ZEFSAII (Michael W. Deem and Ramdas Pophale) SiO2 
 PCOD8164896
Probable space group: I 21 21 21
;
_chemical_formula_sum "Si O2"
_cell_formula_units_Z 44
_cell_length_a 16.438412
_cell_length_b 16.654978
_cell_length_c 7.761106
_cell_angle_alpha 90.000000
_cell_angle_beta 90.000000
_cell_angle_gamma 90.000000
_cell_volume 2124.846390
_symmetry_space_group_name_H-M "I 21 21 21"
_symmetry_group_IT_number 24
_symmetry_cell_setting 'orthorhombic'
loop_
_space_group_symop_operation_xyz
x,y,z
-x,1/2-y,z
x,-y,1/2-z
1/2-x,y,-z
1/2+x,1/2+y,1/2+z
1/2-x,-y,1/2+z
1/2+x,1/2-y,-z
-x,1/2+y,1/2-z
loop_
_atom_site_type_symbol
_atom_site_label
_atom_site_fract_x
_atom_site_fract_y
_atom_site_fract_z
Si Si1 0.418362 0.898889 0.992561
Si Si2 0.832565 0.500000 0.750000
Si Si3 0.868078 0.750182 0.836017
Si Si4 0.278460 0.150187 0.765683
Si Si5 0.161578 0.290362 0.027110
Si Si6 0.439966 0.325153 0.653536
O O1 0.428218 0.825708 0.130254
O O2 0.392541 0.979667 0.090541
O O3 0.345342 0.878480 0.866304
O O4 0.503888 0.903843 0.888436
O O5 0.777019 0.426253 0.815720
O O6 0.775328 0.718589 0.827373
O O7 0.889192 0.791370 0.651841
O O8 0.878155 0.812174 0.994097
O O9 0.323102 0.195196 0.925232
O O10 0.111672 0.338364 0.172774
O O11 0.250000 0.332454 0.000000
O O12 0.500000 0.250000 0.682431
#
# Coordination Sequence:
#
# PCOD8164896 Si02
#       6
#     8   4   8   8   8   8
#     4  10  20  34  51  73 116 162 199 254 295 348
#     4  10  20  30  56  76 110 166 220 216 288 382
#     4   9  18  30  52  74 103 149 196 238 296 349
#     4  10  19  34  51  78 116 156 203 252 282 361
#     4  10  20  30  54  80 107 154 201 245 298 365
#     4  10  19  34  50  74 113 152 197 253 305 334
#
# _framework density 20.707379
#
# number of rings (size 3 to 8) (size 9 to 14) (size 15 to 20)
#    0.000    2.182    3.636    2.182    2.545    9.455 
#    0.000    0.000    0.000    0.000    0.000    0.000 
#    0.000    0.000   37.091    5.091   14.909    0.000 
#
# Total GULP energy -272558.057031 kJ/mol
# GULP energy per Si atom -12389.002592 kJ/mol
# Density = 2.066025 g / cm^3
# Si number density = 20.707379 Si / 1000 Ang^3
#
#
#
# Elastic Constant Matrix: (Units=GPa)
#
#
# Indices 1 2 3 4 5 6 
#
# 1 109.4801 34.9453 68.0655 0.0000 0.0000 0.0000
# 2 34.9453 35.8906 20.8898 0.0000 0.0000 0.0000
# 3 68.0655 20.8898 159.3311 0.0000 0.0000 0.0000
# 4 0.0000 0.0000 0.0000 25.7156 0.0000 0.0000
# 5 0.0000 0.0000 0.0000 0.0000 41.0042 0.0000
# 6 0.0000 0.0000 0.0000 0.0000 0.0000 24.3565
#
#
#
# Elastic Compliance Matrix: (Units=1/GPa)
#
#
# Indices 1 2 3 4 5 6 
#
# 1 0.016673 -0.013087 -0.005407 0.000000 0.000000 0.000000
# 2 -0.013087 0.040436 0.000289 0.000000 0.000000 0.000000
# 3 -0.005407 0.000289 0.008548 0.000000 0.000000 0.000000
# 4 0.000000 0.000000 0.000000 0.038887 0.000000 0.000000
# 5 0.000000 0.000000 0.000000 0.000000 0.024388 0.000000
# 6 0.000000 0.000000 0.000000 0.000000 0.000000 0.041057
#
#
# Mechanical properties :
#
#
# Convention : Reuss Voigt Hill
#
# Bulk Modulus (GPa) = 34.19011 61.38920 47.78966
# Shear Modulus (GPa) = 23.13249 30.26868 26.70058
#
# Velocity S-wave (km/s) = 3.34595 3.82741 3.59475
# Velocity P-wave (km/s) = 5.61018 7.01730 6.35282
#
# Compressibility (1/GPa) = 0.02924822
#
# Stress axis : x y z
#
# Youngs Moduli (GPa) = 59.97844 24.73036 116.98544
#
# Poissons Ratio (x) = 0.32364 0.63251
# Poissons Ratio (y) = 0.78491 -0.03380
# Poissons Ratio (z) = 0.32429 -0.00715
#
# Static dielectric constant tensor:
#      x y z
#    x 4.004950 0.000000 0.000000 
#    y 0.000000 3.422060 0.000000 
#    z 0.000000 0.000000 4.206410 
# 
# 
# High freq. dielectric constant tensor:
#      x y z
#    x 1.805250 0.000000 0.000000 
#    y 0.000000 1.729420 0.000000 
#    z 0.000000 0.000000 1.830600 
# 
# From -- ./inp_files/12656.got.cif
#   From: 2010.03.12/outbox.cif.g09.slc.cpg/sg24_7_cif.got.tgz:12656.got - 2010.04.14 03:06:53.
