data_PCOD8164077
_publ_section_title
;
Structure prediction by ZEFSAII (Michael W. Deem and Ramdas Pophale) SiO2 
 PCOD8164077
Probable space group: I 2 2 2
;
_chemical_formula_sum "Si O2"
_cell_formula_units_Z 56
_cell_length_a 15.849804
_cell_length_b 11.196085
_cell_length_c 13.821171
_cell_angle_alpha 90.000000
_cell_angle_beta 90.000000
_cell_angle_gamma 90.000000
_cell_volume 2452.646305
_symmetry_space_group_name_H-M "I 2 2 2"
_symmetry_group_IT_number 23
_symmetry_cell_setting 'orthorhombic'
loop_
_space_group_symop_operation_xyz
x,y,z
-x,-y,z
x,-y,-z
-x,y,-z
1/2+x,1/2+y,1/2+z
1/2-x,1/2-y,1/2+z
1/2+x,1/2-y,1/2-z
1/2-x,1/2+y,1/2-z
loop_
_atom_site_type_symbol
_atom_site_label
_atom_site_fract_x
_atom_site_fract_y
_atom_site_fract_z
Si Si1 0.670048 0.867415 0.482224
Si Si2 0.097674 0.257484 0.796162
Si Si3 0.942279 0.183177 0.908022
Si Si4 0.846050 0.431855 0.360362
Si Si5 0.837153 0.006890 0.785517
Si Si6 0.587266 0.852015 0.951326
Si Si7 0.857654 0.902184 0.430469
O O1 0.645157 0.835008 0.374795
O O2 0.630533 0.776843 0.561104
O O3 0.771257 0.867040 0.485988
O O4 0.634043 0.000000 0.500000
O O5 0.100341 0.332881 0.697917
O O6 0.000163 0.240591 0.824638
O O7 0.148924 0.134174 0.787674
O O8 0.901970 0.064856 0.861950
O O9 0.000000 0.147694 0.000000
O O10 0.755154 0.453518 0.315968
O O11 0.894459 0.560125 0.360748
O O12 0.839405 0.378531 0.469004
O O13 0.848859 0.047405 0.676234
O O14 0.585257 0.714982 0.918931
O O15 0.500000 0.888777 0.000000
O O16 0.902859 0.000000 0.500000
#
# Coordination Sequence:
#
# PCOD8164077 Si02
#       7
#     8   8   8   8   8   8   8
#     4  10  22  45  70 103 141 187 233 294 373 430
#     4  11  24  44  68 106 145 178 242 296 363 445
#     4  10  25  44  72 107 149 187 235 306 378 442
#     4  11  24  45  71 100 141 186 245 302 355 447
#     4  12  25  43  75 107 140 196 242 296 380 440
#     4  11  26  48  67 100 141 194 241 300 370 418
#     4  11  24  46  71 102 142 188 247 302 359 445
#
# _framework density 22.832481000000001
#
# number of rings (size 3 to 8) (size 9 to 14) (size 15 to 20)
#    0.000    1.143    1.429    3.857    2.000   12.571 
#    5.143    0.000    0.000    0.000    0.000    0.000 
#    0.000    0.000    0.000    0.000    0.000    0.000 
#
# Total GULP energy -347206.508027 kJ/mol
# GULP energy per Si atom -12400.232430 kJ/mol
# Density = 2.278051 g / cm^3
# Si number density = 22.832481 Si / 1000 Ang^3
#
#
#
# Elastic Constant Matrix: (Units=GPa)
#
#
# Indices 1 2 3 4 5 6 
#
# 1 66.6827 32.0185 37.2810 0.0000 0.0000 0.0000
# 2 32.0185 177.3925 69.5895 0.0000 0.0000 0.0000
# 3 37.2810 69.5895 115.1890 0.0000 0.0000 0.0000
# 4 0.0000 0.0000 0.0000 55.7681 0.0000 0.0000
# 5 0.0000 0.0000 0.0000 0.0000 25.1831 0.0000
# 6 0.0000 0.0000 0.0000 0.0000 0.0000 18.7279
#
#
#
# Elastic Compliance Matrix: (Units=1/GPa)
#
#
# Indices 1 2 3 4 5 6 
#
# 1 0.018536 -0.001300 -0.005213 0.000000 0.000000 0.000000
# 2 -0.001300 0.007479 -0.004098 0.000000 0.000000 0.000000
# 3 -0.005213 -0.004098 0.012844 0.000000 0.000000 0.000000
# 4 0.000000 0.000000 0.000000 0.017931 0.000000 0.000000
# 5 0.000000 0.000000 0.000000 0.000000 0.039709 0.000000
# 6 0.000000 0.000000 0.000000 0.000000 0.000000 0.053396
#
#
# Mechanical properties :
#
#
# Convention : Reuss Voigt Hill
#
# Bulk Modulus (GPa) = 56.70161 70.78249 63.74205
# Shear Modulus (GPa) = 28.24895 34.62749 31.43822
#
# Velocity S-wave (km/s) = 3.52124 3.89857 3.71470
# Velocity P-wave (km/s) = 6.43582 7.16472 6.81003
#
# Compressibility (1/GPa) = 0.01763618
#
# Stress axis : x y z
#
# Youngs Moduli (GPa) = 53.95050 133.70018 77.85579
#
# Poissons Ratio (x) = 0.17386 0.40589
# Poissons Ratio (y) = 0.07016 0.31903
# Poissons Ratio (z) = 0.28127 0.54786
#
# Static dielectric constant tensor:
#      x y z
#    x 4.084060 0.000000 0.000000 
#    y 0.000000 4.386220 0.000000 
#    z 0.000000 0.000000 4.223730 
# 
# 
# High freq. dielectric constant tensor:
#      x y z
#    x 1.896430 0.000000 0.000000 
#    y 0.000000 1.921070 0.000000 
#    z 0.000000 0.000000 1.904930 
# 
# From -- ./inp_files/21584.got.cif
#   From: 2010.03.12/outbox.cif.g09.slc.cpg/sg23_11_cif.got.tgz:21584.got - 2010.04.14 02:50:06.
