data_PCOD8164228
_publ_section_title
;
Structure prediction by ZEFSAII (Michael W. Deem and Ramdas Pophale) SiO2 
 PCOD8164228
Probable space group: I 2 2 2
;
_chemical_formula_sum "Si O2"
_cell_formula_units_Z 30
_cell_length_a 8.562024
_cell_length_b 12.815283
_cell_length_c 12.285675
_cell_angle_alpha 90.000000
_cell_angle_beta 90.000000
_cell_angle_gamma 90.000000
_cell_volume 1348.042748
_symmetry_space_group_name_H-M "I 2 2 2"
_symmetry_group_IT_number 23
_symmetry_cell_setting 'orthorhombic'
loop_
_space_group_symop_operation_xyz
x,y,z
-x,-y,z
x,-y,-z
-x,y,-z
1/2+x,1/2+y,1/2+z
1/2-x,1/2-y,1/2+z
1/2+x,1/2-y,1/2-z
1/2-x,1/2+y,1/2-z
loop_
_atom_site_type_symbol
_atom_site_label
_atom_site_fract_x
_atom_site_fract_y
_atom_site_fract_z
Si Si1 0.596778 0.713426 0.798510
Si Si2 0.743629 0.500000 0.500000
Si Si3 0.500000 0.172586 0.000000
Si Si4 0.000000 0.000000 0.812538
Si Si5 0.432257 0.195400 0.390158
Si Si6 0.500000 0.000000 0.500000
O O1 0.546102 0.596841 0.764642
O O2 0.570006 0.791479 0.697347
O O3 0.773011 0.735428 0.837995
O O4 0.489700 0.751015 0.897154
O O5 0.846826 0.397285 0.486301
O O6 0.645426 0.523944 0.391192
O O7 0.500000 0.253879 0.500000
O O8 0.397824 0.074251 0.421150
#
# Coordination Sequence:
#
# PCOD8164228 Si02
#       6
#     8   4   4   4   8   2
#     4  12  26  44  77 104 145 186 242 290 360 417
#     4  10  24  46  68 104 148 182 236 292 362 416
#     4  11  26  45  70 106 142 191 238 289 356 430
#     4  11  26  43  72 106 142 189 235 296 346 430
#     4  10  26  47  76 103 143 185 239 299 353 421
#     4   8  24  48  76  98 144 180 236 294 358 418
#
# _framework density 22.254487999999998
#
# number of rings (size 3 to 8) (size 9 to 14) (size 15 to 20)
#    0.800    0.533    0.000    3.200   11.200    9.067 
#    0.000    0.000    0.000    0.000    0.000    0.000 
#    0.000    0.000    0.000    0.000    0.000    0.000 
#
# Total GULP energy -185842.440805 kJ/mol
# GULP energy per Si atom -12389.496054 kJ/mol
# Density = 2.220384 g / cm^3
# Si number density = 22.254488 Si / 1000 Ang^3
#
#
#
# Elastic Constant Matrix: (Units=GPa)
#
#
# Indices 1 2 3 4 5 6 
#
# 1 151.0643 54.2316 85.2033 0.0000 0.0000 0.0000
# 2 54.2316 101.6881 66.9305 0.0000 0.0000 0.0000
# 3 85.2033 66.9305 200.5466 0.0000 0.0000 0.0000
# 4 0.0000 0.0000 0.0000 61.5513 0.0000 0.0000
# 5 0.0000 0.0000 0.0000 0.0000 32.3998 0.0000
# 6 0.0000 0.0000 0.0000 0.0000 0.0000 21.8739
#
#
#
# Elastic Compliance Matrix: (Units=1/GPa)
#
#
# Indices 1 2 3 4 5 6 
#
# 1 0.009391 -0.003053 -0.002971 0.000000 0.000000 0.000000
# 2 -0.003053 0.013595 -0.003240 0.000000 0.000000 0.000000
# 3 -0.002971 -0.003240 0.007330 0.000000 0.000000 0.000000
# 4 0.000000 0.000000 0.000000 0.016247 0.000000 0.000000
# 5 0.000000 0.000000 0.000000 0.000000 0.030864 0.000000
# 6 0.000000 0.000000 0.000000 0.000000 0.000000 0.045717
#
#
# Mechanical properties :
#
#
# Convention : Reuss Voigt Hill
#
# Bulk Modulus (GPa) = 84.83262 96.22553 90.52908
# Shear Modulus (GPa) = 34.34031 39.62723 36.98377
#
# Velocity S-wave (km/s) = 3.93246 4.22434 4.08101
# Velocity P-wave (km/s) = 7.66949 8.19304 7.93559
#
# Compressibility (1/GPa) = 0.01178792
#
# Stress axis : x y z
#
# Youngs Moduli (GPa) = 106.47930 73.55764 136.42589
#
# Poissons Ratio (x) = 0.22458 0.40534
# Poissons Ratio (y) = 0.32509 0.44202
# Poissons Ratio (z) = 0.31636 0.23833
#
# Static dielectric constant tensor:
#      x y z
#    x 3.937480 0.000000 0.000000 
#    y 0.000000 3.984130 0.000000 
#    z 0.000000 0.000000 4.254440 
# 
# 
# High freq. dielectric constant tensor:
#      x y z
#    x 1.873780 0.000000 0.000000 
#    y 0.000000 1.878190 0.000000 
#    z 0.000000 0.000000 1.892890 
# 
# From -- ./inp_files/7891.got.cif
#   From: 2010.03.12/outbox.cif.g09.slc.cpg/sg23_4_cif.got.tgz:7891.got - 2010.04.14 02:50:06.
