data_PCOD8164568
_publ_section_title
;
Structure prediction by ZEFSAII (Michael W. Deem and Ramdas Pophale) SiO2 
 PCOD8164568
Probable space group: I 21 21 21
;
_chemical_formula_sum "Si O2"
_cell_formula_units_Z 48
_cell_length_a 19.873617
_cell_length_b 13.447265
_cell_length_c 8.175515
_cell_angle_alpha 90.000000
_cell_angle_beta 90.000000
_cell_angle_gamma 90.000000
_cell_volume 2184.872000
_symmetry_space_group_name_H-M "I 21 21 21"
_symmetry_group_IT_number 24
_symmetry_cell_setting 'orthorhombic'
loop_
_space_group_symop_operation_xyz
x,y,z
-x,1/2-y,z
x,-y,1/2-z
1/2-x,y,-z
1/2+x,1/2+y,1/2+z
1/2-x,-y,1/2+z
1/2+x,1/2-y,-z
-x,1/2+y,1/2-z
loop_
_atom_site_type_symbol
_atom_site_label
_atom_site_fract_x
_atom_site_fract_y
_atom_site_fract_z
Si Si1 0.948393 0.893804 0.040785
Si Si2 0.217224 0.704601 0.251574
Si Si3 0.650935 0.755686 0.097190
Si Si4 0.597208 0.563345 0.983976
Si Si5 0.152033 0.500000 0.250000
Si Si6 0.376836 0.141868 0.879172
Si Si7 0.500000 0.250000 0.815374
O O1 0.894743 0.977894 0.092365
O O2 0.017289 0.943861 0.978289
O O3 0.959841 0.827139 0.201531
O O4 0.916078 0.824533 0.897531
O O5 0.298227 0.717943 0.244785
O O6 0.199501 0.592186 0.303096
O O7 0.187814 0.785253 0.381660
O O8 0.186463 0.725139 0.075086
O O9 0.631398 0.638822 0.112901
O O10 0.631970 0.454262 0.997178
O O11 0.607473 0.606047 0.803910
O O12 0.444413 0.200155 0.933624
#
# Coordination Sequence:
#
# PCOD8164568 Si02
#       7
#     8   8   8   8   4   8   4
#     4  10  14  23  37  60  87 113 141 179 222 262
#     4   9  17  25  37  56  87 123 147 173 209 265
#     4   9  15  26  37  56  86 117 143 179 211 259
#     4   9  15  22  38  59  87 110 141 180 226 260
#     4  10  16  24  36  58  88 122 146 176 216 268
#     4   9  15  22  34  58  87 112 137 173 216 271
#     4  10  12  22  32  58  88 108 136 174 220 266
#
# _framework density 21.969249999999999
#
# number of rings (size 3 to 8) (size 9 to 14) (size 15 to 20)
#    0.000    2.667    6.667    2.000    0.000    0.000 
#    0.000    0.000    0.000    0.000    0.000   46.667 
#    0.000   48.000    0.000    0.000    0.000    0.000 
#
# Total GULP energy -297405.496193 kJ/mol
# GULP energy per Si atom -12391.895675 kJ/mol
# Density = 2.191925 g / cm^3
# Si number density = 21.969250 Si / 1000 Ang^3
#
#
#
# Elastic Constant Matrix: (Units=GPa)
#
#
# Indices 1 2 3 4 5 6 
#
# 1 122.6310 84.0915 20.0098 0.0000 0.0000 0.0000
# 2 84.0915 185.4518 21.3766 0.0000 0.0000 0.0000
# 3 20.0098 21.3766 11.9596 0.0000 0.0000 0.0000
# 4 0.0000 0.0000 0.0000 7.1617 0.0000 0.0000
# 5 0.0000 0.0000 0.0000 0.0000 9.4534 0.0000
# 6 0.0000 0.0000 0.0000 0.0000 0.0000 34.2579
#
#
#
# Elastic Compliance Matrix: (Units=1/GPa)
#
#
# Indices 1 2 3 4 5 6 
#
# 1 0.013644 -0.004478 -0.014824 0.000000 0.000000 0.000000
# 2 -0.004478 0.008261 -0.007274 0.000000 0.000000 0.000000
# 3 -0.014824 -0.007274 0.121419 0.000000 0.000000 0.000000
# 4 0.000000 0.000000 0.000000 0.139632 0.000000 0.000000
# 5 0.000000 0.000000 0.000000 0.000000 0.105782 0.000000
# 6 0.000000 0.000000 0.000000 0.000000 0.000000 0.029190
#
#
# Mechanical properties :
#
#
# Convention : Reuss Voigt Hill
#
# Bulk Modulus (GPa) = 11.08991 63.44423 37.26707
# Shear Modulus (GPa) = 9.97732 23.14558 16.56145
#
# Velocity S-wave (km/s) = 2.13339 3.24936 2.74861
# Velocity P-wave (km/s) = 3.33577 6.55889 5.20319
#
# Compressibility (1/GPa) = 0.09017203
#
# Stress axis : x y z
#
# Youngs Moduli (GPa) = 73.29152 121.04763 8.23597
#
# Poissons Ratio (x) = 0.54206 0.12209
# Poissons Ratio (y) = 0.32821 0.05991
# Poissons Ratio (z) = 1.08648 0.88047
#
# Static dielectric constant tensor:
#      x y z
#    x 4.388270 0.000000 0.000000 
#    y 0.000000 4.390070 0.000000 
#    z 0.000000 0.000000 3.069120 
# 
# 
# High freq. dielectric constant tensor:
#      x y z
#    x 1.869780 0.000000 0.000000 
#    y 0.000000 1.875800 0.000000 
#    z 0.000000 0.000000 1.768710 
# 
# From -- ./inp_files/27620.got.cif
#   From: 2010.03.12/outbox.cif.g09.slc.cpg/sg24_14_cif.got.tgz:27620.got - 2010.04.14 03:06:53.
