data_PCOD8164703
_publ_section_title
;
Structure prediction by ZEFSAII (Michael W. Deem and Ramdas Pophale) SiO2 
 PCOD8164703
Probable space group: I 21 21 21
;
_chemical_formula_sum "Si O2"
_cell_formula_units_Z 48
_cell_length_a 17.737813
_cell_length_b 14.343922
_cell_length_c 9.863787
_cell_angle_alpha 90.000000
_cell_angle_beta 90.000000
_cell_angle_gamma 90.000000
_cell_volume 2509.641414
_symmetry_space_group_name_H-M "I 21 21 21"
_symmetry_group_IT_number 24
_symmetry_cell_setting 'orthorhombic'
loop_
_space_group_symop_operation_xyz
x,y,z
-x,1/2-y,z
x,-y,1/2-z
1/2-x,y,-z
1/2+x,1/2+y,1/2+z
1/2-x,-y,1/2+z
1/2+x,1/2-y,-z
-x,1/2+y,1/2-z
loop_
_atom_site_type_symbol
_atom_site_label
_atom_site_fract_x
_atom_site_fract_y
_atom_site_fract_z
Si Si1 0.940642 0.831091 0.981625
Si Si2 0.485069 0.981057 0.395281
Si Si3 0.925170 0.586256 0.343509
Si Si4 0.073691 0.309043 0.808845
Si Si5 0.402996 0.608002 0.740164
Si Si6 0.166346 0.751397 0.447676
O O1 0.890771 0.817381 0.843728
O O2 0.000000 0.750000 0.010235
O O3 0.986082 0.926781 0.967498
O O4 0.888641 0.842058 0.114686
O O5 0.423728 0.941005 0.498074
O O6 0.555112 0.910482 0.370908
O O7 0.445513 0.000000 0.250000
O O8 0.898087 0.500000 0.250000
O O9 0.864521 0.670222 0.341980
O O10 0.009009 0.620893 0.302615
O O11 0.000000 0.250000 0.780767
O O12 0.122963 0.249364 0.910191
O O13 0.381354 0.500000 0.750000
O O14 0.346476 0.653810 0.630746
O O15 0.250000 0.768450 0.500000
#
# Coordination Sequence:
#
# PCOD8164703 Si02
#       6
#     8   8   8   8   8   8
#     4  10  19  30  56  91 115 140 191 261 311 350
#     4  10  18  31  56  93 118 146 189 250 308 350
#     4  11  20  37  65  89 118 155 207 262 304 353
#     4  10  18  35  59  84 115 151 198 251 298 362
#     4  11  20  38  62  90 116 151 204 265 311 357
#     4  12  24  39  58  87 125 168 200 241 312 381
#
# _framework density 19.126239000000002
#
# number of rings (size 3 to 8) (size 9 to 14) (size 15 to 20)
#    0.000    1.333    6.667    1.500    0.000    0.000 
#    0.000    5.833    0.000    0.000    0.000    0.000 
#    0.000    0.000    0.000    0.000    0.000    0.000 
#
# Total GULP energy -297385.126820 kJ/mol
# GULP energy per Si atom -12391.046951 kJ/mol
# Density = 1.908271 g / cm^3
# Si number density = 19.126239 Si / 1000 Ang^3
#
#
#
# Elastic Constant Matrix: (Units=GPa)
#
#
# Indices 1 2 3 4 5 6 
#
# 1 52.7316 26.6098 25.9756 0.0000 0.0000 0.0000
# 2 26.6098 89.8564 28.0020 0.0000 0.0000 0.0000
# 3 25.9756 28.0020 141.6025 0.0000 0.0000 0.0000
# 4 0.0000 0.0000 0.0000 43.0719 0.0000 0.0000
# 5 0.0000 0.0000 0.0000 0.0000 10.9940 0.0000
# 6 0.0000 0.0000 0.0000 0.0000 0.0000 13.7687
#
#
#
# Elastic Compliance Matrix: (Units=1/GPa)
#
#
# Indices 1 2 3 4 5 6 
#
# 1 0.023530 -0.005992 -0.003131 0.000000 0.000000 0.000000
# 2 -0.005992 0.013386 -0.001548 0.000000 0.000000 0.000000
# 3 -0.003131 -0.001548 0.007943 0.000000 0.000000 0.000000
# 4 0.000000 0.000000 0.000000 0.023217 0.000000 0.000000
# 5 0.000000 0.000000 0.000000 0.000000 0.090959 0.000000
# 6 0.000000 0.000000 0.000000 0.000000 0.000000 0.072629
#
#
# Mechanical properties :
#
#
# Convention : Reuss Voigt Hill
#
# Bulk Modulus (GPa) = 42.52512 49.48503 46.00507
# Shear Modulus (GPa) = 19.16847 27.14044 23.15445
#
# Velocity S-wave (km/s) = 3.16920 3.77107 3.48316
# Velocity P-wave (km/s) = 5.97277 6.70002 6.34682
#
# Compressibility (1/GPa) = 0.02351551
#
# Stress axis : x y z
#
# Youngs Moduli (GPa) = 42.49820 74.70614 125.90442
#
# Poissons Ratio (x) = 0.44767 0.39426
# Poissons Ratio (y) = 0.25466 0.19488
# Poissons Ratio (z) = 0.13308 0.11563
#
# Static dielectric constant tensor:
#      x y z
#    x 2.750170 0.000000 0.000000 
#    y 0.000000 3.860830 0.000000 
#    z 0.000000 0.000000 4.181810 
# 
# 
# High freq. dielectric constant tensor:
#      x y z
#    x 1.652440 0.000000 0.000000 
#    y 0.000000 1.764650 0.000000 
#    z 0.000000 0.000000 1.778960 
# 
# From -- ./inp_files/14145.got.cif
#   From: 2010.03.12/outbox.cif.g09.slc.cpg/sg24_8_cif.got.tgz:14145.got - 2010.04.14 03:06:53.
