data_PCOD8164786
_publ_section_title
;
Structure prediction by ZEFSAII (Michael W. Deem and Ramdas Pophale) SiO2 
 PCOD8164786
Probable space group: I 21 21 21
;
_chemical_formula_sum "Si O2"
_cell_formula_units_Z 64
_cell_length_a 19.263932
_cell_length_b 17.079622
_cell_length_c 9.389691
_cell_angle_alpha 90.000000
_cell_angle_beta 90.000000
_cell_angle_gamma 90.000000
_cell_volume 3089.402488
_symmetry_space_group_name_H-M "I 21 21 21"
_symmetry_group_IT_number 24
_symmetry_cell_setting 'orthorhombic'
loop_
_space_group_symop_operation_xyz
x,y,z
-x,1/2-y,z
x,-y,1/2-z
1/2-x,y,-z
1/2+x,1/2+y,1/2+z
1/2-x,-y,1/2+z
1/2+x,1/2-y,-z
-x,1/2+y,1/2-z
loop_
_atom_site_type_symbol
_atom_site_label
_atom_site_fract_x
_atom_site_fract_y
_atom_site_fract_z
Si Si1 0.686329 0.486444 0.907078
Si Si2 0.930127 0.296730 0.720629
Si Si3 0.046226 0.475928 0.410469
Si Si4 0.638532 0.808815 0.441048
Si Si5 0.869882 0.321237 0.140897
Si Si6 0.511241 0.624442 0.472975
Si Si7 0.582732 0.378080 0.566304
Si Si8 0.682056 0.019945 0.083362
O O1 0.713390 0.500000 0.750000
O O2 0.669091 0.395317 0.928448
O O3 0.618714 0.537581 0.940423
O O4 0.750000 0.514574 0.000000
O O5 0.870157 0.244321 0.797830
O O6 0.899925 0.329301 0.574310
O O7 0.000000 0.250000 0.686985
O O8 0.952509 0.370601 0.818158
O O9 0.067781 0.500000 0.250000
O O10 0.990215 0.535610 0.475277
O O11 0.115412 0.477252 0.509136
O O12 0.001096 0.394388 0.411829
O O13 0.666893 0.757430 0.577177
O O14 0.564281 0.841272 0.479354
O O15 0.685565 0.885341 0.422049
O O16 0.879788 0.326288 0.310644
O O17 0.947320 0.319988 0.079661
O O18 0.683277 0.000000 0.250000
O O19 0.750000 0.988305 0.000000
#
# Coordination Sequence:
#
# PCOD8164786 Si02
#       8
#     8   8   8   8   8   8   8   8
#     4  10  22  38  55  83 123 165 211 255 298 366
#     4   9  20  34  53  90 126 160 201 257 316 373
#     4  11  20  37  64  94 126 165 212 266 326 378
#     4   9  21  39  61  87 126 160 204 250 328 387
#     4  10  18  37  58  87 124 165 204 258 304 386
#     4   9  17  34  55  81 122 159 197 247 301 370
#     4  11  21  35  60  94 134 161 214 262 316 374
#     4  11  26  47  71  93 123 166 223 282 333 402
#
# _framework density 20.715979999999998
#
# number of rings (size 3 to 8) (size 9 to 14) (size 15 to 20)
#    0.000    2.000    2.500    1.875    5.250    3.500 
#    0.000    2.500    0.000    0.000    0.000    0.000 
#    0.000    0.000    0.000    0.000    0.000    0.000 
#
# Total GULP energy -396450.517587 kJ/mol
# GULP energy per Si atom -12389.078675 kJ/mol
# Density = 2.066883 g / cm^3
# Si number density = 20.715980 Si / 1000 Ang^3
#
#
#
# Elastic Constant Matrix: (Units=GPa)
#
#
# Indices 1 2 3 4 5 6 
#
# 1 64.8683 17.6710 45.8974 0.0000 0.0000 0.0000
# 2 17.6710 76.3421 47.3813 0.0000 0.0000 0.0000
# 3 45.8974 47.3813 142.4128 0.0000 0.0000 0.0000
# 4 0.0000 0.0000 0.0000 -1.2231 0.0000 0.0000
# 5 0.0000 0.0000 0.0000 0.0000 9.1044 0.0000
# 6 0.0000 0.0000 0.0000 0.0000 0.0000 5.7443
#
#
#
# Elastic Compliance Matrix: (Units=1/GPa)
#
#
# Indices 1 2 3 4 5 6 
#
# 1 0.020008 -0.000793 -0.006184 0.000000 0.000000 0.000000
# 2 -0.000793 0.016539 -0.005247 0.000000 0.000000 0.000000
# 3 -0.006184 -0.005247 0.010761 0.000000 0.000000 0.000000
# 4 0.000000 0.000000 0.000000 -0.817623 0.000000 0.000000
# 5 0.000000 0.000000 0.000000 0.000000 0.109836 0.000000
# 6 0.000000 0.000000 0.000000 0.000000 0.000000 0.174086
#
#
# Mechanical properties :
#
#
# Convention : Reuss Voigt Hill
#
# Bulk Modulus (GPa) = 43.74706 56.16916 49.95811
# Shear Modulus (GPa) = -11.00532 14.23671 1.61569
#
# Velocity S-wave (km/s) = -2.30738 2.62436 0.88409
# Velocity P-wave (km/s) = 3.75029 6.02958 5.02098
#
# Compressibility (1/GPa) = 0.02285868
#
# Stress axis : x y z
#
# Youngs Moduli (GPa) = 49.98114 60.46310 92.93106
#
# Poissons Ratio (x) = 0.04794 0.57471
# Poissons Ratio (y) = 0.03963 0.48761
# Poissons Ratio (z) = 0.30910 0.31725
#
# Static dielectric constant tensor:
#      x y z
#    x 3.549420 0.000000 0.000000 
#    y 0.000000 4.410950 0.000000 
#    z 0.000000 0.000000 3.918920 
# 
# 
# High freq. dielectric constant tensor:
#      x y z
#    x 1.793190 0.000000 0.000000 
#    y 0.000000 1.799790 0.000000 
#    z 0.000000 0.000000 1.812230 
# 
# From -- ./inp_files/15407.got.cif
#   From: 2010.03.12/outbox.cif.g09.slc.cpg/sg24_8_cif.got.tgz:15407.got - 2010.04.14 03:06:53.
