data_PCOD8164294
_publ_section_title
;
Structure prediction by ZEFSAII (Michael W. Deem and Ramdas Pophale) SiO2 
 PCOD8164294
Probable space group: I 2 2 2
;
_chemical_formula_sum "Si O2"
_cell_formula_units_Z 52
_cell_length_a 14.260253
_cell_length_b 23.307223
_cell_length_c 7.959353
_cell_angle_alpha 90.000000
_cell_angle_beta 90.000000
_cell_angle_gamma 90.000000
_cell_volume 2645.425456
_symmetry_space_group_name_H-M "I 2 2 2"
_symmetry_group_IT_number 23
_symmetry_cell_setting 'orthorhombic'
loop_
_space_group_symop_operation_xyz
x,y,z
-x,-y,z
x,-y,-z
-x,y,-z
1/2+x,1/2+y,1/2+z
1/2-x,1/2-y,1/2+z
1/2+x,1/2-y,1/2-z
1/2-x,1/2+y,1/2-z
loop_
_atom_site_type_symbol
_atom_site_label
_atom_site_fract_x
_atom_site_fract_y
_atom_site_fract_z
Si Si1 0.829489 0.687525 0.297062
Si Si2 0.000000 0.718445 0.500000
Si Si3 0.040843 0.810722 0.247117
Si Si4 0.658805 0.632954 0.783313
Si Si5 0.606788 0.493587 0.302963
Si Si6 0.192122 0.103048 0.652407
Si Si7 0.675807 0.720349 0.530690
O O1 0.780511 0.625996 0.260704
O O2 0.757006 0.729732 0.393417
O O3 0.926339 0.678447 0.398471
O O4 0.848234 0.720375 0.123155
O O5 0.060982 0.757134 0.370577
O O6 0.094668 0.867671 0.300991
O O7 0.077229 0.796893 0.059075
O O8 0.931590 0.824361 0.275354
O O9 0.635763 0.570861 0.720230
O O10 0.719818 0.668548 0.647920
O O11 0.710255 0.622069 0.960063
O O12 0.500000 0.500000 0.240930
O O13 0.618003 0.500000 0.500000
O O14 0.674769 0.535758 0.193812
#
# Coordination Sequence:
#
# PCOD8164294 Si02
#       7
#     8   4   8   8   8   8   8
#     4  11  23  37  57  81 119 164 212 260 307 375
#     4  12  22  38  56  85 115 164 208 258 310 360
#     4  11  20  34  56  82 118 158 207 251 298 372
#     4  12  21  35  58  85 120 166 201 255 303 378
#     4  11  23  35  56  86 121 162 205 248 302 376
#     4  11  22  38  55  83 123 161 209 249 314 370
#     4  11  22  37  56  83 119 164 205 253 320 361
#
# _framework density 19.656573000000002
#
# number of rings (size 3 to 8) (size 9 to 14) (size 15 to 20)
#    0.000    0.769    4.615    5.538    2.154    0.615 
#    0.000    0.000    0.000    0.000    0.000    4.846 
#    0.000    4.923    0.000    0.000    0.000    0.000 
#
# Total GULP energy -322158.861796 kJ/mol
# GULP energy per Si atom -12390.725454 kJ/mol
# Density = 1.961183 g / cm^3
# Si number density = 19.656573 Si / 1000 Ang^3
#
#
#
# Elastic Constant Matrix: (Units=GPa)
#
#
# Indices 1 2 3 4 5 6 
#
# 1 61.0151 11.4458 21.3935 -0.0016 -0.0011 -0.0001
# 2 11.4458 72.4729 18.9349 -0.0013 0.0001 -0.0002
# 3 21.3935 18.9349 97.1725 -0.0078 0.0044 -0.0004
# 4 -0.0016 -0.0013 -0.0078 36.4998 0.0017 -0.0005
# 5 -0.0011 0.0001 0.0044 0.0017 21.5200 -0.0007
# 6 -0.0001 -0.0002 -0.0004 -0.0005 -0.0007 27.6036
#
#
#
# Elastic Compliance Matrix: (Units=1/GPa)
#
#
# Indices 1 2 3 4 5 6 
#
# 1 0.018007 -0.001905 -0.003593 0.000000 0.000002 0.000000
# 2 -0.001905 0.014740 -0.002453 0.000000 0.000000 0.000000
# 3 -0.003593 -0.002453 0.011560 0.000002 -0.000003 0.000000
# 4 0.000000 0.000000 0.000002 0.027397 -0.000002 0.000000
# 5 0.000002 0.000000 -0.000003 -0.000002 0.046468 0.000001
# 6 0.000000 0.000000 0.000000 0.000000 0.000001 0.036227
#
#
# Mechanical properties :
#
#
# Convention : Reuss Voigt Hill
#
# Bulk Modulus (GPa) = 35.20551 37.13430 36.16991
# Shear Modulus (GPa) = 27.81336 29.05042 28.43189
#
# Velocity S-wave (km/s) = 3.76568 3.84852 3.80732
# Velocity P-wave (km/s) = 6.07094 6.21938 6.14561
#
# Compressibility (1/GPa) = 0.02840464
#
# Stress axis : x y z
#
# Youngs Moduli (GPa) = 55.53517 67.84272 86.50526
#
# Poissons Ratio (x) = 0.12924 0.31082
# Poissons Ratio (y) = 0.10580 0.21218
# Poissons Ratio (z) = 0.19954 0.16640
#
# Static dielectric constant tensor:
#      x y z
#    x 3.324650 0.000000 0.000030 
#    y 0.000000 3.365670 -0.000010 
#    z 0.000030 -0.000010 3.577060 
# 
# 
# High freq. dielectric constant tensor:
#      x y z
#    x 1.729440 0.000000 0.000000 
#    y 0.000000 1.742790 0.000000 
#    z 0.000000 0.000000 1.794590 
# 
# From -- ./inp_files/10147.got.cif
#   From: 2010.03.12/outbox.cif.g09.slc.cpg/sg23_6_cif.got.tgz:10147.got - 2010.04.14 02:50:06.
