data_PCOD8164497
_publ_section_title
;
Structure prediction by ZEFSAII (Michael W. Deem and Ramdas Pophale) SiO2 
 PCOD8164497
Probable space group: I 2 2 2
;
_chemical_formula_sum "Si O2"
_cell_formula_units_Z 40
_cell_length_a 8.467981
_cell_length_b 8.259437
_cell_length_c 23.607279
_cell_angle_alpha 90.000000
_cell_angle_beta 90.000000
_cell_angle_gamma 90.000000
_cell_volume 1651.110931
_symmetry_space_group_name_H-M "I 2 2 2"
_symmetry_group_IT_number 23
_symmetry_cell_setting 'orthorhombic'
loop_
_space_group_symop_operation_xyz
x,y,z
-x,-y,z
x,-y,-z
-x,y,-z
1/2+x,1/2+y,1/2+z
1/2-x,1/2-y,1/2+z
1/2+x,1/2-y,1/2-z
1/2-x,1/2+y,1/2-z
loop_
_atom_site_type_symbol
_atom_site_label
_atom_site_fract_x
_atom_site_fract_y
_atom_site_fract_z
Si Si1 0.049305 0.819897 0.693281
Si Si2 0.632700 0.394924 0.602235
Si Si3 0.075628 0.668453 0.195263
Si Si4 0.688367 0.185038 0.502049
Si Si5 0.117196 0.368253 0.594441
O O1 0.236410 0.824554 0.691117
O O2 0.990057 0.702472 0.742733
O O3 0.971574 0.758042 0.635112
O O4 0.000000 0.000000 0.707385
O O5 0.500000 0.500000 0.568099
O O6 0.526916 0.304429 0.649900
O O7 0.729022 0.270864 0.561695
O O8 0.760778 0.517828 0.630038
O O9 0.000000 0.500000 0.174281
O O10 0.500000 0.194859 0.500000
O O11 0.783753 0.274841 0.453009
O O12 0.746781 0.000000 0.500000
O O13 0.000000 0.500000 0.565843
#
# Coordination Sequence:
#
# PCOD8164497 Si02
#       5
#     8   8   8   8   8
#     4  12  29  50  79 118 156 206 262 326 395 467
#     4  12  27  47  78 114 154 212 263 324 392 467
#     4  12  29  50  82 116 159 206 259 323 396 470
#     4  11  27  48  78 114 156 209 266 323 392 466
#     4  12  27  52  78 112 162 203 267 328 392 464
#
# _framework density 24.226113000000002
#
# number of rings (size 3 to 8) (size 9 to 14) (size 15 to 20)
#    0.000    0.200    4.000    3.000   14.000    1.600 
#    0.000    1.000    0.000    0.000    0.000    0.000 
#    0.000    0.000    0.000    0.000    0.000    0.000 
#
# Total GULP energy -247866.963756 kJ/mol
# GULP energy per Si atom -12393.348188 kJ/mol
# Density = 2.417097 g / cm^3
# Si number density = 24.226113 Si / 1000 Ang^3
#
#
#
# Elastic Constant Matrix: (Units=GPa)
#
#
# Indices 1 2 3 4 5 6 
#
# 1 140.9639 71.6184 51.5444 0.0000 0.0000 0.0000
# 2 71.6184 156.8240 42.4341 -0.0001 0.0000 0.0000
# 3 51.5444 42.4341 113.5027 0.0000 0.0000 0.0000
# 4 0.0000 -0.0001 0.0000 36.2351 0.0000 0.0000
# 5 0.0000 0.0000 0.0000 0.0000 33.0285 0.0000
# 6 0.0000 0.0000 0.0000 0.0000 0.0000 19.5396
#
#
#
# Elastic Compliance Matrix: (Units=1/GPa)
#
#
# Indices 1 2 3 4 5 6 
#
# 1 0.010192 -0.003785 -0.003213 0.000000 0.000000 0.000000
# 2 -0.003785 0.008500 -0.001459 0.000000 0.000000 0.000000
# 3 -0.003213 -0.001459 0.010815 0.000000 0.000000 0.000000
# 4 0.000000 0.000000 0.000000 0.027598 0.000000 0.000000
# 5 0.000000 0.000000 0.000000 0.000000 0.030277 0.000000
# 6 0.000000 0.000000 0.000000 0.000000 0.000000 0.051178
#
#
# Mechanical properties :
#
#
# Convention : Reuss Voigt Hill
#
# Bulk Modulus (GPa) = 79.41310 82.49826 80.95568
# Shear Modulus (GPa) = 31.31428 34.14022 32.72725
#
# Velocity S-wave (km/s) = 3.59915 3.75805 3.67946
# Velocity P-wave (km/s) = 7.07976 7.27722 7.17917
#
# Compressibility (1/GPa) = 0.01259238
#
# Stress axis : x y z
#
# Youngs Moduli (GPa) = 98.11581 117.64894 92.46361
#
# Poissons Ratio (x) = 0.44530 0.29712
# Poissons Ratio (y) = 0.37137 0.13489
# Poissons Ratio (z) = 0.31529 0.17164
#
# Static dielectric constant tensor:
#      x y z
#    x 4.636070 0.000000 0.000000 
#    y 0.000000 4.827430 0.000000 
#    z 0.000000 0.000000 4.217360 
# 
# 
# High freq. dielectric constant tensor:
#      x y z
#    x 1.984060 0.000000 0.000000 
#    y 0.000000 1.988360 0.000000 
#    z 0.000000 0.000000 1.945170 
# 
# From -- ./inp_files/27865.got.cif
#   From: 2010.03.12/outbox.cif.g09.slc.cpg/sg23_14_cif.got.tgz:27865.got - 2010.04.14 02:50:06.
