data_PCOD8164193
_publ_section_title
;
Structure prediction by ZEFSAII (Michael W. Deem and Ramdas Pophale) SiO2 
 PCOD8164193
Probable space group: I 2 2 2
;
_chemical_formula_sum "Si O2"
_cell_formula_units_Z 34
_cell_length_a 21.791118
_cell_length_b 7.927590
_cell_length_c 9.122515
_cell_angle_alpha 90.000000
_cell_angle_beta 90.000000
_cell_angle_gamma 90.000000
_cell_volume 1575.924037
_symmetry_space_group_name_H-M "I 2 2 2"
_symmetry_group_IT_number 23
_symmetry_cell_setting 'orthorhombic'
loop_
_space_group_symop_operation_xyz
x,y,z
-x,-y,z
x,-y,-z
-x,y,-z
1/2+x,1/2+y,1/2+z
1/2-x,1/2-y,1/2+z
1/2+x,1/2-y,1/2-z
1/2-x,1/2+y,1/2-z
loop_
_atom_site_type_symbol
_atom_site_label
_atom_site_fract_x
_atom_site_fract_y
_atom_site_fract_z
Si Si1 0.678748 0.953418 0.330224
Si Si2 0.300540 0.500000 0.500000
Si Si3 0.100362 0.130246 0.798510
Si Si4 0.881264 0.000000 0.500000
Si Si5 0.710406 0.752871 0.875461
Si Si6 0.500000 0.500000 0.500000
O O1 0.624646 0.822195 0.289420
O O2 0.746235 0.879617 0.289074
O O3 0.672558 0.000000 0.500000
O O4 0.674120 0.120315 0.231537
O O5 0.345438 0.494999 0.357393
O O6 0.256640 0.337469 0.494454
O O7 0.079086 0.054519 0.641318
O O8 0.041261 0.125057 0.902553
O O9 0.840015 0.162957 0.527774
#
# Coordination Sequence:
#
# PCOD8164193 Si02
#       6
#     8   4   8   4   8   2
#     4  11  24  37  62  98 141 186 221 262 319 409
#     4   9  20  35  60  88 138 177 216 251 310 410
#     4  10  24  42  66  96 122 174 232 278 339 388
#     4  12  24  37  66 102 134 171 212 274 336 410
#     4  11  22  35  58  99 143 182 206 258 325 396
#     4  10  24  50  78  84 124 174 234 302 344 398
#
# _framework density 21.574642999999998
#
# number of rings (size 3 to 8) (size 9 to 14) (size 15 to 20)
#    0.000    1.412    1.176    4.235   16.471    0.471 
#    0.000    0.588    0.000    0.000    6.118    0.000 
#    0.000    0.000    0.000    0.000    0.000    0.000 
#
# Total GULP energy -210752.220212 kJ/mol
# GULP energy per Si atom -12397.189424 kJ/mol
# Density = 2.152554 g / cm^3
# Si number density = 21.574643 Si / 1000 Ang^3
#
#
#
# Elastic Constant Matrix: (Units=GPa)
#
#
# Indices 1 2 3 4 5 6 
#
# 1 81.8225 33.0915 38.7402 0.0000 0.0000 0.0000
# 2 33.0915 105.6805 54.5127 0.0000 0.0000 0.0000
# 3 38.7402 54.5127 143.3524 0.0000 0.0000 0.0000
# 4 0.0000 0.0000 0.0000 47.4782 0.0000 0.0000
# 5 0.0000 0.0000 0.0000 0.0000 20.7679 0.0000
# 6 0.0000 0.0000 0.0000 0.0000 0.0000 15.9757
#
#
#
# Elastic Compliance Matrix: (Units=1/GPa)
#
#
# Indices 1 2 3 4 5 6 
#
# 1 0.014840 -0.003207 -0.002791 0.000000 0.000000 0.000000
# 2 -0.003207 0.012465 -0.003873 0.000000 0.000000 0.000000
# 3 -0.002791 -0.003873 0.009203 0.000000 0.000000 0.000000
# 4 0.000000 0.000000 0.000000 0.021062 0.000000 0.000000
# 5 0.000000 0.000000 0.000000 0.000000 0.048151 0.000000
# 6 0.000000 0.000000 0.000000 0.000000 0.000000 0.062595
#
#
# Mechanical properties :
#
#
# Convention : Reuss Voigt Hill
#
# Bulk Modulus (GPa) = 59.64787 64.83821 62.24304
# Shear Modulus (GPa) = 25.82017 30.47843 28.14930
#
# Velocity S-wave (km/s) = 3.46321 3.76266 3.61604
# Velocity P-wave (km/s) = 6.61052 6.99965 6.80786
#
# Compressibility (1/GPa) = 0.01676506
#
# Stress axis : x y z
#
# Youngs Moduli (GPa) = 67.38522 80.22680 108.66165
#
# Poissons Ratio (x) = 0.25731 0.30325
# Poissons Ratio (y) = 0.21612 0.42087
# Poissons Ratio (z) = 0.18806 0.31073
#
# Static dielectric constant tensor:
#      x y z
#    x 3.476890 0.000000 0.000000 
#    y 0.000000 4.122660 0.000000 
#    z 0.000000 0.000000 4.096770 
# 
# 
# High freq. dielectric constant tensor:
#      x y z
#    x 1.797290 0.000000 0.000000 
#    y 0.000000 1.851050 0.000000 
#    z 0.000000 0.000000 1.868460 
# 
# From -- ./inp_files/6734.got.cif
#   From: 2010.03.12/outbox.cif.g09.slc.cpg/sg23_4_cif.got.tgz:6734.got - 2010.04.14 02:50:06.
