data_PCOD8164442
_publ_section_title
;
Structure prediction by ZEFSAII (Michael W. Deem and Ramdas Pophale) SiO2 
 PCOD8164442
Probable space group: I 2 2 2
;
_chemical_formula_sum "Si O2"
_cell_formula_units_Z 56
_cell_length_a 13.325454
_cell_length_b 13.027994
_cell_length_c 14.830366
_cell_angle_alpha 90.000000
_cell_angle_beta 90.000000
_cell_angle_gamma 90.000000
_cell_volume 2574.609892
_symmetry_space_group_name_H-M "I 2 2 2"
_symmetry_group_IT_number 23
_symmetry_cell_setting 'orthorhombic'
loop_
_space_group_symop_operation_xyz
x,y,z
-x,-y,z
x,-y,-z
-x,y,-z
1/2+x,1/2+y,1/2+z
1/2-x,1/2-y,1/2+z
1/2+x,1/2-y,1/2-z
1/2-x,1/2+y,1/2-z
loop_
_atom_site_type_symbol
_atom_site_label
_atom_site_fract_x
_atom_site_fract_y
_atom_site_fract_z
Si Si1 0.814579 0.929235 0.342487
Si Si2 0.852489 0.793121 0.175489
Si Si3 0.818021 0.845444 0.690108
Si Si4 0.899973 0.552153 0.904645
Si Si5 0.884207 0.214314 0.503252
Si Si6 0.081859 0.782372 0.128625
Si Si7 0.269822 0.617302 0.499702
O O1 0.844645 0.842786 0.273063
O O2 0.696877 0.959018 0.342186
O O3 0.856257 0.888592 0.439092
O O4 0.858239 0.037605 0.308317
O O5 0.803072 0.678537 0.185366
O O6 0.965175 0.798870 0.142525
O O7 0.788483 0.857503 0.104317
O O8 0.862151 0.799604 0.600368
O O9 0.862591 0.784479 0.775343
O O10 0.910570 0.673298 0.921024
O O11 0.000000 0.500000 0.860765
O O12 0.878262 0.500000 0.000000
O O13 0.818337 0.310135 0.540393
O O14 0.000000 0.242960 0.500000
O O15 0.130796 0.866297 0.061566
O O16 0.234645 0.500000 0.500000
#
# Coordination Sequence:
#
# PCOD8164442 Si02
#       7
#     8   8   8   8   8   8   8
#     4  12  23  44  69 101 144 188 240 309 368 448
#     4  11  25  41  66  98 139 184 237 299 364 445
#     4  11  24  41  65  99 141 179 233 303 366 438
#     4  11  24  40  73 108 139 187 246 314 380 434
#     4  11  24  43  70  98 136 186 245 304 365 440
#     4  12  24  44  69 101 143 187 239 303 373 445
#     4  11  25  44  67  94 136 186 237 300 369 446
#
# _framework density 21.750867
#
# number of rings (size 3 to 8) (size 9 to 14) (size 15 to 20)
#    0.000    0.714    2.857    4.286    6.000    5.429 
#    0.000    1.429    0.000    0.000    0.000    0.000 
#    0.000    0.000    0.000    0.000    0.000    0.000 
#
# Total GULP energy -347016.874318 kJ/mol
# GULP energy per Si atom -12393.459797 kJ/mol
# Density = 2.170136 g / cm^3
# Si number density = 21.750867 Si / 1000 Ang^3
#
#
#
# Elastic Constant Matrix: (Units=GPa)
#
#
# Indices 1 2 3 4 5 6 
#
# 1 122.7548 37.6041 16.5429 0.0000 0.0000 0.0000
# 2 37.6041 139.9585 33.1808 0.0000 0.0000 0.0000
# 3 16.5429 33.1808 97.4774 0.0000 0.0000 0.0000
# 4 0.0000 0.0000 0.0000 51.4536 0.0000 0.0000
# 5 0.0000 0.0000 0.0000 0.0000 26.3965 0.0000
# 6 0.0000 0.0000 0.0000 0.0000 0.0000 25.6058
#
#
#
# Elastic Compliance Matrix: (Units=1/GPa)
#
#
# Indices 1 2 3 4 5 6 
#
# 1 0.008928 -0.002219 -0.000760 0.000000 0.000000 0.000000
# 2 -0.002219 0.008324 -0.002457 0.000000 0.000000 0.000000
# 3 -0.000760 -0.002457 0.011224 0.000000 0.000000 0.000000
# 4 0.000000 0.000000 0.000000 0.019435 0.000000 0.000000
# 5 0.000000 0.000000 0.000000 0.000000 0.037884 0.000000
# 6 0.000000 0.000000 0.000000 0.000000 0.000000 0.039054
#
#
# Mechanical properties :
#
#
# Convention : Reuss Voigt Hill
#
# Bulk Modulus (GPa) = 56.80190 59.42738 58.11464
# Shear Modulus (GPa) = 35.31382 38.88205 37.09793
#
# Velocity S-wave (km/s) = 4.03371 4.23260 4.13435
# Velocity P-wave (km/s) = 6.91852 7.16015 7.04037
#
# Compressibility (1/GPa) = 0.01760504
#
# Stress axis : x y z
#
# Youngs Moduli (GPa) = 112.00201 120.14118 89.09453
#
# Poissons Ratio (x) = 0.26656 0.06771
# Poissons Ratio (y) = 0.24850 0.21888
# Poissons Ratio (z) = 0.08512 0.29516
#
# Static dielectric constant tensor:
#      x y z
#    x 3.894370 0.000000 0.000000 
#    y 0.000000 4.220360 0.000000 
#    z 0.000000 0.000000 3.804260 
# 
# 
# High freq. dielectric constant tensor:
#      x y z
#    x 1.858600 0.000000 0.000000 
#    y 0.000000 1.854250 0.000000 
#    z 0.000000 0.000000 1.858640 
# 
# From -- ./inp_files/21596.got.cif
#   From: 2010.03.12/outbox.cif.g09.slc.cpg/sg23_11_cif.got.tgz:21596.got - 2010.04.14 02:50:06.
