data_PCOD8164073
_publ_section_title
;
Structure prediction by ZEFSAII (Michael W. Deem and Ramdas Pophale) SiO2 
 PCOD8164073
Probable space group: I 2 2 2
;
_chemical_formula_sum "Si O2"
_cell_formula_units_Z 40
_cell_length_a 8.177851
_cell_length_b 27.732405
_cell_length_c 8.169769
_cell_angle_alpha 90.000000
_cell_angle_beta 90.000000
_cell_angle_gamma 90.000000
_cell_volume 1852.833970
_symmetry_space_group_name_H-M "I 2 2 2"
_symmetry_group_IT_number 23
_symmetry_cell_setting 'orthorhombic'
loop_
_space_group_symop_operation_xyz
x,y,z
-x,-y,z
x,-y,-z
-x,y,-z
1/2+x,1/2+y,1/2+z
1/2-x,1/2-y,1/2+z
1/2+x,1/2-y,1/2-z
1/2-x,1/2+y,1/2-z
loop_
_atom_site_type_symbol
_atom_site_label
_atom_site_fract_x
_atom_site_fract_y
_atom_site_fract_z
Si Si1 0.000000 0.000000 0.000000
Si Si2 0.825712 0.137078 0.421442
Si Si3 0.500000 0.000000 0.000000
Si Si4 0.236018 0.432012 0.348536
Si Si5 0.983963 0.793676 0.825293
Si Si6 0.500000 0.859802 0.000000
Si Si7 0.659946 0.191934 0.697069
O O1 0.101383 0.961269 0.104742
O O2 0.759059 0.089070 0.333098
O O3 0.852962 0.179314 0.288438
O O4 0.684939 0.153471 0.549254
O O5 0.000000 0.123767 0.500000
O O6 0.404281 0.028838 0.861561
O O7 0.168097 0.389670 0.468827
O O8 0.925440 0.739954 0.865815
O O9 0.159391 0.792506 0.744652
O O10 0.000000 0.821132 0.000000
O O11 0.454543 0.828185 0.841604
#
# Coordination Sequence:
#
# PCOD8164073 Si02
#       7
#     2   8   2   8   8   4   8
#     4  10  24  42  86  94 124 174 218 286 360 442
#     4  10  24  41  66 100 137 175 231 289 333 400
#     4   8  20  46  72 104 124 172 212 286 356 442
#     4  10  22  44  72 100 128 166 225 275 353 421
#     4  11  24  40  64  94 140 186 237 276 330 390
#     4  11  26  41  72  96 138 178 226 275 344 411
#     4  11  26  41  64 100 140 189 231 280 330 390
#
# _framework density 21.588550999999999
#
# number of rings (size 3 to 8) (size 9 to 14) (size 15 to 20)
#    0.000    1.600    0.000    2.400   19.600    0.000 
#    0.000    0.500    4.400    0.000    0.000    0.000 
#    0.000    0.000    0.000    0.000    0.000    0.000 
#
# Total GULP energy -247762.549924 kJ/mol
# GULP energy per Si atom -12388.127496 kJ/mol
# Density = 2.153941 g / cm^3
# Si number density = 21.588551 Si / 1000 Ang^3
#
#
#
# Elastic Constant Matrix: (Units=GPa)
#
#
# Indices 1 2 3 4 5 6 
#
# 1 105.5879 61.8699 51.6536 0.0006 -0.0004 0.0007
# 2 61.8699 108.6273 65.4817 -0.0015 -0.0003 0.0021
# 3 51.6536 65.4817 155.3694 -0.0021 0.0013 0.0067
# 4 0.0006 -0.0015 -0.0021 38.3348 0.0003 0.0037
# 5 -0.0004 -0.0003 0.0013 0.0003 34.8989 0.0003
# 6 0.0007 0.0021 0.0067 0.0037 0.0003 15.9928
#
#
#
# Elastic Compliance Matrix: (Units=1/GPa)
#
#
# Indices 1 2 3 4 5 6 
#
# 1 0.014584 -0.007217 -0.001807 -0.000001 0.000000 0.000001
# 2 -0.007217 0.015913 -0.004307 0.000000 0.000000 0.000000
# 3 -0.001807 -0.004307 0.008852 0.000000 0.000000 -0.000003
# 4 -0.000001 0.000000 0.000000 0.026086 0.000000 -0.000006
# 5 0.000000 0.000000 0.000000 0.000000 0.028654 0.000000
# 6 0.000001 0.000000 -0.000003 -0.000006 0.000000 0.062528
#
#
# Mechanical properties :
#
#
# Convention : Reuss Voigt Hill
#
# Bulk Modulus (GPa) = 78.82362 80.84388 79.83375
# Shear Modulus (GPa) = 26.66557 30.55059 28.60808
#
# Velocity S-wave (km/s) = 3.51831 3.76590 3.64421
# Velocity P-wave (km/s) = 7.28668 7.51254 7.40047
#
# Compressibility (1/GPa) = 0.01268655
#
# Stress axis : x y z
#
# Youngs Moduli (GPa) = 68.57059 62.84251 112.96607
#
# Poissons Ratio (x) = 0.45354 0.20409
# Poissons Ratio (y) = 0.49488 0.48657
# Poissons Ratio (z) = 0.12388 0.27068
#
# Static dielectric constant tensor:
#      x y z
#    x 4.168190 0.000000 0.000000 
#    y 0.000000 3.983530 0.000000 
#    z 0.000000 0.000000 3.974980 
# 
# 
# High freq. dielectric constant tensor:
#      x y z
#    x 1.868330 0.000000 0.000000 
#    y 0.000000 1.841580 0.000000 
#    z 0.000000 0.000000 1.842620 
# 
# From -- ./inp_files/7143.got.cif
#   From: 2010.03.12/outbox.cif.g09.slc.cpg/sg23_4_cif.got.tgz:7143.got - 2010.04.14 02:50:06.
