data_PCOD8164962
_publ_section_title
;
Structure prediction by ZEFSAII (Michael W. Deem and Ramdas Pophale) SiO2 
 PCOD8164962
Probable space group: I 21 21 21
;
_chemical_formula_sum "Si O2"
_cell_formula_units_Z 36
_cell_length_a 8.234623
_cell_length_b 14.206032
_cell_length_c 15.240367
_cell_angle_alpha 90.000000
_cell_angle_beta 90.000000
_cell_angle_gamma 90.000000
_cell_volume 1782.838216
_symmetry_space_group_name_H-M "I 21 21 21"
_symmetry_group_IT_number 24
_symmetry_cell_setting 'orthorhombic'
loop_
_space_group_symop_operation_xyz
x,y,z
-x,1/2-y,z
x,-y,1/2-z
1/2-x,y,-z
1/2+x,1/2+y,1/2+z
1/2-x,-y,1/2+z
1/2+x,1/2-y,-z
-x,1/2+y,1/2-z
loop_
_atom_site_type_symbol
_atom_site_label
_atom_site_fract_x
_atom_site_fract_y
_atom_site_fract_z
Si Si1 0.131920 0.180627 0.750918
Si Si2 0.138036 0.309092 0.350205
Si Si3 0.061701 0.500000 0.750000
Si Si4 0.199587 0.510516 0.404545
Si Si5 0.462738 0.150929 0.831782
O O1 0.209503 0.241010 0.670786
O O2 0.268560 0.144758 0.819179
O O3 0.000000 0.250000 0.797099
O O4 0.045230 0.086755 0.714452
O O5 0.186861 0.397679 0.408388
O O6 0.057373 0.347452 0.260660
O O7 0.000000 0.250000 0.402239
O O8 0.170003 0.539369 0.669628
O O9 0.250000 0.547079 0.500000
O O10 0.026745 0.560650 0.384819
O O11 0.500000 0.250000 0.881464
#
# Coordination Sequence:
#
# PCOD8164962 Si02
#       5
#     8   8   4   8   8
#     4  10  19  35  66  95 117 168 212 272 327 376
#     4   9  19  38  63  89 121 171 213 256 326 393
#     4  12  22  38  64  88 128 162 220 270 316 392
#     4  12  23  41  64  94 129 174 211 267 329 397
#     4   9  19  38  67  88 119 170 215 257 323 384
#
# _framework density 20.192523000000001
#
# number of rings (size 3 to 8) (size 9 to 14) (size 15 to 20)
#    0.000    2.222    4.444    1.333    6.222    0.000 
#    4.000    6.667    0.000    0.000    0.000    0.000 
#    0.000    0.000    0.000    0.000    0.000    0.000 
#
# Total GULP energy -223046.541853 kJ/mol
# GULP energy per Si atom -12391.474547 kJ/mol
# Density = 2.014656 g / cm^3
# Si number density = 20.192523 Si / 1000 Ang^3
#
#
#
# Elastic Constant Matrix: (Units=GPa)
#
#
# Indices 1 2 3 4 5 6 
#
# 1 135.0623 55.6324 31.2812 0.0000 0.0000 0.0000
# 2 55.6324 124.7514 13.1767 0.0000 0.0000 0.0000
# 3 31.2812 13.1767 65.2897 0.0000 0.0000 0.0000
# 4 0.0000 0.0000 0.0000 14.6255 0.0000 0.0000
# 5 0.0000 0.0000 0.0000 0.0000 11.7268 0.0000
# 6 0.0000 0.0000 0.0000 0.0000 0.0000 53.9397
#
#
#
# Elastic Compliance Matrix: (Units=1/GPa)
#
#
# Indices 1 2 3 4 5 6 
#
# 1 0.009985 -0.004033 -0.003970 0.000000 0.000000 0.000000
# 2 -0.004033 0.009820 -0.000049 0.000000 0.000000 0.000000
# 3 -0.003970 -0.000049 0.017228 0.000000 0.000000 0.000000
# 4 0.000000 0.000000 0.000000 0.068374 0.000000 0.000000
# 5 0.000000 0.000000 0.000000 0.000000 0.085275 0.000000
# 6 0.000000 0.000000 0.000000 0.000000 0.000000 0.018539
#
#
# Mechanical properties :
#
#
# Convention : Reuss Voigt Hill
#
# Bulk Modulus (GPa) = 47.78347 58.36491 53.07419
# Shear Modulus (GPa) = 21.52373 31.05926 26.29150
#
# Velocity S-wave (km/s) = 3.26839 3.92619 3.61230
# Velocity P-wave (km/s) = 6.16105 7.03706 6.61358
#
# Compressibility (1/GPa) = 0.02092774
#
# Stress axis : x y z
#
# Youngs Moduli (GPa) = 100.15242 101.83484 58.04400
#
# Poissons Ratio (x) = 0.41074 0.23043
# Poissons Ratio (y) = 0.40395 0.00287
# Poissons Ratio (z) = 0.39759 0.00503
#
# Static dielectric constant tensor:
#      x y z
#    x 3.985660 0.000000 0.000000 
#    y 0.000000 4.012830 0.000000 
#    z 0.000000 0.000000 2.964960 
# 
# 
# High freq. dielectric constant tensor:
#      x y z
#    x 1.803140 0.000000 0.000000 
#    y 0.000000 1.809880 0.000000 
#    z 0.000000 0.000000 1.711640 
# 
# From -- ./inp_files/24464.got.cif
#   From: 2010.03.12/outbox.cif.g09.slc.cpg/sg24_13_cif.got.tgz:24464.got - 2010.04.14 03:06:53.
