data_PCOD8164028
_publ_section_title
;
Structure prediction by ZEFSAII (Michael W. Deem and Ramdas Pophale) SiO2 
 PCOD8164028
Probable space group: I 2 2 2
;
_chemical_formula_sum "Si O2"
_cell_formula_units_Z 48
_cell_length_a 12.180400
_cell_length_b 10.681288
_cell_length_c 17.996860
_cell_angle_alpha 90.000000
_cell_angle_beta 90.000000
_cell_angle_gamma 90.000000
_cell_volume 2341.433965
_symmetry_space_group_name_H-M "I 2 2 2"
_symmetry_group_IT_number 23
_symmetry_cell_setting 'orthorhombic'
loop_
_space_group_symop_operation_xyz
x,y,z
-x,-y,z
x,-y,-z
-x,y,-z
1/2+x,1/2+y,1/2+z
1/2-x,1/2-y,1/2+z
1/2+x,1/2-y,1/2-z
1/2-x,1/2+y,1/2-z
loop_
_atom_site_type_symbol
_atom_site_label
_atom_site_fract_x
_atom_site_fract_y
_atom_site_fract_z
Si Si1 0.927056 0.820358 0.804452
Si Si2 0.373012 0.633464 0.021953
Si Si3 0.495599 0.135012 0.817269
Si Si4 0.844802 0.909147 0.180529
Si Si5 0.791450 0.218183 0.669837
Si Si6 0.834414 0.385130 0.443733
O O1 0.947178 0.746585 0.727694
O O2 0.834740 0.748512 0.853403
O O3 0.044237 0.835044 0.845404
O O4 0.876687 0.955808 0.786830
O O5 0.352533 0.631089 0.110417
O O6 0.320791 0.500000 0.000000
O O7 0.500000 0.638457 0.000000
O O8 0.312176 0.753513 0.986000
O O9 0.365460 0.156367 0.827749
O O10 0.552753 0.126435 0.897798
O O11 0.500000 0.000000 0.776155
O O12 0.785041 0.841150 0.248449
O O13 0.767862 0.913675 0.109421
O O14 0.845657 0.500000 0.500000
#
# Coordination Sequence:
#
# PCOD8164028 Si02
#       6
#     8   8   8   8   8   8
#     4  10  22  41  63  94 128 171 230 268 334 405
#     4  11  25  40  62  96 134 177 214 277 349 410
#     4  11  22  37  63  99 131 169 216 287 337 398
#     4  10  23  41  68  93 127 185 226 276 331 417
#     4  11  22  39  65  94 132 169 221 273 338 401
#     4  12  24  43  68 100 137 173 232 284 348 415
#
# _framework density 20.500257999999999
#
# number of rings (size 3 to 8) (size 9 to 14) (size 15 to 20)
#    0.000    1.167    3.333    3.000    2.333    1.333 
#    3.000    5.833    0.000    1.000    0.000    0.000 
#    0.000    0.000    0.000    0.000    0.000    0.000 
#
# Total GULP energy -297441.197537 kJ/mol
# GULP energy per Si atom -12393.383231 kJ/mol
# Density = 2.045360 g / cm^3
# Si number density = 20.500258 Si / 1000 Ang^3
#
#
#
# Elastic Constant Matrix: (Units=GPa)
#
#
# Indices 1 2 3 4 5 6 
#
# 1 96.3693 23.7122 41.1768 0.0000 0.0000 0.0000
# 2 23.7122 140.8204 43.2194 0.0000 0.0000 0.0000
# 3 41.1768 43.2194 95.8904 0.0000 0.0000 0.0000
# 4 0.0000 0.0000 0.0000 31.5584 0.0000 0.0000
# 5 0.0000 0.0000 0.0000 0.0000 28.3030 0.0000
# 6 0.0000 0.0000 0.0000 0.0000 0.0000 21.3099
#
#
#
# Elastic Compliance Matrix: (Units=1/GPa)
#
#
# Indices 1 2 3 4 5 6 
#
# 1 0.012744 -0.000541 -0.005229 0.000000 0.000000 0.000000
# 2 -0.000541 0.008264 -0.003492 0.000000 0.000000 0.000000
# 3 -0.005229 -0.003492 0.014248 0.000000 0.000000 0.000000
# 4 0.000000 0.000000 0.000000 0.031687 0.000000 0.000000
# 5 0.000000 0.000000 0.000000 0.000000 0.035332 0.000000
# 6 0.000000 0.000000 0.000000 0.000000 0.000000 0.046926
#
#
# Mechanical properties :
#
#
# Convention : Reuss Voigt Hill
#
# Bulk Modulus (GPa) = 59.76658 61.03300 60.39979
# Shear Modulus (GPa) = 28.85113 31.23236 30.04175
#
# Velocity S-wave (km/s) = 3.75554 3.90745 3.83225
# Velocity P-wave (km/s) = 6.92985 7.08477 7.00774
#
# Compressibility (1/GPa) = 0.01673176
#
# Stress axis : x y z
#
# Youngs Moduli (GPa) = 78.46847 121.00318 70.18587
#
# Poissons Ratio (x) = 0.06549 0.36697
# Poissons Ratio (y) = 0.04247 0.24512
# Poissons Ratio (z) = 0.41027 0.42260
#
# Static dielectric constant tensor:
#      x y z
#    x 3.904250 0.000000 0.000000 
#    y 0.000000 4.087750 0.000000 
#    z 0.000000 0.000000 3.476190 
# 
# 
# High freq. dielectric constant tensor:
#      x y z
#    x 1.807010 0.000000 0.000000 
#    y 0.000000 1.817260 0.000000 
#    z 0.000000 0.000000 1.776050 
# 
# From -- ./inp_files/24298.got.cif
#   From: 2010.03.12/outbox.cif.g09.slc.cpg/sg23_13_cif.got.tgz:24298.got - 2010.04.14 02:50:06.
