data_PCOD8164620
_publ_section_title
;
Structure prediction by ZEFSAII (Michael W. Deem and Ramdas Pophale) SiO2 
 PCOD8164620
Probable space group: I 21 21 21
;
_chemical_formula_sum "Si O2"
_cell_formula_units_Z 64
_cell_length_a 28.514822
_cell_length_b 9.020557
_cell_length_c 17.000370
_cell_angle_alpha 90.000000
_cell_angle_beta 90.000000
_cell_angle_gamma 90.000000
_cell_volume 4372.827984
_symmetry_space_group_name_H-M "I 21 21 21"
_symmetry_group_IT_number 24
_symmetry_cell_setting 'orthorhombic'
loop_
_space_group_symop_operation_xyz
x,y,z
-x,1/2-y,z
x,-y,1/2-z
1/2-x,y,-z
1/2+x,1/2+y,1/2+z
1/2-x,-y,1/2+z
1/2+x,1/2-y,-z
-x,1/2+y,1/2-z
loop_
_atom_site_type_symbol
_atom_site_label
_atom_site_fract_x
_atom_site_fract_y
_atom_site_fract_z
Si Si1 0.709759 0.087956 0.056935
Si Si2 0.765459 0.904032 0.182738
Si Si3 0.953428 0.166850 0.838036
Si Si4 0.048566 0.680984 0.844364
Si Si5 0.135346 0.146121 0.583518
Si Si6 0.862570 0.687397 0.618940
Si Si7 0.802718 0.195923 0.471745
Si Si8 0.697541 0.339319 0.269022
O O1 0.677363 0.229377 0.070265
O O2 0.730080 0.013984 0.136362
O O3 0.750000 0.149851 0.000000
O O4 0.681676 0.959403 0.010981
O O5 0.801713 0.823432 0.123223
O O6 0.737534 0.783459 0.234966
O O7 0.792319 0.000000 0.250000
O O8 0.943624 0.212148 0.747728
O O9 0.910074 0.221815 0.889018
O O10 0.000000 0.250000 0.867557
O O11 0.956422 0.993861 0.855656
O O12 0.090073 0.754566 0.895359
O O13 0.000000 0.750000 0.874288
O O14 0.157476 0.187057 0.497980
O O15 0.177000 0.176014 0.644132
O O16 0.124378 0.972235 0.583335
O O17 0.845484 0.681987 0.708919
O O18 0.750000 0.239946 0.500000
O O19 0.720301 0.500000 0.250000
#
# Coordination Sequence:
#
# PCOD8164620 Si02
#       8
#     8   8   8   8   8   8   8   8
#     4   9  18  30  42  63  83 111 152 186 225 266
#     4  10  17  30  47  61  86 112 154 191 226 266
#     4  10  20  30  43  63  84 111 153 193 226 255
#     4  10  20  31  45  60  85 117 148 190 227 263
#     4  11  19  31  42  61  89 117 152 185 228 273
#     4  11  20  28  45  62  86 118 151 194 223 263
#     4   9  18  30  44  61  85 117 149 183 227 273
#     4  10  19  27  40  64  85 116 153 186 221 270
#
# _framework density 14.635837
#
# number of rings (size 3 to 8) (size 9 to 14) (size 15 to 20)
#    0.000    2.250    5.000    1.500    0.000    1.500 
#    0.000    0.000    0.000    0.000    0.000    0.000 
#    0.000    0.000    0.000   15.750    0.000    3.750 
#
# Total GULP energy -396560.691183 kJ/mol
# GULP energy per Si atom -12392.521599 kJ/mol
# Density = 1.460253 g / cm^3
# Si number density = 14.635837 Si / 1000 Ang^3
#
#
#
# Elastic Constant Matrix: (Units=GPa)
#
#
# Indices 1 2 3 4 5 6 
#
# 1 70.9880 50.1558 32.7350 0.0000 0.0000 0.0000
# 2 50.1558 86.3305 32.9767 0.0000 0.0000 0.0000
# 3 32.7350 32.9767 61.5491 0.0000 0.0000 0.0000
# 4 0.0000 0.0000 0.0000 20.7156 0.0000 0.0000
# 5 0.0000 0.0000 0.0000 0.0000 18.2180 0.0000
# 6 0.0000 0.0000 0.0000 0.0000 0.0000 25.2939
#
#
#
# Elastic Compliance Matrix: (Units=1/GPa)
#
#
# Indices 1 2 3 4 5 6 
#
# 1 0.026258 -0.012474 -0.007282 0.000000 0.000000 0.000000
# 2 -0.012474 0.020489 -0.004344 0.000000 0.000000 0.000000
# 3 -0.007282 -0.004344 0.022448 0.000000 0.000000 0.000000
# 4 0.000000 0.000000 0.000000 0.048273 0.000000 0.000000
# 5 0.000000 0.000000 0.000000 0.000000 0.054891 0.000000
# 6 0.000000 0.000000 0.000000 0.000000 0.000000 0.039535
#
#
# Mechanical properties :
#
#
# Convention : Reuss Voigt Hill
#
# Bulk Modulus (GPa) = 47.62840 50.06695 48.84767
# Shear Modulus (GPa) = 18.72016 19.71217 19.21617
#
# Velocity S-wave (km/s) = 3.58028 3.67392 3.62740
# Velocity P-wave (km/s) = 7.05012 7.23046 7.14086
#
# Compressibility (1/GPa) = 0.02099588
#
# Stress axis : x y z
#
# Youngs Moduli (GPa) = 38.08353 48.80573 44.54815
#
# Poissons Ratio (x) = 0.60878 0.32442
# Poissons Ratio (y) = 0.47504 0.19350
# Poissons Ratio (z) = 0.27734 0.21200
#
# Static dielectric constant tensor:
#      x y z
#    x 2.631460 0.000000 0.000000 
#    y 0.000000 2.946370 0.000000 
#    z 0.000000 0.000000 2.681150 
# 
# 
# High freq. dielectric constant tensor:
#      x y z
#    x 1.530740 0.000000 0.000000 
#    y 0.000000 1.574330 0.000000 
#    z 0.000000 0.000000 1.525330 
# 
# From -- ./inp_files/16510.got.cif
#   From: 2010.03.12/outbox.cif.g09.slc.cpg/sg24_9_cif.got.tgz:16510.got - 2010.04.14 03:06:53.
