data_PCOD8164529
_publ_section_title
;
Structure prediction by ZEFSAII (Michael W. Deem and Ramdas Pophale) SiO2 
 PCOD8164529
Probable space group: I 2 2 2
;
_chemical_formula_sum "Si O2"
_cell_formula_units_Z 28
_cell_length_a 4.961218
_cell_length_b 11.027320
_cell_length_c 21.055445
_cell_angle_alpha 90.000000
_cell_angle_beta 90.000000
_cell_angle_gamma 90.000000
_cell_volume 1151.921045
_symmetry_space_group_name_H-M "I 2 2 2"
_symmetry_group_IT_number 23
_symmetry_cell_setting 'orthorhombic'
loop_
_space_group_symop_operation_xyz
x,y,z
-x,-y,z
x,-y,-z
-x,y,-z
1/2+x,1/2+y,1/2+z
1/2-x,1/2-y,1/2+z
1/2+x,1/2-y,1/2-z
1/2-x,1/2+y,1/2-z
loop_
_atom_site_type_symbol
_atom_site_label
_atom_site_fract_x
_atom_site_fract_y
_atom_site_fract_z
Si Si1 0.000000 0.500000 0.337804
Si Si2 0.946268 0.286342 0.569785
Si Si3 0.310317 0.827097 0.740929
Si Si4 0.469401 0.864737 0.397523
O O1 0.123451 0.396104 0.382389
O O2 0.221775 0.561482 0.290985
O O3 0.671667 0.213736 0.560676
O O4 0.000000 0.340398 0.500000
O O5 0.174907 0.195007 0.596247
O O6 0.516905 0.728963 0.771357
O O7 0.436511 0.870295 0.675305
O O8 0.500000 0.000000 0.425032
#
# Coordination Sequence:
#
# PCOD8164529 Si02
#       4
#     4   8   8   8
#     4  12  25  46  78 104 147 176 238 288 368 408
#     4  12  28  47  70 103 145 190 238 283 346 425
#     4  12  24  43  69 103 141 176 224 290 351 416
#     4  12  25  46  72 105 137 189 239 292 351 407
#
# _framework density 24.307220999999998
#
# number of rings (size 3 to 8) (size 9 to 14) (size 15 to 20)
#    0.000    0.000    7.143    2.143    0.000    8.000 
#    0.000    2.857    0.000    0.000    0.000    0.000 
#    0.000    0.000    0.000    0.000    0.000    0.000 
#
# Total GULP energy -173573.674260 kJ/mol
# GULP energy per Si atom -12398.119590 kJ/mol
# Density = 2.425190 g / cm^3
# Si number density = 24.307221 Si / 1000 Ang^3
#
#
#
# Elastic Constant Matrix: (Units=GPa)
#
#
# Indices 1 2 3 4 5 6 
#
# 1 91.0222 36.6712 -4.5769 0.0000 0.0000 0.0000
# 2 36.6712 143.2912 28.2468 -0.0001 0.0000 0.0000
# 3 -4.5769 28.2468 129.2385 0.0000 0.0000 0.0000
# 4 0.0000 -0.0001 0.0000 7.0873 0.0000 0.0000
# 5 0.0000 0.0000 0.0000 0.0000 32.2393 0.0000
# 6 0.0000 0.0000 0.0000 0.0000 0.0000 21.0905
#
#
#
# Elastic Compliance Matrix: (Units=1/GPa)
#
#
# Indices 1 2 3 4 5 6 
#
# 1 0.012421 -0.003412 0.001186 0.000000 0.000000 0.000000
# 2 -0.003412 0.008231 -0.001920 0.000000 0.000000 0.000000
# 3 0.001186 -0.001920 0.008199 0.000000 0.000000 0.000000
# 4 0.000000 0.000000 0.000000 0.141098 0.000000 0.000000
# 5 0.000000 0.000000 0.000000 0.000000 0.031018 0.000000
# 6 0.000000 0.000000 0.000000 0.000000 0.000000 0.047415
#
#
# Mechanical properties :
#
#
# Convention : Reuss Voigt Hill
#
# Bulk Modulus (GPa) = 48.64398 53.80378 51.22388
# Shear Modulus (GPa) = 18.97342 32.29748 25.63545
#
# Velocity S-wave (km/s) = 2.79689 3.64912 3.25105
# Velocity P-wave (km/s) = 5.52139 6.31963 5.93395
#
# Compressibility (1/GPa) = 0.02055753
#
# Stress axis : x y z
#
# Youngs Moduli (GPa) = 80.51028 121.49846 121.96298
#
# Poissons Ratio (x) = 0.41461 -0.14461
# Poissons Ratio (y) = 0.27474 0.23414
# Poissons Ratio (z) = -0.09546 0.23325
#
# Static dielectric constant tensor:
#      x y z
#    x 4.486660 0.000000 0.000000 
#    y 0.000000 4.651540 0.000000 
#    z 0.000000 0.000000 4.524400 
# 
# 
# High freq. dielectric constant tensor:
#      x y z
#    x 1.947310 0.000000 0.000000 
#    y 0.000000 1.968200 0.000000 
#    z 0.000000 0.000000 1.989530 
# 
# From -- ./inp_files/1463.got.cif
#   From: 2010.03.12/outbox.cif.g09.slc.cpg/sg23_1_cif.got.tgz:1463.got - 2010.04.14 02:50:06.
