data_PCOD8164324
_publ_section_title
;
Structure prediction by ZEFSAII (Michael W. Deem and Ramdas Pophale) SiO2 
 PCOD8164324
Probable space group: I 2 2 2
;
_chemical_formula_sum "Si O2"
_cell_formula_units_Z 48
_cell_length_a 22.533513
_cell_length_b 9.014628
_cell_length_c 12.080518
_cell_angle_alpha 90.000000
_cell_angle_beta 90.000000
_cell_angle_gamma 90.000000
_cell_volume 2453.930568
_symmetry_space_group_name_H-M "I 2 2 2"
_symmetry_group_IT_number 23
_symmetry_cell_setting 'orthorhombic'
loop_
_space_group_symop_operation_xyz
x,y,z
-x,-y,z
x,-y,-z
-x,y,-z
1/2+x,1/2+y,1/2+z
1/2-x,1/2-y,1/2+z
1/2+x,1/2-y,1/2-z
1/2-x,1/2+y,1/2-z
loop_
_atom_site_type_symbol
_atom_site_label
_atom_site_fract_x
_atom_site_fract_y
_atom_site_fract_z
Si Si1 0.930529 0.344011 0.564776
Si Si2 0.031486 0.160231 0.631540
Si Si3 0.821926 0.454199 0.687469
Si Si4 0.254961 0.887259 0.400295
Si Si5 0.351821 0.279925 0.231453
Si Si6 0.292413 0.362847 0.445236
O O1 0.940482 0.500000 0.500000
O O2 0.931077 0.202911 0.480008
O O3 0.871083 0.342704 0.637762
O O4 0.984900 0.297843 0.647455
O O5 0.080731 0.159277 0.728625
O O6 0.000000 0.000000 0.624352
O O7 0.808573 0.424102 0.816295
O O8 0.848014 0.618999 0.675044
O O9 0.763414 0.434228 0.616684
O O10 0.192875 0.888591 0.333971
O O11 0.269517 0.730172 0.451760
O O12 0.250270 0.000000 0.500000
O O13 0.333200 0.271148 0.360550
O O14 0.328606 0.500000 0.500000
#
# Coordination Sequence:
#
# PCOD8164324 Si02
#       6
#     8   8   8   8   8   8
#     4  11  21  37  63  85 119 161 200 248 305 363
#     4  11  24  39  57  94 122 157 202 253 309 361
#     4  11  22  38  63  92 121 162 210 242 305 373
#     4  11  23  38  60  93 124 158 200 256 300 363
#     4  11  23  39  63  90 125 164 201 251 302 368
#     4  11  22  39  62  91 127 160 201 250 310 357
#
# _framework density 19.560457
#
# number of rings (size 3 to 8) (size 9 to 14) (size 15 to 20)
#    0.000    1.000    5.000    3.500    0.000    5.333 
#    0.000    0.000    0.000    3.500    0.000    0.000 
#    0.000    0.000    0.000    0.000    0.000    0.000 
#
# Total GULP energy -297382.841591 kJ/mol
# GULP energy per Si atom -12390.951733 kJ/mol
# Density = 1.951594 g / cm^3
# Si number density = 19.560457 Si / 1000 Ang^3
#
#
#
# Elastic Constant Matrix: (Units=GPa)
#
#
# Indices 1 2 3 4 5 6 
#
# 1 103.6363 36.2288 39.6522 0.0000 0.0000 0.0000
# 2 36.2288 105.9641 26.3635 0.0000 0.0000 0.0000
# 3 39.6522 26.3635 71.0663 0.0000 0.0000 0.0000
# 4 0.0000 0.0000 0.0000 28.9297 0.0000 0.0000
# 5 0.0000 0.0000 0.0000 0.0000 33.7158 0.0000
# 6 0.0000 0.0000 0.0000 0.0000 0.0000 31.8145
#
#
#
# Elastic Compliance Matrix: (Units=1/GPa)
#
#
# Indices 1 2 3 4 5 6 
#
# 1 0.013038 -0.002917 -0.006193 0.000000 0.000000 0.000000
# 2 -0.002917 0.011049 -0.002471 0.000000 0.000000 0.000000
# 3 -0.006193 -0.002471 0.018443 0.000000 0.000000 0.000000
# 4 0.000000 0.000000 0.000000 0.034567 0.000000 0.000000
# 5 0.000000 0.000000 0.000000 0.000000 0.029660 0.000000
# 6 0.000000 0.000000 0.000000 0.000000 0.000000 0.031432
#
#
# Mechanical properties :
#
#
# Convention : Reuss Voigt Hill
#
# Bulk Modulus (GPa) = 51.62934 53.90617 52.76776
# Shear Modulus (GPa) = 29.79597 30.78682 30.29139
#
# Velocity S-wave (km/s) = 3.90715 3.97158 3.93950
# Velocity P-wave (km/s) = 6.84153 6.97495 6.90856
#
# Compressibility (1/GPa) = 0.01936883
#
# Stress axis : x y z
#
# Youngs Moduli (GPa) = 76.69764 90.50303 54.21979
#
# Poissons Ratio (x) = 0.26400 0.33577
# Poissons Ratio (y) = 0.22373 0.13400
# Poissons Ratio (z) = 0.47496 0.22367
#
# Static dielectric constant tensor:
#      x y z
#    x 3.665830 0.000000 0.000000 
#    y 0.000000 3.344790 0.000000 
#    z 0.000000 0.000000 3.523000 
# 
# 
# High freq. dielectric constant tensor:
#      x y z
#    x 1.747820 0.000000 0.000000 
#    y 0.000000 1.771600 0.000000 
#    z 0.000000 0.000000 1.746440 
# 
# From -- ./inp_files/18293.got.cif
#   From: 2010.03.12/outbox.cif.g09.slc.cpg/sg23_10_cif.got.tgz:18293.got - 2010.04.14 02:50:06.
