data_PCOD8164740
_publ_section_title
;
Structure prediction by ZEFSAII (Michael W. Deem and Ramdas Pophale) SiO2 
 PCOD8164740
Probable space group: I 21 21 21
;
_chemical_formula_sum "Si O2"
_cell_formula_units_Z 52
_cell_length_a 9.429177
_cell_length_b 21.420568
_cell_length_c 12.991325
_cell_angle_alpha 90.000000
_cell_angle_beta 90.000000
_cell_angle_gamma 90.000000
_cell_volume 2623.966090
_symmetry_space_group_name_H-M "I 21 21 21"
_symmetry_group_IT_number 24
_symmetry_cell_setting 'orthorhombic'
loop_
_space_group_symop_operation_xyz
x,y,z
-x,1/2-y,z
x,-y,1/2-z
1/2-x,y,-z
1/2+x,1/2+y,1/2+z
1/2-x,-y,1/2+z
1/2+x,1/2-y,-z
-x,1/2+y,1/2-z
loop_
_atom_site_type_symbol
_atom_site_label
_atom_site_fract_x
_atom_site_fract_y
_atom_site_fract_z
Si Si1 0.750000 0.680332 0.000000
Si Si2 0.502954 0.347152 0.236452
Si Si3 0.248673 0.786452 0.379988
Si Si4 0.737913 0.422227 0.335390
Si Si5 0.750000 0.476088 0.000000
Si Si6 0.073226 0.097447 0.156489
Si Si7 0.500000 0.250000 0.404052
Si Si8 0.771893 0.856159 0.379928
O O1 0.713161 0.637307 0.902269
O O2 0.878099 0.726593 0.978666
O O3 0.594641 0.300706 0.163959
O O4 0.598256 0.405790 0.270221
O O5 0.446854 0.307792 0.334035
O O6 0.370819 0.377644 0.177238
O O7 0.250000 0.797905 0.500000
O O8 0.133938 0.832669 0.331093
O O9 0.201756 0.716399 0.353085
O O10 0.694324 0.480570 0.406869
O O11 0.866460 0.439655 0.256655
O O12 0.874994 0.433401 0.048175
O O13 0.902943 0.101263 0.158241
O O14 0.750000 0.866327 0.500000
#
# Coordination Sequence:
#
# PCOD8164740 Si02
#       8
#     4   8   8   8   4   8   4   8
#     4   9  20  36  56  88 120 150 203 242 302 350
#     4  10  19  36  59  86 124 165 196 234 311 369
#     4  10  18  34  55  88 127 164 190 227 290 379
#     4   9  22  41  64  84 112 158 213 257 290 358
#     4  11  22  44  68  82 110 162 223 262 288 354
#     4  11  22  36  63  90 116 157 210 244 300 352
#     4  10  18  34  54  84 118 166 190 238 288 370
#     4  11  22  33  56  94 136 154 186 248 305 369
#
# _framework density 19.817330999999999
#
# number of rings (size 3 to 8) (size 9 to 14) (size 15 to 20)
#    0.000    1.846    2.308    1.846    2.154    3.692 
#    0.000    0.000    6.769    0.000    0.000    0.000 
#    0.000    0.000    0.000    0.000    0.000    0.000 
#
# Total GULP energy -322347.626373 kJ/mol
# GULP energy per Si atom -12397.985630 kJ/mol
# Density = 1.977223 g / cm^3
# Si number density = 19.817331 Si / 1000 Ang^3
#
#
#
# Elastic Constant Matrix: (Units=GPa)
#
#
# Indices 1 2 3 4 5 6 
#
# 1 154.4272 49.5373 72.9196 0.0000 0.0000 0.0000
# 2 49.5373 72.0198 39.7993 0.0004 -0.0001 -0.0001
# 3 72.9196 39.7993 112.3076 -0.0002 0.0000 -0.0001
# 4 0.0000 0.0004 -0.0002 -52.5685 0.0000 0.0000
# 5 0.0000 -0.0001 0.0000 0.0000 35.5392 0.0001
# 6 0.0000 -0.0001 -0.0001 0.0000 0.0001 14.3483
#
#
#
# Elastic Compliance Matrix: (Units=1/GPa)
#
#
# Indices 1 2 3 4 5 6 
#
# 1 0.010268 -0.004201 -0.005178 0.000000 0.000000 0.000000
# 2 -0.004201 0.018985 -0.004000 0.000000 0.000000 0.000000
# 3 -0.005178 -0.004000 0.013684 0.000000 0.000000 0.000000
# 4 0.000000 0.000000 0.000000 -0.019023 0.000000 0.000000
# 5 0.000000 0.000000 0.000000 0.000000 0.028138 0.000000
# 6 0.000000 0.000000 0.000000 0.000000 0.000000 0.069694
#
#
# Mechanical properties :
#
#
# Convention : Reuss Voigt Hill
#
# Bulk Modulus (GPa) = 61.81159 73.69632 67.75396
# Shear Modulus (GPa) = 32.48877 11.23038 21.85957
#
# Velocity S-wave (km/s) = 4.05336 2.38312 3.32483
# Velocity P-wave (km/s) = 7.29141 6.69633 7.00020
#
# Compressibility (1/GPa) = 0.01617819
#
# Stress axis : x y z
#
# Youngs Moduli (GPa) = 97.38627 52.67210 73.07890
#
# Poissons Ratio (x) = 0.22129 0.37842
# Poissons Ratio (y) = 0.40915 0.29233
# Poissons Ratio (z) = 0.50429 0.21070
#
# Static dielectric constant tensor:
#      x y z
#    x 3.778370 0.000000 0.000000 
#    y 0.000000 3.586690 0.000000 
#    z 0.000000 0.000000 3.844040 
# 
# 
# High freq. dielectric constant tensor:
#      x y z
#    x 1.749140 0.000000 0.000000 
#    y 0.000000 1.764000 0.000000 
#    z 0.000000 0.000000 1.783830 
# 
# From -- ./inp_files/25040.got.cif
#   From: 2010.03.12/outbox.cif.g09.slc.cpg/sg24_13_cif.got.tgz:25040.got - 2010.04.14 03:06:53.
