data_PCOD8164679
_publ_section_title
;
Structure prediction by ZEFSAII (Michael W. Deem and Ramdas Pophale) SiO2 
 PCOD8164679
Probable space group: I 21 21 21
;
_chemical_formula_sum "Si O2"
_cell_formula_units_Z 48
_cell_length_a 22.294765
_cell_length_b 5.110102
_cell_length_c 24.349106
_cell_angle_alpha 90.000000
_cell_angle_beta 90.000000
_cell_angle_gamma 90.000000
_cell_volume 2774.057688
_symmetry_space_group_name_H-M "I 21 21 21"
_symmetry_group_IT_number 24
_symmetry_cell_setting 'orthorhombic'
loop_
_space_group_symop_operation_xyz
x,y,z
-x,1/2-y,z
x,-y,1/2-z
1/2-x,y,-z
1/2+x,1/2+y,1/2+z
1/2-x,-y,1/2+z
1/2+x,1/2-y,-z
-x,1/2+y,1/2-z
loop_
_atom_site_type_symbol
_atom_site_label
_atom_site_fract_x
_atom_site_fract_y
_atom_site_fract_z
Si Si1 0.901339 0.087378 0.038592
Si Si2 0.373360 0.914908 0.897650
Si Si3 0.331610 0.412359 0.064324
Si Si4 0.568956 0.746435 0.786371
Si Si5 0.536268 0.985603 0.432954
Si Si6 0.741337 0.575931 0.064434
O O1 0.905176 0.306871 0.086759
O O2 0.841329 0.132748 0.001568
O O3 0.898027 0.793806 0.059824
O O4 0.958892 0.084500 0.998222
O O5 0.388982 0.796054 0.838568
O O6 0.302306 0.950508 0.901370
O O7 0.395953 0.490945 0.091834
O O8 0.285011 0.640153 0.076870
O O9 0.304517 0.143066 0.087873
O O10 0.500000 0.750000 0.806256
O O11 0.582157 0.500000 0.750000
O O12 0.585829 0.000000 0.750000
O O13 0.500000 0.750000 0.404234
O O14 0.500000 0.250000 0.421970
O O15 0.750000 0.533096 0.000000
#
# Coordination Sequence:
#
# PCOD8164679 Si02
#       6
#     8   8   8   8   8   8
#     4  10  20  30  43  73  94 122 163 206 249 296
#     4  12  21  32  54  75  90 127 167 202 272 327
#     4  10  20  29  43  65  99 135 153 199 247 280
#     4  10  23  43  58  70  95 127 171 235 286 311
#     4  10  18  30  42  58  92 134 170 198 226 271
#     4  12  17  31  46  69 103 125 154 200 251 315
#
# _framework density 17.303173999999999
#
# number of rings (size 3 to 8) (size 9 to 14) (size 15 to 20)
#    1.000    0.333    3.333    4.500    0.000    2.000 
#    0.000    0.000    0.000    0.000    0.000    0.000 
#    0.000    0.000    0.000    0.000    0.000   46.667 
#
# Total GULP energy -297376.169905 kJ/mol
# GULP energy per Si atom -12390.673746 kJ/mol
# Density = 1.726379 g / cm^3
# Si number density = 17.303174 Si / 1000 Ang^3
#
#
#
# Elastic Constant Matrix: (Units=GPa)
#
#
# Indices 1 2 3 4 5 6 
#
# 1 74.5839 25.9685 17.6148 0.0000 0.0000 0.0000
# 2 25.9685 123.0530 6.2228 0.0000 0.0000 0.0000
# 3 17.6148 6.2228 35.6200 0.0000 0.0000 0.0000
# 4 0.0000 0.0000 0.0000 39.5387 0.0000 0.0000
# 5 0.0000 0.0000 0.0000 0.0000 21.8916 0.0000
# 6 0.0000 0.0000 0.0000 0.0000 0.0000 32.0517
#
#
#
# Elastic Compliance Matrix: (Units=1/GPa)
#
#
# Indices 1 2 3 4 5 6 
#
# 1 0.016240 -0.003048 -0.007498 0.000000 0.000000 0.000000
# 2 -0.003048 0.008771 -0.000025 0.000000 0.000000 0.000000
# 3 -0.007498 -0.000025 0.031787 0.000000 0.000000 0.000000
# 4 0.000000 0.000000 0.000000 0.025292 0.000000 0.000000
# 5 0.000000 0.000000 0.000000 0.000000 0.045680 0.000000
# 6 0.000000 0.000000 0.000000 0.000000 0.000000 0.031200
#
#
# Mechanical properties :
#
#
# Convention : Reuss Voigt Hill
#
# Bulk Modulus (GPa) = 28.04682 36.98544 32.51613
# Shear Modulus (GPa) = 26.04217 30.92646 28.48431
#
# Velocity S-wave (km/s) = 3.88371 4.23227 4.06173
# Velocity P-wave (km/s) = 6.02952 6.73083 6.38981
#
# Compressibility (1/GPa) = 0.03565467
#
# Stress axis : x y z
#
# Youngs Moduli (GPa) = 61.57672 114.01109 31.45977
#
# Poissons Ratio (x) = 0.34750 0.23590
# Poissons Ratio (y) = 0.18768 0.00079
# Poissons Ratio (z) = 0.46173 0.00285
#
# Static dielectric constant tensor:
#      x y z
#    x 2.946440 0.000000 0.000000 
#    y 0.000000 3.380990 0.000000 
#    z 0.000000 0.000000 2.605530 
# 
# 
# High freq. dielectric constant tensor:
#      x y z
#    x 1.674900 0.000000 0.000000 
#    y 0.000000 1.696450 0.000000 
#    z 0.000000 0.000000 1.585770 
# 
# From -- ./inp_files/35956.got.cif
#   From: 2010.03.12/outbox.cif.g09.slc.cpg/sg24_18_cif.got.tgz:35956.got - 2010.04.14 03:06:53.
