data_PCOD8164202
_publ_section_title
;
Structure prediction by ZEFSAII (Michael W. Deem and Ramdas Pophale) SiO2 
 PCOD8164202
Probable space group: I 2 2 2
;
_chemical_formula_sum "Si O2"
_cell_formula_units_Z 48
_cell_length_a 13.996256
_cell_length_b 8.574385
_cell_length_c 17.771663
_cell_angle_alpha 90.000000
_cell_angle_beta 90.000000
_cell_angle_gamma 90.000000
_cell_volume 2132.764614
_symmetry_space_group_name_H-M "I 2 2 2"
_symmetry_group_IT_number 23
_symmetry_cell_setting 'orthorhombic'
loop_
_space_group_symop_operation_xyz
x,y,z
-x,-y,z
x,-y,-z
-x,y,-z
1/2+x,1/2+y,1/2+z
1/2-x,1/2-y,1/2+z
1/2+x,1/2-y,1/2-z
1/2-x,1/2+y,1/2-z
loop_
_atom_site_type_symbol
_atom_site_label
_atom_site_fract_x
_atom_site_fract_y
_atom_site_fract_z
Si Si1 0.605439 0.679206 0.479495
Si Si2 0.280478 0.021040 0.723235
Si Si3 0.971964 0.821256 0.581850
Si Si4 0.763424 0.877216 0.562867
Si Si5 0.628846 0.299220 0.697525
Si Si6 0.039821 0.669243 0.725741
O O1 0.609258 0.500000 0.500000
O O2 0.500000 0.746728 0.500000
O O3 0.683312 0.763864 0.530510
O O4 0.631768 0.702672 0.392402
O O5 0.278178 0.031238 0.633406
O O6 0.179532 0.047000 0.766772
O O7 0.348499 0.160785 0.754270
O O8 0.319042 0.847505 0.738189
O O9 0.858665 0.789012 0.591090
O O10 0.000000 0.762877 0.500000
O O11 0.030089 0.712323 0.638490
O O12 0.000000 0.000000 0.596733
O O13 0.796961 0.000000 0.500000
O O14 0.517812 0.295993 0.723648
O O15 0.000000 0.500000 0.745034
#
# Coordination Sequence:
#
# PCOD8164202 Si02
#       6
#     8   8   8   8   8   8
#     4  11  27  47  70 102 141 183 233 294 352 412
#     4  11  25  41  70  98 136 181 228 284 348 410
#     4  11  24  42  65  98 136 177 233 286 348 415
#     4  12  23  46  71 100 136 184 234 283 350 424
#     4  11  24  45  66 102 134 177 231 280 345 415
#     4  10  24  43  63  95 137 176 224 281 344 412
#
# _framework density 22.506
#
# number of rings (size 3 to 8) (size 9 to 14) (size 15 to 20)
#    0.000    1.000    5.000    1.000    7.000    0.667 
#    3.000    0.000    0.000    0.000    0.000    0.000 
#    0.000    0.000    0.000    0.000    0.000    0.000 
#
# Total GULP energy -297627.033362 kJ/mol
# GULP energy per Si atom -12401.126390 kJ/mol
# Density = 2.245477 g / cm^3
# Si number density = 22.506000 Si / 1000 Ang^3
#
#
#
# Elastic Constant Matrix: (Units=GPa)
#
#
# Indices 1 2 3 4 5 6 
#
# 1 102.5113 18.9722 19.4153 0.0000 0.0000 0.0000
# 2 18.9722 29.9836 4.7399 0.0000 0.0000 0.0000
# 3 19.4153 4.7399 117.7690 0.0000 0.0000 0.0000
# 4 0.0000 0.0000 0.0000 26.0381 0.0000 0.0000
# 5 0.0000 0.0000 0.0000 0.0000 212.1053 0.0000
# 6 0.0000 0.0000 0.0000 0.0000 0.0000 25.2278
#
#
#
# Elastic Compliance Matrix: (Units=1/GPa)
#
#
# Indices 1 2 3 4 5 6 
#
# 1 0.011337 -0.006922 -0.001590 0.000000 0.000000 0.000000
# 2 -0.006922 0.037792 -0.000380 0.000000 0.000000 0.000000
# 3 -0.001590 -0.000380 0.008769 0.000000 0.000000 0.000000
# 4 0.000000 0.000000 0.000000 0.038405 0.000000 0.000000
# 5 0.000000 0.000000 0.000000 0.000000 0.004715 0.000000
# 6 0.000000 0.000000 0.000000 0.000000 0.000000 0.039639
#
#
# Mechanical properties :
#
#
# Convention : Reuss Voigt Hill
#
# Bulk Modulus (GPa) = 24.92986 37.39097 31.16041
# Shear Modulus (GPa) = 29.10148 66.48335 47.79241
#
# Velocity S-wave (km/s) = 3.59981 5.44099 4.61319
# Velocity P-wave (km/s) = 5.32721 7.49149 6.50006
#
# Compressibility (1/GPa) = 0.04011254
#
# Stress axis : x y z
#
# Youngs Moduli (GPa) = 88.20369 26.46084 114.04213
#
# Poissons Ratio (x) = 0.18317 0.18138
# Poissons Ratio (y) = 0.61057 0.04332
# Poissons Ratio (z) = 0.14028 0.01005
#
# Static dielectric constant tensor:
#      x y z
#    x 4.446270 0.000000 0.000000 
#    y 0.000000 3.730330 0.000000 
#    z 0.000000 0.000000 4.056600 
# 
# 
# High freq. dielectric constant tensor:
#      x y z
#    x 1.902940 0.000000 0.000000 
#    y 0.000000 1.869690 0.000000 
#    z 0.000000 0.000000 1.898880 
# 
# From -- ./inp_files/9950.got.cif
#   From: 2010.03.12/outbox.cif.g09.slc.cpg/sg23_5_cif.got.tgz:9950.got - 2010.04.14 02:50:06.
