data_PCOD8164859
_publ_section_title
;
Structure prediction by ZEFSAII (Michael W. Deem and Ramdas Pophale) SiO2 
 PCOD8164859
Probable space group: I 21 21 21
;
_chemical_formula_sum "Si O2"
_cell_formula_units_Z 40
_cell_length_a 8.688792
_cell_length_b 15.262700
_cell_length_c 14.362699
_cell_angle_alpha 90.000000
_cell_angle_beta 90.000000
_cell_angle_gamma 90.000000
_cell_volume 1904.701079
_symmetry_space_group_name_H-M "I 21 21 21"
_symmetry_group_IT_number 24
_symmetry_cell_setting 'orthorhombic'
loop_
_space_group_symop_operation_xyz
x,y,z
-x,1/2-y,z
x,-y,1/2-z
1/2-x,y,-z
1/2+x,1/2+y,1/2+z
1/2-x,-y,1/2+z
1/2+x,1/2-y,-z
-x,1/2+y,1/2-z
loop_
_atom_site_type_symbol
_atom_site_label
_atom_site_fract_x
_atom_site_fract_y
_atom_site_fract_z
Si Si1 0.596453 0.662889 0.562123
Si Si2 0.409309 0.526607 0.459101
Si Si3 0.102298 0.673691 0.688670
Si Si4 0.113613 0.076577 0.678300
Si Si5 0.651886 0.294443 0.734036
O O1 0.500000 0.750000 0.543190
O O2 0.750000 0.667326 0.500000
O O3 0.500591 0.575987 0.539642
O O4 0.630058 0.650205 0.671148
O O5 0.250000 0.484145 0.500000
O O6 0.356285 0.597142 0.382387
O O7 0.531332 0.457269 0.415931
O O8 0.256845 0.708885 0.733143
O O9 0.000000 0.750000 0.638209
O O10 0.007596 0.640102 0.775470
O O11 0.264376 0.139102 0.660848
O O12 0.158817 0.000000 0.750000
O O13 0.500000 0.250000 0.689091
#
# Coordination Sequence:
#
# PCOD8164859 Si02
#       5
#     8   8   8   8   8
#     4  11  19  29  50  83 122 154 186 234 290 347
#     4  11  20  32  52  83 119 150 185 236 297 346
#     4   9  17  32  53  77 111 155 192 225 275 340
#     4   9  19  35  52  76 115 157 188 225 286 347
#     4  10  19  32  53  81 112 150 195 236 274 334
#
# _framework density 21.000672000000002
#
# number of rings (size 3 to 8) (size 9 to 14) (size 15 to 20)
#    0.000    2.000    0.000    8.400    0.000    0.000 
#    0.000    7.000    0.000    0.000    0.000   58.800 
#    0.000    4.800    0.000    0.000    0.000    0.000 
#
# Total GULP energy -247800.383027 kJ/mol
# GULP energy per Si atom -12390.019151 kJ/mol
# Density = 2.095287 g / cm^3
# Si number density = 21.000672 Si / 1000 Ang^3
#
#
#
# Elastic Constant Matrix: (Units=GPa)
#
#
# Indices 1 2 3 4 5 6 
#
# 1 147.3092 60.3195 33.5135 0.0000 0.0000 0.0000
# 2 60.3195 83.3770 42.0840 0.0000 0.0000 0.0000
# 3 33.5135 42.0840 50.8565 -0.0001 0.0000 0.0000
# 4 0.0000 0.0000 -0.0001 72.6468 0.0000 0.0000
# 5 0.0000 0.0000 0.0000 0.0000 12.6218 0.0000
# 6 0.0000 0.0000 0.0000 0.0000 0.0000 18.1963
#
#
#
# Elastic Compliance Matrix: (Units=1/GPa)
#
#
# Indices 1 2 3 4 5 6 
#
# 1 0.009676 -0.006494 -0.001002 0.000000 0.000000 0.000000
# 2 -0.006494 0.024955 -0.016371 0.000000 0.000000 0.000000
# 3 -0.001002 -0.016371 0.033871 0.000000 0.000000 0.000000
# 4 0.000000 0.000000 0.000000 0.013765 0.000000 0.000000
# 5 0.000000 0.000000 0.000000 0.000000 0.079228 0.000000
# 6 0.000000 0.000000 0.000000 0.000000 0.000000 0.054956
#
#
# Mechanical properties :
#
#
# Convention : Reuss Voigt Hill
#
# Bulk Modulus (GPa) = 48.15357 61.48630 54.81993
# Shear Modulus (GPa) = 18.44288 30.40136 24.42212
#
# Velocity S-wave (km/s) = 2.96667 3.80891 3.41386
# Velocity P-wave (km/s) = 5.89187 6.97750 6.45754
#
# Compressibility (1/GPa) = 0.02076689
#
# Stress axis : x y z
#
# Youngs Moduli (GPa) = 103.35291 40.07215 29.52408
#
# Poissons Ratio (x) = 0.26023 0.02959
# Poissons Ratio (y) = 0.67117 0.48334
# Poissons Ratio (z) = 0.10358 0.65602
#
# Static dielectric constant tensor:
#      x y z
#    x 4.020370 0.000000 0.000000 
#    y 0.000000 4.014890 0.000000 
#    z 0.000000 0.000000 3.701430 
# 
# 
# High freq. dielectric constant tensor:
#      x y z
#    x 1.838600 0.000000 0.000000 
#    y 0.000000 1.808440 0.000000 
#    z 0.000000 0.000000 1.778340 
# 
# From -- ./inp_files/12290.got.cif
#   From: 2010.03.12/outbox.cif.g09.slc.cpg/sg24_7_cif.got.tgz:12290.got - 2010.04.14 03:06:53.
