data_PCOD8164235
_publ_section_title
;
Structure prediction by ZEFSAII (Michael W. Deem and Ramdas Pophale) SiO2 
 PCOD8164235
Probable space group: I 2 2 2
;
_chemical_formula_sum "Si O2"
_cell_formula_units_Z 22
_cell_length_a 5.008436
_cell_length_b 6.444696
_cell_length_c 28.452517
_cell_angle_alpha 90.000000
_cell_angle_beta 90.000000
_cell_angle_gamma 90.000000
_cell_volume 918.386003
_symmetry_space_group_name_H-M "I 2 2 2"
_symmetry_group_IT_number 23
_symmetry_cell_setting 'orthorhombic'
loop_
_space_group_symop_operation_xyz
x,y,z
-x,-y,z
x,-y,-z
-x,y,-z
1/2+x,1/2+y,1/2+z
1/2-x,1/2-y,1/2+z
1/2+x,1/2-y,1/2-z
1/2-x,1/2+y,1/2-z
loop_
_atom_site_type_symbol
_atom_site_label
_atom_site_fract_x
_atom_site_fract_y
_atom_site_fract_z
Si Si1 0.758268 0.132325 0.910298
Si Si2 0.000000 0.000000 0.359930
Si Si3 0.114965 0.283002 0.280303
Si Si4 0.500000 0.500000 0.500000
O O1 0.709301 0.365243 0.890867
O O2 0.819574 0.148145 0.966412
O O3 0.500000 0.000000 0.900594
O O4 0.000000 0.000000 0.885675
O O5 0.821365 0.853550 0.326278
O O6 0.883601 0.175828 0.248719
O O7 0.000000 0.500000 0.298548
#
# Coordination Sequence:
#
# PCOD8164235 Si02
#       4
#     8   4   8   2
#     4  10  24  46  77 109 153 202 257 322 385 478
#     4  12  26  46  78 116 152 204 267 311 396 458
#     4  12  25  46  70 103 152 197 250 311 378 453
#     4   8  22  52  74 104 162 194 248 324 408 444
#
# _framework density 23.955072000000001
#
# number of rings (size 3 to 8) (size 9 to 14) (size 15 to 20)
#    1.091    0.000    3.636    1.636    0.000   10.182 
#    0.000    5.455    0.000    0.000    0.000    0.000 
#    0.000    0.000    0.000    0.000    0.000    0.000 
#
# Total GULP energy -136306.559244 kJ/mol
# GULP energy per Si atom -12391.505386 kJ/mol
# Density = 2.390055 g / cm^3
# Si number density = 23.955072 Si / 1000 Ang^3
#
#
#
# Elastic Constant Matrix: (Units=GPa)
#
#
# Indices 1 2 3 4 5 6 
#
# 1 154.0128 62.4059 49.0274 0.0000 0.0000 0.0000
# 2 62.4059 176.7040 88.2488 0.0000 0.0000 0.0000
# 3 49.0274 88.2488 152.1948 0.0000 0.0000 0.0000
# 4 0.0000 0.0000 0.0000 17.0439 0.0000 0.0000
# 5 0.0000 0.0000 0.0000 0.0000 -0.9189 0.0000
# 6 0.0000 0.0000 0.0000 0.0000 0.0000 51.1650
#
#
#
# Elastic Compliance Matrix: (Units=1/GPa)
#
#
# Indices 1 2 3 4 5 6 
#
# 1 0.007751 -0.002098 -0.001280 0.000000 0.000000 0.000000
# 2 -0.002098 0.008534 -0.004272 0.000000 0.000000 0.000000
# 3 -0.001280 -0.004272 0.009460 0.000000 0.000000 0.000000
# 4 0.000000 0.000000 0.000000 0.058672 0.000000 0.000000
# 5 0.000000 0.000000 0.000000 0.000000 -1.088292 0.000000
# 6 0.000000 0.000000 0.000000 0.000000 0.000000 0.019545
#
#
# Mechanical properties :
#
#
# Convention : Reuss Voigt Hill
#
# Bulk Modulus (GPa) = 95.75379 98.03065 96.89222
# Shear Modulus (GPa) = -5.17840 32.33996 13.58078
#
# Velocity S-wave (km/s) = -1.47187 3.67826 2.38361
# Velocity P-wave (km/s) = 6.09676 7.68446 6.93619
#
# Compressibility (1/GPa) = 0.01044345
#
# Stress axis : x y z
#
# Youngs Moduli (GPa) = 129.02264 117.18113 105.70465
#
# Poissons Ratio (x) = 0.24583 0.13534
# Poissons Ratio (y) = 0.27067 0.45162
# Poissons Ratio (z) = 0.16519 0.50065
#
# Static dielectric constant tensor:
#      x y z
#    x 4.669420 0.000000 0.000000 
#    y 0.000000 5.030090 0.000000 
#    z 0.000000 0.000000 4.290220 
# 
# 
# High freq. dielectric constant tensor:
#      x y z
#    x 1.946090 0.000000 0.000000 
#    y 0.000000 1.953230 0.000000 
#    z 0.000000 0.000000 1.944520 
# 
# From -- ./inp_files/29769.got.cif
#   From: 2010.03.12/outbox.cif.g09.slc.cpg/sg23_15_cif.got.tgz:29769.got - 2010.04.14 02:50:06.
