data_PCOD8164446
_publ_section_title
;
Structure prediction by ZEFSAII (Michael W. Deem and Ramdas Pophale) SiO2 
 PCOD8164446
Probable space group: I 2 2 2
;
_chemical_formula_sum "Si O2"
_cell_formula_units_Z 40
_cell_length_a 8.003681
_cell_length_b 27.806951
_cell_length_c 7.925983
_cell_angle_alpha 90.000000
_cell_angle_beta 90.000000
_cell_angle_gamma 90.000000
_cell_volume 1763.990650
_symmetry_space_group_name_H-M "I 2 2 2"
_symmetry_group_IT_number 23
_symmetry_cell_setting 'orthorhombic'
loop_
_space_group_symop_operation_xyz
x,y,z
-x,-y,z
x,-y,-z
-x,y,-z
1/2+x,1/2+y,1/2+z
1/2-x,1/2-y,1/2+z
1/2+x,1/2-y,1/2-z
1/2-x,1/2+y,1/2-z
loop_
_atom_site_type_symbol
_atom_site_label
_atom_site_fract_x
_atom_site_fract_y
_atom_site_fract_z
Si Si1 0.000000 0.751319 0.000000
Si Si2 0.269738 0.081856 0.576244
Si Si3 0.925402 0.081468 0.768376
Si Si4 0.458666 0.835262 0.269137
Si Si5 0.000000 0.000000 0.000000
Si Si6 0.735155 0.663505 0.546780
Si Si7 0.000000 0.500000 0.000000
O O1 0.949647 0.718914 0.160474
O O2 0.838251 0.785208 0.988879
O O3 0.203680 0.081139 0.385072
O O4 0.393083 0.127834 0.588422
O O5 0.380499 0.034259 0.613499
O O6 0.116411 0.083053 0.705776
O O7 0.887977 0.033700 0.878169
O O8 0.908487 0.126416 0.896385
O O9 0.650482 0.837737 0.213747
O O10 0.343703 0.850707 0.113043
#
# Coordination Sequence:
#
# PCOD8164446 Si02
#       7
#     4   8   8   8   2   8   2
#     4  12  22  40  64  94 132 176 226 274 332 412
#     4  11  24  43  68  98 136 182 229 280 341 410
#     4  11  24  43  68  98 136 182 229 280 341 410
#     4  11  24  42  65  95 134 178 226 283 341 401
#     4  12  22  38  64  96 132 170 222 274 324 396
#     4  11  24  42  65  95 134 178 226 283 341 401
#     4  12  22  38  64  96 132 170 222 274 324 396
#
# _framework density 22.675858999999999
#
# number of rings (size 3 to 8) (size 9 to 14) (size 15 to 20)
#    0.000    0.800    0.000    8.400    0.000    1.600 
#    0.000    4.000    0.000    2.400    0.000    0.000 
#    0.000    0.000    0.000    0.000    0.000    0.000 
#
# Total GULP energy -247781.658680 kJ/mol
# GULP energy per Si atom -12389.082934 kJ/mol
# Density = 2.262425 g / cm^3
# Si number density = 22.675859 Si / 1000 Ang^3
#
#
#
# Elastic Constant Matrix: (Units=GPa)
#
#
# Indices 1 2 3 4 5 6 
#
# 1 133.5626 66.7563 48.7614 -0.0003 0.0003 0.0001
# 2 66.7563 177.3123 57.4628 -0.0005 0.0002 0.0000
# 3 48.7614 57.4628 116.4233 -0.0016 -0.0002 0.0017
# 4 -0.0003 -0.0005 -0.0016 41.9663 0.0000 0.0000
# 5 0.0003 0.0002 -0.0002 0.0000 48.1168 -0.0003
# 6 0.0001 0.0000 0.0017 0.0000 -0.0003 43.3182
#
#
#
# Elastic Compliance Matrix: (Units=1/GPa)
#
#
# Indices 1 2 3 4 5 6 
#
# 1 0.009910 -0.002840 -0.002749 0.000000 0.000000 0.000000
# 2 -0.002840 0.007528 -0.002526 0.000000 0.000000 0.000000
# 3 -0.002749 -0.002526 0.010987 0.000000 0.000000 0.000000
# 4 0.000000 0.000000 0.000000 0.023829 0.000000 0.000000
# 5 0.000000 0.000000 0.000000 0.000000 0.020783 0.000000
# 6 0.000000 0.000000 0.000000 0.000000 0.000000 0.023085
#
#
# Mechanical properties :
#
#
# Convention : Reuss Voigt Hill
#
# Bulk Modulus (GPa) = 81.99837 85.91769 83.95803
# Shear Modulus (GPa) = 42.94918 43.63477 43.29197
#
# Velocity S-wave (km/s) = 4.35679 4.39142 4.37414
# Velocity P-wave (km/s) = 7.84528 7.98026 7.91306
#
# Compressibility (1/GPa) = 0.01219537
#
# Stress axis : x y z
#
# Youngs Moduli (GPa) = 100.90524 132.84321 91.01420
#
# Poissons Ratio (x) = 0.37731 0.25018
# Poissons Ratio (y) = 0.28660 0.22989
# Poissons Ratio (z) = 0.27737 0.33554
#
# Static dielectric constant tensor:
#      x y z
#    x 4.254090 0.000000 0.000000 
#    y 0.000000 4.108690 0.000000 
#    z 0.000000 0.000000 4.148730 
# 
# 
# High freq. dielectric constant tensor:
#      x y z
#    x 1.907030 0.000000 0.000000 
#    y 0.000000 1.896560 0.000000 
#    z 0.000000 0.000000 1.905650 
# 
# From -- ./inp_files/6984.got.cif
#   From: 2010.03.12/outbox.cif.g09.slc.cpg/sg23_4_cif.got.tgz:6984.got - 2010.04.14 02:50:06.
