data_PCOD8164016
_publ_section_title
;
Structure prediction by ZEFSAII (Michael W. Deem and Ramdas Pophale) SiO2 
 PCOD8164016
Probable space group: I 2 2 2
;
_chemical_formula_sum "Si O2"
_cell_formula_units_Z 64
_cell_length_a 17.250602
_cell_length_b 11.879078
_cell_length_c 14.687187
_cell_angle_alpha 90.000000
_cell_angle_beta 90.000000
_cell_angle_gamma 90.000000
_cell_volume 3009.716671
_symmetry_space_group_name_H-M "I 2 2 2"
_symmetry_group_IT_number 23
_symmetry_cell_setting 'orthorhombic'
loop_
_space_group_symop_operation_xyz
x,y,z
-x,-y,z
x,-y,-z
-x,y,-z
1/2+x,1/2+y,1/2+z
1/2-x,1/2-y,1/2+z
1/2+x,1/2-y,1/2-z
1/2-x,1/2+y,1/2-z
loop_
_atom_site_type_symbol
_atom_site_label
_atom_site_fract_x
_atom_site_fract_y
_atom_site_fract_z
Si Si1 0.567285 0.734074 0.283342
Si Si2 0.847210 0.061135 0.093966
Si Si3 0.916842 0.480593 0.146175
Si Si4 0.404699 0.188673 0.775550
Si Si5 0.327817 0.119149 0.955561
Si Si6 0.245610 0.523066 0.903608
Si Si7 0.702979 0.614354 0.733069
Si Si8 0.816752 0.749814 0.631774
O O1 0.589673 0.652573 0.369243
O O2 0.590946 0.857564 0.313335
O O3 0.478320 0.732621 0.250058
O O4 0.613526 0.700851 0.192093
O O5 0.761620 0.116993 0.081743
O O6 0.848664 0.967237 0.172012
O O7 0.874244 0.000000 0.000000
O O8 0.909813 0.569066 0.227748
O O9 0.845529 0.500196 0.079063
O O10 0.000000 0.500000 0.096167
O O11 0.391055 0.154381 0.880392
O O12 0.332734 0.262677 0.744167
O O13 0.340263 0.216150 0.030250
O O14 0.349998 0.000000 0.000000
O O15 0.281748 0.438724 0.830766
O O16 0.253807 0.651212 0.873208
O O17 0.287884 0.500000 0.000000
O O18 0.782580 0.637248 0.678957
#
# Coordination Sequence:
#
# PCOD8164016 Si02
#       8
#     8   8   8   8   8   8   8   8
#     4  11  24  42  66  97 142 179 226 282 353 422
#     4  11  23  43  73 102 133 183 241 296 343 415
#     4  10  22  40  64  95 134 176 216 274 351 414
#     4  11  24  43  65  99 141 188 224 281 364 429
#     4  11  22  40  71 102 134 175 243 297 337 419
#     4  12  25  39  66  98 129 175 227 280 345 417
#     4  12  22  43  69  96 133 179 233 291 344 415
#     4  12  22  40  68  98 131 178 230 290 347 405
#
# _framework density 21.26446
#
# number of rings (size 3 to 8) (size 9 to 14) (size 15 to 20)
#    0.000    0.750    6.250    3.000    1.750    1.250 
#    0.000    1.875    0.000    0.000    0.000    0.000 
#    0.000    0.000    0.000    0.000    0.000    0.000 
#
# Total GULP energy -396595.131282 kJ/mol
# GULP energy per Si atom -12393.597853 kJ/mol
# Density = 2.121606 g / cm^3
# Si number density = 21.264460 Si / 1000 Ang^3
#
#
#
# Elastic Constant Matrix: (Units=GPa)
#
#
# Indices 1 2 3 4 5 6 
#
# 1 74.7416 40.3861 51.7385 0.0000 0.0000 0.0000
# 2 40.3861 107.2147 54.6790 0.0000 0.0000 0.0000
# 3 51.7385 54.6790 147.3778 0.0000 0.0000 0.0000
# 4 0.0000 0.0000 0.0000 43.5803 0.0000 0.0000
# 5 0.0000 0.0000 0.0000 0.0000 19.5376 0.0000
# 6 0.0000 0.0000 0.0000 0.0000 0.0000 31.6099
#
#
#
# Elastic Compliance Matrix: (Units=1/GPa)
#
#
# Indices 1 2 3 4 5 6 
#
# 1 0.019450 -0.004741 -0.005069 0.000000 0.000000 0.000000
# 2 -0.004741 0.012660 -0.003032 0.000000 0.000000 0.000000
# 3 -0.005069 -0.003032 0.009690 0.000000 0.000000 0.000000
# 4 0.000000 0.000000 0.000000 0.022946 0.000000 0.000000
# 5 0.000000 0.000000 0.000000 0.000000 0.051183 0.000000
# 6 0.000000 0.000000 0.000000 0.000000 0.000000 0.031636
#
#
# Mechanical properties :
#
#
# Convention : Reuss Voigt Hill
#
# Bulk Modulus (GPa) = 62.05752 69.21571 65.63662
# Shear Modulus (GPa) = 27.99205 31.11429 29.55317
#
# Velocity S-wave (km/s) = 3.63213 3.82934 3.73204
# Velocity P-wave (km/s) = 6.84374 7.22305 7.03595
#
# Compressibility (1/GPa) = 0.01611408
#
# Stress axis : x y z
#
# Youngs Moduli (GPa) = 51.41266 78.99157 103.20038
#
# Poissons Ratio (x) = 0.37453 0.52314
# Poissons Ratio (y) = 0.24377 0.31294
# Poissons Ratio (z) = 0.26062 0.23953
#
# Static dielectric constant tensor:
#      x y z
#    x 3.898700 0.000000 0.000000 
#    y 0.000000 3.846090 0.000000 
#    z 0.000000 0.000000 3.872480 
# 
# 
# High freq. dielectric constant tensor:
#      x y z
#    x 1.812150 0.000000 0.000000 
#    y 0.000000 1.844520 0.000000 
#    z 0.000000 0.000000 1.841810 
# 
# From -- ./inp_files/22171.got.cif
#   From: 2010.03.12/outbox.cif.g09.slc.cpg/sg23_12_cif.got.tgz:22171.got - 2010.04.14 02:50:06.
