data_PCOD8165578
_publ_section_title
;
Structure prediction by ZEFSAII (Michael W. Deem and Ramdas Pophale) SiO2 
 PCOD8165578
Probable space group: I 21 21 21
;
_chemical_formula_sum "Si O2"
_cell_formula_units_Z 40
_cell_length_a 9.453239
_cell_length_b 8.407713
_cell_length_c 22.245745
_cell_angle_alpha 90.000000
_cell_angle_beta 90.000000
_cell_angle_gamma 90.000000
_cell_volume 1768.094492
_symmetry_space_group_name_H-M "I 21 21 21"
_symmetry_group_IT_number 24
_symmetry_cell_setting 'orthorhombic'
loop_
_space_group_symop_operation_xyz
x,y,z
-x,1/2-y,z
x,-y,1/2-z
1/2-x,y,-z
1/2+x,1/2+y,1/2+z
1/2-x,-y,1/2+z
1/2+x,1/2-y,-z
-x,1/2+y,1/2-z
loop_
_atom_site_type_symbol
_atom_site_label
_atom_site_fract_x
_atom_site_fract_y
_atom_site_fract_z
Si Si1 0.686417 0.408132 0.059691
Si Si2 0.852878 0.187655 0.827586
Si Si3 0.581652 0.908525 0.096092
Si Si4 0.150903 0.815749 0.232831
Si Si5 0.161485 0.781754 0.092106
O O1 0.698660 0.284106 0.113577
O O2 0.524067 0.478801 0.056016
O O3 0.799770 0.547694 0.066930
O O4 0.750000 0.322094 0.000000
O O5 0.748555 0.203549 0.772608
O O6 0.000000 0.250000 0.802803
O O7 0.870461 0.003236 0.844614
O O8 0.500000 0.750000 0.117049
O O9 0.728935 0.850405 0.064370
O O10 0.183377 0.785962 0.163476
O O11 0.000000 0.750000 0.250557
O O12 0.170289 0.000000 0.250000
O O13 0.000000 0.750000 0.072203
#
# Coordination Sequence:
#
# PCOD8165578 Si02
#       5
#     8   8   8   8   8
#     4  10  21  42  65  90 126 166 218 279 330 393
#     4  10  22  41  64  93 131 170 218 273 334 395
#     4   9  21  41  64  91 129 168 214 271 328 395
#     4  11  24  41  63  95 136 174 221 275 336 405
#     4  10  22  39  62  92 130 173 222 268 329 398
#
# _framework density 22.623225000000001
#
# number of rings (size 3 to 8) (size 9 to 14) (size 15 to 20)
#    0.000    2.000    2.000    0.000    5.600    4.800 
#    0.000   13.000    0.000    0.000    0.000    0.000 
#    0.000    0.000    0.000    0.000    0.000    0.000 
#
# Total GULP energy -247830.132892 kJ/mol
# GULP energy per Si atom -12391.506645 kJ/mol
# Density = 2.257173 g / cm^3
# Si number density = 22.623225 Si / 1000 Ang^3
#
#
#
# Elastic Constant Matrix: (Units=GPa)
#
#
# Indices 1 2 3 4 5 6 
#
# 1 125.0967 4.3945 24.8115 0.0000 0.0000 0.0000
# 2 4.3945 52.4282 -18.4644 0.0000 0.0000 0.0000
# 3 24.8115 -18.4644 56.1166 0.0000 0.0000 0.0000
# 4 0.0000 0.0000 0.0000 -7.6106 0.0000 0.0000
# 5 0.0000 0.0000 0.0000 0.0000 20.4494 0.0000
# 6 0.0000 0.0000 0.0000 0.0000 0.0000 21.5621
#
#
#
# Elastic Compliance Matrix: (Units=1/GPa)
#
#
# Indices 1 2 3 4 5 6 
#
# 1 0.009031 -0.002447 -0.004798 0.000000 0.000000 0.000000
# 2 -0.002447 0.022237 0.008399 0.000000 0.000000 0.000000
# 3 -0.004798 0.008399 0.022705 0.000000 0.000000 0.000000
# 4 0.000000 0.000000 0.000000 -0.131396 0.000000 0.000000
# 5 0.000000 0.000000 0.000000 0.000000 0.048901 0.000000
# 6 0.000000 0.000000 0.000000 0.000000 0.000000 0.046378
#
#
# Mechanical properties :
#
#
# Convention : Reuss Voigt Hill
#
# Bulk Modulus (GPa) = 17.76841 28.34721 23.05781
# Shear Modulus (GPa) = 145.73103 21.74016 83.73559
#
# Velocity S-wave (km/s) = 8.03470 3.10331 6.09044
# Velocity P-wave (km/s) = 9.69259 5.03965 7.72478
#
# Compressibility (1/GPa) = 0.05627967
#
# Stress axis : x y z
#
# Youngs Moduli (GPa) = 110.72395 44.97087 44.04317
#
# Poissons Ratio (x) = 0.11004 0.21133
# Poissons Ratio (y) = 0.27093 -0.36990
# Poissons Ratio (z) = 0.53129 -0.37769
#
# Static dielectric constant tensor:
#      x y z
#    x 4.357080 0.000000 0.000000 
#    y 0.000000 4.172050 0.000000 
#    z 0.000000 0.000000 3.947100 
# 
# 
# High freq. dielectric constant tensor:
#      x y z
#    x 1.907040 0.000000 0.000000 
#    y 0.000000 1.895930 0.000000 
#    z 0.000000 0.000000 1.874860 
# 
# From -- ./inp_files/9234.got.cif
#   From: 2010.03.12/outbox.cif.g09.slc.cpg/sg24_5_cif.got.tgz:9234.got - 2010.04.14 03:06:53.
