data_PCOD8165656
_publ_section_title
;
Structure prediction by ZEFSAII (Michael W. Deem and Ramdas Pophale) SiO2 
 PCOD8165656
Probable space group: I 21 21 21
;
_chemical_formula_sum "Si O2"
_cell_formula_units_Z 52
_cell_length_a 19.575382
_cell_length_b 9.488377
_cell_length_c 14.086996
_cell_angle_alpha 90.000000
_cell_angle_beta 90.000000
_cell_angle_gamma 90.000000
_cell_volume 2616.498976
_symmetry_space_group_name_H-M "I 21 21 21"
_symmetry_group_IT_number 24
_symmetry_cell_setting 'orthorhombic'
loop_
_space_group_symop_operation_xyz
x,y,z
-x,1/2-y,z
x,-y,1/2-z
1/2-x,y,-z
1/2+x,1/2+y,1/2+z
1/2-x,-y,1/2+z
1/2+x,1/2-y,-z
-x,1/2+y,1/2-z
loop_
_atom_site_type_symbol
_atom_site_label
_atom_site_fract_x
_atom_site_fract_y
_atom_site_fract_z
Si Si1 0.777555 0.652873 0.230468
Si Si2 0.609439 0.545941 0.911219
Si Si3 0.074310 0.702847 0.975397
Si Si4 0.186112 0.397388 0.661915
Si Si5 0.543873 0.010660 0.858979
Si Si6 0.250000 0.439545 0.000000
Si Si7 0.143945 0.257636 0.090441
O O1 0.743462 0.500000 0.250000
O O2 0.842120 0.618189 0.165075
O O3 0.716949 0.746115 0.188147
O O4 0.807874 0.742123 0.317682
O O5 0.537049 0.511456 0.862103
O O6 0.634153 0.397250 0.952545
O O7 0.609891 0.649484 0.000253
O O8 0.113955 0.624413 0.891316
O O9 0.000000 0.750000 0.939162
O O10 0.075287 0.608707 0.071589
O O11 0.172015 0.500000 0.750000
O O12 0.242304 0.465169 0.592962
O O13 0.571444 0.164559 0.890652
O O14 0.568998 0.000000 0.750000
O O15 0.317277 0.345378 0.989975
#
# Coordination Sequence:
#
# PCOD8165656 Si02
#       7
#     8   8   8   8   8   4   8
#     4  10  22  38  61  95 128 163 209 255 317 381
#     4  10  22  38  59  93 134 166 199 257 318 380
#     4  10  23  43  64  92 124 168 216 259 318 379
#     4  12  24  44  70  90 125 168 213 265 319 378
#     4  11  21  36  63  94 132 170 207 253 315 386
#     4  12  24  38  64  98 118 164 210 266 306 384
#     4  11  22  36  58  92 128 163 212 254 309 378
#
# _framework density 19.873884
#
# number of rings (size 3 to 8) (size 9 to 14) (size 15 to 20)
#    0.000    1.231    3.077    3.692    2.154    4.923 
#    0.000    0.769    3.385    0.000    0.000    0.000 
#    0.000    0.000    0.000    0.000    0.000    0.000 
#
# Total GULP energy -322259.872989 kJ/mol
# GULP energy per Si atom -12394.610500 kJ/mol
# Density = 1.982865 g / cm^3
# Si number density = 19.873884 Si / 1000 Ang^3
#
#
#
# Elastic Constant Matrix: (Units=GPa)
#
#
# Indices 1 2 3 4 5 6 
#
# 1 87.2608 57.7539 50.4505 0.0000 0.0000 0.0000
# 2 57.7539 129.1783 57.1732 0.0000 0.0000 0.0000
# 3 50.4505 57.1732 97.8094 0.0000 0.0000 0.0000
# 4 0.0000 0.0000 0.0000 18.4797 0.0000 0.0000
# 5 0.0000 0.0000 0.0000 0.0000 23.0652 0.0000
# 6 0.0000 0.0000 0.0000 0.0000 0.0000 34.4136
#
#
#
# Elastic Compliance Matrix: (Units=1/GPa)
#
#
# Indices 1 2 3 4 5 6 
#
# 1 0.018905 -0.005580 -0.006490 0.000000 0.000000 0.000000
# 2 -0.005580 0.012090 -0.004189 0.000000 0.000000 0.000000
# 3 -0.006490 -0.004189 0.016020 0.000000 0.000000 0.000000
# 4 0.000000 0.000000 0.000000 0.054113 0.000000 0.000000
# 5 0.000000 0.000000 0.000000 0.000000 0.043355 0.000000
# 6 0.000000 0.000000 0.000000 0.000000 0.000000 0.029058
#
#
# Mechanical properties :
#
#
# Convention : Reuss Voigt Hill
#
# Bulk Modulus (GPa) = 68.97498 71.66709 70.32104
# Shear Modulus (GPa) = 23.70891 25.11644 24.41267
#
# Velocity S-wave (km/s) = 3.45768 3.55884 3.50863
# Velocity P-wave (km/s) = 7.12197 7.28192 7.20239
#
# Compressibility (1/GPa) = 0.01449801
#
# Stress axis : x y z
#
# Youngs Moduli (GPa) = 52.89599 82.71370 62.42252
#
# Poissons Ratio (x) = 0.46154 0.40510
# Poissons Ratio (y) = 0.29516 0.26148
# Poissons Ratio (z) = 0.34327 0.34647
#
# Static dielectric constant tensor:
#      x y z
#    x 3.512180 0.000000 0.000000 
#    y 0.000000 4.047080 0.000000 
#    z 0.000000 0.000000 3.392030 
# 
# 
# High freq. dielectric constant tensor:
#      x y z
#    x 1.768900 0.000000 0.000000 
#    y 0.000000 1.800660 0.000000 
#    z 0.000000 0.000000 1.749880 
# 
# From -- ./inp_files/13090.got.cif
#   From: 2010.03.12/outbox.cif.g09.slc.cpg/sg24_7_cif.got.tgz:13090.got - 2010.04.14 03:06:53.
