data_PCOD8165603
_publ_section_title
;
Structure prediction by ZEFSAII (Michael W. Deem and Ramdas Pophale) SiO2 
 PCOD8165603
Probable space group: I 21 21 21
;
_chemical_formula_sum "Si O2"
_cell_formula_units_Z 64
_cell_length_a 10.657319
_cell_length_b 30.532685
_cell_length_c 9.297511
_cell_angle_alpha 90.000000
_cell_angle_beta 90.000000
_cell_angle_gamma 90.000000
_cell_volume 3025.378133
_symmetry_space_group_name_H-M "I 21 21 21"
_symmetry_group_IT_number 24
_symmetry_cell_setting 'orthorhombic'
loop_
_space_group_symop_operation_xyz
x,y,z
-x,1/2-y,z
x,-y,1/2-z
1/2-x,y,-z
1/2+x,1/2+y,1/2+z
1/2-x,-y,1/2+z
1/2+x,1/2-y,-z
-x,1/2+y,1/2-z
loop_
_atom_site_type_symbol
_atom_site_label
_atom_site_fract_x
_atom_site_fract_y
_atom_site_fract_z
Si Si1 0.454828 0.084921 0.966198
Si Si2 0.355511 0.262528 0.874987
Si Si3 0.105020 0.890643 0.785252
Si Si4 0.951701 0.917708 0.037563
Si Si5 0.683145 0.449252 0.724747
Si Si6 0.550822 0.849417 0.748887
Si Si7 0.362614 0.492576 0.916810
Si Si8 0.786645 0.313893 0.337429
O O1 0.325438 0.077738 0.877461
O O2 0.529214 0.126439 0.902421
O O3 0.517739 0.037858 0.937608
O O4 0.443543 0.095037 0.131507
O O5 0.500000 0.250000 0.926925
O O6 0.364217 0.307493 0.785284
O O7 0.298505 0.227989 0.764083
O O8 0.250000 0.266664 0.000000
O O9 0.195482 0.928318 0.850928
O O10 0.174151 0.843940 0.777070
O O11 0.989298 0.890793 0.895308
O O12 0.879214 0.882677 0.140770
O O13 0.062325 0.939521 0.131226
O O14 0.871056 0.960410 0.000294
O O15 0.706436 0.500000 0.750000
O O16 0.419110 0.839073 0.830777
O O17 0.333825 0.500000 0.750000
O O18 0.250000 0.468018 0.000000
O O19 0.750000 0.300161 0.500000
#
# Coordination Sequence:
#
# PCOD8165603 Si02
#       8
#     8   8   8   8   8   8   8   8
#     4  11  23  39  62  95 130 169 220 272 326 391
#     4  10  25  45  74 104 136 175 227 291 356 430
#     4  12  24  32  64 105 131 173 213 266 331 421
#     4  11  21  42  62  90 132 172 219 265 329 395
#     4  11  20  36  57  88 135 173 201 262 327 393
#     4  10  21  43  67  92 132 175 217 272 348 404
#     4  12  26  46  63  84 124 179 229 281 330 383
#     4  11  21  41  67 100 136 178 212 267 354 427
#
# _framework density 21.154381000000001
#
# number of rings (size 3 to 8) (size 9 to 14) (size 15 to 20)
#    0.000    1.000    7.500    0.750    7.000    1.500 
#    0.000    3.750    0.000    0.000    0.000    0.000 
#    0.000    0.000    0.000    0.000    0.000    0.000 
#
# Total GULP energy -396548.790657 kJ/mol
# GULP energy per Si atom -12392.149708 kJ/mol
# Density = 2.110623 g / cm^3
# Si number density = 21.154381 Si / 1000 Ang^3
#
#
#
# Elastic Constant Matrix: (Units=GPa)
#
#
# Indices 1 2 3 4 5 6 
#
# 1 60.1665 24.9269 36.6317 -0.0001 -0.0007 0.0000
# 2 24.9269 137.8194 37.1671 0.0011 0.0010 -0.0007
# 3 36.6317 37.1671 116.9843 -0.0030 -0.0025 0.0031
# 4 -0.0001 0.0011 -0.0030 23.7016 -0.0022 -0.0011
# 5 -0.0007 0.0010 -0.0025 -0.0022 27.3440 0.0011
# 6 0.0000 -0.0007 0.0031 -0.0011 0.0011 14.0013
#
#
#
# Elastic Compliance Matrix: (Units=1/GPa)
#
#
# Indices 1 2 3 4 5 6 
#
# 1 0.021144 -0.002230 -0.005912 -0.000001 0.000000 0.000001
# 2 -0.002230 0.008171 -0.001898 -0.000001 -0.000001 0.000001
# 3 -0.005912 -0.001898 0.011002 0.000001 0.000001 -0.000003
# 4 -0.000001 -0.000001 0.000001 0.042191 0.000003 0.000003
# 5 0.000000 -0.000001 0.000001 0.000003 0.036571 -0.000003
# 6 0.000001 0.000001 -0.000003 0.000003 -0.000003 0.071422
#
#
# Mechanical properties :
#
#
# Convention : Reuss Voigt Hill
#
# Bulk Modulus (GPa) = 49.41335 56.93574 53.17455
# Shear Modulus (GPa) = 23.00673 27.42569 25.21621
#
# Velocity S-wave (km/s) = 3.30140 3.60454 3.45629
# Velocity P-wave (km/s) = 6.15967 6.65555 6.41241
#
# Compressibility (1/GPa) = 0.02023744
#
# Stress axis : x y z
#
# Youngs Moduli (GPa) = 47.29455 122.38468 90.88847
#
# Poissons Ratio (x) = 0.27289 0.53738
# Poissons Ratio (y) = 0.10546 0.17249
# Poissons Ratio (z) = 0.27963 0.23226
#
# Static dielectric constant tensor:
#      x y z
#    x 3.718540 0.000000 0.000000 
#    y 0.000000 4.043410 0.000000 
#    z 0.000000 0.000000 3.899290 
# 
# 
# High freq. dielectric constant tensor:
#      x y z
#    x 1.805040 0.000000 0.000000 
#    y 0.000000 1.836670 0.000000 
#    z 0.000000 0.000000 1.834670 
# 
# From -- ./inp_files/11660.got.cif
#   From: 2010.03.12/outbox.cif.g09.slc.cpg/sg24_6_cif.got.tgz:11660.got - 2010.04.14 03:06:53.
