data_PCOD8165535
_publ_section_title
;
Structure prediction by ZEFSAII (Michael W. Deem and Ramdas Pophale) SiO2 
 PCOD8165535
Probable space group: I 21 21 21
;
_chemical_formula_sum "Si O2"
_cell_formula_units_Z 32
_cell_length_a 8.678606
_cell_length_b 16.792434
_cell_length_c 10.048999
_cell_angle_alpha 90.000000
_cell_angle_beta 90.000000
_cell_angle_gamma 90.000000
_cell_volume 1464.490050
_symmetry_space_group_name_H-M "I 21 21 21"
_symmetry_group_IT_number 24
_symmetry_cell_setting 'orthorhombic'
loop_
_space_group_symop_operation_xyz
x,y,z
-x,1/2-y,z
x,-y,1/2-z
1/2-x,y,-z
1/2+x,1/2+y,1/2+z
1/2-x,-y,1/2+z
1/2+x,1/2-y,-z
-x,1/2+y,1/2-z
loop_
_atom_site_type_symbol
_atom_site_label
_atom_site_fract_x
_atom_site_fract_y
_atom_site_fract_z
Si Si1 0.919596 0.074275 0.527705
Si Si2 0.564712 0.665479 0.257144
Si Si3 0.389732 0.092563 0.728403
Si Si4 0.078862 0.389485 0.013505
O O1 0.750000 0.109040 0.500000
O O2 0.973656 0.099806 0.673116
O O3 0.037094 0.105678 0.416099
O O4 0.915866 0.980034 0.531350
O O5 0.500000 0.750000 0.206347
O O6 0.746514 0.652627 0.236251
O O7 0.533157 0.657056 0.414001
O O8 0.516257 0.118760 0.836986
O O9 0.339761 0.000000 0.750000
O O10 0.250000 0.352272 0.000000
#
# Coordination Sequence:
#
# PCOD8165535 Si02
#       4
#     8   8   8   8
#     4  10  21  40  65  90 117 154 203 255 301 350
#     4  12  25  38  56  88 126 164 199 241 299 361
#     4  10  21  40  67  92 117 156 206 255 300 353
#     4  10  21  40  65  90 117 154 203 255 301 350
#
# _framework density 21.850611000000001
#
# number of rings (size 3 to 8) (size 9 to 14) (size 15 to 20)
#    0.000    1.500    0.000    5.250    0.000   12.000 
#    0.000    3.750    0.000    0.000    0.000    0.000 
#    0.000    0.000    0.000    0.000    0.000    0.000 
#
# Total GULP energy -198457.704942 kJ/mol
# GULP energy per Si atom -12403.606559 kJ/mol
# Density = 2.180088 g / cm^3
# Si number density = 21.850611 Si / 1000 Ang^3
#
#
#
# Elastic Constant Matrix: (Units=GPa)
#
#
# Indices 1 2 3 4 5 6 
#
# 1 145.6833 41.5210 12.8309 0.0001 0.0000 0.0000
# 2 41.5210 48.6272 15.6227 0.0006 0.0000 0.0000
# 3 12.8309 15.6227 76.0927 0.0008 0.0000 0.0000
# 4 0.0001 0.0006 0.0008 10.8553 0.0000 0.0000
# 5 0.0000 0.0000 0.0000 0.0000 39.8034 0.0000
# 6 0.0000 0.0000 0.0000 0.0000 0.0000 25.2709
#
#
#
# Elastic Compliance Matrix: (Units=1/GPa)
#
#
# Indices 1 2 3 4 5 6 
#
# 1 0.009072 -0.007767 0.000065 0.000000 0.000000 0.000000
# 2 -0.007767 0.028667 -0.004576 -0.000001 0.000000 0.000000
# 3 0.000065 -0.004576 0.014070 -0.000001 0.000000 0.000000
# 4 0.000000 -0.000001 -0.000001 0.092121 0.000000 0.000000
# 5 0.000000 0.000000 0.000000 0.000000 0.025124 0.000000
# 6 0.000000 0.000000 0.000000 0.000000 0.000000 0.039571
#
#
# Mechanical properties :
#
#
# Convention : Reuss Voigt Hill
#
# Bulk Modulus (GPa) = 36.69318 45.59473 41.14395
# Shear Modulus (GPa) = 20.63846 28.54782 24.59314
#
# Velocity S-wave (km/s) = 3.07665 3.61848 3.35851
# Velocity P-wave (km/s) = 5.42681 6.19433 5.82323
#
# Compressibility (1/GPa) = 0.02725302
#
# Stress axis : x y z
#
# Youngs Moduli (GPa) = 110.22633 34.88328 71.07120
#
# Poissons Ratio (x) = 0.27095 -0.00462
# Poissons Ratio (y) = 0.85617 0.32522
# Poissons Ratio (z) = -0.00716 0.15962
#
# Static dielectric constant tensor:
#      x y z
#    x 4.129240 0.000000 0.000000 
#    y 0.000000 3.675270 0.000000 
#    z 0.000000 0.000000 3.946790 
# 
# 
# High freq. dielectric constant tensor:
#      x y z
#    x 1.870300 0.000000 0.000000 
#    y 0.000000 1.832690 0.000000 
#    z 0.000000 0.000000 1.870470 
# 
# From -- ./inp_files/8907.got.cif
#   From: 2010.03.12/outbox.cif.g09.slc.cpg/sg24_5_cif.got.tgz:8907.got - 2010.04.14 03:06:53.
