data_PCOD8165876
_publ_section_title
;
Structure prediction by ZEFSAII (Michael W. Deem and Ramdas Pophale) SiO2 
 PCOD8165876
Probable space group: I 21 21 21
;
_chemical_formula_sum "Si O2"
_cell_formula_units_Z 32
_cell_length_a 6.861811
_cell_length_b 14.851911
_cell_length_c 14.058060
_cell_angle_alpha 90.000000
_cell_angle_beta 90.000000
_cell_angle_gamma 90.000000
_cell_volume 1432.671041
_symmetry_space_group_name_H-M "I 21 21 21"
_symmetry_group_IT_number 24
_symmetry_cell_setting 'orthorhombic'
loop_
_space_group_symop_operation_xyz
x,y,z
-x,1/2-y,z
x,-y,1/2-z
1/2-x,y,-z
1/2+x,1/2+y,1/2+z
1/2-x,-y,1/2+z
1/2+x,1/2-y,-z
-x,1/2+y,1/2-z
loop_
_atom_site_type_symbol
_atom_site_label
_atom_site_fract_x
_atom_site_fract_y
_atom_site_fract_z
Si Si1 0.808050 0.153930 0.799927
Si Si2 0.997713 0.482942 0.147102
Si Si3 0.770870 0.674826 0.605074
Si Si4 0.854400 0.831267 0.098977
O O1 0.706419 0.064386 0.838620
O O2 0.687862 0.243847 0.830330
O O3 0.804659 0.155869 0.684131
O O4 0.017362 0.153436 0.850484
O O5 0.902308 0.500000 0.250000
O O6 0.851013 0.416410 0.095468
O O7 0.023020 0.575688 0.089077
O O8 0.750000 0.716198 0.500000
O O9 0.000000 0.750000 0.123118
O O10 0.750000 0.810013 0.000000
#
# Coordination Sequence:
#
# PCOD8165876 Si02
#       4
#     8   8   8   8
#     4  10  24  45  69 104 143 175 232 299 358 425
#     4  10  23  45  66  97 140 179 232 296 350 421
#     4  11  25  39  73 107 135 182 227 289 371 432
#     4  11  26  47  72 100 146 199 248 299 354 428
#
# _framework density 22.335902999999998
#
# number of rings (size 3 to 8) (size 9 to 14) (size 15 to 20)
#    0.000    1.500    0.000    3.750   14.000    4.000 
#    0.000    0.000    0.000    0.000    0.000    0.000 
#    0.000    0.000    0.000    0.000    0.000    0.000 
#
# Total GULP energy -198225.937663 kJ/mol
# GULP energy per Si atom -12389.121104 kJ/mol
# Density = 2.228507 g / cm^3
# Si number density = 22.335903 Si / 1000 Ang^3
#
#
#
# Elastic Constant Matrix: (Units=GPa)
#
#
# Indices 1 2 3 4 5 6 
#
# 1 60.4531 21.4125 53.0061 0.0000 0.0000 0.0000
# 2 21.4125 151.0535 29.0538 0.0000 0.0000 0.0000
# 3 53.0061 29.0538 125.8216 0.0000 0.0000 0.0000
# 4 0.0000 0.0000 0.0000 1.8524 0.0000 0.0000
# 5 0.0000 0.0000 0.0000 0.0000 29.4299 0.0000
# 6 0.0000 0.0000 0.0000 0.0000 0.0000 14.3914
#
#
#
# Elastic Compliance Matrix: (Units=1/GPa)
#
#
# Indices 1 2 3 4 5 6 
#
# 1 0.026638 -0.001693 -0.010831 0.000000 0.000000 0.000000
# 2 -0.001693 0.007035 -0.000911 0.000000 0.000000 0.000000
# 3 -0.010831 -0.000911 0.012721 0.000000 0.000000 0.000000
# 4 0.000000 0.000000 0.000000 0.539827 0.000000 0.000000
# 5 0.000000 0.000000 0.000000 0.000000 0.033979 0.000000
# 6 0.000000 0.000000 0.000000 0.000000 0.000000 0.069486
#
#
# Mechanical properties :
#
#
# Convention : Reuss Voigt Hill
#
# Bulk Modulus (GPa) = 51.21912 60.47476 55.84694
# Shear Modulus (GPa) = 6.91500 24.72513 15.82007
#
# Velocity S-wave (km/s) = 1.76143 3.33072 2.66424
# Velocity P-wave (km/s) = 5.20749 6.47499 5.87552
#
# Compressibility (1/GPa) = 0.01952396
#
# Stress axis : x y z
#
# Youngs Moduli (GPa) = 37.53981 142.13757 78.60871
#
# Poissons Ratio (x) = 0.24061 0.85144
# Poissons Ratio (y) = 0.06355 0.07165
# Poissons Ratio (z) = 0.40661 0.12955
#
# Static dielectric constant tensor:
#      x y z
#    x 3.699410 0.000000 0.000000 
#    y 0.000000 4.585150 0.000000 
#    z 0.000000 0.000000 4.228080 
# 
# 
# High freq. dielectric constant tensor:
#      x y z
#    x 1.858250 0.000000 0.000000 
#    y 0.000000 1.903810 0.000000 
#    z 0.000000 0.000000 1.884410 
# 
# From -- ./inp_files/24343.got.cif
#   From: 2010.03.12/outbox.cif.g09.slc.cpg/sg24_13_cif.got.tgz:24343.got - 2010.04.14 03:06:53.
