data_PCOD8165792
_publ_section_title
;
Structure prediction by ZEFSAII (Michael W. Deem and Ramdas Pophale) SiO2 
 PCOD8165792
Probable space group: I 21 21 21
;
_chemical_formula_sum "Si O2"
_cell_formula_units_Z 60
_cell_length_a 27.180093
_cell_length_b 11.385910
_cell_length_c 9.359483
_cell_angle_alpha 90.000000
_cell_angle_beta 90.000000
_cell_angle_gamma 90.000000
_cell_volume 2896.480072
_symmetry_space_group_name_H-M "I 21 21 21"
_symmetry_group_IT_number 24
_symmetry_cell_setting 'orthorhombic'
loop_
_space_group_symop_operation_xyz
x,y,z
-x,1/2-y,z
x,-y,1/2-z
1/2-x,y,-z
1/2+x,1/2+y,1/2+z
1/2-x,-y,1/2+z
1/2+x,1/2-y,-z
-x,1/2+y,1/2-z
loop_
_atom_site_type_symbol
_atom_site_label
_atom_site_fract_x
_atom_site_fract_y
_atom_site_fract_z
Si Si1 0.569367 0.998483 0.418730
Si Si2 0.341371 0.000000 0.750000
Si Si3 0.425798 0.827076 0.706727
Si Si4 0.023539 0.125881 0.485106
Si Si5 0.616433 0.619865 0.176976
Si Si6 0.128095 0.617060 0.159328
Si Si7 0.054241 0.243811 0.910497
Si Si8 0.194632 0.811211 0.042305
O O1 0.513120 0.028360 0.456193
O O2 0.606900 0.081828 0.503588
O O3 0.579098 0.000000 0.250000
O O4 0.575969 0.865635 0.468659
O O5 0.375668 0.899147 0.684043
O O6 0.308262 0.934688 0.869921
O O7 0.465055 0.884655 0.815847
O O8 0.413577 0.695192 0.762554
O O9 0.451358 0.834435 0.552478
O O10 0.076053 0.100381 0.555479
O O11 0.000000 0.250000 0.527247
O O12 0.633611 0.500000 0.250000
O O13 0.593913 0.701877 0.297712
O O14 0.663378 0.679419 0.103375
O O15 0.141266 0.500000 0.250000
O O16 0.175905 0.698748 0.134175
O O17 0.000000 0.250000 0.836991
O O18 0.250000 0.784842 0.000000
#
# Coordination Sequence:
#
# PCOD8165792 Si02
#       8
#     8   4   8   8   8   8   8   8
#     4  12  24  38  62  96 139 189 230 277 327 404
#     4  10  22  44  70  96 130 172 222 282 348 418
#     4  11  23  40  63  93 132 181 228 275 331 396
#     4  12  21  39  59  88 136 186 227 267 334 387
#     4  12  24  43  64  94 135 180 218 288 351 405
#     4  11  22  46  69  94 135 184 225 281 347 407
#     4  12  25  37  58 100 137 178 239 268 316 405
#     4  11  25  47  76 101 131 171 225 295 369 424
#
# _framework density 20.714797999999998
#
# number of rings (size 3 to 8) (size 9 to 14) (size 15 to 20)
#    0.000    0.533    5.333    5.200    2.800    0.000 
#    0.000    2.000    0.000    0.000    0.000    0.000 
#    0.000    0.000    0.000    0.000    0.000    0.000 
#
# Total GULP energy -371971.408614 kJ/mol
# GULP energy per Si atom -12399.046954 kJ/mol
# Density = 2.066765 g / cm^3
# Si number density = 20.714798 Si / 1000 Ang^3
#
#
#
# Elastic Constant Matrix: (Units=GPa)
#
#
# Indices 1 2 3 4 5 6 
#
# 1 106.6955 34.7798 51.1814 0.0000 0.0000 0.0000
# 2 34.7798 96.7471 41.5820 0.0000 0.0000 0.0000
# 3 51.1814 41.5820 143.9091 0.0000 0.0000 0.0000
# 4 0.0000 0.0000 0.0000 32.4761 0.0000 0.0000
# 5 0.0000 0.0000 0.0000 0.0000 28.2482 0.0000
# 6 0.0000 0.0000 0.0000 0.0000 0.0000 22.7995
#
#
#
# Elastic Compliance Matrix: (Units=1/GPa)
#
#
# Indices 1 2 3 4 5 6 
#
# 1 0.011937 -0.002816 -0.003432 0.000000 0.000000 0.000000
# 2 -0.002816 0.012466 -0.002601 0.000000 0.000000 0.000000
# 3 -0.003432 -0.002601 0.008921 0.000000 0.000000 0.000000
# 4 0.000000 0.000000 0.000000 0.030792 0.000000 0.000000
# 5 0.000000 0.000000 0.000000 0.000000 0.035401 0.000000
# 6 0.000000 0.000000 0.000000 0.000000 0.000000 0.043861
#
#
# Mechanical properties :
#
#
# Convention : Reuss Voigt Hill
#
# Bulk Modulus (GPa) = 63.99155 66.93757 65.46456
# Shear Modulus (GPa) = 30.06938 31.35865 30.71402
#
# Velocity S-wave (km/s) = 3.81411 3.89502 3.85477
# Velocity P-wave (km/s) = 7.09615 7.25343 7.17522
#
# Compressibility (1/GPa) = 0.01562706
#
# Stress axis : x y z
#
# Youngs Moduli (GPa) = 83.77622 80.21601 112.09938
#
# Poissons Ratio (x) = 0.22591 0.38467
# Poissons Ratio (y) = 0.23593 0.29151
# Poissons Ratio (z) = 0.28748 0.20860
#
# Static dielectric constant tensor:
#      x y z
#    x 3.348340 0.000000 0.000000 
#    y 0.000000 4.124680 0.000000 
#    z 0.000000 0.000000 3.935610 
# 
# 
# High freq. dielectric constant tensor:
#      x y z
#    x 1.766170 0.000000 0.000000 
#    y 0.000000 1.830370 0.000000 
#    z 0.000000 0.000000 1.824080 
# 
# From -- ./inp_files/16453.got.cif
#   From: 2010.03.12/outbox.cif.g09.slc.cpg/sg24_9_cif.got.tgz:16453.got - 2010.04.14 03:06:53.
