data_PCOD8165949
_publ_section_title
;
Structure prediction by ZEFSAII (Michael W. Deem and Ramdas Pophale) SiO2 
 PCOD8165949
Probable space group: I 21 21 21
;
_chemical_formula_sum "Si O2"
_cell_formula_units_Z 20
_cell_length_a 8.990520
_cell_length_b 15.889387
_cell_length_c 5.216588
_cell_angle_alpha 90.000000
_cell_angle_beta 90.000000
_cell_angle_gamma 90.000000
_cell_volume 745.209688
_symmetry_space_group_name_H-M "I 21 21 21"
_symmetry_group_IT_number 24
_symmetry_cell_setting 'orthorhombic'
loop_
_space_group_symop_operation_xyz
x,y,z
-x,1/2-y,z
x,-y,1/2-z
1/2-x,y,-z
1/2+x,1/2+y,1/2+z
1/2-x,-y,1/2+z
1/2+x,1/2-y,-z
-x,1/2+y,1/2-z
loop_
_atom_site_type_symbol
_atom_site_label
_atom_site_fract_x
_atom_site_fract_y
_atom_site_fract_z
Si Si1 0.650503 0.000000 0.250000
Si Si2 0.922635 0.831504 0.552917
Si Si3 0.659239 0.598306 0.751475
O O1 0.750000 0.002577 0.500000
O O2 0.550993 0.085391 0.235874
O O3 0.750000 0.814119 0.500000
O O4 0.000000 0.750000 0.682825
O O5 0.003080 0.851279 0.278940
O O6 0.620943 0.500000 0.750000
O O7 0.750000 0.624373 0.500000
O O8 0.750000 0.627888 0.000000
#
# Coordination Sequence:
#
# PCOD8165949 Si02
#       3
#     4   8   8
#     4  10  26  50  84 116 164 224 272 336 420 500
#     4  11  26  50  83 124 167 218 282 345 415 498
#     4  10  24  46  77 112 157 212 268 333 409 486
#
# _framework density 26.838086000000001
#
# number of rings (size 3 to 8) (size 9 to 14) (size 15 to 20)
#    0.000    1.600    0.000    1.200   19.600    0.000 
#    0.000   32.000    0.000    0.000    0.000    0.000 
#    0.000    0.000    0.000    0.000    0.000    0.000 
#
# Total GULP energy -123970.373794 kJ/mol
# GULP energy per Si atom -12397.037379 kJ/mol
# Density = 2.677700 g / cm^3
# Si number density = 26.838086 Si / 1000 Ang^3
#
#
#
# Elastic Constant Matrix: (Units=GPa)
#
#
# Indices 1 2 3 4 5 6 
#
# 1 188.5679 76.1893 63.9987 0.0083 -0.0051 -0.0045
# 2 76.1893 235.5080 51.7273 0.0166 -0.0075 -0.0091
# 3 63.9987 51.7273 158.2544 0.0521 -0.0314 -0.0260
# 4 0.0083 0.0166 0.0521 35.1282 -0.0171 -0.0182
# 5 -0.0051 -0.0075 -0.0314 -0.0171 29.2198 0.0092
# 6 -0.0045 -0.0091 -0.0260 -0.0182 0.0092 49.5995
#
#
#
# Elastic Compliance Matrix: (Units=1/GPa)
#
#
# Indices 1 2 3 4 5 6 
#
# 1 0.006724 -0.001700 -0.002164 0.000002 -0.000002 -0.000001
# 2 -0.001700 0.005004 -0.000948 -0.000001 0.000000 0.000000
# 3 -0.002164 -0.000948 0.007504 -0.000010 0.000007 0.000004
# 4 0.000002 -0.000001 -0.000010 0.028467 0.000017 0.000010
# 5 -0.000002 0.000000 0.000007 0.000017 0.034223 -0.000006
# 6 -0.000001 0.000000 0.000004 0.000010 -0.000006 0.020161
#
#
# Mechanical properties :
#
#
# Convention : Reuss Voigt Hill
#
# Bulk Modulus (GPa) = 104.07306 107.35120 105.71213
# Shear Modulus (GPa) = 43.51164 48.81716 46.16440
#
# Velocity S-wave (km/s) = 4.03086 4.26954 4.15192
# Velocity P-wave (km/s) = 7.77985 8.02445 7.90310
#
# Compressibility (1/GPa) = 0.00960863
#
# Stress axis : x y z
#
# Youngs Moduli (GPa) = 148.71208 199.82293 133.26469
#
# Poissons Ratio (x) = 0.33974 0.28834
# Poissons Ratio (y) = 0.25284 0.12636
# Poissons Ratio (z) = 0.32176 0.18947
#
# Static dielectric constant tensor:
#      x y z
#    x 5.215010 -0.000020 0.000000 
#    y -0.000020 5.561420 -0.000020 
#    z 0.000000 -0.000020 4.664580 
# 
# 
# High freq. dielectric constant tensor:
#      x y z
#    x 2.097430 0.000000 0.000000 
#    y 0.000000 2.088690 0.000000 
#    z 0.000000 0.000000 2.052410 
# 
# From -- ./inp_files/651.got.cif
#   From: 2010.03.12/outbox.cif.g09.slc.cpg/sg24_1_cif.got.tgz:651.got - 2010.04.14 03:06:53.
