data_PCOD8165141
_publ_section_title
;
Structure prediction by ZEFSAII (Michael W. Deem and Ramdas Pophale) SiO2 
 PCOD8165141
Probable space group: I 21 21 21
;
_chemical_formula_sum "Si O2"
_cell_formula_units_Z 48
_cell_length_a 38.110515
_cell_length_b 7.666894
_cell_length_c 7.874985
_cell_angle_alpha 90.000000
_cell_angle_beta 90.000000
_cell_angle_gamma 90.000000
_cell_volume 2300.986188
_symmetry_space_group_name_H-M "I 21 21 21"
_symmetry_group_IT_number 24
_symmetry_cell_setting 'orthorhombic'
loop_
_space_group_symop_operation_xyz
x,y,z
-x,1/2-y,z
x,-y,1/2-z
1/2-x,y,-z
1/2+x,1/2+y,1/2+z
1/2-x,-y,1/2+z
1/2+x,1/2-y,-z
-x,1/2+y,1/2-z
loop_
_atom_site_type_symbol
_atom_site_label
_atom_site_fract_x
_atom_site_fract_y
_atom_site_fract_z
Si Si1 0.790082 0.500000 0.449403
Si Si2 0.084465 0.706997 0.937232
Si Si3 0.160745 0.696435 0.048405
Si Si4 0.915535 0.206997 0.937233
Si Si5 0.040453 0.294941 0.250000
Si Si6 0.160745 0.696436 0.451595
O O1 0.793827 0.500000 0.250000
O O2 0.750000 0.500001 0.500000
O O3 0.808871 0.325338 0.520136
O O4 0.808871 0.674661 0.520136
O O5 0.082618 0.500000 0.943483
O O6 0.073133 0.775585 0.750000
O O7 0.124195 0.765984 0.973007
O O8 0.058511 0.785862 0.080719
O O9 0.157392 0.699647 0.250000
O O10 0.169445 0.500000 0.985162
O O11 0.941490 0.285862 0.080719
O O12 0.875805 0.265985 0.973008
O O13 0.046436 0.500000 0.250000
O O14 0.000000 0.250000 0.250001
#
# Coordination Sequence:
#
# PCOD8165141 Si02
#       6
#     8   8   8   8   8   8
#     4  10  22  36  52  80 116 150 184 236 292 344
#     4   9  17  32  56  80 104 142 191 234 277 336
#     4   9  17  34  57  78 104 145 192 234 283 341
#     4   9  17  32  56  80 104 142 191 234 277 336
#     4  10  20  36  54  78 112 148 180 232 292 342
#     4   9  17  34  57  78 104 145 192 234 283 341
#
# _framework density 20.860620999999998
#
# number of rings (size 3 to 8) (size 9 to 14) (size 15 to 20)
#    0.000    2.667    1.667    0.000    0.000    2.667 
#    3.000    0.000    0.000    0.000    0.000    0.000 
#    0.000    0.000    0.000    0.000    0.000    0.000 
#
# Total GULP energy -297493.026330 kJ/mol
# GULP energy per Si atom -12395.542764 kJ/mol
# Density = 2.081314 g / cm^3
# Si number density = 20.860621 Si / 1000 Ang^3
#
#
#
# Elastic Constant Matrix: (Units=GPa)
#
#
# Indices 1 2 3 4 5 6 
#
# 1 188.4331 55.0081 78.6783 0.0000 0.0000 0.0000
# 2 55.0081 77.6619 28.0998 0.0000 0.0000 0.0000
# 3 78.6783 28.0998 112.8291 0.0000 0.0000 0.0000
# 4 0.0000 0.0000 0.0000 2.6706 0.0000 0.0000
# 5 0.0000 0.0000 0.0000 0.0000 29.0743 0.0000
# 6 0.0000 0.0000 0.0000 0.0000 0.0000 32.9949
#
#
#
# Elastic Compliance Matrix: (Units=1/GPa)
#
#
# Indices 1 2 3 4 5 6 
#
# 1 0.008634 -0.004327 -0.004943 0.000000 0.000000 0.000000
# 2 -0.004327 0.016320 -0.001047 0.000000 0.000000 0.000000
# 3 -0.004943 -0.001047 0.012571 0.000000 0.000000 0.000000
# 4 0.000000 0.000000 0.000000 0.374442 0.000000 0.000000
# 5 0.000000 0.000000 0.000000 0.000000 0.034395 0.000000
# 6 0.000000 0.000000 0.000000 0.000000 0.000000 0.030308
#
#
# Mechanical properties :
#
#
# Convention : Reuss Voigt Hill
#
# Bulk Modulus (GPa) = 59.20561 78.05516 68.63038
# Shear Modulus (GPa) = 9.94167 27.42383 18.68275
#
# Velocity S-wave (km/s) = 2.18543 3.62970 2.99590
# Velocity P-wave (km/s) = 5.90011 7.42058 6.70359
#
# Compressibility (1/GPa) = 0.01689029
#
# Stress axis : x y z
#
# Youngs Moduli (GPa) = 115.82128 61.27445 79.55025
#
# Poissons Ratio (x) = 0.26513 0.39322
# Poissons Ratio (y) = 0.50115 0.08330
# Poissons Ratio (z) = 0.57251 0.06416
#
# Static dielectric constant tensor:
#      x y z
#    x 2.700160 0.000010 0.000000 
#    y 0.000010 2.694610 0.000000 
#    z 0.000000 0.000000 4.035590 
# 
# 
# High freq. dielectric constant tensor:
#      x y z
#    x 1.804610 0.000000 0.000000 
#    y 0.000000 1.798200 0.000000 
#    z 0.000000 0.000000 1.817840 
# 
# From -- ./inp_files/16829.got.cif
#   From: 2010.03.12/outbox.cif.g09.slc.cpg/sg24_9_cif.got.tgz:16829.got - 2010.04.14 03:06:53.
