data_PCOD8165923
_publ_section_title
;
Structure prediction by ZEFSAII (Michael W. Deem and Ramdas Pophale) SiO2 
 PCOD8165923
Probable space group: I 21 21 21
;
_chemical_formula_sum "Si O2"
_cell_formula_units_Z 56
_cell_length_a 19.401484
_cell_length_b 9.699425
_cell_length_c 13.743275
_cell_angle_alpha 90.000000
_cell_angle_beta 90.000000
_cell_angle_gamma 90.000000
_cell_volume 2586.254003
_symmetry_space_group_name_H-M "I 21 21 21"
_symmetry_group_IT_number 24
_symmetry_cell_setting 'orthorhombic'
loop_
_space_group_symop_operation_xyz
x,y,z
-x,1/2-y,z
x,-y,1/2-z
1/2-x,y,-z
1/2+x,1/2+y,1/2+z
1/2-x,-y,1/2+z
1/2+x,1/2-y,-z
-x,1/2+y,1/2-z
loop_
_atom_site_type_symbol
_atom_site_label
_atom_site_fract_x
_atom_site_fract_y
_atom_site_fract_z
Si Si1 0.025863 0.598776 0.662803
Si Si2 0.654765 0.041580 0.049973
Si Si3 0.451764 0.874386 0.824862
Si Si4 0.292576 0.596421 0.653420
Si Si5 0.198688 0.843628 0.225392
Si Si6 0.809669 0.738020 0.921501
Si Si7 0.953263 0.381185 0.544267
O O1 0.051676 0.500000 0.750000
O O2 0.087517 0.621019 0.586386
O O3 0.000000 0.750000 0.698067
O O4 0.965845 0.515844 0.608750
O O5 0.652538 0.883611 0.082132
O O6 0.718257 0.110411 0.104726
O O7 0.656920 0.042967 0.931873
O O8 0.500000 0.750000 0.786869
O O9 0.371778 0.828242 0.836210
O O10 0.460160 0.000000 0.750000
O O11 0.474395 0.916833 0.933309
O O12 0.296360 0.500000 0.750000
O O13 0.314465 0.752035 0.678766
O O14 0.268754 0.785751 0.178328
O O15 0.213309 0.000000 0.250000
O O16 0.871223 0.633010 0.941306
O O17 0.750000 0.726913 0.000000
O O18 0.000000 0.250000 0.578158
#
# Coordination Sequence:
#
# PCOD8165923 Si02
#       7
#     8   8   8   8   8   8   8
#     4  12  29  49  72 101 139 184 238 293 350 421
#     4  11  24  43  73 103 138 180 238 295 342 411
#     4  10  24  44  65  99 139 183 227 281 344 419
#     4  11  22  41  72 106 133 180 237 282 346 416
#     4  11  25  42  65 102 143 177 223 286 353 417
#     4  12  21  44  73 101 136 184 229 289 353 410
#     4  11  24  43  73 102 136 182 236 284 349 423
#
# _framework density 21.652937999999999
#
# number of rings (size 3 to 8) (size 9 to 14) (size 15 to 20)
#    0.000    0.857    5.714    0.857    0.000    6.286 
#    2.571    0.000    0.000    0.000    0.000    0.000 
#    0.000    0.000    0.000    0.000    0.000    0.000 
#
# Total GULP energy -347076.585227 kJ/mol
# GULP energy per Si atom -12395.592330 kJ/mol
# Density = 2.160366 g / cm^3
# Si number density = 21.652938 Si / 1000 Ang^3
#
#
#
# Elastic Constant Matrix: (Units=GPa)
#
#
# Indices 1 2 3 4 5 6 
#
# 1 92.1247 27.6419 25.9675 0.0000 0.0000 0.0000
# 2 27.6419 131.7936 48.4894 0.0000 0.0000 0.0000
# 3 25.9675 48.4894 105.9029 0.0000 0.0000 0.0000
# 4 0.0000 0.0000 0.0000 31.8287 0.0000 0.0000
# 5 0.0000 0.0000 0.0000 0.0000 54.9284 0.0000
# 6 0.0000 0.0000 0.0000 0.0000 0.0000 76.1467
#
#
#
# Elastic Compliance Matrix: (Units=1/GPa)
#
#
# Indices 1 2 3 4 5 6 
#
# 1 0.011977 -0.001722 -0.002149 0.000000 0.000000 0.000000
# 2 -0.001722 0.009372 -0.003869 0.000000 0.000000 0.000000
# 3 -0.002149 -0.003869 0.011741 0.000000 0.000000 0.000000
# 4 0.000000 0.000000 0.000000 0.031418 0.000000 0.000000
# 5 0.000000 0.000000 0.000000 0.000000 0.018206 0.000000
# 6 0.000000 0.000000 0.000000 0.000000 0.000000 0.013133
#
#
# Mechanical properties :
#
#
# Convention : Reuss Voigt Hill
#
# Bulk Modulus (GPa) = 56.77996 59.33541 58.05769
# Shear Modulus (GPa) = 42.66379 47.76224 45.21302
#
# Velocity S-wave (km/s) = 4.44367 4.70170 4.57451
# Velocity P-wave (km/s) = 7.25314 7.54567 7.40085
#
# Compressibility (1/GPa) = 0.01761185
#
# Stress axis : x y z
#
# Youngs Moduli (GPa) = 83.49325 106.69847 85.17180
#
# Poissons Ratio (x) = 0.18368 0.18300
# Poissons Ratio (y) = 0.14374 0.32954
# Poissons Ratio (z) = 0.17939 0.41283
#
# Static dielectric constant tensor:
#      x y z
#    x 4.032130 0.000000 0.000000 
#    y 0.000000 3.682330 0.000000 
#    z 0.000000 0.000000 3.570880 
# 
# 
# High freq. dielectric constant tensor:
#      x y z
#    x 1.858020 0.000000 0.000000 
#    y 0.000000 1.839970 0.000000 
#    z 0.000000 0.000000 1.856920 
# 
# From -- ./inp_files/27537.got.cif
#   From: 2010.03.12/outbox.cif.g09.slc.cpg/sg24_14_cif.got.tgz:27537.got - 2010.04.14 03:06:53.
