data_PCOD8165080
_publ_section_title
;
Structure prediction by ZEFSAII (Michael W. Deem and Ramdas Pophale) SiO2 
 PCOD8165080
Probable space group: I 21 21 21
;
_chemical_formula_sum "Si O2"
_cell_formula_units_Z 56
_cell_length_a 8.919248
_cell_length_b 21.871097
_cell_length_c 14.413221
_cell_angle_alpha 90.000000
_cell_angle_beta 90.000000
_cell_angle_gamma 90.000000
_cell_volume 2811.640900
_symmetry_space_group_name_H-M "I 21 21 21"
_symmetry_group_IT_number 24
_symmetry_cell_setting 'orthorhombic'
loop_
_space_group_symop_operation_xyz
x,y,z
-x,1/2-y,z
x,-y,1/2-z
1/2-x,y,-z
1/2+x,1/2+y,1/2+z
1/2-x,-y,1/2+z
1/2+x,1/2-y,-z
-x,1/2+y,1/2-z
loop_
_atom_site_type_symbol
_atom_site_label
_atom_site_fract_x
_atom_site_fract_y
_atom_site_fract_z
Si Si1 0.825717 0.606701 0.406715
Si Si2 0.184268 0.535525 0.096660
Si Si3 0.173659 0.633092 0.779446
Si Si4 0.822367 0.107355 0.094932
Si Si5 0.823924 0.248434 0.599704
Si Si6 0.319656 0.865189 0.217435
Si Si7 0.638005 0.523802 0.849398
O O1 0.750000 0.632920 0.500000
O O2 0.755762 0.640411 0.318104
O O3 0.791081 0.533890 0.402953
O O4 0.001539 0.620120 0.407929
O O5 0.267472 0.569380 0.180034
O O6 0.214736 0.463897 0.108453
O O7 0.006561 0.550531 0.097347
O O8 0.250000 0.560282 0.000000
O O9 0.247547 0.644403 0.679130
O O10 0.226303 0.687803 0.846024
O O11 0.996096 0.630280 0.768335
O O12 0.750000 0.131926 0.000000
O O13 0.750000 0.249697 0.500000
O O14 0.769982 0.306459 0.659018
O O15 0.000000 0.250000 0.584997
O O16 0.264410 0.924760 0.161034
O O17 0.578299 0.500000 0.750000
#
# Coordination Sequence:
#
# PCOD8165080 Si02
#       7
#     8   8   8   8   8   8   8
#     4  10  20  36  57  83 115 146 179 222 274 329
#     4  10  20  33  53  82 114 147 183 223 272 327
#     4  11  21  37  57  80 111 144 186 230 273 322
#     4  10  21  36  57  84 113 145 180 223 273 328
#     4  10  24  42  59  81 109 144 185 229 271 318
#     4  10  22  37  56  81 110 146 185 229 275 324
#     4   9  19  35  53  79 114 148 182 224 274 326
#
# _framework density 19.917193000000001
#
# number of rings (size 3 to 8) (size 9 to 14) (size 15 to 20)
#    0.000    2.000    0.000    4.286    0.000   12.000 
#    0.000    0.714    0.000    0.000    0.000    0.000 
#    0.000    0.000    0.000    0.000    0.000    0.000 
#
# Total GULP energy -347308.293574 kJ/mol
# GULP energy per Si atom -12403.867628 kJ/mol
# Density = 1.987186 g / cm^3
# Si number density = 19.917193 Si / 1000 Ang^3
#
#
#
# Elastic Constant Matrix: (Units=GPa)
#
#
# Indices 1 2 3 4 5 6 
#
# 1 105.8846 50.0165 73.5042 0.0000 0.0000 0.0000
# 2 50.0165 69.4465 54.7261 0.0001 0.0000 0.0000
# 3 73.5042 54.7261 170.2146 0.0002 -0.0001 -0.0001
# 4 0.0000 0.0001 0.0002 29.9536 0.0000 0.0000
# 5 0.0000 0.0000 -0.0001 0.0000 43.9622 0.0000
# 6 0.0000 0.0000 -0.0001 0.0000 0.0000 21.8907
#
#
#
# Elastic Compliance Matrix: (Units=1/GPa)
#
#
# Indices 1 2 3 4 5 6 
#
# 1 0.016470 -0.008380 -0.004418 0.000000 0.000000 0.000000
# 2 -0.008380 0.023550 -0.003953 0.000000 0.000000 0.000000
# 3 -0.004418 -0.003953 0.009054 0.000000 0.000000 0.000000
# 4 0.000000 0.000000 0.000000 0.033385 0.000000 0.000000
# 5 0.000000 0.000000 0.000000 0.000000 0.022747 0.000000
# 6 0.000000 0.000000 0.000000 0.000000 0.000000 0.045682
#
#
# Mechanical properties :
#
#
# Convention : Reuss Voigt Hill
#
# Bulk Modulus (GPa) = 64.21957 78.00438 71.11197
# Shear Modulus (GPa) = 26.37425 30.31455 28.34440
#
# Velocity S-wave (km/s) = 3.64290 3.90555 3.77651
# Velocity P-wave (km/s) = 7.07160 7.71927 7.40252
#
# Compressibility (1/GPa) = 0.01557158
#
# Stress axis : x y z
#
# Youngs Moduli (GPa) = 60.71784 42.46257 110.45439
#
# Poissons Ratio (x) = 0.35585 0.48796
# Poissons Ratio (y) = 0.50884 0.43660
# Poissons Ratio (z) = 0.26823 0.16784
#
# Static dielectric constant tensor:
#      x y z
#    x 3.557010 0.000000 0.000000 
#    y 0.000000 3.479900 0.000000 
#    z 0.000000 0.000000 3.805450 
# 
# 
# High freq. dielectric constant tensor:
#      x y z
#    x 1.781820 0.000000 0.000000 
#    y 0.000000 1.753250 0.000000 
#    z 0.000000 0.000000 1.791700 
# 
# From -- ./inp_files/25071.got.cif
#   From: 2010.03.12/outbox.cif.g09.slc.cpg/sg24_13_cif.got.tgz:25071.got - 2010.04.14 03:06:53.
