data_PCOD8165647
_publ_section_title
;
Structure prediction by ZEFSAII (Michael W. Deem and Ramdas Pophale) SiO2 
 PCOD8165647
Probable space group: I 21 21 21
;
_chemical_formula_sum "Si O2"
_cell_formula_units_Z 36
_cell_length_a 25.546831
_cell_length_b 7.926426
_cell_length_c 7.646712
_cell_angle_alpha 90.000000
_cell_angle_beta 90.000000
_cell_angle_gamma 90.000000
_cell_volume 1548.421447
_symmetry_space_group_name_H-M "I 21 21 21"
_symmetry_group_IT_number 24
_symmetry_cell_setting 'orthorhombic'
loop_
_space_group_symop_operation_xyz
x,y,z
-x,1/2-y,z
x,-y,1/2-z
1/2-x,y,-z
1/2+x,1/2+y,1/2+z
1/2-x,-y,1/2+z
1/2+x,1/2-y,-z
-x,1/2+y,1/2-z
loop_
_atom_site_type_symbol
_atom_site_label
_atom_site_fract_x
_atom_site_fract_y
_atom_site_fract_z
Si Si1 0.578874 0.000000 0.750000
Si Si2 0.458096 0.612691 0.401410
Si Si3 0.364005 0.192450 0.281724
Si Si4 0.856946 0.316504 0.307077
Si Si5 0.751912 0.806201 0.795564
O O1 0.610903 0.170658 0.788596
O O2 0.546725 0.010805 0.569663
O O3 0.500000 0.750000 0.458021
O O4 0.483977 0.500000 0.250000
O O5 0.403807 0.688177 0.323540
O O6 0.364359 0.224477 0.488636
O O7 0.305393 0.234244 0.211075
O O8 0.378875 0.000000 0.250000
O O9 0.878683 0.500000 0.250000
O O10 0.797967 0.301360 0.229823
O O11 0.744410 0.000000 0.750000
O O12 0.750000 0.782819 0.000000
#
# Coordination Sequence:
#
# PCOD8165647 Si02
#       5
#     4   8   8   8   8
#     4  12  26  50  74 110 150 186 246 314 378 446
#     4  12  27  50  77 104 143 193 252 315 381 439
#     4  11  23  43  68 104 145 193 248 304 362 446
#     4  11  23  42  70 109 149 192 241 299 372 448
#     4  10  22  36  64 101 145 195 238 291 365 441
#
# _framework density 23.249483000000001
#
# number of rings (size 3 to 8) (size 9 to 14) (size 15 to 20)
#    0.000    0.889    3.333    3.333    3.111    2.667 
#    6.000    0.000    0.000    0.000    0.000    0.000 
#    0.000    0.000    0.000    0.000    0.000    0.000 
#
# Total GULP energy -223150.764251 kJ/mol
# GULP energy per Si atom -12397.264681 kJ/mol
# Density = 2.319657 g / cm^3
# Si number density = 23.249483 Si / 1000 Ang^3
#
#
#
# Elastic Constant Matrix: (Units=GPa)
#
#
# Indices 1 2 3 4 5 6 
#
# 1 92.7953 19.9003 30.7900 0.0000 0.0000 0.0000
# 2 19.9003 128.8840 14.5691 0.0000 0.0000 0.0000
# 3 30.7900 14.5691 109.0556 0.0000 0.0000 0.0000
# 4 0.0000 0.0000 0.0000 41.0969 0.0000 0.0000
# 5 0.0000 0.0000 0.0000 0.0000 -1.2170 0.0000
# 6 0.0000 0.0000 0.0000 0.0000 0.0000 33.5966
#
#
#
# Elastic Compliance Matrix: (Units=1/GPa)
#
#
# Indices 1 2 3 4 5 6 
#
# 1 0.012175 -0.001514 -0.003235 0.000000 0.000000 0.000000
# 2 -0.001514 0.008066 -0.000650 0.000000 0.000000 0.000000
# 3 -0.003235 -0.000650 0.010170 0.000000 0.000000 0.000000
# 4 0.000000 0.000000 0.000000 0.024333 0.000000 0.000000
# 5 0.000000 0.000000 0.000000 0.000000 -0.821689 0.000000
# 6 0.000000 0.000000 0.000000 0.000000 0.000000 0.029765
#
#
# Mechanical properties :
#
#
# Convention : Reuss Voigt Hill
#
# Bulk Modulus (GPa) = 50.98893 51.25042 51.11967
# Shear Modulus (GPa) = -6.94594 32.39367 12.72387
#
# Velocity S-wave (km/s) = -1.73033 3.73675 2.34193
# Velocity P-wave (km/s) = 4.24108 6.38038 5.41738
#
# Compressibility (1/GPa) = 0.01961210
#
# Stress axis : x y z
#
# Youngs Moduli (GPa) = 82.13883 123.97423 98.33007
#
# Poissons Ratio (x) = 0.18771 0.31810
# Poissons Ratio (y) = 0.12437 0.06392
# Poissons Ratio (z) = 0.26572 0.08060
#
# Static dielectric constant tensor:
#      x y z
#    x 4.289050 0.000000 0.000000 
#    y 0.000000 4.158560 0.000000 
#    z 0.000000 0.000000 4.169850 
# 
# 
# High freq. dielectric constant tensor:
#      x y z
#    x 1.910420 0.000000 0.000000 
#    y 0.000000 1.926210 0.000000 
#    z 0.000000 0.000000 1.926010 
# 
# From -- ./inp_files/14820.got.cif
#   From: 2010.03.12/outbox.cif.g09.slc.cpg/sg24_8_cif.got.tgz:14820.got - 2010.04.14 03:06:53.
