data_PCOD8165064
_publ_section_title
;
Structure prediction by ZEFSAII (Michael W. Deem and Ramdas Pophale) SiO2 
 PCOD8165064
Probable space group: I 21 21 21
;
_chemical_formula_sum "Si O2"
_cell_formula_units_Z 48
_cell_length_a 10.790276
_cell_length_b 12.974003
_cell_length_c 19.024422
_cell_angle_alpha 90.000000
_cell_angle_beta 90.000000
_cell_angle_gamma 90.000000
_cell_volume 2663.287302
_symmetry_space_group_name_H-M "I 21 21 21"
_symmetry_group_IT_number 24
_symmetry_cell_setting 'orthorhombic'
loop_
_space_group_symop_operation_xyz
x,y,z
-x,1/2-y,z
x,-y,1/2-z
1/2-x,y,-z
1/2+x,1/2+y,1/2+z
1/2-x,-y,1/2+z
1/2+x,1/2-y,-z
-x,1/2+y,1/2-z
loop_
_atom_site_type_symbol
_atom_site_label
_atom_site_fract_x
_atom_site_fract_y
_atom_site_fract_z
Si Si1 0.178336 0.322174 0.715784
Si Si2 0.754782 0.409150 0.421974
Si Si3 0.303925 0.672215 0.927296
Si Si4 0.068557 0.353034 0.212924
Si Si5 0.409455 0.096973 0.295272
Si Si6 0.495968 0.948778 0.855498
O O1 0.217442 0.356851 0.637983
O O2 0.284174 0.348097 0.772270
O O3 0.161728 0.200373 0.726324
O O4 0.053064 0.387289 0.724943
O O5 0.750000 0.458337 0.500000
O O6 0.812282 0.295214 0.430478
O O7 0.623673 0.417128 0.379095
O O8 0.854743 0.471599 0.376604
O O9 0.436792 0.618425 0.915931
O O10 0.250000 0.627856 0.000000
O O11 0.995760 0.384789 0.283286
O O12 0.059188 0.439797 0.153159
O O13 0.000000 0.250000 0.185608
O O14 0.360559 0.000000 0.250000
#
# Coordination Sequence:
#
# PCOD8165064 Si02
#       6
#     8   8   8   8   8   8
#     4   9  20  35  49  83 106 137 179 218 274 323
#     4  10  21  34  51  82 113 143 177 221 276 330
#     4   9  18  32  54  76 110 138 171 225 270 333
#     4  10  20  34  56  78 108 136 186 237 270 312
#     4  10  21  33  56  77 111 142 173 219 271 331
#     4  10  20  32  55  80 104 145 183 221 275 332
#
# _framework density 18.022839000000001
#
# number of rings (size 3 to 8) (size 9 to 14) (size 15 to 20)
#    0.000    2.333    0.000    3.500   11.667    0.000 
#    0.000    0.000    0.000    1.000    4.333    0.000 
#    0.000    0.000    0.000    0.000    0.000    0.000 
#
# Total GULP energy -297413.664428 kJ/mol
# GULP energy per Si atom -12392.236018 kJ/mol
# Density = 1.798182 g / cm^3
# Si number density = 18.022839 Si / 1000 Ang^3
#
#
#
# Elastic Constant Matrix: (Units=GPa)
#
#
# Indices 1 2 3 4 5 6 
#
# 1 101.7908 22.5064 24.4100 0.0000 0.0000 0.0000
# 2 22.5064 72.6164 26.4228 0.0000 0.0000 0.0000
# 3 24.4100 26.4228 56.9510 0.0000 0.0000 0.0000
# 4 0.0000 0.0000 0.0000 19.6774 0.0000 0.0000
# 5 0.0000 0.0000 0.0000 0.0000 19.6700 0.0000
# 6 0.0000 0.0000 0.0000 0.0000 0.0000 17.3334
#
#
#
# Elastic Compliance Matrix: (Units=1/GPa)
#
#
# Indices 1 2 3 4 5 6 
#
# 1 0.011204 -0.002075 -0.003839 0.000000 0.000000 0.000000
# 2 -0.002075 0.016952 -0.006976 0.000000 0.000000 0.000000
# 3 -0.003839 -0.006976 0.022441 0.000000 0.000000 0.000000
# 4 0.000000 0.000000 0.000000 0.050820 0.000000 0.000000
# 5 0.000000 0.000000 0.000000 0.000000 0.050839 0.000000
# 6 0.000000 0.000000 0.000000 0.000000 0.000000 0.057692
#
#
# Mechanical properties :
#
#
# Convention : Reuss Voigt Hill
#
# Bulk Modulus (GPa) = 40.29574 42.00404 41.14989
# Shear Modulus (GPa) = 20.49177 21.87074 21.18126
#
# Velocity S-wave (km/s) = 3.37559 3.48731 3.43190
# Velocity P-wave (km/s) = 6.13184 6.29061 6.21173
#
# Compressibility (1/GPa) = 0.02481652
#
# Stress axis : x y z
#
# Youngs Moduli (GPa) = 89.25700 58.98847 44.56169
#
# Poissons Ratio (x) = 0.12243 0.17108
# Poissons Ratio (y) = 0.18525 0.31085
# Poissons Ratio (z) = 0.34267 0.41148
#
# Static dielectric constant tensor:
#      x y z
#    x 3.438940 0.000000 0.000000 
#    y 0.000000 3.227290 0.000000 
#    z 0.000000 0.000000 3.229750 
# 
# 
# High freq. dielectric constant tensor:
#      x y z
#    x 1.706160 0.000000 0.000000 
#    y 0.000000 1.680380 0.000000 
#    z 0.000000 0.000000 1.669310 
# 
# From -- ./inp_files/21528.got.cif
#   From: 2010.03.12/outbox.cif.g09.slc.cpg/sg24_11_cif.got.tgz:21528.got - 2010.04.14 03:06:53.
