data_PCOD8165023
_publ_section_title
;
Structure prediction by ZEFSAII (Michael W. Deem and Ramdas Pophale) SiO2 
 PCOD8165023
Probable space group: I 21 21 21
;
_chemical_formula_sum "Si O2"
_cell_formula_units_Z 60
_cell_length_a 16.143558
_cell_length_b 20.902164
_cell_length_c 8.645593
_cell_angle_alpha 90.000000
_cell_angle_beta 90.000000
_cell_angle_gamma 90.000000
_cell_volume 2917.328240
_symmetry_space_group_name_H-M "I 21 21 21"
_symmetry_group_IT_number 24
_symmetry_cell_setting 'orthorhombic'
loop_
_space_group_symop_operation_xyz
x,y,z
-x,1/2-y,z
x,-y,1/2-z
1/2-x,y,-z
1/2+x,1/2+y,1/2+z
1/2-x,-y,1/2+z
1/2+x,1/2-y,-z
-x,1/2+y,1/2-z
loop_
_atom_site_type_symbol
_atom_site_label
_atom_site_fract_x
_atom_site_fract_y
_atom_site_fract_z
Si Si1 0.479233 0.391765 0.060142
Si Si2 0.835956 0.820568 0.422404
Si Si3 0.410617 0.932319 0.172233
Si Si4 0.479800 0.474639 0.581408
Si Si5 0.673572 0.119021 0.597265
Si Si6 0.781216 0.337561 0.758269
Si Si7 0.126300 0.819312 0.430995
Si Si8 0.250000 0.737296 0.000000
O O1 0.520599 0.392107 0.230088
O O2 0.393637 0.353092 0.053633
O O3 0.456196 0.464433 0.020623
O O4 0.540277 0.358692 0.932003
O O5 0.750000 0.800972 0.500000
O O6 0.817485 0.870726 0.283091
O O7 0.880637 0.754024 0.369329
O O8 0.323013 0.895797 0.165377
O O9 0.392585 0.000000 0.250000
O O10 0.440928 0.940183 0.995845
O O11 0.502798 0.500000 0.750000
O O12 0.406125 0.424021 0.573620
O O13 0.750000 0.085615 0.500000
O O14 0.669207 0.191580 0.529376
O O15 0.691070 0.358343 0.823122
O O16 0.771354 0.277195 0.649234
O O17 0.841218 0.315550 0.894509
#
# Coordination Sequence:
#
# PCOD8165023 Si02
#       8
#     8   8   8   8   8   8   8   4
#     4  10  23  38  63  91 122 168 213 259 325 378
#     4  12  21  38  64  94 126 163 213 258 318 385
#     4   9  22  42  63  91 125 162 214 263 315 379
#     4  11  22  43  59  87 128 165 209 266 314 384
#     4  10  23  40  60  87 130 163 208 264 320 384
#     4  10  19  38  66  91 125 163 206 256 322 378
#     4  10  19  39  62  91 127 162 205 265 310 385
#     4  10  20  38  60  92 126 160 206 262 320 386
#
# _framework density 20.566765
#
# number of rings (size 3 to 8) (size 9 to 14) (size 15 to 20)
#    0.400    1.333    4.000    0.400    1.867    1.600 
#    0.000    6.667    0.000    0.000    0.000    0.000 
#    0.000    0.000    0.000    0.000    0.000    0.000 
#
# Total GULP energy -371690.771100 kJ/mol
# GULP energy per Si atom -12389.692370 kJ/mol
# Density = 2.051995 g / cm^3
# Si number density = 20.566765 Si / 1000 Ang^3
#
#
#
# Elastic Constant Matrix: (Units=GPa)
#
#
# Indices 1 2 3 4 5 6 
#
# 1 88.8314 66.2664 39.5778 0.0000 0.0000 0.0000
# 2 66.2664 112.9223 36.2746 0.0000 0.0000 0.0000
# 3 39.5778 36.2746 89.6409 0.0000 0.0000 0.0000
# 4 0.0000 0.0000 0.0000 31.7686 0.0000 0.0000
# 5 0.0000 0.0000 0.0000 0.0000 26.2450 0.0000
# 6 0.0000 0.0000 0.0000 0.0000 0.0000 24.9123
#
#
#
# Elastic Compliance Matrix: (Units=1/GPa)
#
#
# Indices 1 2 3 4 5 6 
#
# 1 0.021904 -0.011204 -0.005137 0.000000 0.000000 0.000000
# 2 -0.011204 0.015909 -0.001491 0.000000 0.000000 0.000000
# 3 -0.005137 -0.001491 0.014027 0.000000 0.000000 0.000000
# 4 0.000000 0.000000 0.000000 0.031478 0.000000 0.000000
# 5 0.000000 0.000000 0.000000 0.000000 0.038103 0.000000
# 6 0.000000 0.000000 0.000000 0.000000 0.000000 0.040141
#
#
# Mechanical properties :
#
#
# Convention : Reuss Voigt Hill
#
# Bulk Modulus (GPa) = 61.81958 63.95913 62.88936
# Shear Modulus (GPa) = 24.67704 26.53690 25.60697
#
# Velocity S-wave (km/s) = 3.46764 3.59594 3.53238
# Velocity P-wave (km/s) = 6.79382 6.95751 6.87615
#
# Compressibility (1/GPa) = 0.01617610
#
# Stress axis : x y z
#
# Youngs Moduli (GPa) = 45.65445 62.85607 71.28980
#
# Poissons Ratio (x) = 0.70421 0.36622
# Poissons Ratio (y) = 0.51149 0.10632
# Poissons Ratio (z) = 0.23453 0.09375
#
# Static dielectric constant tensor:
#      x y z
#    x 3.665130 0.000000 0.000000 
#    y 0.000000 3.830370 0.000000 
#    z 0.000000 0.000000 3.845620 
# 
# 
# High freq. dielectric constant tensor:
#      x y z
#    x 1.786930 0.000000 0.000000 
#    y 0.000000 1.806510 0.000000 
#    z 0.000000 0.000000 1.800160 
# 
# From -- ./inp_files/14461.got.cif
#   From: 2010.03.12/outbox.cif.g09.slc.cpg/sg24_8_cif.got.tgz:14461.got - 2010.04.14 03:06:53.
