data_PCOD8165947
_publ_section_title
;
Structure prediction by ZEFSAII (Michael W. Deem and Ramdas Pophale) SiO2 
 PCOD8165947
Probable space group: I 21 21 21
;
_chemical_formula_sum "Si O2"
_cell_formula_units_Z 28
_cell_length_a 8.720642
_cell_length_b 17.172015
_cell_length_c 7.822143
_cell_angle_alpha 90.000000
_cell_angle_beta 90.000000
_cell_angle_gamma 90.000000
_cell_volume 1171.373699
_symmetry_space_group_name_H-M "I 21 21 21"
_symmetry_group_IT_number 24
_symmetry_cell_setting 'orthorhombic'
loop_
_space_group_symop_operation_xyz
x,y,z
-x,1/2-y,z
x,-y,1/2-z
1/2-x,y,-z
1/2+x,1/2+y,1/2+z
1/2-x,-y,1/2+z
1/2+x,1/2-y,-z
-x,1/2+y,1/2-z
loop_
_atom_site_type_symbol
_atom_site_label
_atom_site_fract_x
_atom_site_fract_y
_atom_site_fract_z
Si Si1 0.170900 0.650378 0.678702
Si Si2 0.070457 0.058612 0.015759
Si Si3 0.039912 0.602996 0.135892
Si Si4 0.000000 0.250000 0.591470
O O1 0.250000 0.670495 0.500000
O O2 0.280071 0.604041 0.811011
O O3 0.139962 0.731389 0.778528
O O4 0.012559 0.602540 0.643221
O O5 0.054354 0.108111 0.188585
O O6 0.250000 0.044736 0.000000
O O7 0.986046 0.975903 0.032096
O O8 0.975589 0.674211 0.024219
#
# Coordination Sequence:
#
# PCOD8165947 Si02
#       4
#     8   8   8   4
#     4  10  25  46  71 100 140 186 228 287 357 425
#     4  10  24  46  73 103 140 184 234 290 346 414
#     4  10  25  46  69 102 138 181 235 285 352 422
#     4  12  26  42  68 100 136 178 232 288 338 412
#
# _framework density 23.903559999999999
#
# number of rings (size 3 to 8) (size 9 to 14) (size 15 to 20)
#    0.000    1.714    0.000    0.857    0.000   32.000 
#    0.000    0.000    0.000    0.000    0.000    0.000 
#    0.000    0.000    0.000    0.000    0.000    0.000 
#
# Total GULP energy -173487.916378 kJ/mol
# GULP energy per Si atom -12391.994027 kJ/mol
# Density = 2.384915 g / cm^3
# Si number density = 23.903560 Si / 1000 Ang^3
#
#
#
# Elastic Constant Matrix: (Units=GPa)
#
#
# Indices 1 2 3 4 5 6 
#
# 1 170.4520 74.8850 59.8223 0.0007 -0.0002 0.0000
# 2 74.8850 149.7095 90.0211 0.0005 0.0000 0.0000
# 3 59.8223 90.0211 145.3426 0.0041 -0.0006 0.0001
# 4 0.0007 0.0005 0.0041 47.0201 -0.0003 0.0000
# 5 -0.0002 0.0000 -0.0006 -0.0003 12.4748 -0.0001
# 6 0.0000 0.0000 0.0001 0.0000 -0.0001 40.9735
#
#
#
# Elastic Compliance Matrix: (Units=1/GPa)
#
#
# Indices 1 2 3 4 5 6 
#
# 1 0.007657 -0.003083 -0.001242 0.000000 0.000000 0.000000
# 2 -0.003083 0.011885 -0.006092 0.000000 0.000000 0.000000
# 3 -0.001242 -0.006092 0.011165 -0.000001 0.000001 0.000000
# 4 0.000000 0.000000 -0.000001 0.021267 0.000000 0.000000
# 5 0.000000 0.000000 0.000001 0.000000 0.080161 0.000000
# 6 0.000000 0.000000 0.000000 0.000000 0.000000 0.024406
#
#
# Mechanical properties :
#
#
# Convention : Reuss Voigt Hill
#
# Bulk Modulus (GPa) = 101.29494 101.66232 101.47863
# Shear Modulus (GPa) = 27.67506 36.14541 31.91023
#
# Velocity S-wave (km/s) = 3.40631 3.89284 3.65767
# Velocity P-wave (km/s) = 7.61177 7.92642 7.77069
#
# Compressibility (1/GPa) = 0.00987216
#
# Stress axis : x y z
#
# Youngs Moduli (GPa) = 130.59508 84.13804 89.56690
#
# Poissons Ratio (x) = 0.25943 0.11124
# Poissons Ratio (y) = 0.40268 0.54566
# Poissons Ratio (z) = 0.16219 0.51259
#
# Static dielectric constant tensor:
#      x y z
#    x 4.535500 0.000000 0.000000 
#    y 0.000000 4.199700 0.000000 
#    z 0.000000 0.000000 4.777320 
# 
# 
# High freq. dielectric constant tensor:
#      x y z
#    x 1.943970 0.000000 0.000000 
#    y 0.000000 1.936250 0.000000 
#    z 0.000000 0.000000 1.976520 
# 
# From -- ./inp_files/8779.got.cif
#   From: 2010.03.12/outbox.cif.g09.slc.cpg/sg24_5_cif.got.tgz:8779.got - 2010.04.14 03:06:53.
