data_PCOD8165691
_publ_section_title
;
Structure prediction by ZEFSAII (Michael W. Deem and Ramdas Pophale) SiO2 
 PCOD8165691
Probable space group: I 21 21 21
;
_chemical_formula_sum "Si O2"
_cell_formula_units_Z 36
_cell_length_a 6.698350
_cell_length_b 24.163337
_cell_length_c 10.125298
_cell_angle_alpha 90.000000
_cell_angle_beta 90.000000
_cell_angle_gamma 90.000000
_cell_volume 1638.824928
_symmetry_space_group_name_H-M "I 21 21 21"
_symmetry_group_IT_number 24
_symmetry_cell_setting 'orthorhombic'
loop_
_space_group_symop_operation_xyz
x,y,z
-x,1/2-y,z
x,-y,1/2-z
1/2-x,y,-z
1/2+x,1/2+y,1/2+z
1/2-x,-y,1/2+z
1/2+x,1/2-y,-z
-x,1/2+y,1/2-z
loop_
_atom_site_type_symbol
_atom_site_label
_atom_site_fract_x
_atom_site_fract_y
_atom_site_fract_z
Si Si1 0.593858 0.306633 0.395115
Si Si2 0.224768 0.244167 0.140849
Si Si3 0.750000 0.586409 0.500000
Si Si4 0.870810 0.961154 0.376069
Si Si5 0.912322 0.860890 0.679886
O O1 0.500000 0.250000 0.456492
O O2 0.750000 0.331350 0.500000
O O3 0.689818 0.294009 0.254134
O O4 0.441969 0.354216 0.342388
O O5 0.343290 0.301514 0.124920
O O6 0.000000 0.250000 0.184774
O O7 0.250000 0.213354 0.000000
O O8 0.602742 0.548082 0.587752
O O9 0.612326 0.621088 0.398435
O O10 0.750000 0.987768 0.500000
O O11 0.768968 0.902599 0.341673
O O12 0.853916 0.000000 0.250000
#
# Coordination Sequence:
#
# PCOD8165691 Si02
#       5
#     8   8   4   8   8
#     4  10  22  40  58  89 133 174 215 264 324 385
#     4  11  22  35  61  92 125 170 220 267 314 379
#     4  10  22  40  72  98 130 166 222 276 332 390
#     4  10  23  46  71  98 133 168 218 278 340 403
#     4  10  23  41  65  94 131 170 220 271 329 391
#
# _framework density 21.96696
#
# number of rings (size 3 to 8) (size 9 to 14) (size 15 to 20)
#    0.000    1.778    0.000    4.667    7.778    3.556 
#    4.000    1.111    0.000    0.000    0.000    0.000 
#    0.000    0.000    0.000    0.000    0.000    0.000 
#
# Total GULP energy -223011.222343 kJ/mol
# GULP energy per Si atom -12389.512352 kJ/mol
# Density = 2.191696 g / cm^3
# Si number density = 21.966960 Si / 1000 Ang^3
#
#
#
# Elastic Constant Matrix: (Units=GPa)
#
#
# Indices 1 2 3 4 5 6 
#
# 1 133.5000 16.3787 43.9234 -0.0011 -0.0002 -0.0003
# 2 16.3787 52.7938 50.1230 -0.0009 -0.0004 -0.0002
# 3 43.9234 50.1230 138.7249 -0.0069 -0.0013 -0.0014
# 4 -0.0011 -0.0009 -0.0069 -9.5035 -0.0016 0.0006
# 5 -0.0002 -0.0004 -0.0013 -0.0016 47.0079 -0.0002
# 6 -0.0003 -0.0002 -0.0014 0.0006 -0.0002 25.2107
#
#
#
# Elastic Compliance Matrix: (Units=1/GPa)
#
#
# Indices 1 2 3 4 5 6 
#
# 1 0.008362 -0.000123 -0.002603 0.000001 0.000000 0.000000
# 2 -0.000123 0.028834 -0.010379 0.000005 0.000000 0.000000
# 3 -0.002603 -0.010379 0.011783 -0.000007 0.000000 0.000001
# 4 0.000001 0.000005 -0.000007 -0.105224 -0.000004 0.000003
# 5 0.000000 0.000000 0.000000 -0.000004 0.021273 0.000000
# 6 0.000000 0.000000 0.000001 0.000003 0.000000 0.039666
#
#
# Mechanical properties :
#
#
# Convention : Reuss Voigt Hill
#
# Bulk Modulus (GPa) = 43.92015 60.65210 52.28612
# Shear Modulus (GPa) = 129.89248 26.84927 78.37087
#
# Velocity S-wave (km/s) = 7.69800 3.49987 5.97948
# Velocity P-wave (km/s) = 9.95236 6.63345 8.45731
#
# Compressibility (1/GPa) = 0.02276859
#
# Stress axis : x y z
#
# Youngs Moduli (GPa) = 119.58544 34.68155 84.86871
#
# Poissons Ratio (x) = 0.00425 0.22094
# Poissons Ratio (y) = 0.01467 0.88087
# Poissons Ratio (z) = 0.31132 0.35997
#
# Static dielectric constant tensor:
#      x y z
#    x 5.183770 -0.000010 0.000000 
#    y -0.000010 3.726060 0.000000 
#    z 0.000000 0.000000 4.360890 
# 
# 
# High freq. dielectric constant tensor:
#      x y z
#    x 1.885240 0.000000 0.000000 
#    y 0.000000 1.829000 0.000000 
#    z 0.000000 0.000000 1.870080 
# 
# From -- ./inp_files/17715.got.cif
#   From: 2010.03.12/outbox.cif.g09.slc.cpg/sg24_9_cif.got.tgz:17715.got - 2010.04.14 03:06:53.
