data_PCOD8165877
_publ_section_title
;
Structure prediction by ZEFSAII (Michael W. Deem and Ramdas Pophale) SiO2 
 PCOD8165877
Probable space group: I 21 21 21
;
_chemical_formula_sum "Si O2"
_cell_formula_units_Z 32
_cell_length_a 15.977103
_cell_length_b 9.860845
_cell_length_c 9.283854
_cell_angle_alpha 90.000000
_cell_angle_beta 90.000000
_cell_angle_gamma 90.000000
_cell_volume 1462.650181
_symmetry_space_group_name_H-M "I 21 21 21"
_symmetry_group_IT_number 24
_symmetry_cell_setting 'orthorhombic'
loop_
_space_group_symop_operation_xyz
x,y,z
-x,1/2-y,z
x,-y,1/2-z
1/2-x,y,-z
1/2+x,1/2+y,1/2+z
1/2-x,-y,1/2+z
1/2+x,1/2-y,-z
-x,1/2+y,1/2-z
loop_
_atom_site_type_symbol
_atom_site_label
_atom_site_fract_x
_atom_site_fract_y
_atom_site_fract_z
Si Si1 0.042179 0.960623 0.411074
Si Si2 0.622060 0.826810 0.567320
Si Si3 0.824367 0.588623 0.893585
Si Si4 0.714590 0.152572 0.223435
O O1 0.071650 0.808971 0.420272
O O2 0.941598 0.956004 0.438978
O O3 0.064314 0.000000 0.250000
O O4 0.087156 0.061216 0.525772
O O5 0.671937 0.802910 0.422184
O O6 0.684857 0.843724 0.702753
O O7 0.817263 0.500000 0.750000
O O8 0.814753 0.747836 0.852708
O O9 0.750000 0.543322 0.000000
O O10 0.684618 0.000000 0.250000
#
# Coordination Sequence:
#
# PCOD8165877 Si02
#       4
#     8   8   8   8
#     4  11  23  45  72 103 140 184 239 300 362 440
#     4  10  23  45  69  98 143 186 230 302 363 425
#     4  12  24  42  74 107 137 185 245 296 362 439
#     4  11  24  44  69  98 140 188 237 291 357 439
#
# _framework density 21.878094999999998
#
# number of rings (size 3 to 8) (size 9 to 14) (size 15 to 20)
#    0.000    1.000    2.500    4.500    3.500    1.000 
#    9.000    0.000    0.000    0.000    0.000    0.000 
#    0.000    0.000    0.000    0.000    0.000    0.000 
#
# Total GULP energy -198334.879963 kJ/mol
# GULP energy per Si atom -12395.929998 kJ/mol
# Density = 2.182830 g / cm^3
# Si number density = 21.878095 Si / 1000 Ang^3
#
#
#
# Elastic Constant Matrix: (Units=GPa)
#
#
# Indices 1 2 3 4 5 6 
#
# 1 139.3087 57.4004 57.5554 0.0000 0.0000 0.0000
# 2 57.4004 114.5673 47.8303 0.0000 0.0000 0.0000
# 3 57.5554 47.8303 128.5811 0.0000 0.0000 0.0000
# 4 0.0000 0.0000 0.0000 23.0861 0.0000 0.0000
# 5 0.0000 0.0000 0.0000 0.0000 23.4864 0.0000
# 6 0.0000 0.0000 0.0000 0.0000 0.0000 29.3627
#
#
#
# Elastic Compliance Matrix: (Units=1/GPa)
#
#
# Indices 1 2 3 4 5 6 
#
# 1 0.009984 -0.003713 -0.003088 0.000000 0.000000 0.000000
# 2 -0.003713 0.011714 -0.002695 0.000000 0.000000 0.000000
# 3 -0.003088 -0.002695 0.010162 0.000000 0.000000 0.000000
# 4 0.000000 0.000000 0.000000 0.043316 0.000000 0.000000
# 5 0.000000 0.000000 0.000000 0.000000 0.042578 0.000000
# 6 0.000000 0.000000 0.000000 0.000000 0.000000 0.034057
#
#
# Mechanical properties :
#
#
# Convention : Reuss Voigt Hill
#
# Bulk Modulus (GPa) = 77.71525 78.66992 78.19258
# Shear Modulus (GPa) = 28.55632 29.83177 29.19404
#
# Velocity S-wave (km/s) = 3.61674 3.69663 3.65690
# Velocity P-wave (km/s) = 7.28287 7.36590 7.32450
#
# Compressibility (1/GPa) = 0.01286749
#
# Stress axis : x y z
#
# Youngs Moduli (GPa) = 100.16094 85.36726 98.40552
#
# Poissons Ratio (x) = 0.31697 0.30386
# Poissons Ratio (y) = 0.37190 0.26525
# Poissons Ratio (z) = 0.30928 0.23010
#
# Static dielectric constant tensor:
#      x y z
#    x 4.735740 0.000000 0.000000 
#    y 0.000000 3.912720 0.000000 
#    z 0.000000 0.000000 3.909570 
# 
# 
# High freq. dielectric constant tensor:
#      x y z
#    x 1.868340 0.000000 0.000000 
#    y 0.000000 1.859050 0.000000 
#    z 0.000000 0.000000 1.861720 
# 
# From -- ./inp_files/10363.got.cif
#   From: 2010.03.12/outbox.cif.g09.slc.cpg/sg24_6_cif.got.tgz:10363.got - 2010.04.14 03:06:53.
