data_PCOD8165822
_publ_section_title
;
Structure prediction by ZEFSAII (Michael W. Deem and Ramdas Pophale) SiO2 
 PCOD8165822
Probable space group: I 21 21 21
;
_chemical_formula_sum "Si O2"
_cell_formula_units_Z 32
_cell_length_a 15.702541
_cell_length_b 10.390426
_cell_length_c 8.590878
_cell_angle_alpha 90.000000
_cell_angle_beta 90.000000
_cell_angle_gamma 90.000000
_cell_volume 1401.654066
_symmetry_space_group_name_H-M "I 21 21 21"
_symmetry_group_IT_number 24
_symmetry_cell_setting 'orthorhombic'
loop_
_space_group_symop_operation_xyz
x,y,z
-x,1/2-y,z
x,-y,1/2-z
1/2-x,y,-z
1/2+x,1/2+y,1/2+z
1/2-x,-y,1/2+z
1/2+x,1/2-y,-z
-x,1/2+y,1/2-z
loop_
_atom_site_type_symbol
_atom_site_label
_atom_site_fract_x
_atom_site_fract_y
_atom_site_fract_z
Si Si1 0.248200 0.864019 0.685137
Si Si2 0.806479 0.118726 0.349649
Si Si3 0.000998 0.386476 0.355151
Si Si4 0.940891 0.635830 0.807762
O O1 0.250000 0.866067 0.500000
O O2 0.307794 0.749212 0.747262
O O3 0.153225 0.838897 0.746414
O O4 0.282792 0.000000 0.750000
O O5 0.750000 0.141804 0.500000
O O6 0.901869 0.080972 0.403610
O O7 0.768426 0.000000 0.250000
O O8 0.962262 0.500000 0.250000
O O9 0.000000 0.250000 0.262567
O O10 0.940588 0.367782 0.504830
O O11 0.977981 0.500000 0.750000
O O12 0.000000 0.750000 0.742783
#
# Coordination Sequence:
#
# PCOD8165822 Si02
#       4
#     8   8   8   8
#     4  11  25  44  67  95 127 167 214 265 321 379
#     4  11  23  40  65  96 131 170 213 261 313 375
#     4  10  23  40  62  93 126 165 210 259 312 373
#     4  10  23  42  64  92 126 166 210 259 314 375
#
# _framework density 22.830169999999999
#
# number of rings (size 3 to 8) (size 9 to 14) (size 15 to 20)
#    0.000    1.500    0.000    4.500    0.000   18.000 
#    0.000    0.000    0.000    0.000    0.000    0.000 
#    0.000    0.000    0.000    0.000    0.000    0.000 
#
# Total GULP energy -198443.786237 kJ/mol
# GULP energy per Si atom -12402.736640 kJ/mol
# Density = 2.277821 g / cm^3
# Si number density = 22.830170 Si / 1000 Ang^3
#
#
#
# Elastic Constant Matrix: (Units=GPa)
#
#
# Indices 1 2 3 4 5 6 
#
# 1 84.1301 5.9971 35.6513 0.0000 0.0000 0.0000
# 2 5.9971 180.6528 42.4394 0.0000 0.0000 0.0000
# 3 35.6513 42.4394 139.3552 0.0000 0.0000 0.0000
# 4 0.0000 0.0000 0.0000 42.9023 0.0000 0.0000
# 5 0.0000 0.0000 0.0000 0.0000 -15.5721 0.0000
# 6 0.0000 0.0000 0.0000 0.0000 0.0000 24.6972
#
#
#
# Elastic Compliance Matrix: (Units=1/GPa)
#
#
# Indices 1 2 3 4 5 6 
#
# 1 0.013357 0.000387 -0.003535 0.000000 0.000000 0.000000
# 2 0.000387 0.005973 -0.001918 0.000000 0.000000 0.000000
# 3 -0.003535 -0.001918 0.008664 0.000000 0.000000 0.000000
# 4 0.000000 0.000000 0.000000 0.023309 0.000000 0.000000
# 5 0.000000 0.000000 0.000000 0.000000 -0.064217 0.000000
# 6 0.000000 0.000000 0.000000 0.000000 0.000000 0.040490
#
#
# Mechanical properties :
#
#
# Convention : Reuss Voigt Hill
#
# Bulk Modulus (GPa) = 55.98364 63.59040 59.78702
# Shear Modulus (GPa) = 114.51522 31.74217 73.12869
#
# Velocity S-wave (km/s) = 7.09003 3.73280 5.66579
# Velocity P-wave (km/s) = 9.57077 6.81854 8.30940
#
# Compressibility (1/GPa) = 0.01786236
#
# Stress axis : x y z
#
# Youngs Moduli (GPa) = 74.86857 167.41341 115.41496
#
# Poissons Ratio (x) = -0.06479 0.40798
# Poissons Ratio (y) = -0.02898 0.22138
# Poissons Ratio (z) = 0.26465 0.32112
#
# Static dielectric constant tensor:
#      x y z
#    x 3.949690 0.000000 0.000000 
#    y 0.000000 5.903110 0.000000 
#    z 0.000000 0.000000 3.961860 
# 
# 
# High freq. dielectric constant tensor:
#      x y z
#    x 1.903480 0.000000 0.000000 
#    y 0.000000 1.926570 0.000000 
#    z 0.000000 0.000000 1.887930 
# 
# From -- ./inp_files/10218.got.cif
#   From: 2010.03.12/outbox.cif.g09.slc.cpg/sg24_6_cif.got.tgz:10218.got - 2010.04.14 03:06:53.
