data_PCOD8165982
_publ_section_title
;
Structure prediction by ZEFSAII (Michael W. Deem and Ramdas Pophale) SiO2 
 PCOD8165982
Probable space group: I 21 21 21
;
_chemical_formula_sum "Si O2"
_cell_formula_units_Z 24
_cell_length_a 16.457938
_cell_length_b 7.626027
_cell_length_c 7.874130
_cell_angle_alpha 90.000000
_cell_angle_beta 90.000000
_cell_angle_gamma 90.000000
_cell_volume 988.271659
_symmetry_space_group_name_H-M "I 21 21 21"
_symmetry_group_IT_number 24
_symmetry_cell_setting 'orthorhombic'
loop_
_space_group_symop_operation_xyz
x,y,z
-x,1/2-y,z
x,-y,1/2-z
1/2-x,y,-z
1/2+x,1/2+y,1/2+z
1/2-x,-y,1/2+z
1/2+x,1/2-y,-z
-x,1/2+y,1/2-z
loop_
_atom_site_type_symbol
_atom_site_label
_atom_site_fract_x
_atom_site_fract_y
_atom_site_fract_z
Si Si1 0.163823 0.713194 0.942514
Si Si2 0.051050 0.015575 0.060456
Si Si3 0.388053 0.351735 0.061446
O O1 0.161177 0.515223 0.019958
O O2 0.150065 0.700856 0.741546
O O3 0.250000 0.795802 0.000000
O O4 0.091636 0.832485 0.013434
O O5 0.015389 0.000000 0.250000
O O6 0.116300 0.177221 0.054814
O O7 0.980519 0.069978 0.927724
#
# Coordination Sequence:
#
# PCOD8165982 Si02
#       3
#     8   8   8
#     4  11  26  46  75 107 151 196 246 318 386 439
#     4  11  26  44  76 110 148 200 257 305 367 461
#     4  10  26  45  73 108 148 197 253 307 372 450
#
# _framework density 24.284818999999999
#
# number of rings (size 3 to 8) (size 9 to 14) (size 15 to 20)
#    0.000    1.333    0.000    2.000   28.000    9.333 
#    0.000    0.000    0.000    0.000    0.000    0.000 
#    0.000    0.000    0.000    0.000    0.000    0.000 
#
# Total GULP energy -148684.812844 kJ/mol
# GULP energy per Si atom -12390.401070 kJ/mol
# Density = 2.422955 g / cm^3
# Si number density = 24.284819 Si / 1000 Ang^3
#
#
#
# Elastic Constant Matrix: (Units=GPa)
#
#
# Indices 1 2 3 4 5 6 
#
# 1 112.1732 11.7023 53.8688 0.0000 0.0000 0.0000
# 2 11.7023 103.8760 43.2639 0.0000 0.0000 0.0000
# 3 53.8688 43.2639 105.1782 0.0000 0.0000 0.0000
# 4 0.0000 0.0000 0.0000 26.5742 0.0000 0.0000
# 5 0.0000 0.0000 0.0000 0.0000 32.1986 0.0000
# 6 0.0000 0.0000 0.0000 0.0000 0.0000 29.5744
#
#
#
# Elastic Compliance Matrix: (Units=1/GPa)
#
#
# Indices 1 2 3 4 5 6 
#
# 1 0.012003 0.001458 -0.006747 0.000000 0.000000 0.000000
# 2 0.001458 0.011794 -0.005598 0.000000 0.000000 0.000000
# 3 -0.006747 -0.005598 0.015266 0.000000 0.000000 0.000000
# 4 0.000000 0.000000 0.000000 0.037630 0.000000 0.000000
# 5 0.000000 0.000000 0.000000 0.000000 0.031057 0.000000
# 6 0.000000 0.000000 0.000000 0.000000 0.000000 0.033813
#
#
# Mechanical properties :
#
#
# Convention : Reuss Voigt Hill
#
# Bulk Modulus (GPa) = 57.84207 59.87749 58.85978
# Shear Modulus (GPa) = 29.56804 31.82894 30.69849
#
# Velocity S-wave (km/s) = 3.49313 3.62422 3.55928
# Velocity P-wave (km/s) = 6.33555 6.49794 6.41726
#
# Compressibility (1/GPa) = 0.01728846
#
# Stress axis : x y z
#
# Youngs Moduli (GPa) = 83.31324 84.78732 65.50454
#
# Poissons Ratio (x) = -0.12362 0.44197
# Poissons Ratio (y) = -0.12147 0.36670
# Poissons Ratio (z) = 0.56213 0.47465
#
# Static dielectric constant tensor:
#      x y z
#    x 4.254790 0.000000 0.000000 
#    y 0.000000 5.088180 0.000000 
#    z 0.000000 0.000000 4.076400 
# 
# 
# High freq. dielectric constant tensor:
#      x y z
#    x 1.942160 0.000000 0.000000 
#    y 0.000000 1.997550 0.000000 
#    z 0.000000 0.000000 1.942630 
# 
# From -- ./inp_files/8570.got.cif
#   From: 2010.03.12/outbox.cif.g09.slc.cpg/sg24_5_cif.got.tgz:8570.got - 2010.04.14 03:06:53.
