data_PCOD8165205
_publ_section_title
;
Structure prediction by ZEFSAII (Michael W. Deem and Ramdas Pophale) SiO2 
 PCOD8165205
Probable space group: I 21 21 21
;
_chemical_formula_sum "Si O2"
_cell_formula_units_Z 52
_cell_length_a 15.357213
_cell_length_b 20.671675
_cell_length_c 8.466698
_cell_angle_alpha 90.000000
_cell_angle_beta 90.000000
_cell_angle_gamma 90.000000
_cell_volume 2687.832156
_symmetry_space_group_name_H-M "I 21 21 21"
_symmetry_group_IT_number 24
_symmetry_cell_setting 'orthorhombic'
loop_
_space_group_symop_operation_xyz
x,y,z
-x,1/2-y,z
x,-y,1/2-z
1/2-x,y,-z
1/2+x,1/2+y,1/2+z
1/2-x,-y,1/2+z
1/2+x,1/2-y,-z
-x,1/2+y,1/2-z
loop_
_atom_site_type_symbol
_atom_site_label
_atom_site_fract_x
_atom_site_fract_y
_atom_site_fract_z
Si Si1 0.399403 0.354074 0.258317
Si Si2 0.968939 0.972397 0.913040
Si Si3 0.668317 0.697103 0.882973
Si Si4 0.584333 0.430068 0.691054
Si Si5 0.218019 0.687939 0.326042
Si Si6 0.070756 0.401756 0.079080
Si Si7 0.500000 0.750000 0.054706
O O1 0.398680 0.420560 0.355792
O O2 0.300704 0.331161 0.278270
O O3 0.465093 0.305274 0.334802
O O4 0.435120 0.359004 0.079204
O O5 0.012097 0.000000 0.750000
O O6 0.043787 0.939525 0.017441
O O7 0.915998 0.024236 0.020527
O O8 0.661763 0.622533 0.822970
O O9 0.679095 0.745209 0.736195
O O10 0.750000 0.703150 0.000000
O O11 0.576320 0.717841 0.954488
O O12 0.620219 0.500000 0.750000
O O13 0.515417 0.399756 0.814664
O O14 0.250000 0.702490 0.500000
O O15 0.150441 0.627435 0.318730
#
# Coordination Sequence:
#
# PCOD8165205 Si02
#       7
#     8   8   8   8   8   8   4
#     4  10  20  37  60  91 125 166 209 252 315 373
#     4   9  18  37  61  88 121 164 209 250 310 376
#     4  12  24  41  65  93 122 164 210 262 316 379
#     4  10  21  41  63  89 121 160 215 258 313 373
#     4  10  22  39  58  92 133 161 207 258 308 381
#     4   9  20  37  61  88 127 166 205 255 309 379
#     4  12  22  38  68  92 120 166 208 268 316 378
#
# _framework density 19.346447999999999
#
# number of rings (size 3 to 8) (size 9 to 14) (size 15 to 20)
#    0.000    1.846    3.077    0.923    0.000    2.462 
#    0.000   19.231    0.000    0.000    0.000    0.000 
#    0.000    0.000    0.000    0.000    0.000    0.000 
#
# Total GULP energy -322236.313651 kJ/mol
# GULP energy per Si atom -12393.704371 kJ/mol
# Density = 1.930241 g / cm^3
# Si number density = 19.346448 Si / 1000 Ang^3
#
#
#
# Elastic Constant Matrix: (Units=GPa)
#
#
# Indices 1 2 3 4 5 6 
#
# 1 68.7524 49.4796 21.6760 0.0000 0.0000 0.0000
# 2 49.4796 121.4271 42.2820 0.0000 0.0000 0.0000
# 3 21.6760 42.2820 60.5013 0.0000 0.0000 0.0000
# 4 0.0000 0.0000 0.0000 34.5800 0.0000 0.0000
# 5 0.0000 0.0000 0.0000 0.0000 27.9034 0.0000
# 6 0.0000 0.0000 0.0000 0.0000 0.0000 32.0423
#
#
#
# Elastic Compliance Matrix: (Units=1/GPa)
#
#
# Indices 1 2 3 4 5 6 
#
# 1 0.020765 -0.007759 -0.002017 0.000000 0.000000 0.000000
# 2 -0.007759 0.013783 -0.006853 0.000000 0.000000 0.000000
# 3 -0.002017 -0.006853 0.022040 0.000000 0.000000 0.000000
# 4 0.000000 0.000000 0.000000 0.028918 0.000000 0.000000
# 5 0.000000 0.000000 0.000000 0.000000 0.035838 0.000000
# 6 0.000000 0.000000 0.000000 0.000000 0.000000 0.031209
#
#
# Mechanical properties :
#
#
# Convention : Reuss Voigt Hill
#
# Bulk Modulus (GPa) = 42.86161 53.06178 47.96170
# Shear Modulus (GPa) = 25.82803 28.05467 26.94135
#
# Velocity S-wave (km/s) = 3.65777 3.81218 3.73577
# Velocity P-wave (km/s) = 6.32786 6.84570 6.59187
#
# Compressibility (1/GPa) = 0.02333090
#
# Stress axis : x y z
#
# Youngs Moduli (GPa) = 48.15826 72.55184 45.37142
#
# Poissons Ratio (x) = 0.56293 0.09152
# Poissons Ratio (y) = 0.37366 0.31092
# Poissons Ratio (z) = 0.09714 0.49718
#
# Static dielectric constant tensor:
#      x y z
#    x 3.316080 0.000000 0.000000 
#    y 0.000000 3.802870 0.000000 
#    z 0.000000 0.000000 3.715740 
# 
# 
# High freq. dielectric constant tensor:
#      x y z
#    x 1.724030 0.000000 0.000000 
#    y 0.000000 1.768910 0.000000 
#    z 0.000000 0.000000 1.766170 
# 
# From -- ./inp_files/13089.got.cif
#   From: 2010.03.12/outbox.cif.g09.slc.cpg/sg24_7_cif.got.tgz:13089.got - 2010.04.14 03:06:53.
