data_PCOD8165371
_publ_section_title
;
Structure prediction by ZEFSAII (Michael W. Deem and Ramdas Pophale) SiO2 
 PCOD8165371
Probable space group: I 21 21 21
;
_chemical_formula_sum "Si O2"
_cell_formula_units_Z 44
_cell_length_a 8.000402
_cell_length_b 18.575453
_cell_length_c 13.432955
_cell_angle_alpha 90.000000
_cell_angle_beta 90.000000
_cell_angle_gamma 90.000000
_cell_volume 1996.286102
_symmetry_space_group_name_H-M "I 21 21 21"
_symmetry_group_IT_number 24
_symmetry_cell_setting 'orthorhombic'
loop_
_space_group_symop_operation_xyz
x,y,z
-x,1/2-y,z
x,-y,1/2-z
1/2-x,y,-z
1/2+x,1/2+y,1/2+z
1/2-x,-y,1/2+z
1/2+x,1/2-y,-z
-x,1/2+y,1/2-z
loop_
_atom_site_type_symbol
_atom_site_label
_atom_site_fract_x
_atom_site_fract_y
_atom_site_fract_z
Si Si1 0.496267 0.533858 0.553221
Si Si2 0.500887 0.832694 0.674673
Si Si3 0.327688 0.665170 0.201733
Si Si4 0.250000 0.078604 0.500000
Si Si5 0.693248 0.675302 0.181738
Si Si6 0.672035 0.014663 0.359463
O O1 0.547049 0.615946 0.580954
O O2 0.637756 0.474353 0.566644
O O3 0.437633 0.528615 0.439011
O O4 0.359009 0.513599 0.634435
O O5 0.500000 0.750000 0.637957
O O6 0.688783 0.850812 0.713337
O O7 0.358423 0.847586 0.757792
O O8 0.519766 0.667305 0.244978
O O9 0.283965 0.740998 0.149544
O O10 0.322392 0.600663 0.120671
O O11 0.163281 0.129118 0.581819
O O12 0.596548 0.000000 0.250000
#
# Coordination Sequence:
#
# PCOD8165371 Si02
#       6
#     8   8   8   4   8   8
#     4  11  25  41  66 104 132 177 234 275 350 416
#     4  10  22  46  73  96 134 184 231 284 347 410
#     4  10  20  43  67  98 130 185 226 281 344 398
#     4  12  24  40  58 102 144 176 224 292 346 412
#     4  10  23  40  66 100 138 179 232 283 346 407
#     4  11  22  42  69  95 135 178 224 286 339 407
#
# _framework density 22.040929999999999
#
# number of rings (size 3 to 8) (size 9 to 14) (size 15 to 20)
#    0.000    1.455    3.636    1.091    0.000    2.909 
#    9.818    1.818    4.000    0.000    0.000    0.000 
#    0.000    0.000    0.000    0.000    0.000    0.000 
#
# Total GULP energy -272537.539151 kJ/mol
# GULP energy per Si atom -12388.069961 kJ/mol
# Density = 2.199076 g / cm^3
# Si number density = 22.040930 Si / 1000 Ang^3
#
#
#
# Elastic Constant Matrix: (Units=GPa)
#
#
# Indices 1 2 3 4 5 6 
#
# 1 117.8937 40.0491 36.7477 0.0000 0.0000 0.0000
# 2 40.0491 175.2841 76.2673 0.0000 0.0000 0.0000
# 3 36.7477 76.2673 108.2203 0.0000 0.0000 0.0000
# 4 0.0000 0.0000 0.0000 56.6305 0.0000 0.0000
# 5 0.0000 0.0000 0.0000 0.0000 11.8517 0.0000
# 6 0.0000 0.0000 0.0000 0.0000 0.0000 19.2894
#
#
#
# Elastic Compliance Matrix: (Units=1/GPa)
#
#
# Indices 1 2 3 4 5 6 
#
# 1 0.009637 -0.001122 -0.002482 0.000000 0.000000 0.000000
# 2 -0.001122 0.008359 -0.005510 0.000000 0.000000 0.000000
# 3 -0.002482 -0.005510 0.013966 0.000000 0.000000 0.000000
# 4 0.000000 0.000000 0.000000 0.017658 0.000000 0.000000
# 5 0.000000 0.000000 0.000000 0.000000 0.084376 0.000000
# 6 0.000000 0.000000 0.000000 0.000000 0.000000 0.051842
#
#
# Mechanical properties :
#
#
# Convention : Reuss Voigt Hill
#
# Bulk Modulus (GPa) = 72.80741 78.61404 75.71072
# Shear Modulus (GPa) = 23.96436 34.10992 29.03714
#
# Velocity S-wave (km/s) = 3.30095 3.93819 3.63356
# Velocity P-wave (km/s) = 6.90166 7.51158 7.21307
#
# Compressibility (1/GPa) = 0.01373487
#
# Stress axis : x y z
#
# Youngs Moduli (GPa) = 103.76771 119.63563 71.60263
#
# Poissons Ratio (x) = 0.13424 0.17769
# Poissons Ratio (y) = 0.11644 0.39451
# Poissons Ratio (z) = 0.25750 0.65916
#
# Static dielectric constant tensor:
#      x y z
#    x 3.527790 0.000000 0.000000 
#    y 0.000000 4.396810 0.000000 
#    z 0.000000 0.000000 3.488960 
# 
# 
# High freq. dielectric constant tensor:
#      x y z
#    x 1.877730 0.000000 0.000000 
#    y 0.000000 1.894300 0.000000 
#    z 0.000000 0.000000 1.817810 
# 
# From -- ./inp_files/24732.got.cif
#   From: 2010.03.12/outbox.cif.g09.slc.cpg/sg24_13_cif.got.tgz:24732.got - 2010.04.14 03:06:53.
