data_PCOD8165598
_publ_section_title
;
Structure prediction by ZEFSAII (Michael W. Deem and Ramdas Pophale) SiO2 
 PCOD8165598
Probable space group: I 21 21 21
;
_chemical_formula_sum "Si O2"
_cell_formula_units_Z 56
_cell_length_a 19.787550
_cell_length_b 8.268747
_cell_length_c 16.220459
_cell_angle_alpha 90.000000
_cell_angle_beta 90.000000
_cell_angle_gamma 90.000000
_cell_volume 2653.963030
_symmetry_space_group_name_H-M "I 21 21 21"
_symmetry_group_IT_number 24
_symmetry_cell_setting 'orthorhombic'
loop_
_space_group_symop_operation_xyz
x,y,z
-x,1/2-y,z
x,-y,1/2-z
1/2-x,y,-z
1/2+x,1/2+y,1/2+z
1/2-x,-y,1/2+z
1/2+x,1/2-y,-z
-x,1/2+y,1/2-z
loop_
_atom_site_type_symbol
_atom_site_label
_atom_site_fract_x
_atom_site_fract_y
_atom_site_fract_z
Si Si1 0.000000 0.250000 0.627192
Si Si2 0.065530 0.547365 0.004868
Si Si3 0.250121 0.414918 0.668220
Si Si4 0.851459 0.317260 0.413169
Si Si5 0.020064 0.067402 0.340133
Si Si6 0.882590 0.812871 0.759856
Si Si7 0.165660 0.681220 0.585264
Si Si8 0.250000 0.950302 0.500000
O O1 0.014815 0.407754 0.570384
O O2 0.062527 0.212155 0.688690
O O3 0.113127 0.398987 0.978760
O O4 0.106475 0.716396 0.018463
O O5 0.024712 0.486508 0.086408
O O6 0.276318 0.500000 0.750000
O O7 0.315825 0.321094 0.639820
O O8 0.187098 0.297637 0.688643
O O9 0.224705 0.550392 0.603334
O O10 0.900225 0.436274 0.360738
O O11 0.793069 0.431861 0.444014
O O12 0.000000 0.250000 0.338316
O O13 0.003759 0.000000 0.250000
O O14 0.872451 0.751658 0.666680
O O15 0.904133 0.000000 0.750000
O O16 0.197975 0.841359 0.549440
#
# Coordination Sequence:
#
# PCOD8165598 Si02
#       8
#     4   8   8   8   8   8   8   4
#     4  12  18  40  70  96 122 166 224 280 318 388
#     4  11  21  42  72  88 124 176 230 261 328 405
#     4   9  19  39  68  88 122 167 226 264 322 396
#     4  11  23  38  62  98 125 173 211 278 326 389
#     4  10  24  42  63  93 125 165 218 271 330 393
#     4   9  20  37  61  94 125 160 218 274 318 396
#     4  10  21  43  61  96 130 176 218 266 326 402
#     4  12  26  38  60  96 144 168 218 264 344 398
#
# _framework density 21.100518999999998
#
# number of rings (size 3 to 8) (size 9 to 14) (size 15 to 20)
#    0.000    2.000    5.000    1.714    0.000    5.714 
#    5.143    0.000    0.000    0.000    0.000    0.000 
#    0.000    0.000    0.000    0.000    0.000    0.000 
#
# Total GULP energy -347016.616007 kJ/mol
# GULP energy per Si atom -12393.450572 kJ/mol
# Density = 2.105249 g / cm^3
# Si number density = 21.100519 Si / 1000 Ang^3
#
#
#
# Elastic Constant Matrix: (Units=GPa)
#
#
# Indices 1 2 3 4 5 6 
#
# 1 104.5260 41.9361 53.3271 0.0000 0.0000 0.0000
# 2 41.9361 51.9508 33.8677 0.0000 0.0000 0.0000
# 3 53.3271 33.8677 120.1673 0.0000 0.0000 0.0000
# 4 0.0000 0.0000 0.0000 23.6857 0.0000 0.0000
# 5 0.0000 0.0000 0.0000 0.0000 66.9746 0.0000
# 6 0.0000 0.0000 0.0000 0.0000 0.0000 36.5502
#
#
#
# Elastic Compliance Matrix: (Units=1/GPa)
#
#
# Indices 1 2 3 4 5 6 
#
# 1 0.015677 -0.009947 -0.004154 0.000000 0.000000 0.000000
# 2 -0.009947 0.029893 -0.004011 0.000000 0.000000 0.000000
# 3 -0.004154 -0.004011 0.011295 0.000000 0.000000 0.000000
# 4 0.000000 0.000000 0.000000 0.042219 0.000000 0.000000
# 5 0.000000 0.000000 0.000000 0.000000 0.014931 0.000000
# 6 0.000000 0.000000 0.000000 0.000000 0.000000 0.027360
#
#
# Mechanical properties :
#
#
# Convention : Reuss Voigt Hill
#
# Bulk Modulus (GPa) = 48.44327 59.43397 53.93862
# Shear Modulus (GPa) = 27.10336 35.27632 31.18984
#
# Velocity S-wave (km/s) = 3.58786 4.09323 3.84885
# Velocity P-wave (km/s) = 6.33813 7.11109 6.73570
#
# Compressibility (1/GPa) = 0.02064270
#
# Stress axis : x y z
#
# Youngs Moduli (GPa) = 63.78858 33.45244 88.53201
#
# Poissons Ratio (x) = 0.33275 0.36772
# Poissons Ratio (y) = 0.63450 0.35509
# Poissons Ratio (z) = 0.26495 0.13417
#
# Static dielectric constant tensor:
#      x y z
#    x 3.800980 0.000000 0.000000 
#    y 0.000000 3.425800 0.000000 
#    z 0.000000 0.000000 3.719170 
# 
# 
# High freq. dielectric constant tensor:
#      x y z
#    x 1.836150 0.000000 0.000000 
#    y 0.000000 1.792210 0.000000 
#    z 0.000000 0.000000 1.838550 
# 
# From -- ./inp_files/27602.got.cif
#   From: 2010.03.12/outbox.cif.g09.slc.cpg/sg24_14_cif.got.tgz:27602.got - 2010.04.14 03:06:53.
