data_PCOD8165067
_publ_section_title
;
Structure prediction by ZEFSAII (Michael W. Deem and Ramdas Pophale) SiO2 
 PCOD8165067
Probable space group: I 21 21 21
;
_chemical_formula_sum "Si O2"
_cell_formula_units_Z 56
_cell_length_a 4.954298
_cell_length_b 16.300897
_cell_length_c 32.476517
_cell_angle_alpha 90.000000
_cell_angle_beta 90.000000
_cell_angle_gamma 90.000000
_cell_volume 2622.787320
_symmetry_space_group_name_H-M "I 21 21 21"
_symmetry_group_IT_number 24
_symmetry_cell_setting 'orthorhombic'
loop_
_space_group_symop_operation_xyz
x,y,z
-x,1/2-y,z
x,-y,1/2-z
1/2-x,y,-z
1/2+x,1/2+y,1/2+z
1/2-x,-y,1/2+z
1/2+x,1/2-y,-z
-x,1/2+y,1/2-z
loop_
_atom_site_type_symbol
_atom_site_label
_atom_site_fract_x
_atom_site_fract_y
_atom_site_fract_z
Si Si1 0.926793 0.979793 0.704429
Si Si2 0.646541 0.426357 0.456214
Si Si3 0.251525 0.194436 0.382998
Si Si4 0.253293 0.697741 0.585597
Si Si5 0.751039 0.802700 0.682954
Si Si6 0.054694 0.960149 0.160295
Si Si7 0.865833 0.016872 0.072427
O O1 0.687637 0.044339 0.693412
O O2 0.189662 0.983768 0.674418
O O3 0.031863 0.000000 0.750000
O O4 0.779516 0.891825 0.703008
O O5 0.750000 0.392111 0.500000
O O6 0.674553 0.352421 0.424517
O O7 0.338237 0.456623 0.452022
O O8 0.837242 0.504152 0.446176
O O9 0.500000 0.250000 0.367512
O O10 0.000000 0.250000 0.394050
O O11 0.172073 0.130600 0.347127
O O12 0.500000 0.750000 0.568916
O O13 0.264078 0.685441 0.634277
O O14 0.260189 0.608485 0.564883
O O15 0.000000 0.750000 0.570887
O O16 0.500000 0.750000 0.699690
O O17 0.000000 0.750000 0.697597
O O18 0.899306 0.997403 0.120752
#
# Coordination Sequence:
#
# PCOD8165067 Si02
#       7
#     8   8   8   8   8   8   8
#     4  12  24  41  64  92 129 173 214 261 324 396
#     4  11  24  40  64  95 128 168 207 257 320 375
#     4  11  23  41  65  94 124 164 214 264 318 377
#     4  10  20  32  58  92 118 150 202 261 310 347
#     4  10  21  36  58  88 123 154 200 269 323 362
#     4  11  23  41  64  90 123 165 218 265 314 382
#     4  11  21  39  65  89 125 163 208 262 304 376
#
# _framework density 21.351329
#
# number of rings (size 3 to 8) (size 9 to 14) (size 15 to 20)
#    0.000    1.143    1.429    6.857    4.000    0.571 
#    0.000    4.286    0.000    8.571    0.000    0.000 
#    0.000    0.000    0.000    0.000    0.000    0.000 
#
# Total GULP energy -347132.794459 kJ/mol
# GULP energy per Si atom -12397.599802 kJ/mol
# Density = 2.130273 g / cm^3
# Si number density = 21.351329 Si / 1000 Ang^3
#
#
#
# Elastic Constant Matrix: (Units=GPa)
#
#
# Indices 1 2 3 4 5 6 
#
# 1 137.7306 37.2948 19.4221 0.0000 0.0000 0.0000
# 2 37.2948 114.7069 16.2889 0.0000 0.0000 0.0000
# 3 19.4221 16.2889 60.8717 0.0000 0.0000 0.0000
# 4 0.0000 0.0000 0.0000 23.2788 0.0000 0.0000
# 5 0.0000 0.0000 0.0000 0.0000 34.3265 0.0000
# 6 0.0000 0.0000 0.0000 0.0000 0.0000 41.9198
#
#
#
# Elastic Compliance Matrix: (Units=1/GPa)
#
#
# Indices 1 2 3 4 5 6 
#
# 1 0.008183 -0.002380 -0.001974 0.000000 0.000000 0.000000
# 2 -0.002380 0.009755 -0.001851 0.000000 0.000000 0.000000
# 3 -0.001974 -0.001851 0.017553 0.000000 0.000000 0.000000
# 4 0.000000 0.000000 0.000000 0.042957 0.000000 0.000000
# 5 0.000000 0.000000 0.000000 0.000000 0.029132 0.000000
# 6 0.000000 0.000000 0.000000 0.000000 0.000000 0.023855
#
#
# Mechanical properties :
#
#
# Convention : Reuss Voigt Hill
#
# Bulk Modulus (GPa) = 43.32620 51.03563 47.18092
# Shear Modulus (GPa) = 32.99462 35.92525 34.45993
#
# Velocity S-wave (km/s) = 3.93532 4.10637 4.02176
# Velocity P-wave (km/s) = 6.40196 6.81452 6.61146
#
# Compressibility (1/GPa) = 0.02308072
#
# Stress axis : x y z
#
# Youngs Moduli (GPa) = 122.19729 102.51551 56.96995
#
# Poissons Ratio (x) = 0.24403 0.11246
# Poissons Ratio (y) = 0.29088 0.10544
# Poissons Ratio (z) = 0.24123 0.18973
#
# Static dielectric constant tensor:
#      x y z
#    x 4.090840 0.000000 0.000000 
#    y 0.000000 3.722760 0.000000 
#    z 0.000000 0.000000 3.620910 
# 
# 
# High freq. dielectric constant tensor:
#      x y z
#    x 1.862660 0.000000 0.000000 
#    y 0.000000 1.837680 0.000000 
#    z 0.000000 0.000000 1.803760 
# 
# From -- ./inp_files/37923.got.cif
#   From: 2010.03.12/outbox.cif.g09.slc.cpg/sg24_19_cif.got.tgz:37923.got - 2010.04.14 03:06:53.
