data_PCOD8165620
_publ_section_title
;
Structure prediction by ZEFSAII (Michael W. Deem and Ramdas Pophale) SiO2 
 PCOD8165620
Probable space group: I 21 21 21
;
_chemical_formula_sum "Si O2"
_cell_formula_units_Z 40
_cell_length_a 10.154160
_cell_length_b 17.154907
_cell_length_c 10.817871
_cell_angle_alpha 90.000000
_cell_angle_beta 90.000000
_cell_angle_gamma 90.000000
_cell_volume 1884.404656
_symmetry_space_group_name_H-M "I 21 21 21"
_symmetry_group_IT_number 24
_symmetry_cell_setting 'orthorhombic'
loop_
_space_group_symop_operation_xyz
x,y,z
-x,1/2-y,z
x,-y,1/2-z
1/2-x,y,-z
1/2+x,1/2+y,1/2+z
1/2-x,-y,1/2+z
1/2+x,1/2-y,-z
-x,1/2+y,1/2-z
loop_
_atom_site_type_symbol
_atom_site_label
_atom_site_fract_x
_atom_site_fract_y
_atom_site_fract_z
Si Si1 0.043796 0.911211 0.751131
Si Si2 0.530791 0.908666 0.744791
Si Si3 0.044104 0.336848 0.976990
Si Si4 0.791433 0.831560 0.750879
Si Si5 0.722591 0.667229 0.858524
O O1 0.179473 0.903169 0.824485
O O2 0.063505 0.879295 0.611385
O O3 0.926204 0.860938 0.817292
O O4 0.998308 0.000000 0.750000
O O5 0.541707 0.883941 0.602972
O O6 0.673640 0.886697 0.799802
O O7 0.424155 0.860959 0.825411
O O8 0.500909 0.000000 0.750000
O O9 0.183330 0.337686 0.898984
O O10 0.000000 0.250000 0.007958
O O11 0.759481 0.742385 0.778911
O O12 0.750000 0.688336 0.000000
#
# Coordination Sequence:
#
# PCOD8165620 Si02
#       5
#     8   8   8   8   8
#     4  10  22  42  70  99 137 181 231 289 351 402
#     4  12  27  43  67 108 140 179 230 298 359 404
#     4  10  21  45  76  97 135 179 244 283 340 429
#     4  10  22  46  68 102 130 184 235 281 345 418
#     4  12  26  45  67 100 145 184 229 282 357 432
#
# _framework density 21.226863999999999
#
# number of rings (size 3 to 8) (size 9 to 14) (size 15 to 20)
#    1.200    0.000    2.000    4.200    2.800    4.000 
#    0.000    0.000    0.000    0.000    0.000    0.000 
#    0.000    0.000    0.000    0.000    0.000    0.000 
#
# Total GULP energy -247824.915115 kJ/mol
# GULP energy per Si atom -12391.245756 kJ/mol
# Density = 2.117855 g / cm^3
# Si number density = 21.226864 Si / 1000 Ang^3
#
#
#
# Elastic Constant Matrix: (Units=GPa)
#
#
# Indices 1 2 3 4 5 6 
#
# 1 127.2405 25.8782 29.7752 0.0003 0.0003 0.0000
# 2 25.8782 137.2865 28.5711 -0.0010 -0.0001 0.0003
# 3 29.7752 28.5711 108.7853 -0.0012 -0.0005 0.0003
# 4 0.0003 -0.0010 -0.0012 17.4232 -0.0008 0.0002
# 5 0.0003 -0.0001 -0.0005 -0.0008 2.5253 0.0001
# 6 0.0000 0.0003 0.0003 0.0002 0.0001 38.2649
#
#
#
# Elastic Compliance Matrix: (Units=1/GPa)
#
#
# Indices 1 2 3 4 5 6 
#
# 1 0.008578 -0.001194 -0.002034 0.000000 -0.000002 0.000000
# 2 -0.001194 0.007871 -0.001741 0.000000 0.000000 0.000000
# 3 -0.002034 -0.001741 0.010206 0.000001 0.000002 0.000000
# 4 0.000000 0.000000 0.000001 0.057395 0.000019 0.000000
# 5 -0.000002 0.000000 0.000002 0.000019 0.395999 -0.000001
# 6 0.000000 0.000000 0.000000 0.000000 -0.000001 0.026134
#
#
# Mechanical properties :
#
#
# Convention : Reuss Voigt Hill
#
# Bulk Modulus (GPa) = 59.81380 60.19570 60.00475
# Shear Modulus (GPa) = 9.58418 30.91520 20.24969
#
# Velocity S-wave (km/s) = 2.12719 3.82045 3.09198
# Velocity P-wave (km/s) = 5.85429 6.91960 6.40912
#
# Compressibility (1/GPa) = 0.01671855
#
# Stress axis : x y z
#
# Youngs Moduli (GPa) = 116.57820 127.04449 97.97792
#
# Poissons Ratio (x) = 0.15163 0.19932
# Poissons Ratio (y) = 0.13914 0.17054
# Poissons Ratio (z) = 0.23716 0.22113
#
# Static dielectric constant tensor:
#      x y z
#    x 4.007740 0.000000 0.000000 
#    y 0.000000 3.780720 0.000000 
#    z 0.000000 0.000000 3.659610 
# 
# 
# High freq. dielectric constant tensor:
#      x y z
#    x 1.839030 0.000000 0.000000 
#    y 0.000000 1.837840 0.000000 
#    z 0.000000 0.000000 1.815280 
# 
# From -- ./inp_files/18216.got.cif
#   From: 2010.03.12/outbox.cif.g09.slc.cpg/sg24_10_cif.got.tgz:18216.got - 2010.04.14 03:06:53.
