data_PCOD8165823
_publ_section_title
;
Structure prediction by ZEFSAII (Michael W. Deem and Ramdas Pophale) SiO2 
 PCOD8165823
Probable space group: I 21 21 21
;
_chemical_formula_sum "Si O2"
_cell_formula_units_Z 48
_cell_length_a 14.694290
_cell_length_b 13.850684
_cell_length_c 11.946393
_cell_angle_alpha 90.000000
_cell_angle_beta 90.000000
_cell_angle_gamma 90.000000
_cell_volume 2431.401192
_symmetry_space_group_name_H-M "I 21 21 21"
_symmetry_group_IT_number 24
_symmetry_cell_setting 'orthorhombic'
loop_
_space_group_symop_operation_xyz
x,y,z
-x,1/2-y,z
x,-y,1/2-z
1/2-x,y,-z
1/2+x,1/2+y,1/2+z
1/2-x,-y,1/2+z
1/2+x,1/2-y,-z
-x,1/2+y,1/2-z
loop_
_atom_site_type_symbol
_atom_site_label
_atom_site_fract_x
_atom_site_fract_y
_atom_site_fract_z
Si Si1 0.419633 0.906027 0.679313
Si Si2 0.540755 0.000000 0.250000
Si Si3 0.500000 0.250000 0.680826
Si Si4 0.904985 0.209240 0.738151
Si Si5 0.855470 0.711392 0.996699
Si Si6 0.268484 0.168345 0.121996
Si Si7 0.901483 0.505966 0.552395
O O1 0.499259 0.842799 0.736603
O O2 0.325599 0.847025 0.686392
O O3 0.404231 0.000000 0.750000
O O4 0.443366 0.933133 0.551103
O O5 0.603219 0.905379 0.257493
O O6 0.480066 0.987096 0.140459
O O7 0.408963 0.251445 0.605109
O O8 0.900428 0.236309 0.608589
O O9 0.823802 0.256323 0.805821
O O10 0.000000 0.250000 0.787413
O O11 0.863447 0.595862 0.990154
O O12 0.750000 0.741169 0.000000
O O13 0.319654 0.065427 0.109566
O O14 0.250000 0.213731 0.000000
#
# Coordination Sequence:
#
# PCOD8165823 Si02
#       7
#     8   4   4   8   8   8   8
#     4  11  24  39  64  96 136 168 217 277 336 390
#     4  12  24  40  66 100 134 170 228 264 332 406
#     4  12  24  40  62 102 136 178 216 266 358 402
#     4  12  23  40  66  96 135 175 218 268 332 406
#     4  12  23  41  69  98 134 173 227 286 328 392
#     4  10  23  40  66 100 128 171 218 282 342 388
#     4  11  21  39  69 102 130 167 222 288 338 389
#
# _framework density 19.741703000000001
#
# number of rings (size 3 to 8) (size 9 to 14) (size 15 to 20)
#    0.000    0.667    5.833    2.500    3.500    2.667 
#    0.000    0.833    7.333    0.000    0.000    0.000 
#    0.000    0.000    0.000    0.000    0.000    0.000 
#
# Total GULP energy -297674.801012 kJ/mol
# GULP energy per Si atom -12403.116709 kJ/mol
# Density = 1.969677 g / cm^3
# Si number density = 19.741703 Si / 1000 Ang^3
#
#
#
# Elastic Constant Matrix: (Units=GPa)
#
#
# Indices 1 2 3 4 5 6 
#
# 1 87.2555 46.9051 41.1171 0.0000 0.0000 0.0000
# 2 46.9051 124.8819 46.0633 0.0000 0.0000 0.0000
# 3 41.1171 46.0633 94.2069 0.0000 0.0000 0.0000
# 4 0.0000 0.0000 0.0000 50.6579 0.0000 0.0000
# 5 0.0000 0.0000 0.0000 0.0000 32.2725 0.0000
# 6 0.0000 0.0000 0.0000 0.0000 0.0000 22.2152
#
#
#
# Elastic Compliance Matrix: (Units=1/GPa)
#
#
# Indices 1 2 3 4 5 6 
#
# 1 0.016053 -0.004203 -0.004951 0.000000 0.000000 0.000000
# 2 -0.004203 0.010870 -0.003481 0.000000 0.000000 0.000000
# 3 -0.004951 -0.003481 0.014478 0.000000 0.000000 0.000000
# 4 0.000000 0.000000 0.000000 0.019740 0.000000 0.000000
# 5 0.000000 0.000000 0.000000 0.000000 0.030986 0.000000
# 6 0.000000 0.000000 0.000000 0.000000 0.000000 0.045014
#
#
# Mechanical properties :
#
#
# Convention : Reuss Voigt Hill
#
# Bulk Modulus (GPa) = 61.99230 63.83502 62.91366
# Shear Modulus (GPa) = 29.79935 32.51303 31.15619
#
# Velocity S-wave (km/s) = 3.88939 4.06263 3.97696
# Velocity P-wave (km/s) = 7.18608 7.37644 7.28188
#
# Compressibility (1/GPa) = 0.01613104
#
# Stress axis : x y z
#
# Youngs Moduli (GPa) = 62.29263 91.99571 69.07136
#
# Poissons Ratio (x) = 0.38668 0.34199
# Poissons Ratio (y) = 0.26183 0.24040
# Poissons Ratio (z) = 0.30843 0.32019
#
# Static dielectric constant tensor:
#      x y z
#    x 3.252850 0.000000 0.000000 
#    y 0.000000 3.680330 0.000000 
#    z 0.000000 0.000000 4.012230 
# 
# 
# High freq. dielectric constant tensor:
#      x y z
#    x 1.752920 0.000000 0.000000 
#    y 0.000000 1.762520 0.000000 
#    z 0.000000 0.000000 1.790560 
# 
# From -- ./inp_files/20757.got.cif
#   From: 2010.03.12/outbox.cif.g09.slc.cpg/sg24_11_cif.got.tgz:20757.got - 2010.04.14 03:06:53.
