data_PCOD8165516
_publ_section_title
;
Structure prediction by ZEFSAII (Michael W. Deem and Ramdas Pophale) SiO2 
 PCOD8165516
Probable space group: I 21 21 21
;
_chemical_formula_sum "Si O2"
_cell_formula_units_Z 44
_cell_length_a 5.355536
_cell_length_b 21.678090
_cell_length_c 16.002215
_cell_angle_alpha 90.000000
_cell_angle_beta 90.000000
_cell_angle_gamma 90.000000
_cell_volume 1857.821819
_symmetry_space_group_name_H-M "I 21 21 21"
_symmetry_group_IT_number 24
_symmetry_cell_setting 'orthorhombic'
loop_
_space_group_symop_operation_xyz
x,y,z
-x,1/2-y,z
x,-y,1/2-z
1/2-x,y,-z
1/2+x,1/2+y,1/2+z
1/2-x,-y,1/2+z
1/2+x,1/2-y,-z
-x,1/2+y,1/2-z
loop_
_atom_site_type_symbol
_atom_site_label
_atom_site_fract_x
_atom_site_fract_y
_atom_site_fract_z
Si Si1 0.975053 0.621189 0.218265
Si Si2 0.499104 0.503704 0.457159
Si Si3 0.000000 0.750000 0.290207
Si Si4 0.006956 0.414316 0.807684
Si Si5 0.500319 0.130191 0.525761
Si Si6 0.627590 0.190887 0.080274
O O1 0.911328 0.693763 0.231194
O O2 0.730555 0.583217 0.246659
O O3 0.225760 0.597061 0.263710
O O4 0.009227 0.608803 0.120872
O O5 0.750000 0.531556 0.500000
O O6 0.487141 0.521333 0.358577
O O7 0.501037 0.429771 0.465173
O O8 0.250000 0.531523 0.500000
O O9 0.789758 0.779502 0.346747
O O10 0.952871 0.360019 0.875981
O O11 0.750000 0.168514 0.500000
O O12 0.250000 0.168263 0.500000
O O13 0.500000 0.250000 0.037636
O O14 0.750000 0.157164 0.000000
#
# Coordination Sequence:
#
# PCOD8165516 Si02
#       6
#     8   8   4   8   8   8
#     4  11  23  41  65  91 126 163 206 255 316 365
#     4  10  21  40  61  86 122 163 203 255 305 360
#     4  10  22  38  56  90 126 164 206 258 294 366
#     4  11  23  38  61  94 125 165 206 252 306 375
#     4  10  22  44  66  89 121 160 207 264 314 367
#     4  11  20  33  55  86 128 168 201 242 299 371
#
# _framework density 23.683648000000002
#
# number of rings (size 3 to 8) (size 9 to 14) (size 15 to 20)
#    0.000    1.455    2.727    2.727    0.000    2.182 
#    0.000   22.727    0.000    0.000    0.000    0.000 
#    0.000    0.000    0.000    0.000    0.000    0.000 
#
# Total GULP energy -272604.601107 kJ/mol
# GULP energy per Si atom -12391.118232 kJ/mol
# Density = 2.362974 g / cm^3
# Si number density = 23.683648 Si / 1000 Ang^3
#
#
#
# Elastic Constant Matrix: (Units=GPa)
#
#
# Indices 1 2 3 4 5 6 
#
# 1 199.7875 -4.6269 43.0864 0.0000 0.0000 0.0000
# 2 -4.6269 49.7809 -0.5763 0.0000 0.0000 0.0000
# 3 43.0864 -0.5763 94.6635 0.0000 0.0000 0.0000
# 4 0.0000 0.0000 0.0000 12.6432 0.0000 0.0000
# 5 0.0000 0.0000 0.0000 0.0000 42.9072 0.0000
# 6 0.0000 0.0000 0.0000 0.0000 0.0000 9.2600
#
#
#
# Elastic Compliance Matrix: (Units=1/GPa)
#
#
# Indices 1 2 3 4 5 6 
#
# 1 0.005562 0.000488 -0.002529 0.000000 0.000000 0.000000
# 2 0.000488 0.020132 -0.000099 0.000000 0.000000 0.000000
# 3 -0.002529 -0.000099 0.011714 0.000000 0.000000 0.000000
# 4 0.000000 0.000000 0.000000 0.079094 0.000000 0.000000
# 5 0.000000 0.000000 0.000000 0.000000 0.023306 0.000000
# 6 0.000000 0.000000 0.000000 0.000000 0.000000 0.107992
#
#
# Mechanical properties :
#
#
# Convention : Reuss Voigt Hill
#
# Bulk Modulus (GPa) = 30.18636 46.66649 38.42643
# Shear Modulus (GPa) = 19.00254 33.38533 26.19393
#
# Velocity S-wave (km/s) = 2.83565 3.75859 3.32925
# Velocity P-wave (km/s) = 4.84712 6.21151 5.57124
#
# Compressibility (1/GPa) = 0.03312754
#
# Stress axis : x y z
#
# Youngs Moduli (GPa) = 179.79387 49.67168 85.36787
#
# Poissons Ratio (x) = -0.02422 0.21586
# Poissons Ratio (y) = -0.08768 0.00849
# Poissons Ratio (z) = 0.45462 0.00494
#
# Static dielectric constant tensor:
#      x y z
#    x 5.052950 0.000000 0.000000 
#    y 0.000000 4.406700 0.000000 
#    z 0.000000 0.000000 4.156290 
# 
# 
# High freq. dielectric constant tensor:
#      x y z
#    x 1.952900 0.000000 0.000000 
#    y 0.000000 1.910630 0.000000 
#    z 0.000000 0.000000 1.942030 
# 
# From -- ./inp_files/23857.got.cif
#   From: 2010.03.12/outbox.cif.g09.slc.cpg/sg24_12_cif.got.tgz:23857.got - 2010.04.14 03:06:53.
