data_PCOD8165552
_publ_section_title
;
Structure prediction by ZEFSAII (Michael W. Deem and Ramdas Pophale) SiO2 
 PCOD8165552
Probable space group: I 21 21 21
;
_chemical_formula_sum "Si O2"
_cell_formula_units_Z 60
_cell_length_a 10.600878
_cell_length_b 9.405880
_cell_length_c 29.196437
_cell_angle_alpha 90.000000
_cell_angle_beta 90.000000
_cell_angle_gamma 90.000000
_cell_volume 2911.193853
_symmetry_space_group_name_H-M "I 21 21 21"
_symmetry_group_IT_number 24
_symmetry_cell_setting 'orthorhombic'
loop_
_space_group_symop_operation_xyz
x,y,z
-x,1/2-y,z
x,-y,1/2-z
1/2-x,y,-z
1/2+x,1/2+y,1/2+z
1/2-x,-y,1/2+z
1/2+x,1/2-y,-z
-x,1/2+y,1/2-z
loop_
_atom_site_type_symbol
_atom_site_label
_atom_site_fract_x
_atom_site_fract_y
_atom_site_fract_z
Si Si1 0.729360 0.313208 0.685025
Si Si2 0.427543 0.390132 0.832492
Si Si3 0.388744 0.854896 0.545397
Si Si4 0.685050 0.994940 0.196996
Si Si5 0.037100 0.907347 0.866096
Si Si6 0.589753 0.500000 0.750000
Si Si7 0.543665 0.603052 0.894959
Si Si8 0.891334 0.641552 0.561107
O O1 0.731143 0.145397 0.691455
O O2 0.864062 0.381898 0.674500
O O3 0.678864 0.374335 0.732471
O O4 0.640069 0.353573 0.643856
O O5 0.500000 0.250000 0.851368
O O6 0.279786 0.374766 0.817349
O O7 0.503461 0.435732 0.788424
O O8 0.432500 0.508709 0.872479
O O9 0.500000 0.750000 0.562332
O O10 0.252157 0.792964 0.562593
O O11 0.409291 0.890156 0.492267
O O12 0.391369 0.011610 0.566122
O O13 0.573120 0.993182 0.159975
O O14 0.637020 0.000000 0.250000
O O15 0.000000 0.750000 0.885375
O O16 0.092316 0.999926 0.908102
O O17 0.500000 0.750000 0.918336
O O18 0.000000 0.750000 0.577979
#
# Coordination Sequence:
#
# PCOD8165552 Si02
#       8
#     8   8   8   8   8   4   8   8
#     4  10  21  41  57  86 122 168 209 269 313 378
#     4  11  22  35  57  89 122 161 205 263 320 373
#     4  10  22  42  69  97 131 166 213 266 324 394
#     4  11  22  39  61  87 129 166 220 259 319 378
#     4  10  23  42  65  89 125 173 213 264 320 389
#     4  10  22  32  60  76 122 160 214 260 324 360
#     4  11  21  37  64  91 124 157 203 262 326 373
#     4  10  22  44  67  95 131 171 211 263 325 395
#
# _framework density 20.610099999999999
#
# number of rings (size 3 to 8) (size 9 to 14) (size 15 to 20)
#    0.000    1.600    3.333    1.200    0.933    2.667 
#    2.400    0.000    0.000    0.000    0.000    0.000 
#    0.000    0.000    0.000    0.000    0.000    0.000 
#
# Total GULP energy -371728.151007 kJ/mol
# GULP energy per Si atom -12390.938367 kJ/mol
# Density = 2.056319 g / cm^3
# Si number density = 20.610100 Si / 1000 Ang^3
#
#
#
# Elastic Constant Matrix: (Units=GPa)
#
#
# Indices 1 2 3 4 5 6 
#
# 1 104.0923 30.0908 21.3311 0.0000 0.0000 0.0000
# 2 30.0908 90.1070 29.2202 0.0000 0.0000 0.0000
# 3 21.3311 29.2202 67.9139 0.0000 0.0000 0.0000
# 4 0.0000 0.0000 0.0000 24.9522 0.0000 0.0000
# 5 0.0000 0.0000 0.0000 0.0000 11.9736 0.0000
# 6 0.0000 0.0000 0.0000 0.0000 0.0000 -3.2499
#
#
#
# Elastic Compliance Matrix: (Units=1/GPa)
#
#
# Indices 1 2 3 4 5 6 
#
# 1 0.010899 -0.002940 -0.002158 0.000000 0.000000 0.000000
# 2 -0.002940 0.013690 -0.004967 0.000000 0.000000 0.000000
# 3 -0.002158 -0.004967 0.017540 0.000000 0.000000 0.000000
# 4 0.000000 0.000000 0.000000 0.040077 0.000000 0.000000
# 5 0.000000 0.000000 0.000000 0.000000 0.083517 0.000000
# 6 0.000000 0.000000 0.000000 0.000000 0.000000 -0.307701
#
#
# Mechanical properties :
#
#
# Convention : Reuss Voigt Hill
#
# Bulk Modulus (GPa) = 45.45747 47.04414 46.25081
# Shear Modulus (GPa) = -43.66215 18.83326 -12.41444
#
# Velocity S-wave (km/s) = -4.60769 3.02617 -2.45694
# Velocity P-wave (km/s) = 2.49077 5.92331 3.80011
#
# Compressibility (1/GPa) = 0.02199858
#
# Stress axis : x y z
#
# Youngs Moduli (GPa) = 91.75168 73.04433 57.01406
#
# Poissons Ratio (x) = 0.21473 0.12306
# Poissons Ratio (y) = 0.26972 0.28319
# Poissons Ratio (z) = 0.19804 0.36281
#
# Static dielectric constant tensor:
#      x y z
#    x 4.196570 0.000000 0.000000 
#    y 0.000000 4.125210 0.000000 
#    z 0.000000 0.000000 3.731010 
# 
# 
# High freq. dielectric constant tensor:
#      x y z
#    x 1.813000 0.000000 0.000000 
#    y 0.000000 1.798450 0.000000 
#    z 0.000000 0.000000 1.804550 
# 
# From -- ./inp_files/38597.got.cif
#   From: 2010.03.12/outbox.cif.g09.slc.cpg/sg24_20_cif.got.tgz:38597.got - 2010.04.14 03:06:53.
