data_PCOD8165482
_publ_section_title
;
Structure prediction by ZEFSAII (Michael W. Deem and Ramdas Pophale) SiO2 
 PCOD8165482
Probable space group: I 21 21 21
;
_chemical_formula_sum "Si O2"
_cell_formula_units_Z 44
_cell_length_a 23.479678
_cell_length_b 5.087155
_cell_length_c 17.570312
_cell_angle_alpha 90.000000
_cell_angle_beta 90.000000
_cell_angle_gamma 90.000000
_cell_volume 2098.681723
_symmetry_space_group_name_H-M "I 21 21 21"
_symmetry_group_IT_number 24
_symmetry_cell_setting 'orthorhombic'
loop_
_space_group_symop_operation_xyz
x,y,z
-x,1/2-y,z
x,-y,1/2-z
1/2-x,y,-z
1/2+x,1/2+y,1/2+z
1/2-x,-y,1/2+z
1/2+x,1/2-y,-z
-x,1/2+y,1/2-z
loop_
_atom_site_type_symbol
_atom_site_label
_atom_site_fract_x
_atom_site_fract_y
_atom_site_fract_z
Si Si1 0.329116 0.996496 0.336262
Si Si2 0.755825 0.005002 0.663132
Si Si3 0.150508 0.338450 0.063267
Si Si4 0.056989 0.396405 0.171373
Si Si5 0.500000 0.250000 0.550810
Si Si6 0.387968 0.858729 0.019768
O O1 0.277488 0.200037 0.351126
O O2 0.381104 0.089723 0.390062
O O3 0.352093 0.000000 0.250000
O O4 0.306535 0.702289 0.351849
O O5 0.707650 0.940365 0.601763
O O6 0.732653 0.000000 0.750000
O O7 0.107516 0.239607 0.130763
O O8 0.128261 0.564218 0.005704
O O9 0.156363 0.067975 0.017036
O O10 0.083204 0.500000 0.250000
O O11 0.042213 0.601160 0.106421
O O12 0.000000 0.250000 0.195796
O O13 0.455295 0.082843 0.499289
#
# Coordination Sequence:
#
# PCOD8165482 Si02
#       6
#     8   8   8   8   4   8
#     4  10  22  40  62  83 114 152 195 240 306 356
#     4  10  21  39  58  87 121 156 190 240 286 349
#     4  11  23  36  58  89 119 153 196 233 290 338
#     4  11  20  35  55  80 116 157 194 225 273 342
#     4  10  22  38  54  82 118 148 196 242 292 330
#     4  11  23  38  60  85 115 155 191 250 290 352
#
# _framework density 20.965541999999999
#
# number of rings (size 3 to 8) (size 9 to 14) (size 15 to 20)
#    0.000    1.455    2.727    2.727    0.000    4.364 
#    0.000    2.727    0.000    7.636    0.000    0.000 
#    0.000    0.000    0.000    0.000    0.000    0.000 
#
# Total GULP energy -272546.515317 kJ/mol
# GULP energy per Si atom -12388.477969 kJ/mol
# Density = 2.091782 g / cm^3
# Si number density = 20.965542 Si / 1000 Ang^3
#
#
#
# Elastic Constant Matrix: (Units=GPa)
#
#
# Indices 1 2 3 4 5 6 
#
# 1 56.8388 5.0992 55.6278 0.0000 0.0000 0.0000
# 2 5.0992 84.0810 19.7941 0.0000 0.0000 0.0000
# 3 55.6278 19.7941 127.5357 0.0000 0.0000 0.0000
# 4 0.0000 0.0000 0.0000 6.4574 0.0000 0.0000
# 5 0.0000 0.0000 0.0000 0.0000 27.4809 0.0000
# 6 0.0000 0.0000 0.0000 0.0000 0.0000 23.2849
#
#
#
# Elastic Compliance Matrix: (Units=1/GPa)
#
#
# Indices 1 2 3 4 5 6 
#
# 1 0.030844 0.001346 -0.013662 0.000000 0.000000 0.000000
# 2 0.001346 0.012403 -0.002512 0.000000 0.000000 0.000000
# 3 -0.013662 -0.002512 0.014190 0.000000 0.000000 0.000000
# 4 0.000000 0.000000 0.000000 0.154861 0.000000 0.000000
# 5 0.000000 0.000000 0.000000 0.000000 0.036389 0.000000
# 6 0.000000 0.000000 0.000000 0.000000 0.000000 0.042946
#
#
# Mechanical properties :
#
#
# Convention : Reuss Voigt Hill
#
# Bulk Modulus (GPa) = 35.99705 47.72197 41.85951
# Shear Modulus (GPa) = 15.12629 23.97360 19.54994
#
# Velocity S-wave (km/s) = 2.68896 3.38520 3.05697
# Velocity P-wave (km/s) = 5.18146 6.17179 5.69818
#
# Compressibility (1/GPa) = 0.02778005
#
# Stress axis : x y z
#
# Youngs Moduli (GPa) = 32.42122 80.62534 70.47255
#
# Poissons Ratio (x) = -0.10850 0.96281
# Poissons Ratio (y) = -0.04363 0.17703
# Poissons Ratio (z) = 0.44295 0.20253
#
# Static dielectric constant tensor:
#      x y z
#    x 4.542460 0.000000 0.000000 
#    y 0.000000 3.775240 0.000000 
#    z 0.000000 0.000000 4.011570 
# 
# 
# High freq. dielectric constant tensor:
#      x y z
#    x 1.795170 0.000000 0.000000 
#    y 0.000000 1.821430 0.000000 
#    z 0.000000 0.000000 1.830800 
# 
# From -- ./inp_files/6382.got.cif
#   From: 2010.03.12/outbox.cif.g09.slc.cpg/sg24_4_cif.got.tgz:6382.got - 2010.04.14 03:06:53.
