data_PCOD8165536
_publ_section_title
;
Structure prediction by ZEFSAII (Michael W. Deem and Ramdas Pophale) SiO2 
 PCOD8165536
Probable space group: I 21 21 21
;
_chemical_formula_sum "Si O2"
_cell_formula_units_Z 24
_cell_length_a 8.112623
_cell_length_b 4.967434
_cell_length_c 27.392169
_cell_angle_alpha 90.000000
_cell_angle_beta 90.000000
_cell_angle_gamma 90.000000
_cell_volume 1103.874809
_symmetry_space_group_name_H-M "I 21 21 21"
_symmetry_group_IT_number 24
_symmetry_cell_setting 'orthorhombic'
loop_
_space_group_symop_operation_xyz
x,y,z
-x,1/2-y,z
x,-y,1/2-z
1/2-x,y,-z
1/2+x,1/2+y,1/2+z
1/2-x,-y,1/2+z
1/2+x,1/2-y,-z
-x,1/2+y,1/2-z
loop_
_atom_site_type_symbol
_atom_site_label
_atom_site_fract_x
_atom_site_fract_y
_atom_site_fract_z
Si Si1 0.384496 0.001442 0.304750
Si Si2 0.312537 0.655585 0.447627
Si Si3 0.314617 0.152176 0.605027
O O1 0.500000 0.750000 0.316769
O O2 0.500000 0.250000 0.311635
O O3 0.309427 0.000000 0.250000
O O4 0.235324 0.027691 0.342639
O O5 0.500000 0.750000 0.448078
O O6 0.250000 0.552036 0.500000
O O7 0.298979 0.404766 0.410449
O O8 0.198330 0.908701 0.433351
O O9 0.500000 0.250000 0.607928
#
# Coordination Sequence:
#
# PCOD8165536 Si02
#       3
#     8   8   8
#     4  10  21  40  65  91 122 163 208 252 305 367
#     4  12  25  43  65  91 125 165 208 253 306 366
#     4  12  24  41  64  94 128 162 205 255 309 365
#
# _framework density 21.741595
#
# number of rings (size 3 to 8) (size 9 to 14) (size 15 to 20)
#    0.000    0.667    0.000   10.000    0.000    0.000 
#    0.000    8.333    0.000    0.000    0.000    0.000 
#    0.000    0.000    0.000    0.000    0.000    0.000 
#
# Total GULP energy -148847.480822 kJ/mol
# GULP energy per Si atom -12403.956735 kJ/mol
# Density = 2.169211 g / cm^3
# Si number density = 21.741595 Si / 1000 Ang^3
#
#
#
# Elastic Constant Matrix: (Units=GPa)
#
#
# Indices 1 2 3 4 5 6 
#
# 1 103.3521 34.3294 68.8817 0.0000 0.0000 0.0000
# 2 34.3294 150.6159 48.0970 0.0000 0.0000 0.0000
# 3 68.8817 48.0970 142.0347 0.0000 0.0000 0.0000
# 4 0.0000 0.0000 0.0000 40.3475 0.0000 0.0000
# 5 0.0000 0.0000 0.0000 0.0000 29.2366 0.0000
# 6 0.0000 0.0000 0.0000 0.0000 0.0000 42.2957
#
#
#
# Elastic Compliance Matrix: (Units=1/GPa)
#
#
# Indices 1 2 3 4 5 6 
#
# 1 0.014483 -0.001186 -0.006622 0.000000 0.000000 0.000000
# 2 -0.001186 0.007542 -0.001978 0.000000 0.000000 0.000000
# 3 -0.006622 -0.001978 0.010922 0.000000 0.000000 0.000000
# 4 0.000000 0.000000 0.000000 0.024785 0.000000 0.000000
# 5 0.000000 0.000000 0.000000 0.000000 0.034204 0.000000
# 6 0.000000 0.000000 0.000000 0.000000 0.000000 0.023643
#
#
# Mechanical properties :
#
#
# Convention : Reuss Voigt Hill
#
# Bulk Modulus (GPa) = 74.77817 77.62433 76.20125
# Shear Modulus (GPa) = 35.81412 38.68892 37.25152
#
# Velocity S-wave (km/s) = 4.06305 4.22297 4.14378
# Velocity P-wave (km/s) = 7.51531 7.71743 7.61704
#
# Compressibility (1/GPa) = 0.01337289
#
# Stress axis : x y z
#
# Youngs Moduli (GPa) = 69.04552 132.59770 91.55875
#
# Poissons Ratio (x) = 0.15732 0.60631
# Poissons Ratio (y) = 0.08192 0.18114
# Poissons Ratio (z) = 0.45722 0.26233
#
# Static dielectric constant tensor:
#      x y z
#    x 3.606330 0.000000 0.000000 
#    y 0.000000 4.290250 0.000000 
#    z 0.000000 0.000000 3.907110 
# 
# 
# High freq. dielectric constant tensor:
#      x y z
#    x 1.840250 0.000000 0.000000 
#    y 0.000000 1.880330 0.000000 
#    z 0.000000 0.000000 1.867510 
# 
# From -- ./inp_files/931.got.cif
#   From: 2010.03.12/outbox.cif.g09.slc.cpg/sg24_1_cif.got.tgz:931.got - 2010.04.14 03:06:53.
