data_PCOD8165867
_publ_section_title
;
Structure prediction by ZEFSAII (Michael W. Deem and Ramdas Pophale) SiO2 
 PCOD8165867
Probable space group: I 21 21 21
;
_chemical_formula_sum "Si O2"
_cell_formula_units_Z 40
_cell_length_a 24.747092
_cell_length_b 11.664820
_cell_length_c 6.660645
_cell_angle_alpha 90.000000
_cell_angle_beta 90.000000
_cell_angle_gamma 90.000000
_cell_volume 1922.730881
_symmetry_space_group_name_H-M "I 21 21 21"
_symmetry_group_IT_number 24
_symmetry_cell_setting 'orthorhombic'
loop_
_space_group_symop_operation_xyz
x,y,z
-x,1/2-y,z
x,-y,1/2-z
1/2-x,y,-z
1/2+x,1/2+y,1/2+z
1/2-x,-y,1/2+z
1/2+x,1/2-y,-z
-x,1/2+y,1/2-z
loop_
_atom_site_type_symbol
_atom_site_label
_atom_site_fract_x
_atom_site_fract_y
_atom_site_fract_z
Si Si1 0.926638 0.591443 0.097073
Si Si2 0.884505 0.175057 0.237364
Si Si3 0.691580 0.282521 0.092520
Si Si4 0.470094 0.500000 0.750000
Si Si5 0.361526 0.000000 0.250000
Si Si6 0.308399 0.403668 0.412187
O O1 0.898997 0.500000 0.250000
O O2 0.915799 0.718826 0.168036
O O3 0.991114 0.562877 0.085665
O O4 0.900221 0.579577 0.881027
O O5 0.850932 0.104070 0.405213
O O6 0.931478 0.094335 0.146501
O O7 0.847293 0.213368 0.055176
O O8 0.674907 0.414730 0.118566
O O9 0.693576 0.220649 0.307816
O O10 0.750000 0.281948 0.000000
O O11 0.326027 0.500000 0.250000
O O12 0.250000 0.437654 0.500000
#
# Coordination Sequence:
#
# PCOD8165867 Si02
#       6
#     8   8   8   4   4   8
#     4  10  23  44  69  94 135 175 225 288 341 395
#     4  12  23  46  70  97 139 178 229 282 348 406
#     4  12  25  42  69 102 137 185 225 278 342 418
#     4  10  24  44  69  98 127 180 228 288 342 400
#     4  12  24  44  69 102 137 178 230 282 346 408
#     4  12  26  42  67  99 142 183 224 276 341 420
#
# _framework density 20.803743000000001
#
# number of rings (size 3 to 8) (size 9 to 14) (size 15 to 20)
#    0.600    0.000    6.000    2.400    1.400    2.400 
#    5.400    0.000    0.000    0.000    0.000    0.000 
#    0.000    0.000    0.000    0.000    0.000    0.000 
#
# Total GULP energy -247967.237671 kJ/mol
# GULP energy per Si atom -12398.361884 kJ/mol
# Density = 2.075639 g / cm^3
# Si number density = 20.803743 Si / 1000 Ang^3
#
#
#
# Elastic Constant Matrix: (Units=GPa)
#
#
# Indices 1 2 3 4 5 6 
#
# 1 106.7500 36.9435 14.0030 0.0000 0.0000 0.0000
# 2 36.9435 89.3454 10.5061 0.0000 0.0000 0.0000
# 3 14.0030 10.5061 57.8433 0.0000 0.0000 0.0000
# 4 0.0000 0.0000 0.0000 45.2172 0.0000 0.0000
# 5 0.0000 0.0000 0.0000 0.0000 16.8327 0.0000
# 6 0.0000 0.0000 0.0000 0.0000 0.0000 37.1707
#
#
#
# Elastic Compliance Matrix: (Units=1/GPa)
#
#
# Indices 1 2 3 4 5 6 
#
# 1 0.011133 -0.004380 -0.001900 0.000000 0.000000 0.000000
# 2 -0.004380 0.013160 -0.001330 0.000000 0.000000 0.000000
# 3 -0.001900 -0.001330 0.017989 0.000000 0.000000 0.000000
# 4 0.000000 0.000000 0.000000 0.022116 0.000000 0.000000
# 5 0.000000 0.000000 0.000000 0.000000 0.059408 0.000000
# 6 0.000000 0.000000 0.000000 0.000000 0.000000 0.026903
#
#
# Mechanical properties :
#
#
# Convention : Reuss Voigt Hill
#
# Bulk Modulus (GPa) = 36.95029 41.87153 39.41091
# Shear Modulus (GPa) = 28.57986 32.67653 30.62819
#
# Velocity S-wave (km/s) = 3.71048 3.96751 3.84115
# Velocity P-wave (km/s) = 6.01305 6.41551 6.21754
#
# Compressibility (1/GPa) = 0.02706339
#
# Stress axis : x y z
#
# Youngs Moduli (GPa) = 89.82619 75.98816 55.58800
#
# Poissons Ratio (x) = 0.33282 0.10559
# Poissons Ratio (y) = 0.39343 0.07393
# Poissons Ratio (z) = 0.17063 0.10106
#
# Static dielectric constant tensor:
#      x y z
#    x 3.778430 0.000000 0.000000 
#    y 0.000000 3.931080 0.000000 
#    z 0.000000 0.000000 4.024790 
# 
# 
# High freq. dielectric constant tensor:
#      x y z
#    x 1.818880 0.000000 0.000000 
#    y 0.000000 1.834270 0.000000 
#    z 0.000000 0.000000 1.799010 
# 
# From -- ./inp_files/6921.got.cif
#   From: 2010.03.12/outbox.cif.g09.slc.cpg/sg24_4_cif.got.tgz:6921.got - 2010.04.14 03:06:53.
