data_PCOD8165936
_publ_section_title
;
Structure prediction by ZEFSAII (Michael W. Deem and Ramdas Pophale) SiO2 
 PCOD8165936
Probable space group: I 21 21 21
;
_chemical_formula_sum "Si O2"
_cell_formula_units_Z 56
_cell_length_a 15.119626
_cell_length_b 9.004899
_cell_length_c 18.338090
_cell_angle_alpha 90.000000
_cell_angle_beta 90.000000
_cell_angle_gamma 90.000000
_cell_volume 2496.743883
_symmetry_space_group_name_H-M "I 21 21 21"
_symmetry_group_IT_number 24
_symmetry_cell_setting 'orthorhombic'
loop_
_space_group_symop_operation_xyz
x,y,z
-x,1/2-y,z
x,-y,1/2-z
1/2-x,y,-z
1/2+x,1/2+y,1/2+z
1/2-x,-y,1/2+z
1/2+x,1/2-y,-z
-x,1/2+y,1/2-z
loop_
_atom_site_type_symbol
_atom_site_label
_atom_site_fract_x
_atom_site_fract_y
_atom_site_fract_z
Si Si1 0.527191 0.410126 0.317345
Si Si2 0.782280 0.580455 0.826766
Si Si3 0.622154 0.055136 0.089987
Si Si4 0.511511 0.577959 0.531558
Si Si5 0.771207 0.085315 0.323642
Si Si6 0.524230 0.078944 0.676050
Si Si7 0.819328 0.367831 0.942880
O O1 0.500000 0.250000 0.290743
O O2 0.563210 0.500000 0.250000
O O3 0.618700 0.391801 0.360410
O O4 0.449839 0.503418 0.352345
O O5 0.769845 0.500000 0.750000
O O6 0.732257 0.736230 0.819014
O O7 0.754135 0.469320 0.892071
O O8 0.639462 0.230147 0.102333
O O9 0.712983 0.966834 0.106646
O O10 0.578288 0.023310 0.010647
O O11 0.500000 0.750000 0.551521
O O12 0.525797 0.486943 0.605900
O O13 0.597679 0.549054 0.481349
O O14 0.872636 0.044060 0.336400
O O15 0.737076 0.000000 0.250000
O O16 0.500000 0.250000 0.683096
O O17 0.490382 0.000000 0.750000
O O18 0.750000 0.299022 0.000000
#
# Coordination Sequence:
#
# PCOD8165936 Si02
#       7
#     8   8   8   8   8   8   8
#     4  11  23  36  64  98 143 186 219 265 334 420
#     4  11  24  42  67 102 137 178 224 280 339 411
#     4  11  23  43  67  97 143 182 221 274 348 420
#     4  10  24  45  70  99 135 178 226 275 346 419
#     4  11  25  44  68 104 138 180 232 287 342 419
#     4  11  27  49  73  96 129 178 236 293 348 401
#     4  11  26  44  69 103 137 184 229 286 341 409
#
# _framework density 22.429210999999999
#
# number of rings (size 3 to 8) (size 9 to 14) (size 15 to 20)
#    0.000    1.143    2.857    1.714   10.000    2.286 
#    0.000    0.000    0.000    0.000    0.000    0.000 
#    0.000    0.000    0.000    0.000    0.000    0.000 
#
# Total GULP energy -346921.268424 kJ/mol
# GULP energy per Si atom -12390.045301 kJ/mol
# Density = 2.237816 g / cm^3
# Si number density = 22.429211 Si / 1000 Ang^3
#
#
#
# Elastic Constant Matrix: (Units=GPa)
#
#
# Indices 1 2 3 4 5 6 
#
# 1 63.4205 5.6645 14.1420 0.0000 0.0000 0.0000
# 2 5.6645 129.7616 64.9679 0.0000 0.0000 0.0000
# 3 14.1420 64.9679 111.1797 0.0000 0.0000 0.0000
# 4 0.0000 0.0000 0.0000 66.6728 0.0000 0.0000
# 5 0.0000 0.0000 0.0000 0.0000 22.5160 0.0000
# 6 0.0000 0.0000 0.0000 0.0000 0.0000 27.7496
#
#
#
# Elastic Compliance Matrix: (Units=1/GPa)
#
#
# Indices 1 2 3 4 5 6 
#
# 1 0.016247 0.000460 -0.002336 0.000000 0.000000 0.000000
# 2 0.000460 0.010907 -0.006432 0.000000 0.000000 0.000000
# 3 -0.002336 -0.006432 0.013050 0.000000 0.000000 0.000000
# 4 0.000000 0.000000 0.000000 0.014999 0.000000 0.000000
# 5 0.000000 0.000000 0.000000 0.000000 0.044413 0.000000
# 6 0.000000 0.000000 0.000000 0.000000 0.000000 0.036037
#
#
# Mechanical properties :
#
#
# Convention : Reuss Voigt Hill
#
# Bulk Modulus (GPa) = 42.39170 52.65674 47.52422
# Shear Modulus (GPa) = 31.22472 38.02684 34.62578
#
# Velocity S-wave (km/s) = 3.73519 4.12201 3.93336
# Velocity P-wave (km/s) = 6.12727 6.79577 6.47016
#
# Compressibility (1/GPa) = 0.02358952
#
# Stress axis : x y z
#
# Youngs Moduli (GPa) = 61.54807 91.68800 76.62878
#
# Poissons Ratio (x) = -0.04218 0.17897
# Poissons Ratio (y) = -0.02832 0.49286
# Poissons Ratio (z) = 0.14375 0.58972
#
# Static dielectric constant tensor:
#      x y z
#    x 4.051490 0.000000 0.000000 
#    y 0.000000 3.926210 0.000000 
#    z 0.000000 0.000000 3.959790 
# 
# 
# High freq. dielectric constant tensor:
#      x y z
#    x 1.889620 0.000000 0.000000 
#    y 0.000000 1.883810 0.000000 
#    z 0.000000 0.000000 1.877280 
# 
# From -- ./inp_files/33768.got.cif
#   From: 2010.03.12/outbox.cif.g09.slc.cpg/sg24_17_cif.got.tgz:33768.got - 2010.04.14 03:06:53.
