data_PCOD8165969
_publ_section_title
;
Structure prediction by ZEFSAII (Michael W. Deem and Ramdas Pophale) SiO2 
 PCOD8165969
Probable space group: I 21 21 21
;
_chemical_formula_sum "Si O2"
_cell_formula_units_Z 36
_cell_length_a 21.572728
_cell_length_b 13.642395
_cell_length_c 5.699627
_cell_angle_alpha 90.000000
_cell_angle_beta 90.000000
_cell_angle_gamma 90.000000
_cell_volume 1677.421181
_symmetry_space_group_name_H-M "I 21 21 21"
_symmetry_group_IT_number 24
_symmetry_cell_setting 'orthorhombic'
loop_
_space_group_symop_operation_xyz
x,y,z
-x,1/2-y,z
x,-y,1/2-z
1/2-x,y,-z
1/2+x,1/2+y,1/2+z
1/2-x,-y,1/2+z
1/2+x,1/2-y,-z
-x,1/2+y,1/2-z
loop_
_atom_site_type_symbol
_atom_site_label
_atom_site_fract_x
_atom_site_fract_y
_atom_site_fract_z
Si Si1 0.689729 0.101814 0.867716
Si Si2 0.069729 0.604192 0.672292
Si Si3 0.116142 0.747126 0.067556
Si Si4 0.500000 0.250000 0.876301
Si Si5 0.823131 0.550264 0.997352
O O1 0.671252 0.186366 0.687612
O O2 0.709460 0.000000 0.750000
O O3 0.750000 0.143211 0.000000
O O4 0.632249 0.079584 0.034561
O O5 0.041851 0.500000 0.750000
O O6 0.015351 0.652568 0.522026
O O7 0.084509 0.678837 0.877159
O O8 0.145931 0.844147 0.964722
O O9 0.061110 0.780515 0.236990
O O10 0.843382 0.500000 0.250000
O O11 0.843410 0.500000 0.750000
O O12 0.750000 0.562613 0.000000
#
# Coordination Sequence:
#
# PCOD8165969 Si02
#       5
#     8   8   8   4   8
#     4  11  24  38  67 108 145 178 224 278 360 442
#     4  11  23  46  69  97 141 182 228 294 351 426
#     4  11  25  46  68 101 137 187 236 291 359 428
#     4  10  26  46  66 100 134 182 244 288 362 420
#     4  10  25  47  73 105 144 187 242 303 360 428
#
# _framework density 21.461514000000001
#
# number of rings (size 3 to 8) (size 9 to 14) (size 15 to 20)
#    0.000    1.333    2.222    1.333    9.333    0.889 
#    8.000    0.000    0.000    0.000    0.000    0.000 
#    0.000    0.000    0.000    0.000    0.000    0.000 
#
# Total GULP energy -223145.460982 kJ/mol
# GULP energy per Si atom -12396.970055 kJ/mol
# Density = 2.141267 g / cm^3
# Si number density = 21.461514 Si / 1000 Ang^3
#
#
#
# Elastic Constant Matrix: (Units=GPa)
#
#
# Indices 1 2 3 4 5 6 
#
# 1 52.6803 47.1013 27.3163 0.0000 0.0000 0.0000
# 2 47.1013 171.2964 72.0553 0.0000 0.0000 0.0000
# 3 27.3163 72.0553 136.1974 0.0000 0.0000 0.0000
# 4 0.0000 0.0000 0.0000 -21.9617 0.0000 0.0000
# 5 0.0000 0.0000 0.0000 0.0000 -74.9107 0.0000
# 6 0.0000 0.0000 0.0000 0.0000 0.0000 30.8045
#
#
#
# Elastic Compliance Matrix: (Units=1/GPa)
#
#
# Indices 1 2 3 4 5 6 
#
# 1 0.025512 -0.006255 -0.001808 0.000000 0.000000 0.000000
# 2 -0.006255 0.009042 -0.003529 0.000000 0.000000 0.000000
# 3 -0.001808 -0.003529 0.009572 0.000000 0.000000 0.000000
# 4 0.000000 0.000000 0.000000 -0.045534 0.000000 0.000000
# 5 0.000000 0.000000 0.000000 0.000000 -0.013349 0.000000
# 6 0.000000 0.000000 0.000000 0.000000 0.000000 0.032463
#
#
# Mechanical properties :
#
#
# Convention : Reuss Voigt Hill
#
# Bulk Modulus (GPa) = 47.74898 72.56890 60.15894
# Shear Modulus (GPa) = 104.44834 1.03317 52.74075
#
# Velocity S-wave (km/s) = 6.98380 0.69459 4.96265
# Velocity P-wave (km/s) = 9.34495 5.87624 7.80571
#
# Compressibility (1/GPa) = 0.02094285
#
# Stress axis : x y z
#
# Youngs Moduli (GPa) = 39.19718 110.59155 104.47048
#
# Poissons Ratio (x) = 0.69171 0.18886
# Poissons Ratio (y) = 0.24516 0.36872
# Poissons Ratio (z) = 0.07086 0.39032
#
# Static dielectric constant tensor:
#      x y z
#    x 3.860630 0.000000 0.000000 
#    y 0.000000 3.844760 0.000000 
#    z 0.000000 0.000000 4.672260 
# 
# 
# High freq. dielectric constant tensor:
#      x y z
#    x 1.845210 0.000000 0.000000 
#    y 0.000000 1.849120 0.000000 
#    z 0.000000 0.000000 1.855770 
# 
# From -- ./inp_files/2243.got.cif
#   From: 2010.03.12/outbox.cif.g09.slc.cpg/sg24_2_cif.got.tgz:2243.got - 2010.04.14 03:06:53.
