data_PCOD8165977
_publ_section_title
;
Structure prediction by ZEFSAII (Michael W. Deem and Ramdas Pophale) SiO2 
 PCOD8165977
Probable space group: I 21 21 21
;
_chemical_formula_sum "Si O2"
_cell_formula_units_Z 40
_cell_length_a 28.335534
_cell_length_b 5.371014
_cell_length_c 12.197996
_cell_angle_alpha 90.000000
_cell_angle_beta 90.000000
_cell_angle_gamma 90.000000
_cell_volume 1856.419718
_symmetry_space_group_name_H-M "I 21 21 21"
_symmetry_group_IT_number 24
_symmetry_cell_setting 'orthorhombic'
loop_
_space_group_symop_operation_xyz
x,y,z
-x,1/2-y,z
x,-y,1/2-z
1/2-x,y,-z
1/2+x,1/2+y,1/2+z
1/2-x,-y,1/2+z
1/2+x,1/2-y,-z
-x,1/2+y,1/2-z
loop_
_atom_site_type_symbol
_atom_site_label
_atom_site_fract_x
_atom_site_fract_y
_atom_site_fract_z
Si Si1 0.841799 0.039902 0.123043
Si Si2 0.809527 0.357375 0.647889
Si Si3 0.750000 0.959120 0.000000
Si Si4 0.384382 0.500000 0.250000
Si Si5 0.876496 0.519127 0.025024
Si Si6 0.049533 0.144383 0.864181
O O1 0.867866 0.788973 0.080394
O O2 0.829603 0.000000 0.250000
O O3 0.875159 0.284831 0.109564
O O4 0.794225 0.105209 0.052560
O O5 0.786962 0.500000 0.750000
O O6 0.766077 0.206555 0.601783
O O7 0.832999 0.538961 0.558427
O O8 0.853325 0.194389 0.685603
O O9 0.415790 0.374456 0.156366
O O10 0.926660 0.524023 0.959741
O O11 0.000000 0.250000 0.908050
O O12 0.041504 0.000000 0.750000
#
# Coordination Sequence:
#
# PCOD8165977 Si02
#       6
#     8   8   4   4   8   8
#     4  11  26  45  67  93 130 176 230 279 324 386
#     4  11  23  38  62  87 133 177 213 268 324 399
#     4  10  26  38  60  96 122 174 230 278 322 376
#     4  12  20  40  58  90 140 180 198 260 340 384
#     4  11  23  44  66  93 131 176 216 262 341 394
#     4  12  23  36  65 103 138 170 212 269 332 412
#
# _framework density 21.546851
#
# number of rings (size 3 to 8) (size 9 to 14) (size 15 to 20)
#    0.000    0.800    5.000    3.000    1.400    6.400 
#    0.000    0.000    0.000    2.400    0.000    0.000 
#    0.000    0.000    0.000    0.000    0.000    0.000 
#
# Total GULP energy -247885.242269 kJ/mol
# GULP energy per Si atom -12394.262113 kJ/mol
# Density = 2.149781 g / cm^3
# Si number density = 21.546851 Si / 1000 Ang^3
#
#
#
# Elastic Constant Matrix: (Units=GPa)
#
#
# Indices 1 2 3 4 5 6 
#
# 1 99.5181 31.3995 24.2246 0.0000 0.0000 0.0000
# 2 31.3995 105.7957 31.3391 0.0000 0.0000 0.0000
# 3 24.2246 31.3391 95.1465 0.0000 0.0000 0.0000
# 4 0.0000 0.0000 0.0000 40.3046 0.0000 0.0000
# 5 0.0000 0.0000 0.0000 0.0000 38.0585 0.0000
# 6 0.0000 0.0000 0.0000 0.0000 0.0000 -2.5110
#
#
#
# Elastic Compliance Matrix: (Units=1/GPa)
#
#
# Indices 1 2 3 4 5 6 
#
# 1 0.011415 -0.002800 -0.001984 0.000000 0.000000 0.000000
# 2 -0.002800 0.011161 -0.002963 0.000000 0.000000 0.000000
# 3 -0.001984 -0.002963 0.011991 0.000000 0.000000 0.000000
# 4 0.000000 0.000000 0.000000 0.024811 0.000000 0.000000
# 5 0.000000 0.000000 0.000000 0.000000 0.026275 0.000000
# 6 0.000000 0.000000 0.000000 0.000000 0.000000 -0.398240
#
#
# Mechanical properties :
#
#
# Convention : Reuss Voigt Hill
#
# Bulk Modulus (GPa) = 52.43181 52.70965 52.57073
# Shear Modulus (GPa) = -17.19783 29.40356 6.10286
#
# Velocity S-wave (km/s) = -2.82824 3.69810 1.68479
# Velocity P-wave (km/s) = 3.70425 6.53839 5.31376
#
# Compressibility (1/GPa) = 0.01907239
#
# Stress axis : x y z
#
# Youngs Moduli (GPa) = 87.60522 89.59741 83.39412
#
# Poissons Ratio (x) = 0.25089 0.16545
# Poissons Ratio (y) = 0.24531 0.24712
# Poissons Ratio (z) = 0.17380 0.26550
#
# Static dielectric constant tensor:
#      x y z
#    x 3.708310 0.000000 0.000000 
#    y 0.000000 3.849660 0.000000 
#    z 0.000000 0.000000 4.065470 
# 
# 
# High freq. dielectric constant tensor:
#      x y z
#    x 1.826790 0.000000 0.000000 
#    y 0.000000 1.853470 0.000000 
#    z 0.000000 0.000000 1.838850 
# 
# From -- ./inp_files/2669.got.cif
#   From: 2010.03.12/outbox.cif.g09.slc.cpg/sg24_2_cif.got.tgz:2669.got - 2010.04.14 03:06:53.
