data_PCOD8165309
_publ_section_title
;
Structure prediction by ZEFSAII (Michael W. Deem and Ramdas Pophale) SiO2 
 PCOD8165309
Probable space group: I 21 21 21
;
_chemical_formula_sum "Si O2"
_cell_formula_units_Z 40
_cell_length_a 5.230889
_cell_length_b 27.430962
_cell_length_c 14.057411
_cell_angle_alpha 90.000000
_cell_angle_beta 90.000000
_cell_angle_gamma 90.000000
_cell_volume 2017.074251
_symmetry_space_group_name_H-M "I 21 21 21"
_symmetry_group_IT_number 24
_symmetry_cell_setting 'orthorhombic'
loop_
_space_group_symop_operation_xyz
x,y,z
-x,1/2-y,z
x,-y,1/2-z
1/2-x,y,-z
1/2+x,1/2+y,1/2+z
1/2-x,-y,1/2+z
1/2+x,1/2-y,-z
-x,1/2+y,1/2-z
loop_
_atom_site_type_symbol
_atom_site_label
_atom_site_fract_x
_atom_site_fract_y
_atom_site_fract_z
Si Si1 0.753517 0.219423 0.389373
Si Si2 0.004032 0.000000 0.750000
Si Si3 0.250000 0.959742 0.500000
Si Si4 0.868451 0.032807 0.403029
Si Si5 0.872013 0.404793 0.821284
Si Si6 0.882948 0.124551 0.271866
O O1 0.500000 0.250000 0.360825
O O2 0.750000 0.205540 0.500000
O O3 0.786506 0.170402 0.330924
O O4 0.000000 0.250000 0.362722
O O5 0.833981 0.999814 0.845599
O O6 0.179507 0.952210 0.745914
O O7 0.390335 0.921411 0.430791
O O8 0.408800 0.994900 0.570218
O O9 0.750000 0.053499 0.500000
O O10 0.946584 0.080032 0.342728
O O11 0.640196 0.367799 0.792477
O O12 0.151307 0.384268 0.799939
#
# Coordination Sequence:
#
# PCOD8165309 Si02
#       6
#     8   4   4   8   8   8
#     4  10  21  41  66  91 121 150 189 245 313 383
#     4  10  20  40  50  80 118 166 210 262 286 350
#     4  12  22  38  56  86 118 180 206 248 292 342
#     4  11  22  35  55  79 120 162 208 243 291 343
#     4  11  23  37  58  80 123 156 209 248 289 348
#     4  11  24  39  58  91 117 156 196 254 300 362
#
# _framework density 19.830703
#
# number of rings (size 3 to 8) (size 9 to 14) (size 15 to 20)
#    0.000    1.200    2.000    5.400    2.800    0.800 
#    5.400    0.000    0.000    0.000    0.000   14.000 
#    0.000    0.000    0.000    0.000    0.000    0.000 
#
# Total GULP energy -247804.284249 kJ/mol
# GULP energy per Si atom -12390.214212 kJ/mol
# Density = 1.978557 g / cm^3
# Si number density = 19.830703 Si / 1000 Ang^3
#
#
#
# Elastic Constant Matrix: (Units=GPa)
#
#
# Indices 1 2 3 4 5 6 
#
# 1 120.1585 34.1889 51.2783 0.0000 0.0000 0.0000
# 2 34.1889 87.7428 46.9100 0.0000 0.0000 0.0000
# 3 51.2783 46.9100 104.3634 0.0000 0.0000 0.0000
# 4 0.0000 0.0000 0.0000 25.5590 0.0000 0.0000
# 5 0.0000 0.0000 0.0000 0.0000 40.5366 0.0000
# 6 0.0000 0.0000 0.0000 0.0000 0.0000 23.0764
#
#
#
# Elastic Compliance Matrix: (Units=1/GPa)
#
#
# Indices 1 2 3 4 5 6 
#
# 1 0.010741 -0.001795 -0.004471 0.000000 0.000000 0.000000
# 2 -0.001795 0.015302 -0.005996 0.000000 0.000000 0.000000
# 3 -0.004471 -0.005996 0.014474 0.000000 0.000000 0.000000
# 4 0.000000 0.000000 0.000000 0.039125 0.000000 0.000000
# 5 0.000000 0.000000 0.000000 0.000000 0.024669 0.000000
# 6 0.000000 0.000000 0.000000 0.000000 0.000000 0.043334
#
#
# Mechanical properties :
#
#
# Convention : Reuss Voigt Hill
#
# Bulk Modulus (GPa) = 62.52683 64.11323 63.32003
# Shear Modulus (GPa) = 28.16903 29.82690 28.99797
#
# Velocity S-wave (km/s) = 3.77301 3.88245 3.82812
# Velocity P-wave (km/s) = 7.11193 7.24558 7.17906
#
# Compressibility (1/GPa) = 0.01599314
#
# Stress axis : x y z
#
# Youngs Moduli (GPa) = 93.10147 65.35053 69.09084
#
# Poissons Ratio (x) = 0.11731 0.30888
# Poissons Ratio (y) = 0.16712 0.41428
# Poissons Ratio (z) = 0.41622 0.39185
#
# Static dielectric constant tensor:
#      x y z
#    x 3.708400 0.000000 0.000000 
#    y 0.000000 3.129880 0.000000 
#    z 0.000000 0.000000 3.690900 
# 
# 
# High freq. dielectric constant tensor:
#      x y z
#    x 1.789370 0.000000 0.000000 
#    y 0.000000 1.738980 0.000000 
#    z 0.000000 0.000000 1.778420 
# 
# From -- ./inp_files/17652.got.cif
#   From: 2010.03.12/outbox.cif.g09.slc.cpg/sg24_9_cif.got.tgz:17652.got - 2010.04.14 03:06:53.
