data_PCOD8165635
_publ_section_title
;
Structure prediction by ZEFSAII (Michael W. Deem and Ramdas Pophale) SiO2 
 PCOD8165635
Probable space group: I 21 21 21
;
_chemical_formula_sum "Si O2"
_cell_formula_units_Z 64
_cell_length_a 20.033140
_cell_length_b 8.861248
_cell_length_c 19.827425
_cell_angle_alpha 90.000000
_cell_angle_beta 90.000000
_cell_angle_gamma 90.000000
_cell_volume 3519.737159
_symmetry_space_group_name_H-M "I 21 21 21"
_symmetry_group_IT_number 24
_symmetry_cell_setting 'orthorhombic'
loop_
_space_group_symop_operation_xyz
x,y,z
-x,1/2-y,z
x,-y,1/2-z
1/2-x,y,-z
1/2+x,1/2+y,1/2+z
1/2-x,-y,1/2+z
1/2+x,1/2-y,-z
-x,1/2+y,1/2-z
loop_
_atom_site_type_symbol
_atom_site_label
_atom_site_fract_x
_atom_site_fract_y
_atom_site_fract_z
Si Si1 0.269104 0.580619 0.685065
Si Si2 0.282121 0.946556 0.929510
Si Si3 0.535794 0.894006 0.964143
Si Si4 0.710653 0.743986 0.429739
Si Si5 0.422276 0.094188 0.906992
Si Si6 0.932633 0.809682 0.524775
Si Si7 0.146799 0.690405 0.138374
Si Si8 0.637992 0.338142 0.769676
O O1 0.233383 0.500000 0.750000
O O2 0.220945 0.619367 0.623042
O O3 0.327376 0.473312 0.658341
O O4 0.300208 0.738939 0.706541
O O5 0.290161 0.799716 0.881660
O O6 0.234435 0.080998 0.900679
O O7 0.355930 0.016429 0.937201
O O8 0.250000 0.892693 0.000000
O O9 0.500000 0.750000 0.999459
O O10 0.596780 0.825250 0.922843
O O11 0.483916 0.980201 0.915392
O O12 0.564834 0.007765 0.020835
O O13 0.750000 0.776739 0.500000
O O14 0.631287 0.744417 0.437646
O O15 0.433264 0.247876 0.948062
O O16 0.416796 0.140965 0.828463
O O17 0.000000 0.750000 0.562001
O O18 0.107001 0.762861 0.202078
O O19 0.668229 0.500000 0.750000
#
# Coordination Sequence:
#
# PCOD8165635 Si02
#       8
#     8   8   8   8   8   8   8   8
#     4  10  22  35  53  81 115 144 185 238 296 343
#     4  11  20  33  59  78 102 137 192 245 279 330
#     4  11  21  35  51  72 119 148 183 222 284 345
#     4  11  18  35  60  83 106 142 193 238 285 344
#     4  11  19  37  51  78 105 151 190 233 280 325
#     4  10  22  36  57  79 109 144 187 238 291 344
#     4  11  22  35  48  80 111 149 183 235 284 336
#     4  11  18  34  55  70 107 147 197 233 267 318
#
# _framework density 18.183176
#
# number of rings (size 3 to 8) (size 9 to 14) (size 15 to 20)
#    0.000    1.250    6.250    1.500    0.000    1.500 
#    0.000   13.750    0.000    0.000    0.000    5.250 
#    0.000    0.000    0.000    0.000    0.000    0.000 
#
# Total GULP energy -396504.523710 kJ/mol
# GULP energy per Si atom -12390.766366 kJ/mol
# Density = 1.814179 g / cm^3
# Si number density = 18.183176 Si / 1000 Ang^3
#
#
#
# Elastic Constant Matrix: (Units=GPa)
#
#
# Indices 1 2 3 4 5 6 
#
# 1 96.3885 33.7232 20.6516 0.0000 0.0000 0.0000
# 2 33.7232 116.6061 24.5368 0.0000 0.0000 0.0000
# 3 20.6516 24.5368 43.3264 0.0000 0.0000 0.0000
# 4 0.0000 0.0000 0.0000 26.9429 0.0000 0.0000
# 5 0.0000 0.0000 0.0000 0.0000 17.0732 0.0000
# 6 0.0000 0.0000 0.0000 0.0000 0.0000 24.5337
#
#
#
# Elastic Compliance Matrix: (Units=1/GPa)
#
#
# Indices 1 2 3 4 5 6 
#
# 1 0.012222 -0.002621 -0.004341 0.000000 0.000000 0.000000
# 2 -0.002621 0.010298 -0.004583 0.000000 0.000000 0.000000
# 3 -0.004341 -0.004583 0.027745 0.000000 0.000000 0.000000
# 4 0.000000 0.000000 0.000000 0.037116 0.000000 0.000000
# 5 0.000000 0.000000 0.000000 0.000000 0.058571 0.000000
# 6 0.000000 0.000000 0.000000 0.000000 0.000000 0.040760
#
#
# Mechanical properties :
#
#
# Convention : Reuss Voigt Hill
#
# Bulk Modulus (GPa) = 36.79836 46.01604 41.40720
# Shear Modulus (GPa) = 22.84555 25.53724 24.19140
#
# Velocity S-wave (km/s) = 3.54844 3.75166 3.65146
# Velocity P-wave (km/s) = 6.08852 6.64292 6.37175
#
# Compressibility (1/GPa) = 0.02717512
#
# Stress axis : x y z
#
# Youngs Moduli (GPa) = 81.82072 97.10376 36.04227
#
# Poissons Ratio (x) = 0.25452 0.15647
# Poissons Ratio (y) = 0.21446 0.16517
# Poissons Ratio (z) = 0.35520 0.44501
#
# Static dielectric constant tensor:
#      x y z
#    x 3.241680 0.000000 0.000000 
#    y 0.000000 3.753710 0.000000 
#    z 0.000000 0.000000 3.349440 
# 
# 
# High freq. dielectric constant tensor:
#      x y z
#    x 1.678580 0.000000 0.000000 
#    y 0.000000 1.730170 0.000000 
#    z 0.000000 0.000000 1.671130 
# 
# From -- ./inp_files/36020.got.cif
#   From: 2010.03.12/outbox.cif.g09.slc.cpg/sg24_19_cif.got.tgz:36020.got - 2010.04.14 03:06:53.
