data_PCOD8165572
_publ_section_title
;
Structure prediction by ZEFSAII (Michael W. Deem and Ramdas Pophale) SiO2 
 PCOD8165572
Probable space group: I 21 21 21
;
_chemical_formula_sum "Si O2"
_cell_formula_units_Z 60
_cell_length_a 9.653548
_cell_length_b 11.204187
_cell_length_c 27.507216
_cell_angle_alpha 90.000000
_cell_angle_beta 90.000000
_cell_angle_gamma 90.000000
_cell_volume 2975.184801
_symmetry_space_group_name_H-M "I 21 21 21"
_symmetry_group_IT_number 24
_symmetry_cell_setting 'orthorhombic'
loop_
_space_group_symop_operation_xyz
x,y,z
-x,1/2-y,z
x,-y,1/2-z
1/2-x,y,-z
1/2+x,1/2+y,1/2+z
1/2-x,-y,1/2+z
1/2+x,1/2-y,-z
-x,1/2+y,1/2-z
loop_
_atom_site_type_symbol
_atom_site_label
_atom_site_fract_x
_atom_site_fract_y
_atom_site_fract_z
Si Si1 0.965640 0.385553 0.050322
Si Si2 0.677904 0.885668 0.783040
Si Si3 0.730355 0.524588 0.107320
Si Si4 0.499233 0.881342 0.439758
Si Si5 0.838798 0.218963 0.627744
Si Si6 0.091177 0.007558 0.194026
Si Si7 0.000000 0.750000 0.287225
Si Si8 0.240513 0.524649 0.053223
O O1 0.833751 0.445712 0.075390
O O2 0.000000 0.250000 0.067860
O O3 0.088422 0.476065 0.064812
O O4 0.929522 0.383812 0.993101
O O5 0.789194 0.824543 0.818722
O O6 0.632710 0.782477 0.745988
O O7 0.730295 0.000000 0.750000
O O8 0.541596 0.922000 0.814989
O O9 0.577556 0.472753 0.096826
O O10 0.733975 0.667761 0.101020
O O11 0.771587 0.518290 0.163888
O O12 0.500000 0.750000 0.416507
O O13 0.659805 0.910577 0.446625
O O14 0.800832 0.112659 0.592576
O O15 0.000000 0.250000 0.632316
O O16 0.042380 0.140278 0.178752
O O17 0.133661 0.000000 0.250000
O O18 0.250000 0.586246 0.000000
#
# Coordination Sequence:
#
# PCOD8165572 Si02
#       8
#     8   8   8   8   8   8   4   8
#     4  10  22  39  66  96 125 164 223 278 316 388
#     4   9  19  39  64  87 122 169 209 261 329 379
#     4  12  23  37  64  95 120 172 217 264 327 385
#     4  10  21  42  61  89 133 170 208 268 336 387
#     4  12  24  42  61  89 136 173 214 271 324 402
#     4   9  19  35  59  90 121 153 206 267 320 374
#     4   8  16  36  60  88 118 146 200 278 310 362
#     4  10  22  41  62  88 127 171 209 264 332 388
#
# _framework density 20.166813999999999
#
# number of rings (size 3 to 8) (size 9 to 14) (size 15 to 20)
#    0.000    2.133    1.333    3.600    0.933    4.800 
#    4.800    2.000    0.000    0.000    0.000    0.000 
#    0.000    0.000    0.000    0.000    0.000    0.000 
#
# Total GULP energy -371674.476290 kJ/mol
# GULP energy per Si atom -12389.149210 kJ/mol
# Density = 2.012091 g / cm^3
# Si number density = 20.166814 Si / 1000 Ang^3
#
#
#
# Elastic Constant Matrix: (Units=GPa)
#
#
# Indices 1 2 3 4 5 6 
#
# 1 75.3218 16.8635 29.4293 0.0000 0.0000 0.0000
# 2 16.8635 97.2364 21.8921 0.0000 0.0000 0.0000
# 3 29.4293 21.8921 51.0518 0.0000 0.0000 0.0000
# 4 0.0000 0.0000 0.0000 25.1077 0.0000 0.0000
# 5 0.0000 0.0000 0.0000 0.0000 32.5519 0.0000
# 6 0.0000 0.0000 0.0000 0.0000 0.0000 26.2040
#
#
#
# Elastic Compliance Matrix: (Units=1/GPa)
#
#
# Indices 1 2 3 4 5 6 
#
# 1 0.017196 -0.000831 -0.009557 0.000000 0.000000 0.000000
# 2 -0.000831 0.011423 -0.004420 0.000000 0.000000 0.000000
# 3 -0.009557 -0.004420 0.026992 0.000000 0.000000 0.000000
# 4 0.000000 0.000000 0.000000 0.039828 0.000000 0.000000
# 5 0.000000 0.000000 0.000000 0.000000 0.030720 0.000000
# 6 0.000000 0.000000 0.000000 0.000000 0.000000 0.038162
#
#
# Mechanical properties :
#
#
# Convention : Reuss Voigt Hill
#
# Bulk Modulus (GPa) = 38.46503 39.99775 39.23139
# Shear Modulus (GPa) = 24.67882 27.13440 25.90661
#
# Velocity S-wave (km/s) = 3.50199 3.67208 3.58804
# Velocity P-wave (km/s) = 5.95539 6.15268 6.05484
#
# Compressibility (1/GPa) = 0.02599764
#
# Stress axis : x y z
#
# Youngs Moduli (GPa) = 58.15206 87.54004 37.04758
#
# Poissons Ratio (x) = 0.07272 0.35405
# Poissons Ratio (y) = 0.04831 0.16374
# Poissons Ratio (z) = 0.55574 0.38690
#
# Static dielectric constant tensor:
#      x y z
#    x 3.625720 0.000000 0.000000 
#    y 0.000000 3.984660 0.000000 
#    z 0.000000 0.000000 3.580250 
# 
# 
# High freq. dielectric constant tensor:
#      x y z
#    x 1.773700 0.000000 0.000000 
#    y 0.000000 1.804500 0.000000 
#    z 0.000000 0.000000 1.776410 
# 
# From -- ./inp_files/38397.got.cif
#   From: 2010.03.12/outbox.cif.g09.slc.cpg/sg24_20_cif.got.tgz:38397.got - 2010.04.14 03:06:53.
