data_PCOD8165955
_publ_section_title
;
Structure prediction by ZEFSAII (Michael W. Deem and Ramdas Pophale) SiO2 
 PCOD8165955
Probable space group: I 21 21 21
;
_chemical_formula_sum "Si O2"
_cell_formula_units_Z 40
_cell_length_a 5.455718
_cell_length_b 22.891734
_cell_length_c 13.496334
_cell_angle_alpha 90.000000
_cell_angle_beta 90.000000
_cell_angle_gamma 90.000000
_cell_volume 1685.568561
_symmetry_space_group_name_H-M "I 21 21 21"
_symmetry_group_IT_number 24
_symmetry_cell_setting 'orthorhombic'
loop_
_space_group_symop_operation_xyz
x,y,z
-x,1/2-y,z
x,-y,1/2-z
1/2-x,y,-z
1/2+x,1/2+y,1/2+z
1/2-x,-y,1/2+z
1/2+x,1/2-y,-z
-x,1/2+y,1/2-z
loop_
_atom_site_type_symbol
_atom_site_label
_atom_site_fract_x
_atom_site_fract_y
_atom_site_fract_z
Si Si1 0.750000 0.122449 0.500000
Si Si2 0.643322 0.807042 0.192227
Si Si3 0.556341 0.467387 0.849370
Si Si4 0.000000 0.250000 0.164899
Si Si5 0.842730 0.648656 0.633540
Si Si6 0.250000 0.407755 0.000000
Si Si7 0.750000 0.550170 0.000000
O O1 0.753448 0.161092 0.402109
O O2 0.498997 0.086685 0.499491
O O3 0.500000 0.750000 0.154153
O O4 0.866033 0.795297 0.264978
O O5 0.468425 0.845870 0.259924
O O6 0.471192 0.500000 0.750000
O O7 0.666668 0.403662 0.837917
O O8 0.316510 0.453878 0.914264
O O9 0.751751 0.509080 0.903525
O O10 0.806013 0.291096 0.103992
O O11 0.026083 0.633593 0.540537
#
# Coordination Sequence:
#
# PCOD8165955 Si02
#       7
#     4   8   8   4   8   4   4
#     4  12  29  45  76 122 163 206 267 326 402 482
#     4  10  25  45  79 109 156 205 258 323 400 472
#     4  12  27  48  78 110 164 206 261 328 404 488
#     4  10  24  48  76 110 148 204 262 320 400 470
#     4  11  24  49  78 108 155 205 263 328 398 486
#     4  12  25  48  80 113 155 208 263 330 406 490
#     4  12  28  49  72 123 154 212 274 322 408 488
#
# _framework density 23.730862999999999
#
# number of rings (size 3 to 8) (size 9 to 14) (size 15 to 20)
#    0.000    0.800    2.000    3.000   12.600    0.800 
#    0.000    0.000   99.000    0.000    0.000    0.000 
#    0.000    0.000    0.000    0.000    0.000    0.000 
#
# Total GULP energy -247844.881133 kJ/mol
# GULP energy per Si atom -12392.244057 kJ/mol
# Density = 2.367685 g / cm^3
# Si number density = 23.730863 Si / 1000 Ang^3
#
#
#
# Elastic Constant Matrix: (Units=GPa)
#
#
# Indices 1 2 3 4 5 6 
#
# 1 137.8020 65.6175 52.5588 0.0000 0.0000 0.0000
# 2 65.6175 137.6996 80.6545 0.0000 0.0000 0.0000
# 3 52.5588 80.6545 153.1980 0.0000 0.0000 0.0001
# 4 0.0000 0.0000 0.0000 75.1136 0.0000 0.0000
# 5 0.0000 0.0000 0.0000 0.0000 42.5502 0.0000
# 6 0.0000 0.0000 0.0001 0.0000 0.0000 0.2817
#
#
#
# Elastic Compliance Matrix: (Units=1/GPa)
#
#
# Indices 1 2 3 4 5 6 
#
# 1 0.009556 -0.003807 -0.001274 0.000000 0.000000 0.000001
# 2 -0.003807 0.012017 -0.005020 0.000000 0.000000 0.000002
# 3 -0.001274 -0.005020 0.009608 0.000000 0.000000 -0.000005
# 4 0.000000 0.000000 0.000000 0.013313 0.000000 -0.000001
# 5 0.000000 0.000000 0.000000 0.000000 0.023502 -0.000001
# 6 0.000001 0.000002 -0.000005 -0.000001 -0.000001 3.549902
#
#
# Mechanical properties :
#
#
# Convention : Reuss Voigt Hill
#
# Bulk Modulus (GPa) = 91.09919 91.81792 91.45856
# Shear Modulus (GPa) = 1.37296 38.91369 20.14333
#
# Velocity S-wave (km/s) = 0.76145 4.05383 2.91662
# Velocity P-wave (km/s) = 6.26458 7.79017 7.06865
#
# Compressibility (1/GPa) = 0.01097705
#
# Stress axis : x y z
#
# Youngs Moduli (GPa) = 104.65064 83.21460 104.08365
#
# Poissons Ratio (x) = 0.31683 0.13259
# Poissons Ratio (y) = 0.39844 0.52255
# Poissons Ratio (z) = 0.13331 0.41778
#
# Static dielectric constant tensor:
#      x y z
#    x 4.274860 0.000000 0.000000 
#    y 0.000000 4.513880 0.000000 
#    z 0.000000 0.000000 4.428070 
# 
# 
# High freq. dielectric constant tensor:
#      x y z
#    x 1.954020 0.000000 0.000000 
#    y 0.000000 1.956560 0.000000 
#    z 0.000000 0.000000 1.939110 
# 
# From -- ./inp_files/23760.got.cif
#   From: 2010.03.12/outbox.cif.g09.slc.cpg/sg24_12_cif.got.tgz:23760.got - 2010.04.14 03:06:53.
