data_PCOD8165495
_publ_section_title
;
Structure prediction by ZEFSAII (Michael W. Deem and Ramdas Pophale) SiO2 
 PCOD8165495
Probable space group: I 21 21 21
;
_chemical_formula_sum "Si O2"
_cell_formula_units_Z 56
_cell_length_a 8.823813
_cell_length_b 20.560037
_cell_length_c 14.660137
_cell_angle_alpha 90.000000
_cell_angle_beta 90.000000
_cell_angle_gamma 90.000000
_cell_volume 2659.611587
_symmetry_space_group_name_H-M "I 21 21 21"
_symmetry_group_IT_number 24
_symmetry_cell_setting 'orthorhombic'
loop_
_space_group_symop_operation_xyz
x,y,z
-x,1/2-y,z
x,-y,1/2-z
1/2-x,y,-z
1/2+x,1/2+y,1/2+z
1/2-x,-y,1/2+z
1/2+x,1/2-y,-z
-x,1/2+y,1/2-z
loop_
_atom_site_type_symbol
_atom_site_label
_atom_site_fract_x
_atom_site_fract_y
_atom_site_fract_z
Si Si1 0.574200 0.926238 0.477184
Si Si2 0.938419 0.924820 0.731424
Si Si3 0.595077 0.311240 0.736270
Si Si4 0.546105 0.440524 0.535387
Si Si5 0.400358 0.810324 0.557793
Si Si6 0.620207 0.927430 0.792016
Si Si7 0.682315 0.613669 0.129839
O O1 0.750000 0.938313 0.500000
O O2 0.553828 0.903272 0.373404
O O3 0.505402 0.873876 0.546516
O O4 0.476038 0.991737 0.484183
O O5 0.784039 0.895339 0.773239
O O6 0.090332 0.901919 0.779490
O O7 0.919656 0.000000 0.750000
O O8 0.500000 0.250000 0.699731
O O9 0.654349 0.297624 0.838358
O O10 0.501314 0.377775 0.748768
O O11 0.726709 0.321039 0.659440
O O12 0.398716 0.428839 0.597980
O O13 0.570998 0.382823 0.459037
O O14 0.694248 0.442100 0.602044
O O15 0.500000 0.750000 0.522451
O O16 0.250000 0.817863 0.500000
O O17 0.597796 0.000000 0.750000
#
# Coordination Sequence:
#
# PCOD8165495 Si02
#       7
#     8   8   8   8   8   8   8
#     4  12  23  38  61  94 132 173 217 272 338 404
#     4  11  21  36  59  94 131 162 216 269 327 399
#     4  10  22  43  65  88 127 177 224 269 332 406
#     4  10  22  38  60  89 128 163 212 269 337 392
#     4  11  24  40  61  90 130 177 224 273 335 404
#     4  10  21  39  63  94 125 171 213 273 337 397
#     4  10  22  39  59  92 124 164 213 274 321 391
#
# _framework density 21.055705
#
# number of rings (size 3 to 8) (size 9 to 14) (size 15 to 20)
#    0.000    1.429    1.429    4.714    2.000    4.571 
#    0.000    0.714    0.000   20.571    0.000    0.000 
#    0.000    0.000    0.000    0.000    0.000    0.000 
#
# Total GULP energy -346969.314159 kJ/mol
# GULP energy per Si atom -12391.761220 kJ/mol
# Density = 2.100778 g / cm^3
# Si number density = 21.055705 Si / 1000 Ang^3
#
#
#
# Elastic Constant Matrix: (Units=GPa)
#
#
# Indices 1 2 3 4 5 6 
#
# 1 86.4884 24.4826 59.6783 0.0000 0.0000 0.0000
# 2 24.4826 69.5904 35.5253 0.0000 0.0000 0.0000
# 3 59.6783 35.5253 149.2083 0.0001 -0.0001 0.0002
# 4 0.0000 0.0000 0.0001 25.7214 0.0000 0.0001
# 5 0.0000 0.0000 -0.0001 0.0000 34.5623 0.0000
# 6 0.0000 0.0000 0.0002 0.0001 0.0000 16.4274
#
#
#
# Elastic Compliance Matrix: (Units=1/GPa)
#
#
# Indices 1 2 3 4 5 6 
#
# 1 0.016422 -0.002760 -0.005911 0.000000 0.000000 0.000000
# 2 -0.002760 0.016822 -0.002901 0.000000 0.000000 0.000000
# 3 -0.005911 -0.002901 0.009757 0.000000 0.000000 0.000000
# 4 0.000000 0.000000 0.000000 0.038878 0.000000 0.000000
# 5 0.000000 0.000000 0.000000 0.000000 0.028933 0.000000
# 6 0.000000 0.000000 0.000000 0.000000 0.000000 0.060874
#
#
# Mechanical properties :
#
#
# Convention : Reuss Voigt Hill
#
# Bulk Modulus (GPa) = 50.36154 60.51772 55.43963
# Shear Modulus (GPa) = 24.82001 27.71562 26.26782
#
# Velocity S-wave (km/s) = 3.43706 3.63202 3.53588
# Velocity P-wave (km/s) = 6.30249 6.81123 6.56179
#
# Compressibility (1/GPa) = 0.01985642
#
# Stress axis : x y z
#
# Youngs Moduli (GPa) = 60.89260 59.44653 102.48920
#
# Poissons Ratio (x) = 0.16407 0.60584
# Poissons Ratio (y) = 0.16806 0.29735
# Poissons Ratio (z) = 0.35995 0.17247
#
# Static dielectric constant tensor:
#      x y z
#    x 4.354850 0.000000 0.000000 
#    y 0.000000 3.580130 0.000000 
#    z 0.000000 0.000000 4.128740 
# 
# 
# High freq. dielectric constant tensor:
#      x y z
#    x 1.833750 0.000000 0.000000 
#    y 0.000000 1.786630 0.000000 
#    z 0.000000 0.000000 1.840590 
# 
# From -- ./inp_files/25060.got.cif
#   From: 2010.03.12/outbox.cif.g09.slc.cpg/sg24_13_cif.got.tgz:25060.got - 2010.04.14 03:06:53.
