data_PCOD8165671
_publ_section_title
;
Structure prediction by ZEFSAII (Michael W. Deem and Ramdas Pophale) SiO2 
 PCOD8165671
Probable space group: I 21 21 21
;
_chemical_formula_sum "Si O2"
_cell_formula_units_Z 44
_cell_length_a 13.161021
_cell_length_b 17.665720
_cell_length_c 9.345630
_cell_angle_alpha 90.000000
_cell_angle_beta 90.000000
_cell_angle_gamma 90.000000
_cell_volume 2172.848806
_symmetry_space_group_name_H-M "I 21 21 21"
_symmetry_group_IT_number 24
_symmetry_cell_setting 'orthorhombic'
loop_
_space_group_symop_operation_xyz
x,y,z
-x,1/2-y,z
x,-y,1/2-z
1/2-x,y,-z
1/2+x,1/2+y,1/2+z
1/2-x,-y,1/2+z
1/2+x,1/2-y,-z
-x,1/2+y,1/2-z
loop_
_atom_site_type_symbol
_atom_site_label
_atom_site_fract_x
_atom_site_fract_y
_atom_site_fract_z
Si Si1 0.000000 0.750000 0.200407
Si Si2 0.962821 0.360564 0.047576
Si Si3 0.870177 0.833228 0.988979
Si Si4 0.939365 0.990077 0.092133
Si Si5 0.374023 0.687215 0.338216
Si Si6 0.750000 0.306349 0.000000
Si Si7 0.250000 0.566344 0.500000
O O1 0.994727 0.674394 0.298284
O O2 0.902325 0.765335 0.097343
O O3 0.993489 0.447056 0.009813
O O4 0.841274 0.358986 0.051480
O O5 0.019883 0.309600 0.927027
O O6 0.899755 0.810498 0.828551
O O7 0.750000 0.849147 0.000000
O O8 0.941452 0.906089 0.026336
O O9 0.984049 0.000000 0.250000
O O10 0.822360 0.014796 0.094905
O O11 0.297324 0.755787 0.373409
O O12 0.312501 0.612788 0.382609
#
# Coordination Sequence:
#
# PCOD8165671 Si02
#       7
#     4   8   8   8   8   4   4
#     4  12  24  42  62 100 132 162 210 262 326 394
#     4  11  23  40  65  91 122 170 216 258 319 388
#     4  12  25  40  67  97 132 165 214 269 334 376
#     4  11  21  38  61  90 129 164 203 266 329 383
#     4  10  22  38  65  96 122 164 214 271 316 383
#     4  11  20  40  68  86 127 168 224 252 323 390
#     4   9  20  32  60  92 125 154 208 254 327 384
#
# _framework density 20.249914
#
# number of rings (size 3 to 8) (size 9 to 14) (size 15 to 20)
#    0.000    1.091    4.545    2.182    5.091    2.182 
#    0.000    0.000    6.000    0.000    0.000    0.000 
#    0.000    0.000    0.000    0.000    0.000    0.000 
#
# Total GULP energy -272546.257656 kJ/mol
# GULP energy per Si atom -12388.466257 kJ/mol
# Density = 2.020382 g / cm^3
# Si number density = 20.249914 Si / 1000 Ang^3
#
#
#
# Elastic Constant Matrix: (Units=GPa)
#
#
# Indices 1 2 3 4 5 6 
#
# 1 122.7620 25.0891 36.2926 0.0000 0.0000 0.0000
# 2 25.0891 75.2445 23.5886 0.0000 0.0000 0.0000
# 3 36.2926 23.5886 134.2834 0.0000 0.0000 0.0000
# 4 0.0000 0.0000 0.0000 19.5566 0.0000 0.0000
# 5 0.0000 0.0000 0.0000 0.0000 27.4462 0.0000
# 6 0.0000 0.0000 0.0000 0.0000 0.0000 29.2193
#
#
#
# Elastic Compliance Matrix: (Units=1/GPa)
#
#
# Indices 1 2 3 4 5 6 
#
# 1 0.009257 -0.002436 -0.002074 0.000000 0.000000 0.000000
# 2 -0.002436 0.014706 -0.001925 0.000000 0.000000 0.000000
# 3 -0.002074 -0.001925 0.008346 0.000000 0.000000 0.000000
# 4 0.000000 0.000000 0.000000 0.051134 0.000000 0.000000
# 5 0.000000 0.000000 0.000000 0.000000 0.036435 0.000000
# 6 0.000000 0.000000 0.000000 0.000000 0.000000 0.034224
#
#
# Mechanical properties :
#
#
# Convention : Reuss Voigt Hill
#
# Bulk Modulus (GPa) = 51.44531 55.80340 53.62436
# Shear Modulus (GPa) = 28.82670 31.73238 30.27954
#
# Velocity S-wave (km/s) = 3.77708 3.96288 3.87110
# Velocity P-wave (km/s) = 6.66950 6.96824 6.82050
#
# Compressibility (1/GPa) = 0.01943812
#
# Stress axis : x y z
#
# Youngs Moduli (GPa) = 108.02769 68.00035 119.82439
#
# Poissons Ratio (x) = 0.16568 0.24850
# Poissons Ratio (y) = 0.26320 0.23063
# Poissons Ratio (z) = 0.22403 0.13088
#
# Static dielectric constant tensor:
#      x y z
#    x 3.669190 0.000000 0.000000 
#    y 0.000000 3.603080 0.000000 
#    z 0.000000 0.000000 3.641350 
# 
# 
# High freq. dielectric constant tensor:
#      x y z
#    x 1.779380 0.000000 0.000000 
#    y 0.000000 1.784940 0.000000 
#    z 0.000000 0.000000 1.785880 
# 
# From -- ./inp_files/12721.got.cif
#   From: 2010.03.12/outbox.cif.g09.slc.cpg/sg24_7_cif.got.tgz:12721.got - 2010.04.14 03:06:53.
