data_PCOD8165554
_publ_section_title
;
Structure prediction by ZEFSAII (Michael W. Deem and Ramdas Pophale) SiO2 
 PCOD8165554
Probable space group: I 21 21 21
;
_chemical_formula_sum "Si O2"
_cell_formula_units_Z 56
_cell_length_a 20.337687
_cell_length_b 13.653828
_cell_length_c 10.046048
_cell_angle_alpha 90.000000
_cell_angle_beta 90.000000
_cell_angle_gamma 90.000000
_cell_volume 2789.659746
_symmetry_space_group_name_H-M "I 21 21 21"
_symmetry_group_IT_number 24
_symmetry_cell_setting 'orthorhombic'
loop_
_space_group_symop_operation_xyz
x,y,z
-x,1/2-y,z
x,-y,1/2-z
1/2-x,y,-z
1/2+x,1/2+y,1/2+z
1/2-x,-y,1/2+z
1/2+x,1/2-y,-z
-x,1/2+y,1/2-z
loop_
_atom_site_type_symbol
_atom_site_label
_atom_site_fract_x
_atom_site_fract_y
_atom_site_fract_z
Si Si1 0.750000 0.912814 0.500000
Si Si2 0.177471 0.719226 0.702695
Si Si3 0.576187 0.249996 0.992088
Si Si4 0.789688 0.296168 0.374393
Si Si5 0.621535 0.037783 0.893316
Si Si6 0.500000 0.750000 0.923241
Si Si7 0.622311 0.846956 0.026549
Si Si8 0.085714 0.114079 0.254828
O O1 0.798856 0.851985 0.589408
O O2 0.701362 0.971964 0.596900
O O3 0.117686 0.774869 0.626838
O O4 0.238606 0.785628 0.751421
O O5 0.151380 0.657256 0.826571
O O6 0.500000 0.250000 0.032462
O O7 0.592947 0.145342 0.922461
O O8 0.592866 0.337027 0.890007
O O9 0.750000 0.340295 0.500000
O O10 0.823995 0.192657 0.417542
O O11 0.845746 0.372313 0.333146
O O12 0.598256 0.000000 0.750000
O O13 0.597626 0.957275 0.000165
O O14 0.523530 0.662022 0.828435
O O15 0.558744 0.778883 0.020356
O O16 0.069853 0.000000 0.250000
#
# Coordination Sequence:
#
# PCOD8165554 Si02
#       8
#     4   8   8   8   8   4   8   8
#     4  10  22  32  56  92 126 154 200 244 318 384
#     4  10  21  41  62  89 130 165 203 256 325 371
#     4  11  25  40  60  91 126 167 207 259 311 377
#     4   9  19  40  64  93 121 157 206 261 313 374
#     4  11  23  36  62  95 124 162 205 259 316 379
#     4  10  22  40  62  92 118 162 214 258 320 364
#     4  10  22  36  67  92 124 169 205 258 312 384
#     4  11  23  41  67  90 122 166 219 261 319 386
#
# _framework density 20.074131999999999
#
# number of rings (size 3 to 8) (size 9 to 14) (size 15 to 20)
#    0.000    1.714    0.714    4.286    8.000    1.714 
#    2.571    0.000    0.000    0.000    0.000    0.000 
#    0.000    0.000    0.000    0.000    0.000    0.000 
#
# Total GULP energy -347037.221648 kJ/mol
# GULP energy per Si atom -12394.186487 kJ/mol
# Density = 2.002844 g / cm^3
# Si number density = 20.074132 Si / 1000 Ang^3
#
#
#
# Elastic Constant Matrix: (Units=GPa)
#
#
# Indices 1 2 3 4 5 6 
#
# 1 124.0425 32.7213 42.5035 0.0000 0.0000 0.0000
# 2 32.7213 116.1834 35.2374 0.0000 0.0000 0.0000
# 3 42.5035 35.2374 92.9389 0.0000 0.0000 0.0000
# 4 0.0000 0.0000 0.0000 26.3610 0.0000 0.0000
# 5 0.0000 0.0000 0.0000 0.0000 33.5961 0.0000
# 6 0.0000 0.0000 0.0000 0.0000 0.0000 23.5414
#
#
#
# Elastic Compliance Matrix: (Units=1/GPa)
#
#
# Indices 1 2 3 4 5 6 
#
# 1 0.009811 -0.001585 -0.003886 0.000000 0.000000 0.000000
# 2 -0.001585 0.009981 -0.003060 0.000000 0.000000 0.000000
# 3 -0.003886 -0.003060 0.013697 0.000000 0.000000 0.000000
# 4 0.000000 0.000000 0.000000 0.037935 0.000000 0.000000
# 5 0.000000 0.000000 0.000000 0.000000 0.029765 0.000000
# 6 0.000000 0.000000 0.000000 0.000000 0.000000 0.042478
#
#
# Mechanical properties :
#
#
# Convention : Reuss Voigt Hill
#
# Bulk Modulus (GPa) = 60.86871 61.56547 61.21709
# Shear Modulus (GPa) = 30.08321 31.54654 30.81487
#
# Velocity S-wave (km/s) = 3.87538 3.96852 3.92223
# Velocity P-wave (km/s) = 7.10018 7.19267 7.14657
#
# Compressibility (1/GPa) = 0.01642880
#
# Stress axis : x y z
#
# Youngs Moduli (GPa) = 101.92244 100.18702 73.00805
#
# Poissons Ratio (x) = 0.15875 0.28373
# Poissons Ratio (y) = 0.16150 0.22338
# Poissons Ratio (z) = 0.39609 0.30654
#
# Static dielectric constant tensor:
#      x y z
#    x 3.973060 0.000000 0.000000 
#    y 0.000000 3.375260 0.000000 
#    z 0.000000 0.000000 3.770890 
# 
# 
# High freq. dielectric constant tensor:
#      x y z
#    x 1.805320 0.000000 0.000000 
#    y 0.000000 1.750600 0.000000 
#    z 0.000000 0.000000 1.784110 
# 
# From -- ./inp_files/15278.got.cif
#   From: 2010.03.12/outbox.cif.g09.slc.cpg/sg24_8_cif.got.tgz:15278.got - 2010.04.14 03:06:53.
