data_PCOD8165038
_publ_section_title
;
Structure prediction by ZEFSAII (Michael W. Deem and Ramdas Pophale) SiO2 
 PCOD8165038
Probable space group: I 21 21 21
;
_chemical_formula_sum "Si O2"
_cell_formula_units_Z 40
_cell_length_a 7.087294
_cell_length_b 14.373561
_cell_length_c 17.277086
_cell_angle_alpha 90.000000
_cell_angle_beta 90.000000
_cell_angle_gamma 90.000000
_cell_volume 1760.010749
_symmetry_space_group_name_H-M "I 21 21 21"
_symmetry_group_IT_number 24
_symmetry_cell_setting 'orthorhombic'
loop_
_space_group_symop_operation_xyz
x,y,z
-x,1/2-y,z
x,-y,1/2-z
1/2-x,y,-z
1/2+x,1/2+y,1/2+z
1/2-x,-y,1/2+z
1/2+x,1/2-y,-z
-x,1/2+y,1/2-z
loop_
_atom_site_type_symbol
_atom_site_label
_atom_site_fract_x
_atom_site_fract_y
_atom_site_fract_z
Si Si1 0.092893 0.500000 0.250000
Si Si2 0.750000 0.874404 0.000000
Si Si3 0.090716 0.046612 0.407081
Si Si4 0.750000 0.388141 0.000000
Si Si5 0.000000 0.750000 0.584447
Si Si6 0.797577 0.201923 0.211661
Si Si7 0.775876 0.733578 0.124280
O O1 0.208447 0.410460 0.220183
O O2 0.969803 0.458245 0.318586
O O3 0.670098 0.807325 0.068671
O O4 0.917375 0.937731 0.033480
O O5 0.249316 0.128678 0.408141
O O6 0.190474 0.950982 0.427574
O O7 0.569058 0.330479 0.027182
O O8 0.824839 0.780124 0.636301
O O9 0.704330 0.249215 0.288108
O O10 0.000000 0.250000 0.196494
O O11 0.000000 0.750000 0.121204
#
# Coordination Sequence:
#
# PCOD8165038 Si02
#       7
#     4   4   8   4   4   8   8
#     4  12  22  42  82 100 144 198 242 306 372 442
#     4  10  19  39  70 106 144 188 230 289 373 432
#     4  11  24  44  72 108 144 194 242 303 374 441
#     4  12  31  49  72 106 144 196 254 309 371 450
#     4  12  32  52  72 106 146 198 252 310 364 448
#     4  11  23  50  73 109 147 192 244 302 373 436
#     4   9  18  41  68 105 148 186 227 301 373 419
#
# _framework density 22.727135000000001
#
# number of rings (size 3 to 8) (size 9 to 14) (size 15 to 20)
#    0.000    1.200    6.000    1.800    7.000    0.000 
#   12.600    0.000    0.000    0.000    0.000    0.000 
#    0.000    0.000    0.000    0.000    0.000    0.000 
#
# Total GULP energy -247940.868353 kJ/mol
# GULP energy per Si atom -12397.043418 kJ/mol
# Density = 2.267541 g / cm^3
# Si number density = 22.727135 Si / 1000 Ang^3
#
#
#
# Elastic Constant Matrix: (Units=GPa)
#
#
# Indices 1 2 3 4 5 6 
#
# 1 67.5083 42.4887 32.8996 0.0000 0.0000 0.0000
# 2 42.4887 161.9663 29.4105 0.0000 0.0000 0.0000
# 3 32.8996 29.4105 105.4715 0.0000 0.0000 0.0000
# 4 0.0000 0.0000 0.0000 44.6655 0.0000 0.0000
# 5 0.0000 0.0000 0.0000 0.0000 26.3875 0.0000
# 6 0.0000 0.0000 0.0000 0.0000 0.0000 28.9559
#
#
#
# Elastic Compliance Matrix: (Units=1/GPa)
#
#
# Indices 1 2 3 4 5 6 
#
# 1 0.019989 -0.004331 -0.005027 0.000000 0.000000 0.000000
# 2 -0.004331 0.007442 -0.000724 0.000000 0.000000 0.000000
# 3 -0.005027 -0.000724 0.011251 0.000000 0.000000 0.000000
# 4 0.000000 0.000000 0.000000 0.022389 0.000000 0.000000
# 5 0.000000 0.000000 0.000000 0.000000 0.037897 0.000000
# 6 0.000000 0.000000 0.000000 0.000000 0.000000 0.034535
#
#
# Mechanical properties :
#
#
# Convention : Reuss Voigt Hill
#
# Bulk Modulus (GPa) = 54.00435 60.50486 57.25460
# Shear Modulus (GPa) = 31.28135 35.34496 33.31316
#
# Velocity S-wave (km/s) = 3.71400 3.94786 3.83271
# Velocity P-wave (km/s) = 6.49656 6.88919 6.69575
#
# Compressibility (1/GPa) = 0.01851703
#
# Stress axis : x y z
#
# Youngs Moduli (GPa) = 50.02805 134.37748 88.87792
#
# Poissons Ratio (x) = 0.58196 0.44683
# Poissons Ratio (y) = 0.21666 0.06437
# Poissons Ratio (z) = 0.25151 0.09732
#
# Static dielectric constant tensor:
#      x y z
#    x 3.816160 0.000000 0.000000 
#    y 0.000000 4.601720 0.000000 
#    z 0.000000 0.000000 4.316480 
# 
# 
# High freq. dielectric constant tensor:
#      x y z
#    x 1.864800 0.000000 0.000000 
#    y 0.000000 1.911240 0.000000 
#    z 0.000000 0.000000 1.916130 
# 
# From -- ./inp_files/24576.got.cif
#   From: 2010.03.12/outbox.cif.g09.slc.cpg/sg24_13_cif.got.tgz:24576.got - 2010.04.14 03:06:53.
