data_PCOD8165952
_publ_section_title
;
Structure prediction by ZEFSAII (Michael W. Deem and Ramdas Pophale) SiO2 
 PCOD8165952
Probable space group: I 21 21 21
;
_chemical_formula_sum "Si O2"
_cell_formula_units_Z 56
_cell_length_a 15.256996
_cell_length_b 13.600507
_cell_length_c 12.465803
_cell_angle_alpha 90.000000
_cell_angle_beta 90.000000
_cell_angle_gamma 90.000000
_cell_volume 2586.690035
_symmetry_space_group_name_H-M "I 21 21 21"
_symmetry_group_IT_number 24
_symmetry_cell_setting 'orthorhombic'
loop_
_space_group_symop_operation_xyz
x,y,z
-x,1/2-y,z
x,-y,1/2-z
1/2-x,y,-z
1/2+x,1/2+y,1/2+z
1/2-x,-y,1/2+z
1/2+x,1/2-y,-z
-x,1/2+y,1/2-z
loop_
_atom_site_type_symbol
_atom_site_label
_atom_site_fract_x
_atom_site_fract_y
_atom_site_fract_z
Si Si1 0.639592 0.303422 0.740823
Si Si2 0.797268 0.317775 0.890087
Si Si3 0.432616 0.020907 0.129335
Si Si4 0.099815 0.636791 0.571586
Si Si5 0.869717 0.912457 0.168327
Si Si6 0.035474 0.142030 0.458013
Si Si7 0.750000 0.006746 0.500000
Si Si8 0.000000 0.250000 0.107136
O O1 0.729909 0.342514 0.792901
O O2 0.643695 0.186077 0.734819
O O3 0.618721 0.349871 0.623896
O O4 0.557538 0.324795 0.819817
O O5 0.855512 0.412212 0.919379
O O6 0.860021 0.225981 0.856864
O O7 0.750000 0.285600 0.000000
O O8 0.523023 0.081345 0.134531
O O9 0.404947 0.000000 0.250000
O O10 0.436310 0.919548 0.062237
O O11 0.173838 0.558766 0.548091
O O12 0.063265 0.681212 0.461423
O O13 0.958013 0.916643 0.099001
O O14 0.874098 0.000000 0.250000
O O15 0.785798 0.922344 0.092127
O O16 0.000000 0.250000 0.491803
#
# Coordination Sequence:
#
# PCOD8165952 Si02
#       8
#     8   8   8   8   8   8   4   4
#     4  11  23  42  72 105 138 188 238 298 358 414
#     4  12  24  43  70 106 144 180 238 296 353 430
#     4  12  28  47  69  98 144 197 237 284 365 440
#     4  12  22  41  70 106 142 181 228 299 353 430
#     4  11  22  40  67 104 141 177 232 294 357 413
#     4  10  24  47  73 100 135 188 249 299 353 422
#     4  12  24  38  66 108 140 178 232 292 354 426
#     4  12  18  40  74 104 136 178 230 282 366 412
#
# _framework density 21.649287999999999
#
# number of rings (size 3 to 8) (size 9 to 14) (size 15 to 20)
#    0.000    0.571    7.143    1.714    0.000    5.143 
#    5.143    0.000    0.000    0.000    0.000    0.000 
#    0.000    0.000    0.000    0.000    0.000    0.000 
#
# Total GULP energy -347266.934517 kJ/mol
# GULP energy per Si atom -12402.390518 kJ/mol
# Density = 2.160001 g / cm^3
# Si number density = 21.649288 Si / 1000 Ang^3
#
#
#
# Elastic Constant Matrix: (Units=GPa)
#
#
# Indices 1 2 3 4 5 6 
#
# 1 121.2466 47.3231 37.1965 0.0000 0.0000 0.0000
# 2 47.3231 72.6242 41.7264 0.0000 0.0000 0.0000
# 3 37.1965 41.7264 97.1799 0.0000 0.0000 0.0000
# 4 0.0000 0.0000 0.0000 31.2902 0.0000 0.0000
# 5 0.0000 0.0000 0.0000 0.0000 7.6996 0.0000
# 6 0.0000 0.0000 0.0000 0.0000 0.0000 28.2005
#
#
#
# Elastic Compliance Matrix: (Units=1/GPa)
#
#
# Indices 1 2 3 4 5 6 
#
# 1 0.011231 -0.006436 -0.001535 0.000000 0.000000 0.000000
# 2 -0.006436 0.021967 -0.006969 0.000000 0.000000 0.000000
# 3 -0.001535 -0.006969 0.013870 0.000000 0.000000 0.000000
# 4 0.000000 0.000000 0.000000 0.031959 0.000000 0.000000
# 5 0.000000 0.000000 0.000000 0.000000 0.129877 0.000000
# 6 0.000000 0.000000 0.000000 0.000000 0.000000 0.035460
#
#
# Mechanical properties :
#
#
# Convention : Reuss Voigt Hill
#
# Bulk Modulus (GPa) = 58.17997 60.39363 59.28680
# Shear Modulus (GPa) = 17.85886 24.42503 21.14195
#
# Velocity S-wave (km/s) = 2.87525 3.36253 3.12839
# Velocity P-wave (km/s) = 6.16076 6.55991 6.36347
#
# Compressibility (1/GPa) = 0.01718805
#
# Stress axis : x y z
#
# Youngs Moduli (GPa) = 89.04220 45.52249 72.09832
#
# Poissons Ratio (x) = 0.29298 0.11068
# Poissons Ratio (y) = 0.57308 0.50243
# Poissons Ratio (z) = 0.13670 0.31723
#
# Static dielectric constant tensor:
#      x y z
#    x 4.197500 0.000000 0.000000 
#    y 0.000000 4.083410 0.000000 
#    z 0.000000 0.000000 3.829130 
# 
# 
# High freq. dielectric constant tensor:
#      x y z
#    x 1.861550 0.000000 0.000000 
#    y 0.000000 1.848680 0.000000 
#    z 0.000000 0.000000 1.838220 
# 
# From -- ./inp_files/20888.got.cif
#   From: 2010.03.12/outbox.cif.g09.slc.cpg/sg24_11_cif.got.tgz:20888.got - 2010.04.14 03:06:53.
