data_PCOD8165637
_publ_section_title
;
Structure prediction by ZEFSAII (Michael W. Deem and Ramdas Pophale) SiO2 
 PCOD8165637
Probable space group: I 21 21 21
;
_chemical_formula_sum "Si O2"
_cell_formula_units_Z 64
_cell_length_a 12.989223
_cell_length_b 16.789777
_cell_length_c 14.556352
_cell_angle_alpha 90.000000
_cell_angle_beta 90.000000
_cell_angle_gamma 90.000000
_cell_volume 3174.538876
_symmetry_space_group_name_H-M "I 21 21 21"
_symmetry_group_IT_number 24
_symmetry_cell_setting 'orthorhombic'
loop_
_space_group_symop_operation_xyz
x,y,z
-x,1/2-y,z
x,-y,1/2-z
1/2-x,y,-z
1/2+x,1/2+y,1/2+z
1/2-x,-y,1/2+z
1/2+x,1/2-y,-z
-x,1/2+y,1/2-z
loop_
_atom_site_type_symbol
_atom_site_label
_atom_site_fract_x
_atom_site_fract_y
_atom_site_fract_z
Si Si1 0.034947 0.417164 0.697324
Si Si2 0.052095 0.667592 0.164807
Si Si3 0.326214 0.403356 0.927089
Si Si4 0.767082 0.171427 0.755596
Si Si5 0.979699 0.661577 0.350447
Si Si6 0.593346 0.308292 0.176966
Si Si7 0.364684 0.910260 0.504361
Si Si8 0.462912 0.538248 0.987431
O O1 0.044032 0.500000 0.750000
O O2 0.138384 0.366345 0.702587
O O3 0.023065 0.434218 0.590928
O O4 0.939427 0.365506 0.737708
O O5 0.172360 0.685628 0.186684
O O6 0.035109 0.614421 0.076284
O O7 0.000000 0.750000 0.137642
O O8 0.997414 0.619237 0.251306
O O9 0.268817 0.395096 0.829925
O O10 0.432812 0.355851 0.926252
O O11 0.355854 0.492526 0.961727
O O12 0.250000 0.362939 0.000000
O O13 0.804369 0.256466 0.798873
O O14 0.872923 0.647094 0.404258
O O15 0.000000 0.750000 0.316324
O O16 0.500000 0.250000 0.151506
O O17 0.609939 0.363957 0.088740
O O18 0.250000 0.944149 0.500000
O O19 0.439121 0.982496 0.530421
#
# Coordination Sequence:
#
# PCOD8165637 Si02
#       8
#     8   8   8   8   8   8   8   8
#     4  11  22  43  67  94 137 170 222 280 333 400
#     4  10  24  45  64  93 133 176 227 277 329 406
#     4  10  22  35  60  96 128 164 204 266 335 389
#     4  10  24  39  67 100 130 176 220 272 348 401
#     4   9  21  37  58  91 131 165 211 267 330 386
#     4  10  23  42  64  98 136 170 221 277 340 402
#     4  11  24  39  64  96 127 176 221 270 341 408
#     4  11  25  45  64  95 133 174 224 278 338 394
#
# _framework density 20.160406999999999
#
# number of rings (size 3 to 8) (size 9 to 14) (size 15 to 20)
#    0.000    1.750    1.250    1.125   15.750    5.500 
#    2.250    1.250    0.000    0.000    0.000    0.000 
#    0.000    0.000    0.000    0.000    0.000    0.000 
#
# Total GULP energy -396481.058868 kJ/mol
# GULP energy per Si atom -12390.033090 kJ/mol
# Density = 2.011452 g / cm^3
# Si number density = 20.160407 Si / 1000 Ang^3
#
#
#
# Elastic Constant Matrix: (Units=GPa)
#
#
# Indices 1 2 3 4 5 6 
#
# 1 92.1402 36.8068 38.5424 0.0000 0.0000 0.0000
# 2 36.8068 89.9822 47.8589 0.0001 0.0000 0.0000
# 3 38.5424 47.8589 124.4383 0.0000 0.0000 -0.0001
# 4 0.0000 0.0001 0.0000 33.0249 0.0000 0.0000
# 5 0.0000 0.0000 0.0000 0.0000 15.6424 0.0000
# 6 0.0000 0.0000 -0.0001 0.0000 0.0000 26.0654
#
#
#
# Elastic Compliance Matrix: (Units=1/GPa)
#
#
# Indices 1 2 3 4 5 6 
#
# 1 0.013615 -0.004182 -0.002609 0.000000 0.000000 0.000000
# 2 -0.004182 0.015256 -0.004572 0.000000 0.000000 0.000000
# 3 -0.002609 -0.004572 0.010603 0.000000 0.000000 0.000000
# 4 0.000000 0.000000 0.000000 0.030280 0.000000 0.000000
# 5 0.000000 0.000000 0.000000 0.000000 0.063929 0.000000
# 6 0.000000 0.000000 0.000000 0.000000 0.000000 0.038365
#
#
# Mechanical properties :
#
#
# Convention : Reuss Voigt Hill
#
# Bulk Modulus (GPa) = 59.70840 61.44187 60.57514
# Shear Modulus (GPa) = 24.95585 27.17006 26.06295
#
# Velocity S-wave (km/s) = 3.52215 3.67508 3.59942
# Velocity P-wave (km/s) = 6.79865 6.96785 6.88377
#
# Compressibility (1/GPa) = 0.01674806
#
# Stress axis : x y z
#
# Youngs Moduli (GPa) = 73.45056 65.55005 94.31715
#
# Poissons Ratio (x) = 0.27410 0.24604
# Poissons Ratio (y) = 0.30714 0.43123
# Poissons Ratio (z) = 0.19161 0.29970
#
# Static dielectric constant tensor:
#      x y z
#    x 3.842760 0.000000 0.000000 
#    y 0.000000 3.807660 0.000000 
#    z 0.000000 0.000000 3.700560 
# 
# 
# High freq. dielectric constant tensor:
#      x y z
#    x 1.789450 0.000000 0.000000 
#    y 0.000000 1.778490 0.000000 
#    z 0.000000 0.000000 1.789860 
# 
# From -- ./inp_files/26004.got.cif
#   From: 2010.03.12/outbox.cif.g09.slc.cpg/sg24_14_cif.got.tgz:26004.got - 2010.04.14 03:06:53.
