data_PCOD8165366
_publ_section_title
;
Structure prediction by ZEFSAII (Michael W. Deem and Ramdas Pophale) SiO2 
 PCOD8165366
Probable space group: I 21 21 21
;
_chemical_formula_sum "Si O2"
_cell_formula_units_Z 64
_cell_length_a 18.075193
_cell_length_b 14.859466
_cell_length_c 11.543748
_cell_angle_alpha 90.000000
_cell_angle_beta 90.000000
_cell_angle_gamma 90.000000
_cell_volume 3100.508907
_symmetry_space_group_name_H-M "I 21 21 21"
_symmetry_group_IT_number 24
_symmetry_cell_setting 'orthorhombic'
loop_
_space_group_symop_operation_xyz
x,y,z
-x,1/2-y,z
x,-y,1/2-z
1/2-x,y,-z
1/2+x,1/2+y,1/2+z
1/2-x,-y,1/2+z
1/2+x,1/2-y,-z
-x,1/2+y,1/2-z
loop_
_atom_site_type_symbol
_atom_site_label
_atom_site_fract_x
_atom_site_fract_y
_atom_site_fract_z
Si Si1 0.647849 0.070872 0.345847
Si Si2 0.129614 0.072549 0.658020
Si Si3 0.148139 0.414755 0.009630
Si Si4 0.343879 0.992156 0.910077
Si Si5 0.010933 0.349122 0.547438
Si Si6 0.257427 0.332830 0.175264
Si Si7 0.010260 0.510459 0.380687
Si Si8 0.274405 0.135373 0.762927
O O1 0.583378 0.141794 0.373391
O O2 0.717558 0.128421 0.299571
O O3 0.618544 0.000000 0.250000
O O4 0.670098 0.012762 0.458450
O O5 0.166252 0.026399 0.545152
O O6 0.191148 0.134781 0.715888
O O7 0.059543 0.131503 0.626932
O O8 0.101652 0.000000 0.750000
O O9 0.195664 0.400075 0.125156
O O10 0.061002 0.417746 0.046903
O O11 0.171496 0.336725 0.914958
O O12 0.331806 0.898340 0.837501
O O13 0.424027 0.037825 0.884957
O O14 0.283132 0.065242 0.869213
O O15 0.016290 0.412649 0.437157
O O16 0.000000 0.250000 0.497408
O O17 0.216501 0.236906 0.191035
O O18 0.039279 0.500000 0.250000
#
# Coordination Sequence:
#
# PCOD8165366 Si02
#       8
#     8   8   8   8   8   8   8   8
#     4   9  18  38  65  84 131 171 205 265 327 387
#     4  11  22  36  64  93 125 171 218 254 333 403
#     4   9  21  38  62  93 125 169 221 269 326 398
#     4  10  22  42  65  93 132 172 218 264 346 406
#     4  10  21  38  61  94 126 161 212 276 318 391
#     4  10  21  38  65  96 129 163 223 274 329 384
#     4  10  20  42  67  86 125 174 220 262 339 410
#     4  11  21  39  66  94 128 175 207 281 320 398
#
# _framework density 20.641773000000001
#
# number of rings (size 3 to 8) (size 9 to 14) (size 15 to 20)
#    0.000    2.000    2.500    1.500    0.000    5.500 
#    4.500    0.625   19.250    1.500    0.000    0.000 
#    0.000    0.000    0.000    0.000    0.000    0.000 
#
# Total GULP energy -396552.408774 kJ/mol
# GULP energy per Si atom -12392.262774 kJ/mol
# Density = 2.059479 g / cm^3
# Si number density = 20.641773 Si / 1000 Ang^3
#
#
#
# Elastic Constant Matrix: (Units=GPa)
#
#
# Indices 1 2 3 4 5 6 
#
# 1 112.0567 49.3582 42.0562 0.0000 0.0000 0.0000
# 2 49.3582 109.1911 52.5984 0.0000 0.0000 0.0000
# 3 42.0562 52.5984 92.7135 0.0000 0.0000 0.0000
# 4 0.0000 0.0000 0.0000 23.4966 0.0000 0.0000
# 5 0.0000 0.0000 0.0000 0.0000 25.6584 0.0000
# 6 0.0000 0.0000 0.0000 0.0000 0.0000 23.0184
#
#
#
# Elastic Compliance Matrix: (Units=1/GPa)
#
#
# Indices 1 2 3 4 5 6 
#
# 1 0.011794 -0.003790 -0.003200 0.000000 0.000000 0.000000
# 2 -0.003790 0.013820 -0.006121 0.000000 0.000000 0.000000
# 3 -0.003200 -0.006121 0.015710 0.000000 0.000000 0.000000
# 4 0.000000 0.000000 0.000000 0.042559 0.000000 0.000000
# 5 0.000000 0.000000 0.000000 0.000000 0.038974 0.000000
# 6 0.000000 0.000000 0.000000 0.000000 0.000000 0.043444
#
#
# Mechanical properties :
#
#
# Convention : Reuss Voigt Hill
#
# Bulk Modulus (GPa) = 66.21524 66.88745 66.55135
# Shear Modulus (GPa) = 25.30904 25.76458 25.53681
#
# Velocity S-wave (km/s) = 3.50538 3.53679 3.52112
# Velocity P-wave (km/s) = 6.96646 7.01090 6.98871
#
# Compressibility (1/GPa) = 0.01510226
#
# Stress axis : x y z
#
# Youngs Moduli (GPa) = 84.78559 72.35804 63.65296
#
# Poissons Ratio (x) = 0.27424 0.20369
# Poissons Ratio (y) = 0.32134 0.38964
# Poissons Ratio (z) = 0.27131 0.44292
#
# Static dielectric constant tensor:
#      x y z
#    x 3.889780 0.000000 0.000000 
#    y 0.000000 3.584120 0.000000 
#    z 0.000000 0.000000 3.902820 
# 
# 
# High freq. dielectric constant tensor:
#      x y z
#    x 1.809390 0.000000 0.000000 
#    y 0.000000 1.776720 0.000000 
#    z 0.000000 0.000000 1.816320 
# 
# From -- ./inp_files/21724.got.cif
#   From: 2010.03.12/outbox.cif.g09.slc.cpg/sg24_11_cif.got.tgz:21724.got - 2010.04.14 03:06:53.
