data_PCOD8165695
_publ_section_title
;
Structure prediction by ZEFSAII (Michael W. Deem and Ramdas Pophale) SiO2 
 PCOD8165695
Probable space group: I 21 21 21
;
_chemical_formula_sum "Si O2"
_cell_formula_units_Z 48
_cell_length_a 16.045203
_cell_length_b 5.091220
_cell_length_c 27.871122
_cell_angle_alpha 90.000000
_cell_angle_beta 90.000000
_cell_angle_gamma 90.000000
_cell_volume 2276.782436
_symmetry_space_group_name_H-M "I 21 21 21"
_symmetry_group_IT_number 24
_symmetry_cell_setting 'orthorhombic'
loop_
_space_group_symop_operation_xyz
x,y,z
-x,1/2-y,z
x,-y,1/2-z
1/2-x,y,-z
1/2+x,1/2+y,1/2+z
1/2-x,-y,1/2+z
1/2+x,1/2-y,-z
-x,1/2+y,1/2-z
loop_
_atom_site_type_symbol
_atom_site_label
_atom_site_fract_x
_atom_site_fract_y
_atom_site_fract_z
Si Si1 0.401343 0.735442 0.468668
Si Si2 0.198223 0.654414 0.623734
Si Si3 0.945897 0.496646 0.306039
Si Si4 0.598683 0.740882 0.975141
Si Si5 0.192252 0.137019 0.379091
Si Si6 0.904018 0.750780 0.718153
O O1 0.500000 0.750000 0.465563
O O2 0.371309 0.632469 0.417142
O O3 0.368105 0.519733 0.506356
O O4 0.368214 0.015745 0.488163
O O5 0.248596 0.384964 0.632721
O O6 0.154910 0.746245 0.672433
O O7 0.255508 0.887433 0.604380
O O8 0.924472 0.500000 0.250000
O O9 0.858332 0.465930 0.332813
O O10 0.000000 0.250000 0.320967
O O11 0.000000 0.750000 0.321642
O O12 0.500000 0.750000 0.973103
O O13 0.629727 0.705136 0.921473
O O14 0.882257 0.500000 0.750000
O O15 0.000000 0.750000 0.701075
O O16 0.883535 0.000000 0.750000
#
# Coordination Sequence:
#
# PCOD8165695 Si02
#       6
#     8   8   8   8   8   8
#     4  10  22  41  63  86 117 161 207 248 293 356
#     4  12  25  39  60  92 127 159 194 248 314 369
#     4  10  22  42  65  87 116 159 207 249 292 354
#     4  10  22  40  62  86 116 159 208 251 293 355
#     4  12  25  38  61  94 126 160 195 250 316 365
#     4  10  22  42  66  89 118 162 211 254 299 363
#
# _framework density 21.082383
#
# number of rings (size 3 to 8) (size 9 to 14) (size 15 to 20)
#    0.000    1.333    0.000    5.000    0.000    8.000 
#    0.000    6.667    0.000    0.000    0.000    0.000 
#    0.000    0.000    0.000    0.000    0.000    0.000 
#
# Total GULP energy -297625.807821 kJ/mol
# GULP energy per Si atom -12401.075326 kJ/mol
# Density = 2.103440 g / cm^3
# Si number density = 21.082383 Si / 1000 Ang^3
#
#
#
# Elastic Constant Matrix: (Units=GPa)
#
#
# Indices 1 2 3 4 5 6 
#
# 1 43.8687 41.2567 37.6283 0.0000 0.0000 0.0000
# 2 41.2567 164.3869 37.0829 0.0000 0.0000 0.0000
# 3 37.6283 37.0829 105.3415 0.0000 0.0000 0.0000
# 4 0.0000 0.0000 0.0000 -12.7623 0.0000 0.0000
# 5 0.0000 0.0000 0.0000 0.0000 20.0078 0.0000
# 6 0.0000 0.0000 0.0000 0.0000 0.0000 35.4435
#
#
#
# Elastic Compliance Matrix: (Units=1/GPa)
#
#
# Indices 1 2 3 4 5 6 
#
# 1 0.039615 -0.007332 -0.011569 0.000000 0.000000 0.000000
# 2 -0.007332 0.007965 -0.000185 0.000000 0.000000 0.000000
# 3 -0.011569 -0.000185 0.013691 0.000000 0.000000 0.000000
# 4 0.000000 0.000000 0.000000 -0.078356 0.000000 0.000000
# 5 0.000000 0.000000 0.000000 0.000000 0.049981 0.000000
# 6 0.000000 0.000000 0.000000 0.000000 0.000000 0.028214
#
#
# Mechanical properties :
#
#
# Convention : Reuss Voigt Hill
#
# Bulk Modulus (GPa) = 43.29484 60.61476 51.95480
# Shear Modulus (GPa) = 46.73730 21.71307 34.22519
#
# Velocity S-wave (km/s) = 4.71349 3.21271 4.03352
# Velocity P-wave (km/s) = 7.08543 6.52501 6.81099
#
# Compressibility (1/GPa) = 0.02309744
#
# Stress axis : x y z
#
# Youngs Moduli (GPa) = 25.24322 125.54740 73.04301
#
# Poissons Ratio (x) = 0.92056 0.84505
# Poissons Ratio (y) = 0.18509 0.01350
# Poissons Ratio (z) = 0.29205 0.02320
#
# Static dielectric constant tensor:
#      x y z
#    x 3.753400 0.000000 0.000000 
#    y 0.000000 4.194460 0.000000 
#    z 0.000000 0.000000 3.723410 
# 
# 
# High freq. dielectric constant tensor:
#      x y z
#    x 1.826540 0.000000 0.000000 
#    y 0.000000 1.847800 0.000000 
#    z 0.000000 0.000000 1.831800 
# 
# From -- ./inp_files/37364.got.cif
#   From: 2010.03.12/outbox.cif.g09.slc.cpg/sg24_19_cif.got.tgz:37364.got - 2010.04.14 03:06:53.
