data_PCOD8165248
_publ_section_title
;
Structure prediction by ZEFSAII (Michael W. Deem and Ramdas Pophale) SiO2 
 PCOD8165248
Probable space group: I 21 21 21
;
_chemical_formula_sum "Si O2"
_cell_formula_units_Z 28
_cell_length_a 13.441203
_cell_length_b 5.002430
_cell_length_c 18.988034
_cell_angle_alpha 90.000000
_cell_angle_beta 90.000000
_cell_angle_gamma 90.000000
_cell_volume 1276.730287
_symmetry_space_group_name_H-M "I 21 21 21"
_symmetry_group_IT_number 24
_symmetry_cell_setting 'orthorhombic'
loop_
_space_group_symop_operation_xyz
x,y,z
-x,1/2-y,z
x,-y,1/2-z
1/2-x,y,-z
1/2+x,1/2+y,1/2+z
1/2-x,-y,1/2+z
1/2+x,1/2-y,-z
-x,1/2+y,1/2-z
loop_
_atom_site_type_symbol
_atom_site_label
_atom_site_fract_x
_atom_site_fract_y
_atom_site_fract_z
Si Si1 0.383655 0.750958 0.797823
Si Si2 0.270100 0.744677 0.077634
Si Si3 0.615533 0.735491 0.389744
Si Si4 0.064836 0.000000 0.750000
O O1 0.500000 0.750000 0.817516
O O2 0.353580 0.500000 0.750000
O O3 0.326913 0.762198 0.872729
O O4 0.354166 0.000000 0.750000
O O5 0.345209 0.535700 0.113064
O O6 0.321633 0.032778 0.061944
O O7 0.250000 0.627856 0.000000
O O8 0.500000 0.750000 0.411491
O O9 0.632901 0.604781 0.312943
O O10 0.000000 0.750000 0.777767
#
# Coordination Sequence:
#
# PCOD8165248 Si02
#       4
#     8   8   8   4
#     4  10  23  44  69  96 126 173 233 288 333 387
#     4  12  26  43  66 101 135 179 227 280 345 411
#     4  11  24  42  65  97 137 174 213 266 339 409
#     4  10  20  38  62  96 128 166 216 260 322 402
#
# _framework density 21.931021999999999
#
# number of rings (size 3 to 8) (size 9 to 14) (size 15 to 20)
#    0.000    1.143    0.000    6.857    6.000    2.286 
#    0.000    2.857    0.000    0.000    0.000    0.000 
#    0.000    0.000    0.000    0.000    0.000    0.000 
#
# Total GULP energy -173568.000727 kJ/mol
# GULP energy per Si atom -12397.714338 kJ/mol
# Density = 2.188111 g / cm^3
# Si number density = 21.931022 Si / 1000 Ang^3
#
#
#
# Elastic Constant Matrix: (Units=GPa)
#
#
# Indices 1 2 3 4 5 6 
#
# 1 117.4724 44.4124 52.8088 0.0000 0.0000 0.0000
# 2 44.4124 135.9925 31.7170 0.0000 0.0000 0.0000
# 3 52.8088 31.7170 134.0597 0.0000 0.0000 0.0000
# 4 0.0000 0.0000 0.0000 28.4946 0.0000 0.0000
# 5 0.0000 0.0000 0.0000 0.0000 16.7913 0.0000
# 6 0.0000 0.0000 0.0000 0.0000 0.0000 82.1519
#
#
#
# Elastic Compliance Matrix: (Units=1/GPa)
#
#
# Indices 1 2 3 4 5 6 
#
# 1 0.011269 -0.002799 -0.003777 0.000000 0.000000 0.000000
# 2 -0.002799 0.008478 -0.000903 0.000000 0.000000 0.000000
# 3 -0.003777 -0.000903 0.009161 0.000000 0.000000 0.000000
# 4 0.000000 0.000000 0.000000 0.035094 0.000000 0.000000
# 5 0.000000 0.000000 0.000000 0.000000 0.059555 0.000000
# 6 0.000000 0.000000 0.000000 0.000000 0.000000 0.012173
#
#
# Mechanical properties :
#
#
# Convention : Reuss Voigt Hill
#
# Bulk Modulus (GPa) = 71.68778 71.71122 71.69950
# Shear Modulus (GPa) = 32.18799 42.72665 37.45732
#
# Velocity S-wave (km/s) = 3.83520 4.41866 4.13723
# Velocity P-wave (km/s) = 7.23675 7.66827 7.45563
#
# Compressibility (1/GPa) = 0.01394938
#
# Stress axis : x y z
#
# Youngs Moduli (GPa) = 88.74100 117.94981 109.16135
#
# Poissons Ratio (x) = 0.33018 0.41227
# Poissons Ratio (y) = 0.24841 0.09859
# Poissons Ratio (z) = 0.33515 0.10652
#
# Static dielectric constant tensor:
#      x y z
#    x 3.858560 0.000000 0.000000 
#    y 0.000000 4.238100 0.000000 
#    z 0.000000 0.000000 3.716090 
# 
# 
# High freq. dielectric constant tensor:
#      x y z
#    x 1.863210 0.000000 0.000000 
#    y 0.000000 1.889300 0.000000 
#    z 0.000000 0.000000 1.850090 
# 
# From -- ./inp_files/33105.got.cif
#   From: 2010.03.12/outbox.cif.g09.slc.cpg/sg24_17_cif.got.tgz:33105.got - 2010.04.14 03:06:53.
