data_PCOD8165735
_publ_section_title
;
Structure prediction by ZEFSAII (Michael W. Deem and Ramdas Pophale) SiO2 
 PCOD8165735
Probable space group: I 21 21 21
;
_chemical_formula_sum "Si O2"
_cell_formula_units_Z 48
_cell_length_a 34.988396
_cell_length_b 9.560717
_cell_length_c 7.302492
_cell_angle_alpha 90.000000
_cell_angle_beta 90.000000
_cell_angle_gamma 90.000000
_cell_volume 2442.786922
_symmetry_space_group_name_H-M "I 21 21 21"
_symmetry_group_IT_number 24
_symmetry_cell_setting 'orthorhombic'
loop_
_space_group_symop_operation_xyz
x,y,z
-x,1/2-y,z
x,-y,1/2-z
1/2-x,y,-z
1/2+x,1/2+y,1/2+z
1/2-x,-y,1/2+z
1/2+x,1/2-y,-z
-x,1/2+y,1/2-z
loop_
_atom_site_type_symbol
_atom_site_label
_atom_site_fract_x
_atom_site_fract_y
_atom_site_fract_z
Si Si1 0.650631 0.500000 0.250000
Si Si2 0.208810 0.410047 0.427609
Si Si3 0.463027 0.337596 0.938743
Si Si4 0.962559 0.158459 0.486431
Si Si5 0.208190 0.916782 0.068917
Si Si6 0.154522 0.500000 0.750000
Si Si7 0.597888 0.762082 0.287499
O O1 0.677114 0.458060 0.419126
O O2 0.621874 0.622918 0.291955
O O3 0.197843 0.500000 0.250000
O O4 0.250000 0.457899 0.500000
O O5 0.207641 0.246576 0.379962
O O6 0.179141 0.438290 0.586781
O O7 0.500000 0.250000 0.985719
O O8 0.452479 0.328628 0.726281
O O9 0.469518 0.493337 0.021447
O O10 0.429531 0.257057 0.039630
O O11 0.926222 0.213313 0.600760
O O12 0.000000 0.250000 0.538039
O O13 0.197367 0.000000 0.250000
O O14 0.250000 0.962425 0.000000
O O15 0.127879 0.381937 0.831263
#
# Coordination Sequence:
#
# PCOD8165735 Si02
#       7
#     4   8   8   8   8   4   8
#     4  12  28  44  61 104 130 178 224 274 333 402
#     4  11  25  43  70  99 127 168 222 278 334 398
#     4  10  22  41  67  95 127 175 216 265 326 387
#     4  10  22  41  66  96 129 171 220 264 321 394
#     4  11  25  45  69  94 130 174 220 272 334 403
#     4  12  24  44  65  98 134 172 218 278 335 394
#     4  12  25  42  63  92 138 170 217 269 330 390
#
# _framework density 19.649688999999999
#
# number of rings (size 3 to 8) (size 9 to 14) (size 15 to 20)
#    0.000    1.000    5.000    0.500    4.667    3.333 
#    0.000    0.000    0.000    0.000    0.000    0.000 
#    0.000    0.000    0.000    0.000    0.000    0.000 
#
# Total GULP energy -297632.230128 kJ/mol
# GULP energy per Si atom -12401.342922 kJ/mol
# Density = 1.960497 g / cm^3
# Si number density = 19.649689 Si / 1000 Ang^3
#
#
#
# Elastic Constant Matrix: (Units=GPa)
#
#
# Indices 1 2 3 4 5 6 
#
# 1 123.9483 45.8507 37.4080 0.0000 0.0000 0.0000
# 2 45.8507 108.8043 23.1206 0.0000 0.0000 0.0000
# 3 37.4080 23.1206 83.7359 0.0001 0.0000 0.0000
# 4 0.0000 0.0000 0.0001 2.8956 0.0000 0.0000
# 5 0.0000 0.0000 0.0000 0.0000 1079.6979 0.0000
# 6 0.0000 0.0000 0.0000 0.0000 0.0000 37.5221
#
#
#
# Elastic Compliance Matrix: (Units=1/GPa)
#
#
# Indices 1 2 3 4 5 6 
#
# 1 0.010536 -0.003654 -0.003698 0.000000 0.000000 0.000000
# 2 -0.003654 0.011031 -0.001413 0.000000 0.000000 0.000000
# 3 -0.003698 -0.001413 0.013984 0.000000 0.000000 0.000000
# 4 0.000000 0.000000 0.000000 0.345356 0.000000 0.000000
# 5 0.000000 0.000000 0.000000 0.000000 0.000926 0.000000
# 6 0.000000 0.000000 0.000000 0.000000 0.000000 0.026651
#
#
# Mechanical properties :
#
#
# Convention : Reuss Voigt Hill
#
# Bulk Modulus (GPa) = 55.49156 58.80522 57.14839
# Shear Modulus (GPa) = 11.57351 238.03037 124.80194
#
# Velocity S-wave (km/s) = 2.42955 11.01816 7.97818
# Velocity P-wave (km/s) = 6.01432 13.85129 10.67779
#
# Compressibility (1/GPa) = 0.01802076
#
# Stress axis : x y z
#
# Youngs Moduli (GPa) = 94.91690 90.65386 71.50780
#
# Poissons Ratio (x) = 0.33125 0.26442
# Poissons Ratio (y) = 0.34682 0.10107
# Poissons Ratio (z) = 0.35098 0.12813
#
# Static dielectric constant tensor:
#      x y z
#    x 6.902920 0.000000 0.000000 
#    y 0.000000 3.726030 0.000000 
#    z 0.000000 0.000000 3.613990 
# 
# 
# High freq. dielectric constant tensor:
#      x y z
#    x 1.778840 0.000000 0.000000 
#    y 0.000000 1.779210 0.000000 
#    z 0.000000 0.000000 1.774950 
# 
# From -- ./inp_files/16850.got.cif
#   From: 2010.03.12/outbox.cif.g09.slc.cpg/sg24_9_cif.got.tgz:16850.got - 2010.04.14 03:06:53.
