data_PCOD8165475
_publ_section_title
;
Structure prediction by ZEFSAII (Michael W. Deem and Ramdas Pophale) SiO2 
 PCOD8165475
Probable space group: I 21 21 21
;
_chemical_formula_sum "Si O2"
_cell_formula_units_Z 32
_cell_length_a 17.615126
_cell_length_b 8.524072
_cell_length_c 10.161242
_cell_angle_alpha 90.000000
_cell_angle_beta 90.000000
_cell_angle_gamma 90.000000
_cell_volume 1525.736929
_symmetry_space_group_name_H-M "I 21 21 21"
_symmetry_group_IT_number 24
_symmetry_cell_setting 'orthorhombic'
loop_
_space_group_symop_operation_xyz
x,y,z
-x,1/2-y,z
x,-y,1/2-z
1/2-x,y,-z
1/2+x,1/2+y,1/2+z
1/2-x,-y,1/2+z
1/2+x,1/2-y,-z
-x,1/2+y,1/2-z
loop_
_atom_site_type_symbol
_atom_site_label
_atom_site_fract_x
_atom_site_fract_y
_atom_site_fract_z
Si Si1 0.417026 0.684887 0.776265
Si Si2 0.330087 0.000000 0.250000
Si Si3 0.267975 0.753987 0.640627
Si Si4 0.088439 0.267289 0.578791
Si Si5 0.166654 0.500000 0.750000
O O1 0.500000 0.750000 0.740945
O O2 0.416462 0.500000 0.750000
O O3 0.356957 0.764762 0.676365
O O4 0.391352 0.733962 0.923604
O O5 0.273713 0.921227 0.355617
O O6 0.378482 0.877668 0.163377
O O7 0.250000 0.678096 0.500000
O O8 0.223496 0.644329 0.739995
O O9 0.112905 0.440407 0.631235
O O10 0.000000 0.250000 0.596949
#
# Coordination Sequence:
#
# PCOD8165475 Si02
#       5
#     8   4   8   8   4
#     4  11  25  43  68  98 136 182 224 283 342 407
#     4  10  25  38  65  98 126 178 220 276 335 392
#     4  11  24  40  63  94 130 173 221 271 330 399
#     4  10  22  42  66  97 136 174 221 282 336 407
#     4  10  21  38  65  90 128 174 220 268 325 406
#
# _framework density 20.973471
#
# number of rings (size 3 to 8) (size 9 to 14) (size 15 to 20)
#    0.000    1.500    1.250    2.250    5.250    4.000 
#    0.000    6.250    0.000    0.000    0.000    0.000 
#    0.000    0.000    0.000    0.000    0.000    0.000 
#
# Total GULP energy -198233.888314 kJ/mol
# GULP energy per Si atom -12389.618020 kJ/mol
# Density = 2.092573 g / cm^3
# Si number density = 20.973471 Si / 1000 Ang^3
#
#
#
# Elastic Constant Matrix: (Units=GPa)
#
#
# Indices 1 2 3 4 5 6 
#
# 1 145.9273 39.1982 73.8292 0.0000 0.0000 0.0000
# 2 39.1982 86.8655 30.9668 0.0000 0.0000 0.0000
# 3 73.8292 30.9668 118.4971 0.0000 0.0000 0.0000
# 4 0.0000 0.0000 0.0000 29.5919 0.0000 0.0000
# 5 0.0000 0.0000 0.0000 0.0000 37.3300 0.0000
# 6 0.0000 0.0000 0.0000 0.0000 0.0000 24.4283
#
#
#
# Elastic Compliance Matrix: (Units=1/GPa)
#
#
# Indices 1 2 3 4 5 6 
#
# 1 0.010538 -0.002663 -0.005870 0.000000 0.000000 0.000000
# 2 -0.002663 0.013368 -0.001834 0.000000 0.000000 0.000000
# 3 -0.005870 -0.001834 0.012575 0.000000 0.000000 0.000000
# 4 0.000000 0.000000 0.000000 0.033793 0.000000 0.000000
# 5 0.000000 0.000000 0.000000 0.000000 0.026788 0.000000
# 6 0.000000 0.000000 0.000000 0.000000 0.000000 0.040936
#
#
# Mechanical properties :
#
#
# Convention : Reuss Voigt Hill
#
# Bulk Modulus (GPa) = 63.50288 71.03093 67.26690
# Shear Modulus (GPa) = 30.49152 32.08974 31.29063
#
# Velocity S-wave (km/s) = 3.81703 3.91578 3.86672
# Velocity P-wave (km/s) = 7.05476 7.37462 7.21647
#
# Compressibility (1/GPa) = 0.01574732
#
# Stress axis : x y z
#
# Youngs Moduli (GPa) = 94.89880 74.80821 79.52037
#
# Poissons Ratio (x) = 0.19919 0.46675
# Poissons Ratio (y) = 0.25268 0.14587
# Poissons Ratio (z) = 0.55701 0.13723
#
# Static dielectric constant tensor:
#      x y z
#    x 3.991560 0.000000 0.000000 
#    y 0.000000 4.252500 0.000000 
#    z 0.000000 0.000000 3.929050 
# 
# 
# High freq. dielectric constant tensor:
#      x y z
#    x 1.837690 0.000000 0.000000 
#    y 0.000000 1.826960 0.000000 
#    z 0.000000 0.000000 1.819470 
# 
# From -- ./inp_files/10310.got.cif
#   From: 2010.03.12/outbox.cif.g09.slc.cpg/sg24_6_cif.got.tgz:10310.got - 2010.04.14 03:06:53.
