data_PCOD8165718
_publ_section_title
;
Structure prediction by ZEFSAII (Michael W. Deem and Ramdas Pophale) SiO2 
 PCOD8165718
Probable space group: I 21 21 21
;
_chemical_formula_sum "Si O2"
_cell_formula_units_Z 32
_cell_length_a 6.633945
_cell_length_b 9.604032
_cell_length_c 22.592563
_cell_angle_alpha 90.000000
_cell_angle_beta 90.000000
_cell_angle_gamma 90.000000
_cell_volume 1439.431383
_symmetry_space_group_name_H-M "I 21 21 21"
_symmetry_group_IT_number 24
_symmetry_cell_setting 'orthorhombic'
loop_
_space_group_symop_operation_xyz
x,y,z
-x,1/2-y,z
x,-y,1/2-z
1/2-x,y,-z
1/2+x,1/2+y,1/2+z
1/2-x,-y,1/2+z
1/2+x,1/2-y,-z
-x,1/2+y,1/2-z
loop_
_atom_site_type_symbol
_atom_site_label
_atom_site_fract_x
_atom_site_fract_y
_atom_site_fract_z
Si Si1 0.363153 0.066241 0.557154
Si Si2 0.500000 0.750000 0.844921
Si Si3 0.375833 0.608832 0.197772
Si Si4 0.477785 0.897401 0.397822
Si Si5 0.750000 0.961434 0.500000
O O1 0.250000 0.130951 0.500000
O O2 0.344474 0.167145 0.613377
O O3 0.249546 0.925054 0.578537
O O4 0.597563 0.051276 0.540648
O O5 0.362011 0.648274 0.804903
O O6 0.500000 0.750000 0.208908
O O7 0.413934 0.500000 0.250000
O O8 0.444941 0.530483 0.138317
O O9 0.500000 0.750000 0.362307
O O10 0.617949 0.870574 0.455253
#
# Coordination Sequence:
#
# PCOD8165718 Si02
#       5
#     8   4   8   8   4
#     4  10  23  39  68 108 144 187 222 279 346 425
#     4  12  24  46  70 102 142 178 236 288 358 424
#     4  12  27  51  74  99 134 184 239 300 356 414
#     4  11  24  43  69 104 143 189 231 284 344 413
#     4  10  22  40  66 108 148 186 226 274 344 420
#
# _framework density 22.230999000000001
#
# number of rings (size 3 to 8) (size 9 to 14) (size 15 to 20)
#    0.000    1.000    5.000    0.750    7.000    1.000 
#    4.500    0.000    0.000    0.000    0.000    0.000 
#    0.000    0.000    0.000    0.000    0.000    0.000 
#
# Total GULP energy -198293.922936 kJ/mol
# GULP energy per Si atom -12393.370184 kJ/mol
# Density = 2.218040 g / cm^3
# Si number density = 22.230999 Si / 1000 Ang^3
#
#
#
# Elastic Constant Matrix: (Units=GPa)
#
#
# Indices 1 2 3 4 5 6 
#
# 1 135.8969 54.7886 32.7644 0.0000 0.0000 0.0000
# 2 54.7886 144.1821 50.2918 0.0000 0.0000 0.0000
# 3 32.7644 50.2918 76.5997 0.0000 0.0000 0.0000
# 4 0.0000 0.0000 0.0000 33.2775 0.0000 0.0000
# 5 0.0000 0.0000 0.0000 0.0000 24.2930 0.0000
# 6 0.0000 0.0000 0.0000 0.0000 0.0000 34.2286
#
#
#
# Elastic Compliance Matrix: (Units=1/GPa)
#
#
# Indices 1 2 3 4 5 6 
#
# 1 0.008935 -0.002675 -0.002066 0.000000 0.000000 0.000000
# 2 -0.002675 0.009796 -0.005288 0.000000 0.000000 0.000000
# 3 -0.002066 -0.005288 0.017410 0.000000 0.000000 0.000000
# 4 0.000000 0.000000 0.000000 0.030050 0.000000 0.000000
# 5 0.000000 0.000000 0.000000 0.000000 0.041164 0.000000
# 6 0.000000 0.000000 0.000000 0.000000 0.000000 0.029215
#
#
# Mechanical properties :
#
#
# Convention : Reuss Voigt Hill
#
# Bulk Modulus (GPa) = 62.16930 70.26314 66.21622
# Shear Modulus (GPa) = 30.86619 32.94875 31.90747
#
# Velocity S-wave (km/s) = 3.73021 3.85399 3.79260
# Velocity P-wave (km/s) = 6.82484 7.17488 7.00205
#
# Compressibility (1/GPa) = 0.01608511
#
# Stress axis : x y z
#
# Youngs Moduli (GPa) = 111.92085 102.07744 57.43755
#
# Poissons Ratio (x) = 0.27303 0.11865
# Poissons Ratio (y) = 0.29935 0.30372
# Poissons Ratio (z) = 0.23119 0.53977
#
# Static dielectric constant tensor:
#      x y z
#    x 4.058760 0.000000 0.000000 
#    y 0.000000 3.928170 0.000000 
#    z 0.000000 0.000000 3.860570 
# 
# 
# High freq. dielectric constant tensor:
#      x y z
#    x 1.883110 0.000000 0.000000 
#    y 0.000000 1.868920 0.000000 
#    z 0.000000 0.000000 1.865940 
# 
# From -- ./inp_files/31903.got.cif
#   From: 2010.03.12/outbox.cif.g09.slc.cpg/sg24_16_cif.got.tgz:31903.got - 2010.04.14 03:06:53.
