data_PCOD8165703
_publ_section_title
;
Structure prediction by ZEFSAII (Michael W. Deem and Ramdas Pophale) SiO2 
 PCOD8165703
Probable space group: I 21 21 21
;
_chemical_formula_sum "Si O2"
_cell_formula_units_Z 60
_cell_length_a 13.871509
_cell_length_b 22.414154
_cell_length_c 8.954661
_cell_angle_alpha 90.000000
_cell_angle_beta 90.000000
_cell_angle_gamma 90.000000
_cell_volume 2784.166533
_symmetry_space_group_name_H-M "I 21 21 21"
_symmetry_group_IT_number 24
_symmetry_cell_setting 'orthorhombic'
loop_
_space_group_symop_operation_xyz
x,y,z
-x,1/2-y,z
x,-y,1/2-z
1/2-x,y,-z
1/2+x,1/2+y,1/2+z
1/2-x,-y,1/2+z
1/2+x,1/2-y,-z
-x,1/2+y,1/2-z
loop_
_atom_site_type_symbol
_atom_site_label
_atom_site_fract_x
_atom_site_fract_y
_atom_site_fract_z
Si Si1 0.759237 0.290314 0.260686
Si Si2 0.552581 0.111701 0.401377
Si Si3 0.540285 0.669004 0.653179
Si Si4 0.431323 0.942467 0.852342
Si Si5 0.250000 0.110495 0.500000
Si Si6 0.241770 0.437578 0.675569
Si Si7 0.358914 0.676479 0.836823
Si Si8 0.054409 0.190840 0.821361
O O1 0.857449 0.298861 0.170722
O O2 0.727798 0.344892 0.365680
O O3 0.776392 0.227425 0.345897
O O4 0.665713 0.289351 0.155390
O O5 0.514524 0.062466 0.521684
O O6 0.630259 0.080442 0.291538
O O7 0.603977 0.164882 0.494841
O O8 0.466064 0.139905 0.303625
O O9 0.551586 0.605115 0.724763
O O10 0.448684 0.699787 0.735125
O O11 0.515090 0.666190 0.478566
O O12 0.430728 0.000000 0.750000
O O13 0.334283 0.933724 0.947738
O O14 0.270908 0.500000 0.750000
O O15 0.250000 0.445645 0.500000
O O16 0.312675 0.384655 0.731512
O O17 0.000000 0.250000 0.769859
#
# Coordination Sequence:
#
# PCOD8165703 Si02
#       8
#     8   8   8   8   4   8   8   8
#     4  11  22  40  67  91 136 168 222 277 341 407
#     4  10  23  40  62  98 126 168 228 270 328 397
#     4  10  24  42  63  94 132 176 220 269 347 415
#     4  10  22  46  67  89 127 177 227 281 338 409
#     4  10  22  40  64 100 120 168 228 276 340 396
#     4  10  23  41  63  93 129 165 220 269 329 388
#     4  10  22  41  66  92 127 178 221 268 342 406
#     4  12  24  38  62  98 138 170 217 279 336 403
#
# _framework density 21.550435
#
# number of rings (size 3 to 8) (size 9 to 14) (size 15 to 20)
#    0.000    1.600    1.333    2.400    4.667    6.933 
#    4.800    3.333    0.000    0.000    0.000    0.000 
#    0.000    0.000    0.000    0.000    0.000    0.000 
#
# Total GULP energy -371700.740567 kJ/mol
# GULP energy per Si atom -12390.024686 kJ/mol
# Density = 2.150138 g / cm^3
# Si number density = 21.550435 Si / 1000 Ang^3
#
#
#
# Elastic Constant Matrix: (Units=GPa)
#
#
# Indices 1 2 3 4 5 6 
#
# 1 129.3458 51.5129 22.9042 0.0002 0.0005 0.0000
# 2 51.5129 65.6898 27.8276 0.0000 0.0027 0.0001
# 3 22.9042 27.8276 80.2674 0.0008 0.0065 0.0004
# 4 0.0002 0.0000 0.0008 -9.4249 0.0001 0.0008
# 5 0.0005 0.0027 0.0065 0.0001 111.3547 -0.0010
# 6 0.0000 0.0001 0.0004 0.0008 -0.0010 27.6864
#
#
#
# Elastic Compliance Matrix: (Units=1/GPa)
#
#
# Indices 1 2 3 4 5 6 
#
# 1 0.011244 -0.008742 -0.000178 0.000000 0.000000 0.000000
# 2 -0.008742 0.024641 -0.006048 -0.000001 0.000000 0.000000
# 3 -0.000178 -0.006048 0.014606 0.000001 -0.000001 0.000000
# 4 0.000000 -0.000001 0.000001 -0.106102 0.000000 0.000003
# 5 0.000000 0.000000 -0.000001 0.000000 0.008980 0.000000
# 6 0.000000 0.000000 0.000000 0.000003 0.000000 0.036119
#
#
# Mechanical properties :
#
#
# Convention : Reuss Voigt Hill
#
# Bulk Modulus (GPa) = 48.65038 53.31025 50.98031
# Shear Modulus (GPa) = 190.28747 37.46045 113.87396
#
# Velocity S-wave (km/s) = 9.40693 4.17378 7.27705
# Velocity P-wave (km/s) = 11.85796 6.92953 9.71158
#
# Compressibility (1/GPa) = 0.02055482
#
# Stress axis : x y z
#
# Youngs Moduli (GPa) = 88.93320 40.58323 68.46586
#
# Poissons Ratio (x) = 0.35479 0.01217
# Poissons Ratio (y) = 0.77749 0.41408
# Poissons Ratio (z) = 0.01581 0.24545
#
# Static dielectric constant tensor:
#      x y z
#    x 4.213280 0.000000 0.000000 
#    y 0.000000 1.990310 -0.000040 
#    z 0.000000 -0.000040 3.702020 
# 
# 
# High freq. dielectric constant tensor:
#      x y z
#    x 1.866560 0.000000 0.000000 
#    y 0.000000 1.832880 0.000000 
#    z 0.000000 0.000000 1.831010 
# 
# From -- ./inp_files/13329.got.cif
#   From: 2010.03.12/outbox.cif.g09.slc.cpg/sg24_7_cif.got.tgz:13329.got - 2010.04.14 03:06:53.
