data_PCOD8165326
_publ_section_title
;
Structure prediction by ZEFSAII (Michael W. Deem and Ramdas Pophale) SiO2 
 PCOD8165326
Probable space group: I 21 21 21
;
_chemical_formula_sum "Si O2"
_cell_formula_units_Z 56
_cell_length_a 13.400873
_cell_length_b 11.990498
_cell_length_c 14.800371
_cell_angle_alpha 90.000000
_cell_angle_beta 90.000000
_cell_angle_gamma 90.000000
_cell_volume 2378.170099
_symmetry_space_group_name_H-M "I 21 21 21"
_symmetry_group_IT_number 24
_symmetry_cell_setting 'orthorhombic'
loop_
_space_group_symop_operation_xyz
x,y,z
-x,1/2-y,z
x,-y,1/2-z
1/2-x,y,-z
1/2+x,1/2+y,1/2+z
1/2-x,-y,1/2+z
1/2+x,1/2-y,-z
-x,1/2+y,1/2-z
loop_
_atom_site_type_symbol
_atom_site_label
_atom_site_fract_x
_atom_site_fract_y
_atom_site_fract_z
Si Si1 0.771623 0.072307 0.163806
Si Si2 0.116847 0.764097 0.437269
Si Si3 0.172421 0.993696 0.080764
Si Si4 0.303185 0.368477 0.418182
Si Si5 0.479435 0.124206 0.462101
Si Si6 0.381605 0.748071 0.356505
Si Si7 0.685175 0.652245 0.185159
O O1 0.847489 0.166011 0.128805
O O2 0.663240 0.130624 0.179068
O O3 0.807137 0.000000 0.250000
O O4 0.765599 0.976944 0.089014
O O5 0.159505 0.765116 0.540919
O O6 0.000000 0.750000 0.446242
O O7 0.149285 0.879559 0.389934
O O8 0.217876 0.924239 0.165436
O O9 0.250000 0.985340 0.000000
O O10 0.067397 0.941434 0.046777
O O11 0.250000 0.299892 0.500000
O O12 0.412610 0.421086 0.434631
O O13 0.296206 0.283662 0.334613
O O14 0.500000 0.250000 0.493344
O O15 0.408969 0.114069 0.374466
O O16 0.500000 0.750000 0.350780
O O17 0.341428 0.850276 0.292472
#
# Coordination Sequence:
#
# PCOD8165326 Si02
#       7
#     8   8   8   8   8   8   8
#     4  12  26  47  71 103 146 188 248 308 367 443
#     4  11  27  50  75 103 146 200 255 302 378 448
#     4  10  21  42  67  99 147 198 241 294 367 447
#     4  11  21  36  70 103 139 186 245 300 362 429
#     4   9  19  35  63 104 149 189 240 293 365 451
#     4  11  23  43  73 114 151 187 237 306 376 445
#     4  10  20  40  66 106 151 185 231 297 374 443
#
# _framework density 23.547516999999999
#
# number of rings (size 3 to 8) (size 9 to 14) (size 15 to 20)
#    0.000    1.429    1.429    5.571    6.000    0.000 
#    0.000    7.857    0.000    0.000    0.000    0.000 
#    0.000    0.000    0.000    0.000    0.000    0.000 
#
# Total GULP energy -346979.847531 kJ/mol
# GULP energy per Si atom -12392.137412 kJ/mol
# Density = 2.349392 g / cm^3
# Si number density = 23.547517 Si / 1000 Ang^3
#
#
#
# Elastic Constant Matrix: (Units=GPa)
#
#
# Indices 1 2 3 4 5 6 
#
# 1 71.0854 64.5522 58.9124 0.0000 0.0000 0.0000
# 2 64.5522 122.3695 69.3392 0.0000 0.0000 0.0000
# 3 58.9124 69.3392 131.4555 0.0000 0.0000 0.0000
# 4 0.0000 0.0000 0.0000 -4.7879 0.0000 0.0000
# 5 0.0000 0.0000 0.0000 0.0000 19.2175 0.0000
# 6 0.0000 0.0000 0.0000 0.0000 0.0000 37.7127
#
#
#
# Elastic Compliance Matrix: (Units=1/GPa)
#
#
# Indices 1 2 3 4 5 6 
#
# 1 0.031625 -0.012340 -0.007664 0.000000 0.000000 0.000000
# 2 -0.012340 0.016471 -0.003158 0.000000 0.000000 0.000000
# 3 -0.007664 -0.003158 0.012707 0.000000 0.000000 0.000000
# 4 0.000000 0.000000 0.000000 -0.208860 0.000000 0.000000
# 5 0.000000 0.000000 0.000000 0.000000 0.052036 0.000000
# 6 0.000000 0.000000 0.000000 0.000000 0.000000 0.026516
#
#
# Mechanical properties :
#
#
# Convention : Reuss Voigt Hill
#
# Bulk Modulus (GPa) = 69.06100 78.94644 74.00372
# Shear Modulus (GPa) = -272.40928 19.23557 -126.58686
#
# Velocity S-wave (km/s) = -10.76736 2.86122 -7.33994
# Velocity P-wave (km/s) = 11.18881 6.67193 6.35117
#
# Compressibility (1/GPa) = 0.01447995
#
# Stress axis : x y z
#
# Youngs Moduli (GPa) = 31.62055 60.71323 78.69518
#
# Poissons Ratio (x) = 0.74921 0.60310
# Poissons Ratio (y) = 0.39020 0.24849
# Poissons Ratio (z) = 0.24233 0.19171
#
# Static dielectric constant tensor:
#      x y z
#    x 5.938160 0.000000 0.000000 
#    y 0.000000 4.312270 0.000000 
#    z 0.000000 0.000000 4.161000 
# 
# 
# High freq. dielectric constant tensor:
#      x y z
#    x 1.928190 0.000000 0.000000 
#    y 0.000000 1.939670 0.000000 
#    z 0.000000 0.000000 1.923720 
# 
# From -- ./inp_files/26515.got.cif
#   From: 2010.03.12/outbox.cif.g09.slc.cpg/sg24_14_cif.got.tgz:26515.got - 2010.04.14 03:06:53.
