data_PCOD8165512
_publ_section_title
;
Structure prediction by ZEFSAII (Michael W. Deem and Ramdas Pophale) SiO2 
 PCOD8165512
Probable space group: I 21 21 21
;
_chemical_formula_sum "Si O2"
_cell_formula_units_Z 48
_cell_length_a 14.751426
_cell_length_b 9.615808
_cell_length_c 15.528898
_cell_angle_alpha 90.000000
_cell_angle_beta 90.000000
_cell_angle_gamma 90.000000
_cell_volume 2202.725733
_symmetry_space_group_name_H-M "I 21 21 21"
_symmetry_group_IT_number 24
_symmetry_cell_setting 'orthorhombic'
loop_
_space_group_symop_operation_xyz
x,y,z
-x,1/2-y,z
x,-y,1/2-z
1/2-x,y,-z
1/2+x,1/2+y,1/2+z
1/2-x,-y,1/2+z
1/2+x,1/2-y,-z
-x,1/2+y,1/2-z
loop_
_atom_site_type_symbol
_atom_site_label
_atom_site_fract_x
_atom_site_fract_y
_atom_site_fract_z
Si Si1 0.127506 0.143276 0.136308
Si Si2 0.351177 0.464000 0.486946
Si Si3 0.562205 0.044792 0.842296
Si Si4 0.394339 0.770151 0.462036
Si Si5 0.179409 0.858963 0.711264
Si Si6 0.918730 0.859986 0.807223
O O1 0.097047 0.301971 0.142640
O O2 0.215186 0.114855 0.192515
O O3 0.047340 0.038776 0.163571
O O4 0.148313 0.127057 0.034277
O O5 0.250000 0.402574 0.500000
O O6 0.404739 0.447400 0.578095
O O7 0.341671 0.624342 0.459470
O O8 0.404069 0.388667 0.408727
O O9 0.602562 0.000000 0.750000
O O10 0.500000 0.750000 0.483749
O O11 0.383007 0.843665 0.371836
O O12 0.169529 0.723263 0.771980
O O13 0.139207 0.000000 0.750000
O O14 0.000000 0.750000 0.794328
O O15 0.933182 0.000000 0.750000
#
# Coordination Sequence:
#
# PCOD8165512 Si02
#       6
#     8   8   8   8   8   8
#     4  10  21  41  64 100 128 181 236 286 335 403
#     4  11  24  43  69 103 133 179 232 284 344 407
#     4  10  21  39  69  94 135 178 235 284 344 403
#     4  11  20  41  68  97 131 182 240 282 330 412
#     4  12  26  40  69 101 141 180 234 281 347 412
#     4  12  28  47  71 102 143 186 227 283 351 417
#
# _framework density 21.791184000000001
#
# number of rings (size 3 to 8) (size 9 to 14) (size 15 to 20)
#    0.000    1.000    5.000    4.000    4.667    0.000 
#    3.000    3.333    0.000    0.000    0.000    0.000 
#    0.000    0.000    0.000    0.000    0.000    0.000 
#
# Total GULP energy -297499.575393 kJ/mol
# GULP energy per Si atom -12395.815641 kJ/mol
# Density = 2.174159 g / cm^3
# Si number density = 21.791184 Si / 1000 Ang^3
#
#
#
# Elastic Constant Matrix: (Units=GPa)
#
#
# Indices 1 2 3 4 5 6 
#
# 1 102.5092 29.7304 42.3601 0.0000 0.0000 0.0000
# 2 29.7304 82.6869 54.5959 0.0000 0.0000 0.0000
# 3 42.3601 54.5959 195.8998 0.0000 0.0000 0.0000
# 4 0.0000 0.0000 0.0000 30.6845 0.0000 0.0000
# 5 0.0000 0.0000 0.0000 0.0000 28.7233 0.0000
# 6 0.0000 0.0000 0.0000 0.0000 0.0000 12.7213
#
#
#
# Elastic Compliance Matrix: (Units=1/GPa)
#
#
# Indices 1 2 3 4 5 6 
#
# 1 0.011288 -0.002999 -0.001605 0.000000 0.000000 0.000000
# 2 -0.002999 0.015618 -0.003704 0.000000 0.000000 0.000000
# 3 -0.001605 -0.003704 0.006484 0.000000 0.000000 0.000000
# 4 0.000000 0.000000 0.000000 0.032590 0.000000 0.000000
# 5 0.000000 0.000000 0.000000 0.000000 0.034815 0.000000
# 6 0.000000 0.000000 0.000000 0.000000 0.000000 0.078608
#
#
# Mechanical properties :
#
#
# Convention : Reuss Voigt Hill
#
# Bulk Modulus (GPa) = 59.61671 70.49652 65.05661
# Shear Modulus (GPa) = 24.80026 31.38645 28.09335
#
# Velocity S-wave (km/s) = 3.37721 3.79928 3.59445
# Velocity P-wave (km/s) = 6.52878 7.18799 6.86630
#
# Compressibility (1/GPa) = 0.01677382
#
# Stress axis : x y z
#
# Youngs Moduli (GPa) = 88.58743 64.02945 154.22482
#
# Poissons Ratio (x) = 0.19202 0.24755
# Poissons Ratio (y) = 0.26567 0.57127
# Poissons Ratio (z) = 0.14219 0.23717
#
# Static dielectric constant tensor:
#      x y z
#    x 4.020690 0.000000 0.000000 
#    y 0.000000 3.661690 0.000000 
#    z 0.000000 0.000000 4.421890 
# 
# 
# High freq. dielectric constant tensor:
#      x y z
#    x 1.861910 0.000000 0.000000 
#    y 0.000000 1.819730 0.000000 
#    z 0.000000 0.000000 1.879070 
# 
# From -- ./inp_files/26442.got.cif
#   From: 2010.03.12/outbox.cif.g09.slc.cpg/sg24_14_cif.got.tgz:26442.got - 2010.04.14 03:06:53.
