data_PCOD8165584
_publ_section_title
;
Structure prediction by ZEFSAII (Michael W. Deem and Ramdas Pophale) SiO2 
 PCOD8165584
Probable space group: I 21 21 21
;
_chemical_formula_sum "Si O2"
_cell_formula_units_Z 52
_cell_length_a 8.000826
_cell_length_b 11.624579
_cell_length_c 25.291957
_cell_angle_alpha 90.000000
_cell_angle_beta 90.000000
_cell_angle_gamma 90.000000
_cell_volume 2352.309669
_symmetry_space_group_name_H-M "I 21 21 21"
_symmetry_group_IT_number 24
_symmetry_cell_setting 'orthorhombic'
loop_
_space_group_symop_operation_xyz
x,y,z
-x,1/2-y,z
x,-y,1/2-z
1/2-x,y,-z
1/2+x,1/2+y,1/2+z
1/2-x,-y,1/2+z
1/2+x,1/2-y,-z
-x,1/2+y,1/2-z
loop_
_atom_site_type_symbol
_atom_site_label
_atom_site_fract_x
_atom_site_fract_y
_atom_site_fract_z
Si Si1 0.560398 0.539788 0.141535
Si Si2 0.079776 0.566908 0.194497
Si Si3 0.250000 0.521085 0.500000
Si Si4 0.819010 0.695327 0.673415
Si Si5 0.568825 0.375675 0.474793
Si Si6 0.754322 0.704096 0.207967
Si Si7 0.271694 0.589596 0.616901
O O1 0.686862 0.433316 0.150539
O O2 0.595227 0.601005 0.086493
O O3 0.587200 0.640237 0.185846
O O4 0.379417 0.482124 0.143637
O O5 0.094241 0.500000 0.250000
O O6 0.230702 0.661922 0.190976
O O7 0.077024 0.478900 0.144511
O O8 0.908625 0.633052 0.185232
O O9 0.423546 0.452846 0.499956
O O10 0.262707 0.595061 0.553475
O O11 0.729272 0.694248 0.729401
O O12 0.719422 0.777207 0.633061
O O13 0.000000 0.750000 0.681451
O O14 0.500000 0.250000 0.485253
O O15 0.750000 0.396994 0.500000
#
# Coordination Sequence:
#
# PCOD8165584 Si02
#       7
#     8   8   4   8   8   8   8
#     4  10  24  40  63  98 129 165 221 275 325 402
#     4  11  23  39  60  94 135 171 218 265 330 400
#     4  10  24  46  70 102 128 178 234 280 336 402
#     4  10  21  42  68  93 133 173 218 274 336 400
#     4  11  24  43  68  96 135 173 225 283 340 400
#     4  11  24  38  63  93 133 173 214 267 331 401
#     4  10  23  43  70  94 131 174 222 275 333 402
#
# _framework density 22.105933
#
# number of rings (size 3 to 8) (size 9 to 14) (size 15 to 20)
#    0.000    1.538    2.308    1.385    8.615    0.000 
#    1.385    0.000    0.000    0.000    0.000    0.000 
#    0.000    0.000    0.000    0.000    0.000    0.000 
#
# Total GULP energy -322252.140424 kJ/mol
# GULP energy per Si atom -12394.313093 kJ/mol
# Density = 2.205562 g / cm^3
# Si number density = 22.105933 Si / 1000 Ang^3
#
#
#
# Elastic Constant Matrix: (Units=GPa)
#
#
# Indices 1 2 3 4 5 6 
#
# 1 51.3367 -1.1708 9.9118 0.0000 0.0000 0.0000
# 2 -1.1708 82.8817 32.0643 0.0000 0.0000 0.0000
# 3 9.9118 32.0643 118.3019 0.0000 0.0000 0.0000
# 4 0.0000 0.0000 0.0000 30.8157 0.0000 0.0000
# 5 0.0000 0.0000 0.0000 0.0000 26.0327 0.0000
# 6 0.0000 0.0000 0.0000 0.0000 0.0000 18.5864
#
#
#
# Elastic Compliance Matrix: (Units=1/GPa)
#
#
# Indices 1 2 3 4 5 6 
#
# 1 0.019878 0.001033 -0.001946 0.000000 0.000000 0.000000
# 2 0.001033 0.013532 -0.003754 0.000000 0.000000 0.000000
# 3 -0.001946 -0.003754 0.009634 0.000000 0.000000 0.000000
# 4 0.000000 0.000000 0.000000 0.032451 0.000000 0.000000
# 5 0.000000 0.000000 0.000000 0.000000 0.038413 0.000000
# 6 0.000000 0.000000 0.000000 0.000000 0.000000 0.053803
#
#
# Mechanical properties :
#
#
# Convention : Reuss Voigt Hill
#
# Bulk Modulus (GPa) = 29.66353 37.12566 33.39459
# Shear Modulus (GPa) = 26.55595 29.20128 27.87861
#
# Velocity S-wave (km/s) = 3.46974 3.63846 3.55510
# Velocity P-wave (km/s) = 5.43140 5.87214 5.65607
#
# Compressibility (1/GPa) = 0.03371143
#
# Stress axis : x y z
#
# Youngs Moduli (GPa) = 50.30569 73.89646 103.80393
#
# Poissons Ratio (x) = -0.07637 0.20196
# Poissons Ratio (y) = -0.05199 0.38972
# Poissons Ratio (z) = 0.09788 0.27744
#
# Static dielectric constant tensor:
#      x y z
#    x 3.980870 0.000000 0.000000 
#    y 0.000000 4.304860 0.000000 
#    z 0.000000 0.000000 3.855760 
# 
# 
# High freq. dielectric constant tensor:
#      x y z
#    x 1.872800 0.000000 0.000000 
#    y 0.000000 1.883520 0.000000 
#    z 0.000000 0.000000 1.859860 
# 
# From -- ./inp_files/36889.got.cif
#   From: 2010.03.12/outbox.cif.g09.slc.cpg/sg24_19_cif.got.tgz:36889.got - 2010.04.14 03:06:53.
