data_PCOD8165206
_publ_section_title
;
Structure prediction by ZEFSAII (Michael W. Deem and Ramdas Pophale) SiO2 
 PCOD8165206
Probable space group: I 21 21 21
;
_chemical_formula_sum "Si O2"
_cell_formula_units_Z 44
_cell_length_a 13.437125
_cell_length_b 14.416840
_cell_length_c 11.772947
_cell_angle_alpha 90.000000
_cell_angle_beta 90.000000
_cell_angle_gamma 90.000000
_cell_volume 2280.665667
_symmetry_space_group_name_H-M "I 21 21 21"
_symmetry_group_IT_number 24
_symmetry_cell_setting 'orthorhombic'
loop_
_space_group_symop_operation_xyz
x,y,z
-x,1/2-y,z
x,-y,1/2-z
1/2-x,y,-z
1/2+x,1/2+y,1/2+z
1/2-x,-y,1/2+z
1/2+x,1/2-y,-z
-x,1/2+y,1/2-z
loop_
_atom_site_type_symbol
_atom_site_label
_atom_site_fract_x
_atom_site_fract_y
_atom_site_fract_z
Si Si1 0.490026 0.954961 0.367147
Si Si2 0.364239 0.721262 0.014530
Si Si3 0.101515 0.299986 0.770414
Si Si4 0.711237 0.355360 0.121127
Si Si5 0.353405 0.000000 0.750000
Si Si6 0.530004 0.397052 0.554173
O O1 0.591861 0.896278 0.341460
O O2 0.395830 0.896422 0.407025
O O3 0.454505 0.000000 0.250000
O O4 0.510148 0.026649 0.466956
O O5 0.396985 0.681723 0.136440
O O6 0.250000 0.698560 0.000000
O O7 0.431947 0.666530 0.921261
O O8 0.384868 0.831730 0.003270
O O9 0.197800 0.238067 0.803411
O O10 0.000000 0.250000 0.803048
O O11 0.784686 0.428037 0.181768
O O12 0.750000 0.322720 0.000000
O O13 0.425708 0.057367 0.667095
#
# Coordination Sequence:
#
# PCOD8165206 Si02
#       6
#     8   8   8   8   4   8
#     4  11  19  36  64  89 122 160 215 259 296 364
#     4  11  22  40  66  91 126 164 211 256 311 369
#     4  10  20  37  60  92 122 158 209 257 306 359
#     4  11  22  35  59  96 122 162 207 256 318 363
#     4  12  24  38  62  94 132 156 206 262 314 378
#     4  11  23  40  60  97 125 164 204 260 314 361
#
# _framework density 19.292612999999999
#
# number of rings (size 3 to 8) (size 9 to 14) (size 15 to 20)
#    0.000    1.091    6.364    2.182    2.545    0.000 
#    0.000    8.182    0.000    0.000    0.000    0.000 
#    0.000    0.000    0.000    0.000    0.000    0.000 
#
# Total GULP energy -272644.148434 kJ/mol
# GULP energy per Si atom -12392.915838 kJ/mol
# Density = 1.924870 g / cm^3
# Si number density = 19.292613 Si / 1000 Ang^3
#
#
#
# Elastic Constant Matrix: (Units=GPa)
#
#
# Indices 1 2 3 4 5 6 
#
# 1 105.6708 52.2365 38.0534 0.0000 0.0000 0.0000
# 2 52.2365 101.1795 48.6428 0.0000 0.0000 0.0000
# 3 38.0534 48.6428 95.1302 0.0000 0.0000 0.0000
# 4 0.0000 0.0000 0.0000 31.8168 0.0000 0.0000
# 5 0.0000 0.0000 0.0000 0.0000 -17.4171 0.0000
# 6 0.0000 0.0000 0.0000 0.0000 0.0000 35.6608
#
#
#
# Elastic Compliance Matrix: (Units=1/GPa)
#
#
# Indices 1 2 3 4 5 6 
#
# 1 0.013094 -0.005625 -0.002362 0.000000 0.000000 0.000000
# 2 -0.005625 0.015521 -0.005686 0.000000 0.000000 0.000000
# 3 -0.002362 -0.005686 0.014364 0.000000 0.000000 0.000000
# 4 0.000000 0.000000 0.000000 0.031430 0.000000 0.000000
# 5 0.000000 0.000000 0.000000 0.000000 -0.057415 0.000000
# 6 0.000000 0.000000 0.000000 0.000000 0.000000 0.028042
#
#
# Mechanical properties :
#
#
# Convention : Reuss Voigt Hill
#
# Bulk Modulus (GPa) = 63.96416 64.42731 64.19574
# Shear Modulus (GPa) = 64.43773 20.88197 42.65985
#
# Velocity S-wave (km/s) = 5.78556 3.29353 4.70744
# Velocity P-wave (km/s) = 8.82366 6.92318 7.93055
#
# Compressibility (1/GPa) = 0.01563375
#
# Stress axis : x y z
#
# Youngs Moduli (GPa) = 76.36838 64.42805 69.61718
#
# Poissons Ratio (x) = 0.36240 0.16442
# Poissons Ratio (y) = 0.42956 0.39587
# Poissons Ratio (z) = 0.18037 0.36636
#
# Static dielectric constant tensor:
#      x y z
#    x 3.446980 0.000000 0.000000 
#    y 0.000000 3.972720 0.000000 
#    z 0.000000 0.000000 3.407500 
# 
# 
# High freq. dielectric constant tensor:
#      x y z
#    x 1.734370 0.000000 0.000000 
#    y 0.000000 1.758120 0.000000 
#    z 0.000000 0.000000 1.738530 
# 
# From -- ./inp_files/20660.got.cif
#   From: 2010.03.12/outbox.cif.g09.slc.cpg/sg24_11_cif.got.tgz:20660.got - 2010.04.14 03:06:53.
