data_PCOD8165212
_publ_section_title
;
Structure prediction by ZEFSAII (Michael W. Deem and Ramdas Pophale) SiO2 
 PCOD8165212
Probable space group: I 21 21 21
;
_chemical_formula_sum "Si O2"
_cell_formula_units_Z 48
_cell_length_a 9.775823
_cell_length_b 29.393676
_cell_length_c 8.403382
_cell_angle_alpha 90.000000
_cell_angle_beta 90.000000
_cell_angle_gamma 90.000000
_cell_volume 2414.689750
_symmetry_space_group_name_H-M "I 21 21 21"
_symmetry_group_IT_number 24
_symmetry_cell_setting 'orthorhombic'
loop_
_space_group_symop_operation_xyz
x,y,z
-x,1/2-y,z
x,-y,1/2-z
1/2-x,y,-z
1/2+x,1/2+y,1/2+z
1/2-x,-y,1/2+z
1/2+x,1/2-y,-z
-x,1/2+y,1/2-z
loop_
_atom_site_type_symbol
_atom_site_label
_atom_site_fract_x
_atom_site_fract_y
_atom_site_fract_z
Si Si1 0.878950 0.565800 0.587185
Si Si2 0.334208 0.456315 0.159025
Si Si3 0.284876 0.138181 0.318697
Si Si4 0.251711 0.636632 0.188662
Si Si5 0.525624 0.648475 0.626509
Si Si6 0.481130 0.697372 0.313137
O O1 0.750000 0.540814 0.500000
O O2 0.820963 0.588879 0.746772
O O3 0.005185 0.532337 0.624389
O O4 0.943676 0.603572 0.473009
O O5 0.272488 0.500000 0.250000
O O6 0.324111 0.410837 0.264405
O O7 0.250000 0.448163 0.000000
O O8 0.250000 0.129805 0.500000
O O9 0.411021 0.171906 0.298827
O O10 0.156759 0.161608 0.230712
O O11 0.099472 0.638830 0.256494
O O12 0.332114 0.679392 0.262371
O O13 0.250000 0.640375 0.000000
O O14 0.499692 0.689052 0.501818
O O15 0.500000 0.750000 0.276546
#
# Coordination Sequence:
#
# PCOD8165212 Si02
#       6
#     8   8   8   8   8   8
#     4   9  19  39  64  87 121 167 202 247 309 375
#     4  12  23  43  66  96 132 167 215 263 314 380
#     4  10  20  37  61  91 120 157 204 259 313 370
#     4  12  23  40  65  94 126 168 211 265 326 376
#     4  10  20  37  64  86 121 166 206 253 313 385
#     4  11  23  40  61  88 124 168 215 259 315 386
#
# _framework density 19.878330999999999
#
# number of rings (size 3 to 8) (size 9 to 14) (size 15 to 20)
#    0.000    1.333    5.000    3.500    0.000    3.333 
#    0.000    3.333    0.000    0.000    0.000    0.000 
#    0.000    0.000    0.000    0.000    0.000    0.000 
#
# Total GULP energy -297601.984403 kJ/mol
# GULP energy per Si atom -12400.082683 kJ/mol
# Density = 1.983309 g / cm^3
# Si number density = 19.878331 Si / 1000 Ang^3
#
#
#
# Elastic Constant Matrix: (Units=GPa)
#
#
# Indices 1 2 3 4 5 6 
#
# 1 96.5809 -4.5695 31.8807 0.0087 -0.0071 0.0028
# 2 -4.5695 62.7429 10.4634 0.0081 0.0029 0.0028
# 3 31.8807 10.4634 137.9160 0.0271 0.0327 0.0139
# 4 0.0087 0.0081 0.0271 10.6708 -0.0023 0.0001
# 5 -0.0071 0.0029 0.0327 -0.0023 33.2858 0.0064
# 6 0.0028 0.0028 0.0139 0.0001 0.0064 10.3620
#
#
#
# Elastic Compliance Matrix: (Units=1/GPa)
#
#
# Indices 1 2 3 4 5 6 
#
# 1 0.011309 0.001276 -0.002711 -0.000003 0.000005 0.000000
# 2 0.001276 0.016286 -0.001530 -0.000010 0.000000 -0.000003
# 3 -0.002711 -0.001530 0.007994 -0.000017 -0.000008 -0.000010
# 4 -0.000003 -0.000010 -0.000017 0.093714 0.000006 -0.000001
# 5 0.000005 0.000000 -0.000008 0.000006 0.030043 -0.000018
# 6 0.000000 -0.000003 -0.000010 -0.000001 -0.000018 0.096506
#
#
# Mechanical properties :
#
#
# Convention : Reuss Voigt Hill
#
# Bulk Modulus (GPa) = 33.71829 41.42101 37.56965
# Shear Modulus (GPa) = 18.40469 28.16140 23.28305
#
# Velocity S-wave (km/s) = 3.04611 3.76798 3.42611
# Velocity P-wave (km/s) = 5.41949 6.30973 5.88148
#
# Compressibility (1/GPa) = 0.02965749
#
# Stress axis : x y z
#
# Youngs Moduli (GPa) = 88.42303 61.40167 125.10014
#
# Poissons Ratio (x) = -0.07833 0.33915
# Poissons Ratio (y) = -0.11281 0.19147
# Poissons Ratio (z) = 0.23972 0.09398
#
# Static dielectric constant tensor:
#      x y z
#    x 4.038440 0.000000 -0.000010 
#    y 0.000000 3.262290 0.000010 
#    z -0.000010 0.000010 3.714020 
# 
# 
# High freq. dielectric constant tensor:
#      x y z
#    x 1.798150 0.000000 0.000000 
#    y 0.000000 1.738990 0.000000 
#    z 0.000000 0.000000 1.782490 
# 
# From -- ./inp_files/9724.got.cif
#   From: 2010.03.12/outbox.cif.g09.slc.cpg/sg24_5_cif.got.tgz:9724.got - 2010.04.14 03:06:53.
