data_PCOD8165899
_publ_section_title
;
Structure prediction by ZEFSAII (Michael W. Deem and Ramdas Pophale) SiO2 
 PCOD8165899
Probable space group: I 21 21 21
;
_chemical_formula_sum "Si O2"
_cell_formula_units_Z 60
_cell_length_a 12.031820
_cell_length_b 8.805326
_cell_length_c 25.573652
_cell_angle_alpha 90.000000
_cell_angle_beta 90.000000
_cell_angle_gamma 90.000000
_cell_volume 2709.377480
_symmetry_space_group_name_H-M "I 21 21 21"
_symmetry_group_IT_number 24
_symmetry_cell_setting 'orthorhombic'
loop_
_space_group_symop_operation_xyz
x,y,z
-x,1/2-y,z
x,-y,1/2-z
1/2-x,y,-z
1/2+x,1/2+y,1/2+z
1/2-x,-y,1/2+z
1/2+x,1/2-y,-z
-x,1/2+y,1/2-z
loop_
_atom_site_type_symbol
_atom_site_label
_atom_site_fract_x
_atom_site_fract_y
_atom_site_fract_z
Si Si1 0.037595 0.000828 0.177699
Si Si2 0.627756 0.089534 0.588311
Si Si3 0.845289 0.057564 0.888315
Si Si4 0.740764 0.392341 0.131180
Si Si5 0.523853 0.425787 0.193822
Si Si6 0.532663 0.921716 0.497426
Si Si7 0.000000 0.750000 0.250855
Si Si8 0.668815 0.600594 0.957748
O O1 0.076296 0.848784 0.210227
O O2 0.973750 0.958377 0.125294
O O3 0.147921 0.097764 0.166095
O O4 0.955213 0.114091 0.211295
O O5 0.612760 0.267573 0.576476
O O6 0.749663 0.069267 0.612632
O O7 0.626383 0.980255 0.537592
O O8 0.786321 0.220193 0.883450
O O9 0.923897 0.056666 0.938953
O O10 0.921817 0.008999 0.839806
O O11 0.638568 0.461442 0.163799
O O12 0.761770 0.484356 0.077958
O O13 0.500000 0.250000 0.201156
O O14 0.527556 0.500000 0.250000
O O15 0.500000 0.750000 0.509303
O O16 0.424223 0.020806 0.507622
O O17 0.750000 0.677412 0.000000
#
# Coordination Sequence:
#
# PCOD8165899 Si02
#       8
#     8   8   8   8   8   8   4   8
#     4  11  23  45  66 104 137 182 230 295 358 424
#     4  12  26  43  65 104 147 181 229 288 362 425
#     4  11  24  46  67 100 141 184 234 293 348 431
#     4  11  23  44  74  97 137 179 243 289 352 427
#     4  10  24  46  70 100 134 180 237 295 353 420
#     4  12  24  42  70 100 140 183 238 288 346 425
#     4  10  24  40  68  98 136 174 232 280 364 420
#     4  12  24  41  68 104 141 187 230 291 357 433
#
# _framework density 22.145306999999999
#
# number of rings (size 3 to 8) (size 9 to 14) (size 15 to 20)
#    0.000    0.800    1.333    6.800    2.800    1.067 
#    7.200    2.667    0.000    0.000    0.000    0.000 
#    0.000    0.000    0.000    0.000    0.000    0.000 
#
# Total GULP energy -371781.839661 kJ/mol
# GULP energy per Si atom -12392.727989 kJ/mol
# Density = 2.209490 g / cm^3
# Si number density = 22.145307 Si / 1000 Ang^3
#
#
#
# Elastic Constant Matrix: (Units=GPa)
#
#
# Indices 1 2 3 4 5 6 
#
# 1 144.6941 53.4632 59.7477 0.0000 0.0000 0.0000
# 2 53.4632 93.7117 35.8115 0.0000 0.0000 0.0000
# 3 59.7477 35.8115 113.9079 0.0000 0.0000 0.0000
# 4 0.0000 0.0000 0.0000 36.4564 0.0000 0.0000
# 5 0.0000 0.0000 0.0000 0.0000 18.1131 0.0000
# 6 0.0000 0.0000 0.0000 0.0000 0.0000 27.5374
#
#
#
# Elastic Compliance Matrix: (Units=1/GPa)
#
#
# Indices 1 2 3 4 5 6 
#
# 1 0.010125 -0.004258 -0.003972 0.000000 0.000000 0.000000
# 2 -0.004258 0.013919 -0.002142 0.000000 0.000000 0.000000
# 3 -0.003972 -0.002142 0.011536 0.000000 0.000000 0.000000
# 4 0.000000 0.000000 0.000000 0.027430 0.000000 0.000000
# 5 0.000000 0.000000 0.000000 0.000000 0.055209 0.000000
# 6 0.000000 0.000000 0.000000 0.000000 0.000000 0.036314
#
#
# Mechanical properties :
#
#
# Convention : Reuss Voigt Hill
#
# Bulk Modulus (GPa) = 67.41065 72.26206 69.83636
# Shear Modulus (GPa) = 27.74346 29.97414 28.85880
#
# Velocity S-wave (km/s) = 3.54332 3.68301 3.61384
# Velocity P-wave (km/s) = 6.87360 7.12656 7.00122
#
# Compressibility (1/GPa) = 0.01483445
#
# Stress axis : x y z
#
# Youngs Moduli (GPa) = 98.76901 71.84336 86.68569
#
# Poissons Ratio (x) = 0.30593 0.34430
# Poissons Ratio (y) = 0.42059 0.18572
# Poissons Ratio (z) = 0.39230 0.15392
#
# Static dielectric constant tensor:
#      x y z
#    x 4.029120 0.000000 0.000000 
#    y 0.000000 4.071220 0.000000 
#    z 0.000000 0.000000 4.398740 
# 
# 
# High freq. dielectric constant tensor:
#      x y z
#    x 1.866650 0.000000 0.000000 
#    y 0.000000 1.876690 0.000000 
#    z 0.000000 0.000000 1.891350 
# 
# From -- ./inp_files/37233.got.cif
#   From: 2010.03.12/outbox.cif.g09.slc.cpg/sg24_19_cif.got.tgz:37233.got - 2010.04.14 03:06:53.
