data_PCOD8165357
_publ_section_title
;
Structure prediction by ZEFSAII (Michael W. Deem and Ramdas Pophale) SiO2 
 PCOD8165357
Probable space group: I 21 21 21
;
_chemical_formula_sum "Si O2"
_cell_formula_units_Z 60
_cell_length_a 18.443155
_cell_length_b 18.488778
_cell_length_c 8.312526
_cell_angle_alpha 90.000000
_cell_angle_beta 90.000000
_cell_angle_gamma 90.000000
_cell_volume 2834.499865
_symmetry_space_group_name_H-M "I 21 21 21"
_symmetry_group_IT_number 24
_symmetry_cell_setting 'orthorhombic'
loop_
_space_group_symop_operation_xyz
x,y,z
-x,1/2-y,z
x,-y,1/2-z
1/2-x,y,-z
1/2+x,1/2+y,1/2+z
1/2-x,-y,1/2+z
1/2+x,1/2-y,-z
-x,1/2+y,1/2-z
loop_
_atom_site_type_symbol
_atom_site_label
_atom_site_fract_x
_atom_site_fract_y
_atom_site_fract_z
Si Si1 0.666096 0.831872 0.536738
Si Si2 0.570926 0.215764 0.357462
Si Si3 0.077885 0.572736 0.666504
Si Si4 0.335044 0.194712 0.166761
Si Si5 0.797421 0.650251 0.163378
Si Si6 0.912561 0.547583 0.593085
Si Si7 0.420482 0.260056 0.707778
Si Si8 0.855906 0.500000 0.250000
O O1 0.750000 0.842336 0.500000
O O2 0.628241 0.906544 0.483798
O O3 0.638972 0.758842 0.449542
O O4 0.636925 0.816515 0.715258
O O5 0.500000 0.250000 0.273089
O O6 0.589524 0.137560 0.290360
O O7 0.632792 0.277757 0.337697
O O8 0.557227 0.200883 0.543790
O O9 0.106475 0.500000 0.750000
O O10 0.996618 0.565142 0.605740
O O11 0.248427 0.187975 0.191161
O O12 0.366558 0.120520 0.099586
O O13 0.877701 0.685175 0.168109
O O14 0.803832 0.566825 0.211461
O O15 0.750000 0.656837 0.000000
O O16 0.889060 0.500000 0.750000
O O17 0.901614 0.511239 0.416640
O O18 0.500000 0.250000 0.797549
#
# Coordination Sequence:
#
# PCOD8165357 Si02
#       8
#     8   8   8   8   8   8   8   4
#     4  11  24  43  68  99 133 175 235 297 360 419
#     4  10  20  41  70  98 131 177 234 283 350 422
#     4  10  24  46  71  96 135 183 234 287 371 434
#     4  11  22  40  66  92 138 185 231 276 346 423
#     4  12  25  44  66 104 147 192 238 293 351 432
#     4  11  25  45  68 100 145 193 236 290 356 425
#     4  11  25  40  69 104 134 176 240 305 349 416
#     4  12  30  40  68 106 150 196 244 278 352 442
#
# _framework density 21.167756000000001
#
# number of rings (size 3 to 8) (size 9 to 14) (size 15 to 20)
#    0.000    1.067    4.000    1.600    6.533    1.067 
#    0.000    1.333    0.000    0.000    0.000    0.000 
#    0.000    0.000    0.000    0.000    0.000    0.000 
#
# Total GULP energy -371686.756041 kJ/mol
# GULP energy per Si atom -12389.558535 kJ/mol
# Density = 2.111958 g / cm^3
# Si number density = 21.167756 Si / 1000 Ang^3
#
#
#
# Elastic Constant Matrix: (Units=GPa)
#
#
# Indices 1 2 3 4 5 6 
#
# 1 123.3832 43.1883 23.2540 0.0000 0.0000 0.0000
# 2 43.1883 116.0746 26.6856 0.0000 0.0000 0.0000
# 3 23.2540 26.6856 90.0265 0.0000 0.0000 0.0000
# 4 0.0000 0.0000 0.0000 21.3804 0.0000 0.0000
# 5 0.0000 0.0000 0.0000 0.0000 28.8866 0.0000
# 6 0.0000 0.0000 0.0000 0.0000 0.0000 35.9642
#
#
#
# Elastic Compliance Matrix: (Units=1/GPa)
#
#
# Indices 1 2 3 4 5 6 
#
# 1 0.009506 -0.003190 -0.001510 0.000000 0.000000 0.000000
# 2 -0.003190 0.010316 -0.002234 0.000000 0.000000 0.000000
# 3 -0.001510 -0.002234 0.012160 0.000000 0.000000 0.000000
# 4 0.000000 0.000000 0.000000 0.046772 0.000000 0.000000
# 5 0.000000 0.000000 0.000000 0.000000 0.034618 0.000000
# 6 0.000000 0.000000 0.000000 0.000000 0.000000 0.027805
#
#
# Mechanical properties :
#
#
# Convention : Reuss Voigt Hill
#
# Bulk Modulus (GPa) = 55.20434 57.30446 56.25440
# Shear Modulus (GPa) = 31.04010 33.00333 32.02172
#
# Velocity S-wave (km/s) = 3.83350 3.95287 3.89364
# Velocity P-wave (km/s) = 6.76242 6.92560 6.84450
#
# Compressibility (1/GPa) = 0.01811452
#
# Stress axis : x y z
#
# Youngs Moduli (GPa) = 105.19748 96.94116 82.23690
#
# Poissons Ratio (x) = 0.30922 0.12417
# Poissons Ratio (y) = 0.33556 0.18370
# Poissons Ratio (z) = 0.15884 0.21655
#
# Static dielectric constant tensor:
#      x y z
#    x 3.911390 0.000000 0.000000 
#    y 0.000000 3.846220 0.000000 
#    z 0.000000 0.000000 4.083470 
# 
# 
# High freq. dielectric constant tensor:
#      x y z
#    x 1.835720 0.000000 0.000000 
#    y 0.000000 1.820710 0.000000 
#    z 0.000000 0.000000 1.835900 
# 
# From -- ./inp_files/14455.got.cif
#   From: 2010.03.12/outbox.cif.g09.slc.cpg/sg24_8_cif.got.tgz:14455.got - 2010.04.14 03:06:53.
