data_PCOD8165921
_publ_section_title
;
Structure prediction by ZEFSAII (Michael W. Deem and Ramdas Pophale) SiO2 
 PCOD8165921
Probable space group: I 21 21 21
;
_chemical_formula_sum "Si O2"
_cell_formula_units_Z 28
_cell_length_a 19.962898
_cell_length_b 9.492755
_cell_length_c 6.148699
_cell_angle_alpha 90.000000
_cell_angle_beta 90.000000
_cell_angle_gamma 90.000000
_cell_volume 1165.196291
_symmetry_space_group_name_H-M "I 21 21 21"
_symmetry_group_IT_number 24
_symmetry_cell_setting 'orthorhombic'
loop_
_space_group_symop_operation_xyz
x,y,z
-x,1/2-y,z
x,-y,1/2-z
1/2-x,y,-z
1/2+x,1/2+y,1/2+z
1/2-x,-y,1/2+z
1/2+x,1/2-y,-z
-x,1/2+y,1/2-z
loop_
_atom_site_type_symbol
_atom_site_label
_atom_site_fract_x
_atom_site_fract_y
_atom_site_fract_z
Si Si1 0.460005 0.500000 0.250000
Si Si2 0.949794 0.375824 0.405611
Si Si3 0.608961 0.858311 0.638728
Si Si4 0.304009 0.856556 0.838467
O O1 0.505667 0.387408 0.378203
O O2 0.414451 0.604890 0.395559
O O3 0.977013 0.500000 0.250000
O O4 0.950069 0.217388 0.287579
O O5 0.871916 0.403246 0.467088
O O6 0.673188 0.751751 0.645079
O O7 0.633524 0.000000 0.750000
O O8 0.270210 0.000000 0.750000
O O9 0.250000 0.784423 0.000000
#
# Coordination Sequence:
#
# PCOD8165921 Si02
#       4
#     4   8   8   8
#     4  12  24  42  78 106 168 210 242 332 396 462
#     4   9  23  43  66 110 148 197 265 306 390 471
#     4  10  24  44  65 112 155 195 257 319 394 465
#     4   9  21  48  74 102 150 196 267 326 368 461
#
# _framework density 24.030286
#
# number of rings (size 3 to 8) (size 9 to 14) (size 15 to 20)
#    1.714    0.571    0.000    0.857    2.000    9.143 
#    5.143    1.429    0.000    0.000    0.000    0.000 
#    0.000    0.000    0.000    0.000    0.000    0.000 
#
# Total GULP energy -173434.023559 kJ/mol
# GULP energy per Si atom -12388.144540 kJ/mol
# Density = 2.397559 g / cm^3
# Si number density = 24.030286 Si / 1000 Ang^3
#
#
#
# Elastic Constant Matrix: (Units=GPa)
#
#
# Indices 1 2 3 4 5 6 
#
# 1 87.3997 45.7289 68.9737 0.0000 0.0000 0.0000
# 2 45.7289 175.3779 58.3715 0.0000 0.0000 0.0000
# 3 68.9737 58.3715 147.8668 0.0000 0.0000 0.0000
# 4 0.0000 0.0000 0.0000 45.4401 0.0000 0.0000
# 5 0.0000 0.0000 0.0000 0.0000 40.8591 0.0000
# 6 0.0000 0.0000 0.0000 0.0000 0.0000 24.0290
#
#
#
# Elastic Compliance Matrix: (Units=1/GPa)
#
#
# Indices 1 2 3 4 5 6 
#
# 1 0.018875 -0.002292 -0.007900 0.000000 0.000000 0.000000
# 2 -0.002292 0.006843 -0.001632 0.000000 0.000000 0.000000
# 3 -0.007900 -0.001632 0.011092 0.000000 0.000000 0.000000
# 4 0.000000 0.000000 0.000000 0.022007 0.000000 0.000000
# 5 0.000000 0.000000 0.000000 0.000000 0.024474 0.000000
# 6 0.000000 0.000000 0.000000 0.000000 0.000000 0.041616
#
#
# Mechanical properties :
#
#
# Convention : Reuss Voigt Hill
#
# Bulk Modulus (GPa) = 75.97542 84.08807 80.03174
# Shear Modulus (GPa) = 32.69193 37.90368 35.29781
#
# Velocity S-wave (km/s) = 3.69243 3.97587 3.83677
# Velocity P-wave (km/s) = 7.06143 7.49301 7.28042
#
# Compressibility (1/GPa) = 0.01316215
#
# Stress axis : x y z
#
# Youngs Moduli (GPa) = 52.97940 146.13742 90.15592
#
# Poissons Ratio (x) = 0.33500 0.71219
# Poissons Ratio (y) = 0.12145 0.14713
# Poissons Ratio (z) = 0.41851 0.23849
#
# Static dielectric constant tensor:
#      x y z
#    x 4.243850 0.000000 0.000000 
#    y 0.000000 4.384930 0.000000 
#    z 0.000000 0.000000 4.022620 
# 
# 
# High freq. dielectric constant tensor:
#      x y z
#    x 1.957490 0.000000 0.000000 
#    y 0.000000 1.975850 0.000000 
#    z 0.000000 0.000000 1.918830 
# 
# From -- ./inp_files/6083.got.cif
#   From: 2010.03.12/outbox.cif.g09.slc.cpg/sg24_4_cif.got.tgz:6083.got - 2010.04.14 03:06:53.
