data_PCOD8165630
_publ_section_title
;
Structure prediction by ZEFSAII (Michael W. Deem and Ramdas Pophale) SiO2 
 PCOD8165630
Probable space group: I 21 21 21
;
_chemical_formula_sum "Si O2"
_cell_formula_units_Z 44
_cell_length_a 25.732800
_cell_length_b 18.447746
_cell_length_c 5.183892
_cell_angle_alpha 90.000000
_cell_angle_beta 90.000000
_cell_angle_gamma 90.000000
_cell_volume 2460.856560
_symmetry_space_group_name_H-M "I 21 21 21"
_symmetry_group_IT_number 24
_symmetry_cell_setting 'orthorhombic'
loop_
_space_group_symop_operation_xyz
x,y,z
-x,1/2-y,z
x,-y,1/2-z
1/2-x,y,-z
1/2+x,1/2+y,1/2+z
1/2-x,-y,1/2+z
1/2+x,1/2-y,-z
-x,1/2+y,1/2-z
loop_
_atom_site_type_symbol
_atom_site_label
_atom_site_fract_x
_atom_site_fract_y
_atom_site_fract_z
Si Si1 0.438167 0.911542 0.467874
Si Si2 0.916501 0.224195 0.443339
Si Si3 0.485832 0.132281 0.538680
Si Si4 0.370242 0.229969 0.061483
Si Si5 0.282094 0.869097 0.254572
Si Si6 0.146002 0.000000 0.750000
O O1 0.472312 0.920305 0.723236
O O2 0.411999 0.833289 0.456582
O O3 0.392579 0.972085 0.475181
O O4 0.475802 0.915627 0.217218
O O5 0.954247 0.155059 0.428140
O O6 0.884329 0.215890 0.706601
O O7 0.949586 0.297479 0.453565
O O8 0.874882 0.225959 0.207364
O O9 0.313020 0.198801 0.124226
O O10 0.250000 0.900319 0.500000
O O11 0.319456 0.933084 0.148830
O O12 0.250000 0.844752 0.000000
#
# Coordination Sequence:
#
# PCOD8165630 Si02
#       6
#     8   8   8   8   8   4
#     4   9  18  28  40  58  79 103 136 172 209 250
#     4   9  15  26  43  60  79  97 119 160 220 268
#     4   9  16  26  41  61  79  97 123 164 211 261
#     4   9  17  28  42  59  77 100 130 172 220 260
#     4  11  22  34  46  60  80 110 154 198 228 255
#     4  10  22  34  46  58  82 118 154 192 228 244
#
# _framework density 17.879951999999999
#
# number of rings (size 3 to 8) (size 9 to 14) (size 15 to 20)
#    0.000    2.545    0.000    2.727    0.000   10.909 
#    0.000    0.000    0.000    0.000    0.000    0.000 
#    0.000    0.000    0.000    0.000    0.000    0.000 
#
# Total GULP energy -272624.537160 kJ/mol
# GULP energy per Si atom -12392.024416 kJ/mol
# Density = 1.783926 g / cm^3
# Si number density = 17.879952 Si / 1000 Ang^3
#
#
#
# Elastic Constant Matrix: (Units=GPa)
#
#
# Indices 1 2 3 4 5 6 
#
# 1 66.0130 31.8381 24.9741 0.0000 0.0000 0.0000
# 2 31.8381 20.3893 16.0780 0.0000 0.0000 0.0000
# 3 24.9741 16.0780 113.9851 0.0000 0.0000 0.0000
# 4 0.0000 0.0000 0.0000 9.5006 0.0000 0.0000
# 5 0.0000 0.0000 0.0000 0.0000 21.8074 0.0000
# 6 0.0000 0.0000 0.0000 0.0000 0.0000 23.2933
#
#
#
# Elastic Compliance Matrix: (Units=1/GPa)
#
#
# Indices 1 2 3 4 5 6 
#
# 1 0.061360 -0.095878 0.000080 0.000000 0.000000 0.000000
# 2 -0.095878 0.204996 -0.007909 0.000000 0.000000 0.000000
# 3 0.000080 -0.007909 0.009871 0.000000 0.000000 0.000000
# 4 0.000000 0.000000 0.000000 0.105257 0.000000 0.000000
# 5 0.000000 0.000000 0.000000 0.000000 0.045856 0.000000
# 6 0.000000 0.000000 0.000000 0.000000 0.000000 0.042931
#
#
# Mechanical properties :
#
#
# Convention : Reuss Voigt Hill
#
# Bulk Modulus (GPa) = 14.53182 38.46308 26.49745
# Shear Modulus (GPa) = 7.13651 19.42007 13.27829
#
# Velocity S-wave (km/s) = 2.00000 3.29923 2.72809
# Velocity P-wave (km/s) = 3.67130 6.00598 4.97746
#
# Compressibility (1/GPa) = 0.06881453
#
# Stress axis : x y z
#
# Youngs Moduli (GPa) = 16.29719 4.87813 101.30572
#
# Poissons Ratio (x) = 0.46771 -0.00809
# Poissons Ratio (y) = 1.56254 0.80119
# Poissons Ratio (z) = -0.00130 0.03858
#
# Static dielectric constant tensor:
#      x y z
#    x 3.253800 0.000000 0.000000 
#    y 0.000000 2.870400 0.000000 
#    z 0.000000 0.000000 3.615860 
# 
# 
# High freq. dielectric constant tensor:
#      x y z
#    x 1.665270 0.000000 0.000000 
#    y 0.000000 1.628340 0.000000 
#    z 0.000000 0.000000 1.712230 
# 
# From -- ./inp_files/5588.got.cif
#   From: 2010.03.12/outbox.cif.g09.slc.cpg/sg24_3_cif.got.tgz:5588.got - 2010.04.14 03:06:53.
