data_PCOD8165012
_publ_section_title
;
Structure prediction by ZEFSAII (Michael W. Deem and Ramdas Pophale) SiO2 
 PCOD8165012
Probable space group: I 21 21 21
;
_chemical_formula_sum "Si O2"
_cell_formula_units_Z 56
_cell_length_a 6.569733
_cell_length_b 23.369179
_cell_length_c 16.925953
_cell_angle_alpha 90.000000
_cell_angle_beta 90.000000
_cell_angle_gamma 90.000000
_cell_volume 2598.629148
_symmetry_space_group_name_H-M "I 21 21 21"
_symmetry_group_IT_number 24
_symmetry_cell_setting 'orthorhombic'
loop_
_space_group_symop_operation_xyz
x,y,z
-x,1/2-y,z
x,-y,1/2-z
1/2-x,y,-z
1/2+x,1/2+y,1/2+z
1/2-x,-y,1/2+z
1/2+x,1/2-y,-z
-x,1/2+y,1/2-z
loop_
_atom_site_type_symbol
_atom_site_label
_atom_site_fract_x
_atom_site_fract_y
_atom_site_fract_z
Si Si1 0.218939 0.109036 0.641872
Si Si2 0.955362 0.687635 0.361269
Si Si3 0.901980 0.615024 0.681018
Si Si4 0.576935 0.811303 0.813575
Si Si5 0.375957 0.988864 0.658685
Si Si6 0.088997 0.687197 0.932365
Si Si7 0.803532 0.912783 0.412255
O O1 0.091853 0.110107 0.723951
O O2 0.433343 0.140618 0.650166
O O3 0.090061 0.139702 0.572213
O O4 0.277569 0.044452 0.616778
O O5 0.085589 0.683576 0.280482
O O6 0.038771 0.639859 0.420598
O O7 0.000000 0.750000 0.398766
O O8 0.716294 0.674199 0.343286
O O9 0.779687 0.562223 0.644299
O O10 0.123300 0.610957 0.643028
O O11 0.500000 0.750000 0.842560
O O12 0.804217 0.816600 0.846862
O O13 0.594566 0.969743 0.624315
O O14 0.415934 0.000000 0.750000
O O15 0.000000 0.750000 0.949121
O O16 0.250000 0.670551 0.000000
O O17 0.750000 0.931168 0.500000
#
# Coordination Sequence:
#
# PCOD8165012 Si02
#       7
#     8   8   8   8   8   8   8
#     4  10  21  40  66  93 118 166 224 271 315 381
#     4   9  20  38  62  94 126 160 213 262 300 379
#     4   9  20  40  66  93 124 163 211 264 321 363
#     4  10  19  38  61  87 122 164 215 266 318 380
#     4   9  21  41  67  92 123 164 216 273 307 370
#     4  12  25  38  60  87 130 178 208 269 344 401
#     4  11  23  41  64  94 133 172 196 257 331 381
#
# _framework density 21.549823
#
# number of rings (size 3 to 8) (size 9 to 14) (size 15 to 20)
#    0.000    2.000    1.429    2.143    0.000    5.714 
#    2.571    4.286    0.000    0.000    0.000    0.000 
#    0.000    0.000    0.000    0.000    0.000    0.000 
#
# Total GULP energy -347121.796570 kJ/mol
# GULP energy per Si atom -12397.207020 kJ/mol
# Density = 2.150077 g / cm^3
# Si number density = 21.549823 Si / 1000 Ang^3
#
#
#
# Elastic Constant Matrix: (Units=GPa)
#
#
# Indices 1 2 3 4 5 6 
#
# 1 85.3525 44.7326 33.1271 0.0000 0.0000 0.0000
# 2 44.7326 150.5907 26.2545 0.0000 0.0000 0.0000
# 3 33.1271 26.2545 48.4377 0.0001 0.0000 0.0000
# 4 0.0000 0.0000 0.0001 20.2675 0.0000 0.0000
# 5 0.0000 0.0000 0.0000 0.0000 19.6874 0.0000
# 6 0.0000 0.0000 0.0000 0.0000 0.0000 40.9547
#
#
#
# Elastic Compliance Matrix: (Units=1/GPa)
#
#
# Indices 1 2 3 4 5 6 
#
# 1 0.017410 -0.003419 -0.010054 0.000000 0.000000 0.000000
# 2 -0.003419 0.008005 -0.002001 0.000000 0.000000 0.000000
# 3 -0.010054 -0.002001 0.028605 0.000000 0.000000 0.000000
# 4 0.000000 0.000000 0.000000 0.049340 0.000000 0.000000
# 5 0.000000 0.000000 0.000000 0.000000 0.050794 0.000000
# 6 0.000000 0.000000 0.000000 0.000000 0.000000 0.024417
#
#
# Mechanical properties :
#
#
# Convention : Reuss Voigt Hill
#
# Bulk Modulus (GPa) = 43.33943 54.73435 49.03689
# Shear Modulus (GPa) = 23.01928 28.19970 25.60949
#
# Velocity S-wave (km/s) = 3.27186 3.62136 3.45104
# Velocity P-wave (km/s) = 5.86757 6.55284 6.21965
#
# Compressibility (1/GPa) = 0.02307368
#
# Stress axis : x y z
#
# Youngs Moduli (GPa) = 57.43836 124.92400 34.95845
#
# Poissons Ratio (x) = 0.42709 0.35147
# Poissons Ratio (y) = 0.19637 0.06994
# Poissons Ratio (z) = 0.57747 0.24994
#
# Static dielectric constant tensor:
#      x y z
#    x 3.881330 0.000000 0.000000 
#    y 0.000000 4.114050 0.000000 
#    z 0.000000 0.000000 3.592790 
# 
# 
# High freq. dielectric constant tensor:
#      x y z
#    x 1.846030 0.000000 0.000000 
#    y 0.000000 1.848940 0.000000 
#    z 0.000000 0.000000 1.823300 
# 
# From -- ./inp_files/32261.got.cif
#   From: 2010.03.12/outbox.cif.g09.slc.cpg/sg24_17_cif.got.tgz:32261.got - 2010.04.14 03:06:53.
