data_PCOD8165460
_publ_section_title
;
Structure prediction by ZEFSAII (Michael W. Deem and Ramdas Pophale) SiO2 
 PCOD8165460
Probable space group: I 21 21 21
;
_chemical_formula_sum "Si O2"
_cell_formula_units_Z 64
_cell_length_a 12.080244
_cell_length_b 9.522737
_cell_length_c 26.904959
_cell_angle_alpha 90.000000
_cell_angle_beta 90.000000
_cell_angle_gamma 90.000000
_cell_volume 3095.065405
_symmetry_space_group_name_H-M "I 21 21 21"
_symmetry_group_IT_number 24
_symmetry_cell_setting 'orthorhombic'
loop_
_space_group_symop_operation_xyz
x,y,z
-x,1/2-y,z
x,-y,1/2-z
1/2-x,y,-z
1/2+x,1/2+y,1/2+z
1/2-x,-y,1/2+z
1/2+x,1/2-y,-z
-x,1/2+y,1/2-z
loop_
_atom_site_type_symbol
_atom_site_label
_atom_site_fract_x
_atom_site_fract_y
_atom_site_fract_z
Si Si1 0.282008 0.281002 0.808736
Si Si2 0.949677 0.096441 0.799560
Si Si3 0.711115 0.581759 0.053566
Si Si4 0.591551 0.981193 0.631065
Si Si5 0.627224 0.226304 0.702692
Si Si6 0.834400 0.500982 0.354297
Si Si7 0.744189 0.905760 0.056406
Si Si8 0.488516 0.588782 0.107234
O O1 0.171865 0.368038 0.819916
O O2 0.375402 0.330076 0.847669
O O3 0.308098 0.310835 0.751950
O O4 0.282070 0.114089 0.816752
O O5 0.000000 0.250000 0.787723
O O6 0.952467 0.000000 0.750000
O O7 0.009595 0.012145 0.844881
O O8 0.766525 0.486465 0.095276
O O9 0.758464 0.738571 0.059552
O O10 0.579238 0.568741 0.063107
O O11 0.750000 0.523002 0.000000
O O12 0.643178 0.093066 0.668616
O O13 0.648758 0.015699 0.578847
O O14 0.460571 0.985620 0.628561
O O15 0.500000 0.250000 0.716733
O O16 0.683263 0.356201 0.674766
O O17 0.629749 0.948525 0.083091
O O18 0.750000 0.957312 0.000000
O O19 0.500000 0.750000 0.125977
#
# Coordination Sequence:
#
# PCOD8165460 Si02
#       8
#     8   8   8   8   8   8   8   8
#     4  12  24  39  62  89 133 167 212 258 329 395
#     4  12  26  43  66  95 130 178 225 276 334 402
#     4  10  22  40  65  94 125 163 215 272 331 380
#     4  11  21  39  63  93 130 162 213 262 322 392
#     4  10  21  38  61  91 123 169 209 265 311 379
#     4  11  23  38  62  93 128 167 211 270 315 387
#     4  10  21  38  66  96 125 167 214 272 331 388
#     4  10  22  43  67  94 132 170 221 276 329 402
#
# _framework density 20.678076000000001
#
# number of rings (size 3 to 8) (size 9 to 14) (size 15 to 20)
#    0.000    1.250    2.500    3.750    1.750    4.000 
#    0.000    0.625    0.000    0.000    0.000    0.000 
#    0.000    0.000    0.000    0.000    0.000    0.000 
#
# Total GULP energy -396740.240643 kJ/mol
# GULP energy per Si atom -12398.132520 kJ/mol
# Density = 2.063101 g / cm^3
# Si number density = 20.678076 Si / 1000 Ang^3
#
#
#
# Elastic Constant Matrix: (Units=GPa)
#
#
# Indices 1 2 3 4 5 6 
#
# 1 64.1051 20.1892 28.7774 0.0000 0.0000 0.0000
# 2 20.1892 70.4713 29.7093 0.0000 0.0000 0.0000
# 3 28.7774 29.7093 114.4942 0.0000 0.0000 0.0000
# 4 0.0000 0.0000 0.0000 21.1001 0.0000 0.0000
# 5 0.0000 0.0000 0.0000 0.0000 35.1264 0.0000
# 6 0.0000 0.0000 0.0000 0.0000 0.0000 31.8375
#
#
#
# Elastic Compliance Matrix: (Units=1/GPa)
#
#
# Indices 1 2 3 4 5 6 
#
# 1 0.018418 -0.003733 -0.003661 0.000000 0.000000 0.000000
# 2 -0.003733 0.016690 -0.003392 0.000000 0.000000 0.000000
# 3 -0.003661 -0.003392 0.010534 0.000000 0.000000 0.000000
# 4 0.000000 0.000000 0.000000 0.047393 0.000000 0.000000
# 5 0.000000 0.000000 0.000000 0.000000 0.028469 0.000000
# 6 0.000000 0.000000 0.000000 0.000000 0.000000 0.031410
#
#
# Mechanical properties :
#
#
# Convention : Reuss Voigt Hill
#
# Bulk Modulus (GPa) = 41.54557 45.15804 43.35181
# Shear Modulus (GPa) = 27.39573 28.97245 28.18409
#
# Velocity S-wave (km/s) = 3.64382 3.74721 3.69588
# Velocity P-wave (km/s) = 6.15130 6.37245 6.26285
#
# Compressibility (1/GPa) = 0.02406995
#
# Stress axis : x y z
#
# Youngs Moduli (GPa) = 54.29334 59.91643 94.92719
#
# Poissons Ratio (x) = 0.22369 0.34749
# Poissons Ratio (y) = 0.20270 0.32203
# Poissons Ratio (z) = 0.19875 0.20326
#
# Static dielectric constant tensor:
#      x y z
#    x 3.819790 0.000000 0.000000 
#    y 0.000000 3.245520 0.000000 
#    z 0.000000 0.000000 3.734420 
# 
# 
# High freq. dielectric constant tensor:
#      x y z
#    x 1.815000 0.000000 0.000000 
#    y 0.000000 1.803550 0.000000 
#    z 0.000000 0.000000 1.808400 
# 
# From -- ./inp_files/38640.got.cif
#   From: 2010.03.12/outbox.cif.g09.slc.cpg/sg24_20_cif.got.tgz:38640.got - 2010.04.14 03:06:53.
