data_PCOD8165576
_publ_section_title
;
Structure prediction by ZEFSAII (Michael W. Deem and Ramdas Pophale) SiO2 
 PCOD8165576
Probable space group: I 21 21 21
;
_chemical_formula_sum "Si O2"
_cell_formula_units_Z 48
_cell_length_a 10.864180
_cell_length_b 16.962089
_cell_length_c 11.828429
_cell_angle_alpha 90.000000
_cell_angle_beta 90.000000
_cell_angle_gamma 90.000000
_cell_volume 2179.733292
_symmetry_space_group_name_H-M "I 21 21 21"
_symmetry_group_IT_number 24
_symmetry_cell_setting 'orthorhombic'
loop_
_space_group_symop_operation_xyz
x,y,z
-x,1/2-y,z
x,-y,1/2-z
1/2-x,y,-z
1/2+x,1/2+y,1/2+z
1/2-x,-y,1/2+z
1/2+x,1/2-y,-z
-x,1/2+y,1/2-z
loop_
_atom_site_type_symbol
_atom_site_label
_atom_site_fract_x
_atom_site_fract_y
_atom_site_fract_z
Si Si1 0.109162 0.925553 0.814796
Si Si2 0.750000 0.928759 0.000000
Si Si3 0.338010 0.622353 0.231200
Si Si4 0.184619 0.791324 0.669244
Si Si5 0.597417 0.359052 0.940596
Si Si6 0.616166 0.045313 0.855587
Si Si7 0.250000 0.999469 0.000000
O O1 0.174743 0.845287 0.779218
O O2 0.148800 0.942376 0.943226
O O3 0.965272 0.922084 0.788062
O O4 0.165912 0.000000 0.750000
O O5 0.781584 0.871223 0.895144
O O6 0.636804 0.985728 0.960752
O O7 0.359567 0.705854 0.291719
O O8 0.251264 0.572023 0.313558
O O9 0.096060 0.827985 0.570467
O O10 0.328508 0.791895 0.629889
O O11 0.460150 0.377040 0.895529
O O12 0.670537 0.441214 0.921644
O O13 0.550802 0.000000 0.750000
#
# Coordination Sequence:
#
# PCOD8165576 Si02
#       7
#     8   4   8   8   8   8   4
#     4  12  21  42  69  96 134 174 234 288 345 413
#     4  10  22  43  67  98 134 184 234 274 350 415
#     4  11  25  44  63 102 146 186 232 288 357 423
#     4  10  24  42  63  98 140 179 224 288 354 410
#     4  10  21  42  65 101 130 172 238 283 348 403
#     4  10  23  40  71 102 132 182 232 298 343 414
#     4  10  22  37  67 104 118 176 230 302 334 397
#
# _framework density 22.021042000000001
#
# number of rings (size 3 to 8) (size 9 to 14) (size 15 to 20)
#    0.000    1.667    3.333    3.000    4.667    2.667 
#    6.000    0.000    0.000    0.000    0.000    0.000 
#    0.000    0.000    0.000    0.000    0.000    0.000 
#
# Total GULP energy -297364.587109 kJ/mol
# GULP energy per Si atom -12390.191130 kJ/mol
# Density = 2.197092 g / cm^3
# Si number density = 22.021042 Si / 1000 Ang^3
#
#
#
# Elastic Constant Matrix: (Units=GPa)
#
#
# Indices 1 2 3 4 5 6 
#
# 1 99.7430 35.5494 45.0564 0.0000 0.0000 0.0000
# 2 35.5494 105.6852 46.2276 0.0010 -0.0002 -0.0001
# 3 45.0564 46.2276 97.1292 0.0017 -0.0003 -0.0002
# 4 0.0000 0.0010 0.0017 36.1459 -0.0002 -0.0001
# 5 0.0000 -0.0002 -0.0003 -0.0002 35.1622 0.0000
# 6 0.0000 -0.0001 -0.0002 -0.0001 0.0000 21.1459
#
#
#
# Elastic Compliance Matrix: (Units=1/GPa)
#
#
# Indices 1 2 3 4 5 6 
#
# 1 0.013078 -0.002204 -0.005017 0.000000 0.000000 0.000000
# 2 -0.002204 0.012321 -0.004842 0.000000 0.000000 0.000000
# 3 -0.005017 -0.004842 0.014927 -0.000001 0.000000 0.000000
# 4 0.000000 0.000000 -0.000001 0.027666 0.000000 0.000000
# 5 0.000000 0.000000 0.000000 0.000000 0.028440 0.000000
# 6 0.000000 0.000000 0.000000 0.000000 0.000000 0.047291
#
#
# Mechanical properties :
#
#
# Convention : Reuss Voigt Hill
#
# Bulk Modulus (GPa) = 61.72942 61.80268 61.76605
# Shear Modulus (GPa) = 28.86015 30.20573 29.53294
#
# Velocity S-wave (km/s) = 3.62411 3.70763 3.66611
# Velocity P-wave (km/s) = 6.75315 6.81579 6.78454
#
# Compressibility (1/GPa) = 0.01619973
#
# Stress axis : x y z
#
# Youngs Moduli (GPa) = 76.46466 81.16019 66.99092
#
# Poissons Ratio (x) = 0.17891 0.33613
# Poissons Ratio (y) = 0.16855 0.32435
# Poissons Ratio (z) = 0.38366 0.39295
#
# Static dielectric constant tensor:
#      x y z
#    x 3.931910 0.000000 0.000000 
#    y 0.000000 3.893620 0.000000 
#    z 0.000000 0.000000 4.094630 
# 
# 
# High freq. dielectric constant tensor:
#      x y z
#    x 1.860580 0.000000 0.000000 
#    y 0.000000 1.855070 0.000000 
#    z 0.000000 0.000000 1.859430 
# 
# From -- ./inp_files/19727.got.cif
#   From: 2010.03.12/outbox.cif.g09.slc.cpg/sg24_10_cif.got.tgz:19727.got - 2010.04.14 03:06:53.
