data_PCOD8165172
_publ_section_title
;
Structure prediction by ZEFSAII (Michael W. Deem and Ramdas Pophale) SiO2 
 PCOD8165172
Probable space group: I 21 21 21
;
_chemical_formula_sum "Si O2"
_cell_formula_units_Z 52
_cell_length_a 11.798524
_cell_length_b 8.651328
_cell_length_c 26.192535
_cell_angle_alpha 90.000000
_cell_angle_beta 90.000000
_cell_angle_gamma 90.000000
_cell_volume 2673.548033
_symmetry_space_group_name_H-M "I 21 21 21"
_symmetry_group_IT_number 24
_symmetry_cell_setting 'orthorhombic'
loop_
_space_group_symop_operation_xyz
x,y,z
-x,1/2-y,z
x,-y,1/2-z
1/2-x,y,-z
1/2+x,1/2+y,1/2+z
1/2-x,-y,1/2+z
1/2+x,1/2-y,-z
-x,1/2+y,1/2-z
loop_
_atom_site_type_symbol
_atom_site_label
_atom_site_fract_x
_atom_site_fract_y
_atom_site_fract_z
Si Si1 0.513598 0.068423 0.567349
Si Si2 0.750000 0.358960 0.000000
Si Si3 0.621926 0.067631 0.303894
Si Si4 0.239897 0.571862 0.393328
Si Si5 0.210316 0.930040 0.393139
Si Si6 0.920443 0.126565 0.975873
Si Si7 0.864620 0.431639 0.695303
O O1 0.500000 0.250000 0.561012
O O2 0.632946 0.032649 0.593068
O O3 0.415535 0.000786 0.603849
O O4 0.509451 0.996051 0.509916
O O5 0.729623 0.460338 0.051079
O O6 0.647273 0.241070 0.985122
O O7 0.640269 0.249070 0.302077
O O8 0.493154 0.017877 0.317987
O O9 0.656332 0.000000 0.250000
O O10 0.709296 0.993805 0.342175
O O11 0.206196 0.748019 0.382594
O O12 0.334682 0.545811 0.437132
O O13 0.281467 0.011710 0.349108
O O14 0.000000 0.250000 0.945307
O O15 0.826289 0.500000 0.750000
#
# Coordination Sequence:
#
# PCOD8165172 Si02
#       7
#     8   4   8   8   8   8   8
#     4  12  23  40  58  87 128 167 203 258 311 364
#     4  10  20  36  64  84 122 160 210 244 304 362
#     4  10  22  41  63  90 128 157 200 260 314 366
#     4  11  23  39  64  89 121 165 211 253 310 370
#     4  11  22  39  64  88 122 164 211 251 306 371
#     4  11  20  40  59  89 122 164 210 253 302 377
#     4  10  22  41  63  95 123 162 206 255 314 371
#
# _framework density 19.449809999999999
#
# number of rings (size 3 to 8) (size 9 to 14) (size 15 to 20)
#    0.000    1.231    4.615    2.308    4.308    1.231 
#    8.308    0.769    0.000    0.000    0.000    0.000 
#    0.000    0.000    0.000    0.000    0.000    0.000 
#
# Total GULP energy -322283.745502 kJ/mol
# GULP energy per Si atom -12395.528673 kJ/mol
# Density = 1.940554 g / cm^3
# Si number density = 19.449810 Si / 1000 Ang^3
#
#
#
# Elastic Constant Matrix: (Units=GPa)
#
#
# Indices 1 2 3 4 5 6 
#
# 1 112.9238 61.6913 72.3646 0.0000 0.0000 0.0000
# 2 61.6913 111.8495 62.8450 0.0000 0.0000 0.0000
# 3 72.3646 62.8450 140.6250 0.0000 0.0000 0.0000
# 4 0.0000 0.0000 0.0000 30.1033 0.0000 0.0000
# 5 0.0000 0.0000 0.0000 0.0000 46.4984 0.0000
# 6 0.0000 0.0000 0.0000 0.0000 0.0000 33.1588
#
#
#
# Elastic Compliance Matrix: (Units=1/GPa)
#
#
# Indices 1 2 3 4 5 6 
#
# 1 0.015290 -0.005358 -0.005474 0.000000 0.000000 0.000000
# 2 -0.005358 0.013816 -0.003417 0.000000 0.000000 0.000000
# 3 -0.005474 -0.003417 0.011455 0.000000 0.000000 0.000000
# 4 0.000000 0.000000 0.000000 0.033219 0.000000 0.000000
# 5 0.000000 0.000000 0.000000 0.000000 0.021506 0.000000
# 6 0.000000 0.000000 0.000000 0.000000 0.000000 0.030158
#
#
# Mechanical properties :
#
#
# Convention : Reuss Voigt Hill
#
# Bulk Modulus (GPa) = 82.89534 84.35556 83.62545
# Shear Modulus (GPa) = 31.65297 33.18526 32.41911
#
# Velocity S-wave (km/s) = 4.03850 4.13510 4.08709
# Velocity P-wave (km/s) = 8.02862 8.14026 8.08463
#
# Compressibility (1/GPa) = 0.01206340
#
# Stress axis : x y z
#
# Youngs Moduli (GPa) = 65.40040 72.38133 87.29786
#
# Poissons Ratio (x) = 0.38781 0.47786
# Poissons Ratio (y) = 0.35041 0.29830
# Poissons Ratio (z) = 0.35800 0.24733
#
# Static dielectric constant tensor:
#      x y z
#    x 3.889390 0.000000 0.000000 
#    y 0.000000 3.558610 0.000000 
#    z 0.000000 0.000000 3.495440 
# 
# 
# High freq. dielectric constant tensor:
#      x y z
#    x 1.765960 0.000000 0.000000 
#    y 0.000000 1.758400 0.000000 
#    z 0.000000 0.000000 1.749600 
# 
# From -- ./inp_files/37192.got.cif
#   From: 2010.03.12/outbox.cif.g09.slc.cpg/sg24_19_cif.got.tgz:37192.got - 2010.04.14 03:06:53.
