data_PCOD8165664
_publ_section_title
;
Structure prediction by ZEFSAII (Michael W. Deem and Ramdas Pophale) SiO2 
 PCOD8165664
Probable space group: I 21 21 21
;
_chemical_formula_sum "Si O2"
_cell_formula_units_Z 60
_cell_length_a 21.100318
_cell_length_b 14.149280
_cell_length_c 10.923602
_cell_angle_alpha 90.000000
_cell_angle_beta 90.000000
_cell_angle_gamma 90.000000
_cell_volume 3261.288430
_symmetry_space_group_name_H-M "I 21 21 21"
_symmetry_group_IT_number 24
_symmetry_cell_setting 'orthorhombic'
loop_
_space_group_symop_operation_xyz
x,y,z
-x,1/2-y,z
x,-y,1/2-z
1/2-x,y,-z
1/2+x,1/2+y,1/2+z
1/2-x,-y,1/2+z
1/2+x,1/2-y,-z
-x,1/2+y,1/2-z
loop_
_atom_site_type_symbol
_atom_site_label
_atom_site_fract_x
_atom_site_fract_y
_atom_site_fract_z
Si Si1 0.670302 0.101771 0.796320
Si Si2 0.524193 0.151188 0.507301
Si Si3 0.566769 0.229234 0.763472
Si Si4 0.741706 0.223861 0.357649
Si Si5 0.250000 0.473948 0.000000
Si Si6 0.584339 0.576113 0.843018
Si Si7 0.641487 0.076908 0.357549
Si Si8 0.272048 0.064153 0.636540
O O1 0.610667 0.162212 0.848239
O O2 0.699290 0.161273 0.685990
O O3 0.647221 0.000000 0.750000
O O4 0.725845 0.094708 0.894483
O O5 0.500000 0.250000 0.446629
O O6 0.556656 0.172304 0.637075
O O7 0.462321 0.087381 0.539563
O O8 0.572784 0.097177 0.417560
O O9 0.500000 0.250000 0.831118
O O10 0.598297 0.328227 0.732269
O O11 0.750000 0.222963 0.500000
O O12 0.674546 0.175791 0.313888
O O13 0.748037 0.332700 0.317938
O O14 0.309206 0.536281 0.043356
O O15 0.554006 0.500000 0.750000
O O16 0.653521 0.546803 0.885796
O O17 0.632070 0.000000 0.250000
O O18 0.250000 0.035873 0.500000
O O19 0.247611 0.000000 0.750000
#
# Coordination Sequence:
#
# PCOD8165664 Si02
#       8
#     8   8   8   8   4   8   8   8
#     4  12  20  34  54  87 121 148 190 241 297 357
#     4   9  21  34  57  81 108 150 196 238 285 348
#     4   9  19  33  53  83 108 143 191 237 285 336
#     4  11  19  34  63  85 114 150 192 243 290 350
#     4  12  22  34  54  90 124 152 188 232 314 360
#     4   9  18  36  58  82 109 147 195 245 294 339
#     4  12  22  36  56  88 120 152 194 244 299 353
#     4  10  22  38  62  90 119 153 203 254 301 349
#
# _framework density 18.397637
#
# number of rings (size 3 to 8) (size 9 to 14) (size 15 to 20)
#    0.000    1.867    4.667    1.600    5.600    4.267 
#    1.200    0.667    0.000    0.800    0.000    0.000 
#    0.000    0.000    0.000    0.000    0.000    0.000 
#
# Total GULP energy -371642.288736 kJ/mol
# GULP energy per Si atom -12388.076291 kJ/mol
# Density = 1.835576 g / cm^3
# Si number density = 18.397637 Si / 1000 Ang^3
#
#
#
# Elastic Constant Matrix: (Units=GPa)
#
#
# Indices 1 2 3 4 5 6 
#
# 1 113.7449 54.8737 33.8783 0.0000 0.0000 0.0000
# 2 54.8737 118.8801 51.5385 0.0000 0.0000 0.0000
# 3 33.8783 51.5385 46.0150 0.0000 0.0000 0.0000
# 4 0.0000 0.0000 0.0000 25.7627 0.0000 0.0000
# 5 0.0000 0.0000 0.0000 0.0000 23.7666 0.0000
# 6 0.0000 0.0000 0.0000 0.0000 0.0000 36.0972
#
#
#
# Elastic Compliance Matrix: (Units=1/GPa)
#
#
# Indices 1 2 3 4 5 6 
#
# 1 0.011888 -0.003291 -0.005067 0.000000 0.000000 0.000000
# 2 -0.003291 0.017263 -0.016912 0.000000 0.000000 0.000000
# 3 -0.005067 -0.016912 0.044405 0.000000 0.000000 0.000000
# 4 0.000000 0.000000 0.000000 0.038816 0.000000 0.000000
# 5 0.000000 0.000000 0.000000 0.000000 0.042076 0.000000
# 6 0.000000 0.000000 0.000000 0.000000 0.000000 0.027703
#
#
# Mechanical properties :
#
#
# Convention : Reuss Voigt Hill
#
# Bulk Modulus (GPa) = 43.44763 62.13565 52.79164
# Shear Modulus (GPa) = 20.80193 26.34860 23.57527
#
# Velocity S-wave (km/s) = 3.36621 3.78851 3.58359
# Velocity P-wave (km/s) = 6.22701 7.27902 6.77347
#
# Compressibility (1/GPa) = 0.02301621
#
# Stress axis : x y z
#
# Youngs Moduli (GPa) = 84.11602 57.92781 22.52012
#
# Poissons Ratio (x) = 0.19063 0.11411
# Poissons Ratio (y) = 0.27682 0.38086
# Poissons Ratio (z) = 0.42620 0.97968
#
# Static dielectric constant tensor:
#      x y z
#    x 3.776370 0.000000 0.000000 
#    y 0.000000 3.942590 0.000000 
#    z 0.000000 0.000000 3.129850 
# 
# 
# High freq. dielectric constant tensor:
#      x y z
#    x 1.719340 0.000000 0.000000 
#    y 0.000000 1.720520 0.000000 
#    z 0.000000 0.000000 1.670100 
# 
# From -- ./inp_files/22325.got.cif
#   From: 2010.03.12/outbox.cif.g09.slc.cpg/sg24_12_cif.got.tgz:22325.got - 2010.04.14 03:06:53.
