data_PCOD8165769
_publ_section_title
;
Structure prediction by ZEFSAII (Michael W. Deem and Ramdas Pophale) SiO2 
 PCOD8165769
Probable space group: I 21 21 21
;
_chemical_formula_sum "Si O2"
_cell_formula_units_Z 44
_cell_length_a 9.693911
_cell_length_b 14.456123
_cell_length_c 15.477657
_cell_angle_alpha 90.000000
_cell_angle_beta 90.000000
_cell_angle_gamma 90.000000
_cell_volume 2168.982664
_symmetry_space_group_name_H-M "I 21 21 21"
_symmetry_group_IT_number 24
_symmetry_cell_setting 'orthorhombic'
loop_
_space_group_symop_operation_xyz
x,y,z
-x,1/2-y,z
x,-y,1/2-z
1/2-x,y,-z
1/2+x,1/2+y,1/2+z
1/2-x,-y,1/2+z
1/2+x,1/2-y,-z
-x,1/2+y,1/2-z
loop_
_atom_site_type_symbol
_atom_site_label
_atom_site_fract_x
_atom_site_fract_y
_atom_site_fract_z
Si Si1 0.109413 0.479101 0.914826
Si Si2 0.212968 0.842798 0.262290
Si Si3 0.162360 0.270758 0.919060
Si Si4 0.580254 0.500000 0.250000
Si Si5 0.109573 0.432253 0.418797
Si Si6 0.021572 0.000000 0.250000
Si Si7 0.500000 0.250000 0.633656
O O1 0.184895 0.380373 0.913064
O O2 0.224413 0.559900 0.915143
O O3 0.007546 0.481995 0.835255
O O4 0.038203 0.500685 0.008380
O O5 0.273537 0.775254 0.334315
O O6 0.336830 0.906691 0.225127
O O7 0.131656 0.783561 0.190564
O O8 0.108878 0.920292 0.299352
O O9 0.000000 0.250000 0.930052
O O10 0.250000 0.231896 0.000000
O O11 0.071214 0.455945 0.321872
O O12 0.057253 0.327679 0.431711
#
# Coordination Sequence:
#
# PCOD8165769 Si02
#       7
#     8   8   8   4   8   4   4
#     4  11  24  42  65  93 139 171 222 269 350 399
#     4  10  24  40  65  95 127 172 226 273 334 394
#     4  12  26  41  65 102 136 177 227 277 339 411
#     4  11  23  46  62  98 133 179 216 284 339 396
#     4  10  22  43  63  97 124 180 220 274 339 402
#     4   9  21  40  66  88 133 169 220 278 333 384
#     4  10  24  44  68  94 124 172 236 276 330 414
#
# _framework density 20.286009
#
# number of rings (size 3 to 8) (size 9 to 14) (size 15 to 20)
#    0.000    1.455    3.636    0.545   11.455    0.000 
#    6.545    6.364    0.000    0.000    0.000    0.000 
#    0.000    0.000    0.000    0.000    0.000    0.000 
#
# Total GULP energy -272552.240782 kJ/mol
# GULP energy per Si atom -12388.738217 kJ/mol
# Density = 2.023984 g / cm^3
# Si number density = 20.286009 Si / 1000 Ang^3
#
#
#
# Elastic Constant Matrix: (Units=GPa)
#
#
# Indices 1 2 3 4 5 6 
#
# 1 96.4644 32.3007 43.3981 0.0000 0.0000 0.0000
# 2 32.3007 134.5330 44.2530 0.0000 0.0000 0.0000
# 3 43.3981 44.2530 97.2844 0.0000 0.0000 0.0000
# 4 0.0000 0.0000 0.0000 37.0322 0.0000 0.0000
# 5 0.0000 0.0000 0.0000 0.0000 29.5406 0.0000
# 6 0.0000 0.0000 0.0000 0.0000 0.0000 17.2677
#
#
#
# Elastic Compliance Matrix: (Units=1/GPa)
#
#
# Indices 1 2 3 4 5 6 
#
# 1 0.013206 -0.001450 -0.005231 0.000000 0.000000 0.000000
# 2 -0.001450 0.008900 -0.003402 0.000000 0.000000 0.000000
# 3 -0.005231 -0.003402 0.014160 0.000000 0.000000 0.000000
# 4 0.000000 0.000000 0.000000 0.027004 0.000000 0.000000
# 5 0.000000 0.000000 0.000000 0.000000 0.033852 0.000000
# 6 0.000000 0.000000 0.000000 0.000000 0.000000 0.057912
#
#
# Mechanical properties :
#
#
# Convention : Reuss Voigt Hill
#
# Bulk Modulus (GPa) = 62.11196 63.13172 62.62184
# Shear Modulus (GPa) = 27.69078 30.65677 29.17377
#
# Velocity S-wave (km/s) = 3.69862 3.89167 3.79637
# Velocity P-wave (km/s) = 6.99459 7.16811 7.08188
#
# Compressibility (1/GPa) = 0.01609996
#
# Stress axis : x y z
#
# Youngs Moduli (GPa) = 75.72585 112.35725 70.61997
#
# Poissons Ratio (x) = 0.16289 0.36945
# Poissons Ratio (y) = 0.10978 0.24024
# Poissons Ratio (z) = 0.39616 0.38222
#
# Static dielectric constant tensor:
#      x y z
#    x 3.864500 0.000000 0.000000 
#    y 0.000000 3.774450 0.000000 
#    z 0.000000 0.000000 4.199510 
# 
# 
# High freq. dielectric constant tensor:
#      x y z
#    x 1.792590 0.000000 0.000000 
#    y 0.000000 1.806250 0.000000 
#    z 0.000000 0.000000 1.786540 
# 
# From -- ./inp_files/29442.got.cif
#   From: 2010.03.12/outbox.cif.g09.slc.cpg/sg24_15_cif.got.tgz:29442.got - 2010.04.14 03:06:53.
