data_PCOD8165428
_publ_section_title
;
Structure prediction by ZEFSAII (Michael W. Deem and Ramdas Pophale) SiO2 
 PCOD8165428
Probable space group: I 21 21 21
;
_chemical_formula_sum "Si O2"
_cell_formula_units_Z 52
_cell_length_a 8.581958
_cell_length_b 14.879515
_cell_length_c 20.113134
_cell_angle_alpha 90.000000
_cell_angle_beta 90.000000
_cell_angle_gamma 90.000000
_cell_volume 2568.354144
_symmetry_space_group_name_H-M "I 21 21 21"
_symmetry_group_IT_number 24
_symmetry_cell_setting 'orthorhombic'
loop_
_space_group_symop_operation_xyz
x,y,z
-x,1/2-y,z
x,-y,1/2-z
1/2-x,y,-z
1/2+x,1/2+y,1/2+z
1/2-x,-y,1/2+z
1/2+x,1/2-y,-z
-x,1/2+y,1/2-z
loop_
_atom_site_type_symbol
_atom_site_label
_atom_site_fract_x
_atom_site_fract_y
_atom_site_fract_z
Si Si1 0.938448 0.653661 0.343528
Si Si2 0.158420 0.206532 0.766296
Si Si3 0.525672 0.536923 0.889695
Si Si4 0.876338 0.572574 0.849133
Si Si5 0.841554 0.868679 0.224441
Si Si6 0.577239 0.000000 0.250000
Si Si7 0.569834 0.348142 0.486667
O O1 0.753563 0.663366 0.328615
O O2 0.982953 0.572327 0.394328
O O3 0.000000 0.750000 0.371077
O O4 0.015661 0.622185 0.274724
O O5 0.096469 0.136405 0.713554
O O6 0.284106 0.265529 0.722803
O O7 0.000000 0.250000 0.795602
O O8 0.696730 0.555124 0.861314
O O9 0.396047 0.586574 0.844696
O O10 0.498912 0.579044 0.962323
O O11 0.974483 0.488918 0.818886
O O12 0.962812 0.614204 0.913131
O O13 0.688555 0.914672 0.252682
O O14 0.500000 0.250000 0.497144
O O15 0.750000 0.337583 0.500000
#
# Coordination Sequence:
#
# PCOD8165428 Si02
#       7
#     8   8   8   8   8   4   8
#     4  10  21  37  59  91 118 154 212 258 308 364
#     4  11  21  34  57  87 129 158 194 256 318 367
#     4  11  22  39  61  85 122 171 214 247 307 375
#     4  11  23  38  59  91 127 163 204 247 315 369
#     4  11  22  34  57  91 123 159 206 252 308 371
#     4  12  22  34  60  90 126 158 200 258 304 366
#     4  10  25  41  60  90 126 169 211 249 306 377
#
# _framework density 20.24643
#
# number of rings (size 3 to 8) (size 9 to 14) (size 15 to 20)
#    0.000    1.231    4.615    1.385    4.308    0.000 
#    0.000    0.000    0.000    0.000   28.000    0.000 
#    0.000    0.000    0.000    0.000    0.000    0.000 
#
# Total GULP energy -322132.209802 kJ/mol
# GULP energy per Si atom -12389.700377 kJ/mol
# Density = 2.020035 g / cm^3
# Si number density = 20.246430 Si / 1000 Ang^3
#
#
#
# Elastic Constant Matrix: (Units=GPa)
#
#
# Indices 1 2 3 4 5 6 
#
# 1 84.6149 20.0184 28.8810 0.0000 0.0000 0.0000
# 2 20.0184 102.7625 57.3018 0.0000 0.0000 0.0000
# 3 28.8810 57.3018 88.9643 0.0000 0.0000 0.0000
# 4 0.0000 0.0000 0.0000 25.5887 0.0000 0.0000
# 5 0.0000 0.0000 0.0000 0.0000 11.2746 0.0000
# 6 0.0000 0.0000 0.0000 0.0000 0.0000 33.6416
#
#
#
# Elastic Compliance Matrix: (Units=1/GPa)
#
#
# Indices 1 2 3 4 5 6 
#
# 1 0.013296 -0.000286 -0.004132 0.000000 0.000000 0.000000
# 2 -0.000286 0.015191 -0.009692 0.000000 0.000000 0.000000
# 3 -0.004132 -0.009692 0.018824 0.000000 0.000000 0.000000
# 4 0.000000 0.000000 0.000000 0.039080 0.000000 0.000000
# 5 0.000000 0.000000 0.000000 0.000000 0.088695 0.000000
# 6 0.000000 0.000000 0.000000 0.000000 0.000000 0.029725
#
#
# Mechanical properties :
#
#
# Convention : Reuss Voigt Hill
#
# Bulk Modulus (GPa) = 52.37826 54.30489 53.34158
# Shear Modulus (GPa) = 20.88595 25.44370 23.16482
#
# Velocity S-wave (km/s) = 3.21532 3.54884 3.38619
# Velocity P-wave (km/s) = 6.30166 6.60852 6.45691
#
# Compressibility (1/GPa) = 0.01909189
#
# Stress axis : x y z
#
# Youngs Moduli (GPa) = 75.20870 65.82784 53.12254
#
# Poissons Ratio (x) = 0.01882 0.21952
# Poissons Ratio (y) = 0.02150 0.51485
# Poissons Ratio (z) = 0.31078 0.63799
#
# Static dielectric constant tensor:
#      x y z
#    x 3.858710 0.000000 0.000000 
#    y 0.000000 4.096760 0.000000 
#    z 0.000000 0.000000 3.475340 
# 
# 
# High freq. dielectric constant tensor:
#      x y z
#    x 1.810280 0.000000 0.000000 
#    y 0.000000 1.805580 0.000000 
#    z 0.000000 0.000000 1.739120 
# 
# From -- ./inp_files/32763.got.cif
#   From: 2010.03.12/outbox.cif.g09.slc.cpg/sg24_17_cif.got.tgz:32763.got - 2010.04.14 03:06:53.
