data_PCOD8165121
_publ_section_title
;
Structure prediction by ZEFSAII (Michael W. Deem and Ramdas Pophale) SiO2 
 PCOD8165121
Probable space group: I 21 21 21
;
_chemical_formula_sum "Si O2"
_cell_formula_units_Z 36
_cell_length_a 13.798704
_cell_length_b 7.665535
_cell_length_c 17.691483
_cell_angle_alpha 90.000000
_cell_angle_beta 90.000000
_cell_angle_gamma 90.000000
_cell_volume 1871.306857
_symmetry_space_group_name_H-M "I 21 21 21"
_symmetry_group_IT_number 24
_symmetry_cell_setting 'orthorhombic'
loop_
_space_group_symop_operation_xyz
x,y,z
-x,1/2-y,z
x,-y,1/2-z
1/2-x,y,-z
1/2+x,1/2+y,1/2+z
1/2-x,-y,1/2+z
1/2+x,1/2-y,-z
-x,1/2+y,1/2-z
loop_
_atom_site_type_symbol
_atom_site_label
_atom_site_fract_x
_atom_site_fract_y
_atom_site_fract_z
Si Si1 0.483922 0.560683 0.063473
Si Si2 0.791480 0.787141 0.414666
Si Si3 0.327900 0.007593 0.338576
Si Si4 0.000000 0.250000 0.049370
Si Si5 0.726518 0.848971 0.086352
O O1 0.500000 0.750000 0.025189
O O2 0.565876 0.517759 0.124765
O O3 0.379150 0.567619 0.101759
O O4 0.480573 0.419791 0.999107
O O5 0.750000 0.773977 0.500000
O O6 0.723720 0.670503 0.362348
O O7 0.901543 0.717544 0.403872
O O8 0.795186 0.990564 0.388428
O O9 0.262378 0.174352 0.363425
O O10 0.342518 0.000000 0.250000
O O11 0.750000 0.793853 0.000000
#
# Coordination Sequence:
#
# PCOD8165121 Si02
#       5
#     8   8   8   4   8
#     4  10  20  35  57  91 120 150 196 246 300 351
#     4  11  21  37  63  88 116 159 207 260 293 353
#     4  11  24  40  59  89 130 164 193 239 314 376
#     4  12  20  36  62  92 112 146 214 260 296 330
#     4  10  20  39  61  90 120 157 206 248 300 355
#
# _framework density 19.237893
#
# number of rings (size 3 to 8) (size 9 to 14) (size 15 to 20)
#    0.000    1.333    6.667    0.667    3.111    0.889 
#   18.000    0.000    4.889    0.000    0.000    0.000 
#    0.000    0.000    0.000    0.000    0.000    0.000 
#
# Total GULP energy -223090.946477 kJ/mol
# GULP energy per Si atom -12393.941471 kJ/mol
# Density = 1.919411 g / cm^3
# Si number density = 19.237893 Si / 1000 Ang^3
#
#
#
# Elastic Constant Matrix: (Units=GPa)
#
#
# Indices 1 2 3 4 5 6 
#
# 1 88.6723 1.3006 18.2411 0.0000 0.0000 0.0000
# 2 1.3006 92.9510 21.1111 0.0000 0.0000 0.0000
# 3 18.2411 21.1111 58.0293 0.0000 0.0000 0.0000
# 4 0.0000 0.0000 0.0000 13.6494 0.0000 0.0000
# 5 0.0000 0.0000 0.0000 0.0000 146.8047 0.0000
# 6 0.0000 0.0000 0.0000 0.0000 0.0000 20.4871
#
#
#
# Elastic Compliance Matrix: (Units=1/GPa)
#
#
# Indices 1 2 3 4 5 6 
#
# 1 0.012106 0.000757 -0.004081 0.000000 0.000000 0.000000
# 2 0.000757 0.011775 -0.004522 0.000000 0.000000 0.000000
# 3 -0.004081 -0.004522 0.020161 0.000000 0.000000 0.000000
# 4 0.000000 0.000000 0.000000 0.073263 0.000000 0.000000
# 5 0.000000 0.000000 0.000000 0.000000 0.006812 0.000000
# 6 0.000000 0.000000 0.000000 0.000000 0.000000 0.048811
#
#
# Mechanical properties :
#
#
# Convention : Reuss Voigt Hill
#
# Bulk Modulus (GPa) = 35.27260 35.66204 35.46732
# Shear Modulus (GPa) = 25.24382 49.45488 37.34935
#
# Velocity S-wave (km/s) = 3.62635 5.07571 4.41097
# Velocity P-wave (km/s) = 5.99238 7.27517 6.66471
#
# Compressibility (1/GPa) = 0.02835062
#
# Stress axis : x y z
#
# Youngs Moduli (GPa) = 82.60448 84.92752 49.60190
#
# Poissons Ratio (x) = -0.06433 0.20242
# Poissons Ratio (y) = -0.06257 0.22429
# Poissons Ratio (z) = 0.33711 0.38402
#
# Static dielectric constant tensor:
#      x y z
#    x 4.134060 0.000000 0.000000 
#    y 0.000000 4.011050 0.000000 
#    z 0.000000 0.000000 3.038490 
# 
# 
# High freq. dielectric constant tensor:
#      x y z
#    x 1.757890 0.000000 0.000000 
#    y 0.000000 1.776880 0.000000 
#    z 0.000000 0.000000 1.688220 
# 
# From -- ./inp_files/26252.got.cif
#   From: 2010.03.12/outbox.cif.g09.slc.cpg/sg24_14_cif.got.tgz:26252.got - 2010.04.14 03:06:53.
