data_PCOD8165241
_publ_section_title
;
Structure prediction by ZEFSAII (Michael W. Deem and Ramdas Pophale) SiO2 
 PCOD8165241
Probable space group: I 21 21 21
;
_chemical_formula_sum "Si O2"
_cell_formula_units_Z 60
_cell_length_a 5.831336
_cell_length_b 25.074209
_cell_length_c 19.668957
_cell_angle_alpha 90.000000
_cell_angle_beta 90.000000
_cell_angle_gamma 90.000000
_cell_volume 2875.918923
_symmetry_space_group_name_H-M "I 21 21 21"
_symmetry_group_IT_number 24
_symmetry_cell_setting 'orthorhombic'
loop_
_space_group_symop_operation_xyz
x,y,z
-x,1/2-y,z
x,-y,1/2-z
1/2-x,y,-z
1/2+x,1/2+y,1/2+z
1/2-x,-y,1/2+z
1/2+x,1/2-y,-z
-x,1/2+y,1/2-z
loop_
_atom_site_type_symbol
_atom_site_label
_atom_site_fract_x
_atom_site_fract_y
_atom_site_fract_z
Si Si1 0.749728 0.777479 0.077511
Si Si2 0.258718 0.116275 0.231902
Si Si3 0.599333 0.952765 0.797616
Si Si4 0.078516 0.386281 0.889963
Si Si5 0.750000 0.419393 0.000000
Si Si6 0.122102 0.484302 0.067786
Si Si7 0.651467 0.843855 0.198349
Si Si8 0.109421 0.306307 0.176793
O O1 0.500000 0.750000 0.093848
O O2 0.736700 0.829813 0.123352
O O3 0.000000 0.750000 0.093038
O O4 0.750000 0.795687 0.000000
O O5 0.448798 0.097535 0.178667
O O6 0.376458 0.153941 0.290233
O O7 0.149717 0.065483 0.269720
O O8 0.087371 0.150539 0.186593
O O9 0.766521 0.903438 0.786620
O O10 0.690910 0.000000 0.750000
O O11 0.588489 0.969039 0.876973
O O12 0.241851 0.435932 0.899828
O O13 0.217602 0.330370 0.880465
O O14 0.917234 0.380849 0.956604
O O15 0.875912 0.459817 0.050826
O O16 0.250000 0.506708 0.000000
O O17 0.756960 0.800716 0.251349
O O18 0.000000 0.250000 0.153605
#
# Coordination Sequence:
#
# PCOD8165241 Si02
#       8
#     8   8   8   8   4   8   8   8
#     4  10  23  42  68  94 129 177 230 280 334 401
#     4  10  22  37  58  93 119 165 201 260 322 374
#     4  11  22  38  58  88 132 163 212 267 321 387
#     4  10  20  38  60  91 119 156 212 253 314 384
#     4  10  20  38  64  88 114 164 212 246 312 386
#     4  10  22  39  62  90 119 164 211 254 307 385
#     4  10  23  36  60  88 127 167 212 268 325 389
#     4  10  21  36  58  92 122 151 204 260 321 380
#
# _framework density 20.862898000000001
#
# number of rings (size 3 to 8) (size 9 to 14) (size 15 to 20)
#    0.000    1.867    0.000    4.400    5.600    5.867 
#    0.000    1.333    0.000    0.000   78.000    0.000 
#    0.000    0.000    0.000    0.000    0.000    0.000 
#
# Total GULP energy -371692.061452 kJ/mol
# GULP energy per Si atom -12389.735382 kJ/mol
# Density = 2.081541 g / cm^3
# Si number density = 20.862898 Si / 1000 Ang^3
#
#
#
# Elastic Constant Matrix: (Units=GPa)
#
#
# Indices 1 2 3 4 5 6 
#
# 1 118.1942 40.7195 42.8243 0.0000 0.0000 0.0000
# 2 40.7195 84.3814 47.7550 0.0000 0.0000 0.0000
# 3 42.8243 47.7550 103.6430 0.0000 0.0000 0.0000
# 4 0.0000 0.0000 0.0000 29.4339 0.0000 0.0000
# 5 0.0000 0.0000 0.0000 0.0000 32.4203 0.0000
# 6 0.0000 0.0000 0.0000 0.0000 0.0000 23.4552
#
#
#
# Elastic Compliance Matrix: (Units=1/GPa)
#
#
# Indices 1 2 3 4 5 6 
#
# 1 0.010702 -0.003601 -0.002763 0.000000 0.000000 0.000000
# 2 -0.003601 0.017243 -0.006457 0.000000 0.000000 0.000000
# 3 -0.002763 -0.006457 0.013765 0.000000 0.000000 0.000000
# 4 0.000000 0.000000 0.000000 0.033974 0.000000 0.000000
# 5 0.000000 0.000000 0.000000 0.000000 0.030845 0.000000
# 6 0.000000 0.000000 0.000000 0.000000 0.000000 0.042635
#
#
# Mechanical properties :
#
#
# Convention : Reuss Voigt Hill
#
# Bulk Modulus (GPa) = 62.23259 63.20181 62.71720
# Shear Modulus (GPa) = 27.75274 28.72319 28.23796
#
# Velocity S-wave (km/s) = 3.65121 3.71450 3.68299
# Velocity P-wave (km/s) = 6.90429 6.98257 6.94354
#
# Compressibility (1/GPa) = 0.01606875
#
# Stress axis : x y z
#
# Youngs Moduli (GPa) = 93.43811 57.99469 72.64640
#
# Poissons Ratio (x) = 0.20883 0.20072
# Poissons Ratio (y) = 0.33646 0.46908
# Poissons Ratio (z) = 0.25816 0.37448
#
# Static dielectric constant tensor:
#      x y z
#    x 4.296840 0.000000 0.000000 
#    y 0.000000 3.426850 0.000000 
#    z 0.000000 0.000000 3.963150 
# 
# 
# High freq. dielectric constant tensor:
#      x y z
#    x 1.838450 0.000000 0.000000 
#    y 0.000000 1.784550 0.000000 
#    z 0.000000 0.000000 1.822850 
# 
# From -- ./inp_files/32297.got.cif
#   From: 2010.03.12/outbox.cif.g09.slc.cpg/sg24_17_cif.got.tgz:32297.got - 2010.04.14 03:06:53.
