data_PCOD8165783
_publ_section_title
;
Structure prediction by ZEFSAII (Michael W. Deem and Ramdas Pophale) SiO2 
 PCOD8165783
Probable space group: I 21 21 21
;
_chemical_formula_sum "Si O2"
_cell_formula_units_Z 28
_cell_length_a 7.867718
_cell_length_b 8.403835
_cell_length_c 16.800424
_cell_angle_alpha 90.000000
_cell_angle_beta 90.000000
_cell_angle_gamma 90.000000
_cell_volume 1110.827300
_symmetry_space_group_name_H-M "I 21 21 21"
_symmetry_group_IT_number 24
_symmetry_cell_setting 'orthorhombic'
loop_
_space_group_symop_operation_xyz
x,y,z
-x,1/2-y,z
x,-y,1/2-z
1/2-x,y,-z
1/2+x,1/2+y,1/2+z
1/2-x,-y,1/2+z
1/2+x,1/2-y,-z
-x,1/2+y,1/2-z
loop_
_atom_site_type_symbol
_atom_site_label
_atom_site_fract_x
_atom_site_fract_y
_atom_site_fract_z
Si Si1 0.818936 0.666562 0.649846
Si Si2 0.038853 0.419216 0.587569
Si Si3 0.159719 0.661156 0.207133
Si Si4 0.750000 0.156164 0.000000
O O1 0.724664 0.703676 0.731382
O O2 0.707517 0.734483 0.576227
O O3 0.000000 0.750000 0.651172
O O4 0.869368 0.480209 0.635386
O O5 0.196238 0.396621 0.647087
O O6 0.086703 0.543755 0.518079
O O7 0.000000 0.250000 0.547291
O O8 0.096472 0.500000 0.250000
O O9 0.000000 0.750000 0.164605
#
# Coordination Sequence:
#
# PCOD8165783 Si02
#       4
#     8   8   8   4
#     4  10  22  46  73  94 138 193 232 284 351 431
#     4  11  26  45  74 104 140 190 241 288 354 430
#     4  12  26  44  70 108 144 181 238 299 355 409
#     4  10  22  44  66 100 130 180 242 288 344 408
#
# _framework density 25.206437999999999
#
# number of rings (size 3 to 8) (size 9 to 14) (size 15 to 20)
#    0.000    1.143    5.714    0.857    4.000    5.714 
#    0.000    0.000    0.000    0.000    0.000    0.000 
#    0.000    0.000    0.000    0.000    0.000    0.000 
#
# Total GULP energy -173494.741208 kJ/mol
# GULP energy per Si atom -12392.481515 kJ/mol
# Density = 2.514907 g / cm^3
# Si number density = 25.206438 Si / 1000 Ang^3
#
#
#
# Elastic Constant Matrix: (Units=GPa)
#
#
# Indices 1 2 3 4 5 6 
#
# 1 91.1195 53.6434 46.6566 0.0000 0.0000 0.0000
# 2 53.6434 132.2603 14.2006 0.0000 0.0000 0.0000
# 3 46.6566 14.2006 87.7884 0.0000 0.0000 0.0000
# 4 0.0000 0.0000 0.0000 26.7036 0.0000 0.0000
# 5 0.0000 0.0000 0.0000 0.0000 34.3286 0.0000
# 6 0.0000 0.0000 0.0000 0.0000 0.0000 57.6429
#
#
#
# Elastic Compliance Matrix: (Units=1/GPa)
#
#
# Indices 1 2 3 4 5 6 
#
# 1 0.020011 -0.007098 -0.009487 0.000000 0.000000 0.000000
# 2 -0.007098 0.010212 0.002120 0.000000 0.000000 0.000000
# 3 -0.009487 0.002120 0.016090 0.000000 0.000000 0.000000
# 4 0.000000 0.000000 0.000000 0.037448 0.000000 0.000000
# 5 0.000000 0.000000 0.000000 0.000000 0.029130 0.000000
# 6 0.000000 0.000000 0.000000 0.000000 0.000000 0.017348
#
#
# Mechanical properties :
#
#
# Convention : Reuss Voigt Hill
#
# Bulk Modulus (GPa) = 57.52359 60.01884 58.77122
# Shear Modulus (GPa) = 30.30993 36.84617 33.57805
#
# Velocity S-wave (km/s) = 3.47142 3.82747 3.65378
# Velocity P-wave (km/s) = 6.24005 6.58751 6.41613
#
# Compressibility (1/GPa) = 0.01738417
#
# Stress axis : x y z
#
# Youngs Moduli (GPa) = 49.97328 97.92509 62.15021
#
# Poissons Ratio (x) = 0.69503 0.58961
# Poissons Ratio (y) = 0.35469 -0.13177
# Poissons Ratio (z) = 0.47409 -0.20762
#
# Static dielectric constant tensor:
#      x y z
#    x 4.989990 0.000000 0.000000 
#    y 0.000000 5.849490 0.000000 
#    z 0.000000 0.000000 4.401860 
# 
# 
# High freq. dielectric constant tensor:
#      x y z
#    x 1.990400 0.000000 0.000000 
#    y 0.000000 2.028530 0.000000 
#    z 0.000000 0.000000 1.978500 
# 
# From -- ./inp_files/8754.got.cif
#   From: 2010.03.12/outbox.cif.g09.slc.cpg/sg24_5_cif.got.tgz:8754.got - 2010.04.14 03:06:53.
