data_PCOD8165376
_publ_section_title
;
Structure prediction by ZEFSAII (Michael W. Deem and Ramdas Pophale) SiO2 
 PCOD8165376
Probable space group: I 21 21 21
;
_chemical_formula_sum "Si O2"
_cell_formula_units_Z 36
_cell_length_a 17.707062
_cell_length_b 7.127534
_cell_length_c 13.431426
_cell_angle_alpha 90.000000
_cell_angle_beta 90.000000
_cell_angle_gamma 90.000000
_cell_volume 1695.149201
_symmetry_space_group_name_H-M "I 21 21 21"
_symmetry_group_IT_number 24
_symmetry_cell_setting 'orthorhombic'
loop_
_space_group_symop_operation_xyz
x,y,z
-x,1/2-y,z
x,-y,1/2-z
1/2-x,y,-z
1/2+x,1/2+y,1/2+z
1/2-x,-y,1/2+z
1/2+x,1/2-y,-z
-x,1/2+y,1/2-z
loop_
_atom_site_type_symbol
_atom_site_label
_atom_site_fract_x
_atom_site_fract_y
_atom_site_fract_z
Si Si1 0.709299 0.880794 0.653667
Si Si2 0.900197 0.534551 0.360002
Si Si3 0.331148 0.291387 0.519348
Si Si4 0.619789 0.962103 0.359891
Si Si5 0.500000 0.250000 0.008423
O O1 0.669840 0.677995 0.650140
O O2 0.685696 0.000000 0.750000
O O3 0.679116 0.997277 0.560236
O O4 0.799683 0.854854 0.649508
O O5 0.934447 0.500000 0.250000
O O6 0.874872 0.335766 0.403437
O O7 0.965759 0.595914 0.434496
O O8 0.250000 0.195106 0.500000
O O9 0.372567 0.333071 0.414031
O O10 0.586696 0.000000 0.250000
O O11 0.563665 0.831592 0.420643
#
# Coordination Sequence:
#
# PCOD8165376 Si02
#       5
#     8   8   8   8   4
#     4  10  20  44  72 100 134 167 230 293 332 382
#     4  12  26  42  70 106 135 178 227 274 343 411
#     4  10  22  40  70 101 130 171 223 286 336 383
#     4  10  24  46  67  96 140 182 225 284 332 393
#     4  12  28  42  64 100 146 188 210 270 340 422
#
# _framework density 21.237068000000001
#
# number of rings (size 3 to 8) (size 9 to 14) (size 15 to 20)
#    0.000    1.333    4.444    0.000    3.111    5.333 
#    0.000    1.111    0.000    0.000    0.000    0.000 
#    0.000    0.000    0.000    0.000    0.000    0.000 
#
# Total GULP energy -223164.183822 kJ/mol
# GULP energy per Si atom -12398.010212 kJ/mol
# Density = 2.118873 g / cm^3
# Si number density = 21.237068 Si / 1000 Ang^3
#
#
#
# Elastic Constant Matrix: (Units=GPa)
#
#
# Indices 1 2 3 4 5 6 
#
# 1 62.6817 23.1744 37.1725 0.0000 0.0000 0.0000
# 2 23.1744 75.1224 42.3146 0.0000 0.0000 0.0000
# 3 37.1725 42.3146 169.7684 0.0000 0.0000 0.0000
# 4 0.0000 0.0000 0.0000 40.2127 0.0000 0.0000
# 5 0.0000 0.0000 0.0000 0.0000 14.3476 0.0000
# 6 0.0000 0.0000 0.0000 0.0000 0.0000 11.5567
#
#
#
# Elastic Compliance Matrix: (Units=1/GPa)
#
#
# Indices 1 2 3 4 5 6 
#
# 1 0.019400 -0.004179 -0.003206 0.000000 0.000000 0.000000
# 2 -0.004179 0.016386 -0.003169 0.000000 0.000000 0.000000
# 3 -0.003206 -0.003169 0.007382 0.000000 0.000000 0.000000
# 4 0.000000 0.000000 0.000000 0.024868 0.000000 0.000000
# 5 0.000000 0.000000 0.000000 0.000000 0.069698 0.000000
# 6 0.000000 0.000000 0.000000 0.000000 0.000000 0.086530
#
#
# Mechanical properties :
#
#
# Convention : Reuss Voigt Hill
#
# Bulk Modulus (GPa) = 45.33119 56.98841 51.15980
# Shear Modulus (GPa) = 19.78429 26.88412 23.33421
#
# Velocity S-wave (km/s) = 3.05551 3.56182 3.31833
# Velocity P-wave (km/s) = 5.81720 6.61876 6.23089
#
# Compressibility (1/GPa) = 0.02205987
#
# Stress axis : x y z
#
# Youngs Moduli (GPa) = 51.54643 61.02850 135.45828
#
# Poissons Ratio (x) = 0.25502 0.43432
# Poissons Ratio (y) = 0.21539 0.42929
# Poissons Ratio (z) = 0.16527 0.19341
#
# Static dielectric constant tensor:
#      x y z
#    x 3.999930 0.000000 0.000000 
#    y 0.000000 3.527010 0.000000 
#    z 0.000000 0.000000 4.294150 
# 
# 
# High freq. dielectric constant tensor:
#      x y z
#    x 1.823620 0.000000 0.000000 
#    y 0.000000 1.811910 0.000000 
#    z 0.000000 0.000000 1.863020 
# 
# From -- ./inp_files/27347.got.cif
#   From: 2010.03.12/outbox.cif.g09.slc.cpg/sg24_14_cif.got.tgz:27347.got - 2010.04.14 03:06:53.
