data_PCOD8165569
_publ_section_title
;
Structure prediction by ZEFSAII (Michael W. Deem and Ramdas Pophale) SiO2 
 PCOD8165569
Probable space group: I 21 21 21
;
_chemical_formula_sum "Si O2"
_cell_formula_units_Z 64
_cell_length_a 23.133925
_cell_length_b 9.336958
_cell_length_c 13.177478
_cell_angle_alpha 90.000000
_cell_angle_beta 90.000000
_cell_angle_gamma 90.000000
_cell_volume 2846.341654
_symmetry_space_group_name_H-M "I 21 21 21"
_symmetry_group_IT_number 24
_symmetry_cell_setting 'orthorhombic'
loop_
_space_group_symop_operation_xyz
x,y,z
-x,1/2-y,z
x,-y,1/2-z
1/2-x,y,-z
1/2+x,1/2+y,1/2+z
1/2-x,-y,1/2+z
1/2+x,1/2-y,-z
-x,1/2+y,1/2-z
loop_
_atom_site_type_symbol
_atom_site_label
_atom_site_fract_x
_atom_site_fract_y
_atom_site_fract_z
Si Si1 0.361876 0.222695 0.890976
Si Si2 0.553230 0.650826 0.019716
Si Si3 0.314230 0.534111 0.488913
Si Si4 0.323124 0.769766 0.091226
Si Si5 0.751425 0.537261 0.364861
Si Si6 0.555829 0.659405 0.781904
Si Si7 0.055410 0.842930 0.572707
Si Si8 0.840701 0.237206 0.819818
O O1 0.311014 0.103385 0.909659
O O2 0.386778 0.216044 0.776500
O O3 0.344810 0.388721 0.914539
O O4 0.412818 0.186055 0.967100
O O5 0.500000 0.750000 0.050834
O O6 0.568385 0.665149 0.901123
O O7 0.612345 0.675114 0.079185
O O8 0.530645 0.501081 0.061478
O O9 0.250000 0.589288 0.500000
O O10 0.315008 0.360479 0.489279
O O11 0.341807 0.588931 0.382852
O O12 0.320151 0.708965 0.205796
O O13 0.274182 0.894684 0.077803
O O14 0.764428 0.500000 0.250000
O O15 0.703580 0.658405 0.376855
O O16 0.500000 0.750000 0.750908
O O17 0.540991 0.500000 0.750000
O O18 0.097005 0.814579 0.669702
O O19 0.000000 0.750000 0.589910
#
# Coordination Sequence:
#
# PCOD8165569 Si02
#       8
#     8   8   8   8   8   8   8   8
#     4  11  23  42  73  97 140 186 242 287 366 439
#     4  11  26  43  66 103 143 178 240 306 357 415
#     4  11  24  44  66 101 139 183 225 283 357 431
#     4  11  25  46  68 104 142 180 236 300 359 422
#     4  10  21  41  73 102 136 182 236 292 351 430
#     4  11  24  44  71 100 141 189 240 301 363 439
#     4  11  24  41  70 100 132 187 240 282 354 433
#     4  10  22  46  72  96 142 185 227 291 357 431
#
# _framework density 22.485002999999999
#
# number of rings (size 3 to 8) (size 9 to 14) (size 15 to 20)
#    0.000    1.250    3.750    1.125    3.500    2.500 
#    2.250    0.000    0.000    0.000    0.000    0.000 
#    0.000    0.000    0.000    0.000    0.000    0.000 
#
# Total GULP energy -396562.834026 kJ/mol
# GULP energy per Si atom -12392.588563 kJ/mol
# Density = 2.243383 g / cm^3
# Si number density = 22.485003 Si / 1000 Ang^3
#
#
#
# Elastic Constant Matrix: (Units=GPa)
#
#
# Indices 1 2 3 4 5 6 
#
# 1 98.1255 21.5238 28.0250 0.0000 0.0000 0.0000
# 2 21.5238 126.8651 25.1589 0.0000 0.0000 0.0000
# 3 28.0250 25.1589 55.5940 0.0000 0.0000 0.0000
# 4 0.0000 0.0000 0.0000 20.1171 0.0000 0.0000
# 5 0.0000 0.0000 0.0000 0.0000 31.4128 0.0000
# 6 0.0000 0.0000 0.0000 0.0000 0.0000 62.9006
#
#
#
# Elastic Compliance Matrix: (Units=1/GPa)
#
#
# Indices 1 2 3 4 5 6 
#
# 1 0.012002 -0.000919 -0.005634 0.000000 0.000000 0.000000
# 2 -0.000919 0.008730 -0.003487 0.000000 0.000000 0.000000
# 3 -0.005634 -0.003487 0.022406 0.000000 0.000000 0.000000
# 4 0.000000 0.000000 0.000000 0.049709 0.000000 0.000000
# 5 0.000000 0.000000 0.000000 0.000000 0.031834 0.000000
# 6 0.000000 0.000000 0.000000 0.000000 0.000000 0.015898
#
#
# Mechanical properties :
#
#
# Convention : Reuss Voigt Hill
#
# Bulk Modulus (GPa) = 43.37180 47.77777 45.57478
# Shear Modulus (GPa) = 29.70083 36.61124 33.15604
#
# Velocity S-wave (km/s) = 3.63839 4.03954 3.84420
# Velocity P-wave (km/s) = 6.08125 6.56140 6.32588
#
# Compressibility (1/GPa) = 0.02305646
#
# Stress axis : x y z
#
# Youngs Moduli (GPa) = 83.32127 114.54898 44.63089
#
# Poissons Ratio (x) = 0.10525 0.25146
# Poissons Ratio (y) = 0.07656 0.15565
# Poissons Ratio (z) = 0.46945 0.39949
#
# Static dielectric constant tensor:
#      x y z
#    x 4.114450 0.000000 0.000000 
#    y 0.000000 4.167120 0.000000 
#    z 0.000000 0.000000 3.837810 
# 
# 
# High freq. dielectric constant tensor:
#      x y z
#    x 1.891140 0.000000 0.000000 
#    y 0.000000 1.891080 0.000000 
#    z 0.000000 0.000000 1.882220 
# 
# From -- ./inp_files/27890.got.cif
#   From: 2010.03.12/outbox.cif.g09.slc.cpg/sg24_14_cif.got.tgz:27890.got - 2010.04.14 03:06:53.
