data_PCOD8165237
_publ_section_title
;
Structure prediction by ZEFSAII (Michael W. Deem and Ramdas Pophale) SiO2 
 PCOD8165237
Probable space group: I 21 21 21
;
_chemical_formula_sum "Si O2"
_cell_formula_units_Z 64
_cell_length_a 17.199800
_cell_length_b 9.094023
_cell_length_c 20.203684
_cell_angle_alpha 90.000000
_cell_angle_beta 90.000000
_cell_angle_gamma 90.000000
_cell_volume 3160.166846
_symmetry_space_group_name_H-M "I 21 21 21"
_symmetry_group_IT_number 24
_symmetry_cell_setting 'orthorhombic'
loop_
_space_group_symop_operation_xyz
x,y,z
-x,1/2-y,z
x,-y,1/2-z
1/2-x,y,-z
1/2+x,1/2+y,1/2+z
1/2-x,-y,1/2+z
1/2+x,1/2-y,-z
-x,1/2+y,1/2-z
loop_
_atom_site_type_symbol
_atom_site_label
_atom_site_fract_x
_atom_site_fract_y
_atom_site_fract_z
Si Si1 0.665354 0.284567 0.693661
Si Si2 0.172287 0.095293 0.813521
Si Si3 0.079535 0.328249 0.734213
Si Si4 0.587869 0.260393 0.506462
Si Si5 0.818354 0.739521 0.349379
Si Si6 0.329654 0.808888 0.126122
Si Si7 0.429836 0.998086 0.880904
Si Si8 0.606930 0.972311 0.885707
O O1 0.686192 0.264602 0.769694
O O2 0.738231 0.313399 0.643880
O O3 0.604175 0.417243 0.684286
O O4 0.622058 0.136314 0.674443
O O5 0.116666 0.230425 0.793467
O O6 0.236058 0.162735 0.864303
O O7 0.206450 0.000000 0.750000
O O8 0.129786 0.967046 0.855906
O O9 0.068299 0.500000 0.750000
O O10 0.133820 0.322044 0.669767
O O11 0.000000 0.250000 0.715739
O O12 0.500000 0.250000 0.477171
O O13 0.652974 0.278534 0.450340
O O14 0.589936 0.398215 0.555776
O O15 0.611712 0.110689 0.544137
O O16 0.887854 0.654091 0.385209
O O17 0.827120 0.901942 0.379755
O O18 0.520515 0.033982 0.874200
#
# Coordination Sequence:
#
# PCOD8165237 Si02
#       8
#     8   8   8   8   8   8   8   8
#     4  11  21  35  60  87 126 162 205 259 320 378
#     4  10  20  38  59  93 126 160 205 259 317 384
#     4  11  23  39  65  96 128 159 202 257 317 382
#     4   9  21  43  64  87 120 163 218 261 302 373
#     4  12  20  36  60  89 128 161 196 263 327 367
#     4  11  21  39  68  89 120 168 212 255 323 373
#     4  10  21  39  57  86 124 167 214 258 306 371
#     4  10  24  36  57  90 124 166 215 259 306 380
#
# _framework density 20.252095000000001
#
# number of rings (size 3 to 8) (size 9 to 14) (size 15 to 20)
#    0.000    1.500    3.750    3.750    1.750    5.000 
#    0.000    1.250    2.750    3.000    0.000    0.000 
#    0.000    0.000    0.000    0.000    0.000    0.000 
#
# Total GULP energy -396541.968232 kJ/mol
# GULP energy per Si atom -12391.936507 kJ/mol
# Density = 2.020600 g / cm^3
# Si number density = 20.252095 Si / 1000 Ang^3
#
#
#
# Elastic Constant Matrix: (Units=GPa)
#
#
# Indices 1 2 3 4 5 6 
#
# 1 66.5376 12.5279 21.4125 0.0000 0.0000 0.0000
# 2 12.5279 86.2199 20.6577 0.0000 0.0000 0.0000
# 3 21.4125 20.6577 74.2015 0.0000 0.0000 0.0000
# 4 0.0000 0.0000 0.0000 5.5610 0.0000 0.0000
# 5 0.0000 0.0000 0.0000 0.0000 23.2968 0.0000
# 6 0.0000 0.0000 0.0000 0.0000 0.0000 34.2493
#
#
#
# Elastic Compliance Matrix: (Units=1/GPa)
#
#
# Indices 1 2 3 4 5 6 
#
# 1 0.016716 -0.001364 -0.004444 0.000000 0.000000 0.000000
# 2 -0.001364 0.012538 -0.003097 0.000000 0.000000 0.000000
# 3 -0.004444 -0.003097 0.015621 0.000000 0.000000 0.000000
# 4 0.000000 0.000000 0.000000 0.179825 0.000000 0.000000
# 5 0.000000 0.000000 0.000000 0.000000 0.042924 0.000000
# 6 0.000000 0.000000 0.000000 0.000000 0.000000 0.029198
#
#
# Mechanical properties :
#
#
# Convention : Reuss Voigt Hill
#
# Bulk Modulus (GPa) = 36.94727 37.35058 37.14892
# Shear Modulus (GPa) = 15.44855 24.11215 19.78035
#
# Velocity S-wave (km/s) = 2.76490 3.45425 3.12862
# Velocity P-wave (km/s) = 5.33631 5.86447 5.60661
#
# Compressibility (1/GPa) = 0.02706560
#
# Stress axis : x y z
#
# Youngs Moduli (GPa) = 59.82267 79.75440 64.01454
#
# Poissons Ratio (x) = 0.10879 0.28448
# Poissons Ratio (y) = 0.08161 0.19826
# Poissons Ratio (z) = 0.26585 0.24700
#
# Static dielectric constant tensor:
#      x y z
#    x 3.804060 0.000000 0.000000 
#    y 0.000000 3.842530 0.000000 
#    z 0.000000 0.000000 3.419980 
# 
# 
# High freq. dielectric constant tensor:
#      x y z
#    x 1.792980 0.000000 0.000000 
#    y 0.000000 1.800180 0.000000 
#    z 0.000000 0.000000 1.758380 
# 
# From -- ./inp_files/33999.got.cif
#   From: 2010.03.12/outbox.cif.g09.slc.cpg/sg24_17_cif.got.tgz:33999.got - 2010.04.14 03:06:53.
