data_PCOD8165219
_publ_section_title
;
Structure prediction by ZEFSAII (Michael W. Deem and Ramdas Pophale) SiO2 
 PCOD8165219
Probable space group: I 21 21 21
;
_chemical_formula_sum "Si O2"
_cell_formula_units_Z 64
_cell_length_a 17.094796
_cell_length_b 14.939668
_cell_length_c 13.218595
_cell_angle_alpha 90.000000
_cell_angle_beta 90.000000
_cell_angle_gamma 90.000000
_cell_volume 3375.904601
_symmetry_space_group_name_H-M "I 21 21 21"
_symmetry_group_IT_number 24
_symmetry_cell_setting 'orthorhombic'
loop_
_space_group_symop_operation_xyz
x,y,z
-x,1/2-y,z
x,-y,1/2-z
1/2-x,y,-z
1/2+x,1/2+y,1/2+z
1/2-x,-y,1/2+z
1/2+x,1/2-y,-z
-x,1/2+y,1/2-z
loop_
_atom_site_type_symbol
_atom_site_label
_atom_site_fract_x
_atom_site_fract_y
_atom_site_fract_z
Si Si1 0.156484 0.101852 0.270532
Si Si2 0.572880 0.458882 0.073447
Si Si3 0.427750 0.187445 0.914216
Si Si4 0.421060 0.585097 0.299797
Si Si5 0.414079 0.749581 0.148560
Si Si6 0.319679 0.848706 0.300440
Si Si7 0.658097 0.368429 0.502917
Si Si8 0.822345 0.194531 0.941326
O O1 0.115437 0.164881 0.189321
O O2 0.250324 0.109469 0.264790
O O3 0.131004 0.136283 0.380742
O O4 0.130935 0.000000 0.250000
O O5 0.506518 0.446745 0.159689
O O6 0.653974 0.418933 0.115542
O O7 0.597527 0.560692 0.048517
O O8 0.547498 0.403780 0.972823
O O9 0.500000 0.250000 0.885850
O O10 0.372394 0.243130 0.986708
O O11 0.379400 0.500000 0.250000
O O12 0.412561 0.657004 0.210006
O O13 0.374625 0.614611 0.399121
O O14 0.500000 0.750000 0.101635
O O15 0.394948 0.827091 0.230183
O O16 0.355560 0.771587 0.053641
O O17 0.289278 0.756760 0.351189
O O18 0.750000 0.395839 0.500000
O O19 0.750000 0.150197 0.000000
#
# Coordination Sequence:
#
# PCOD8165219 Si02
#       8
#     8   8   8   8   8   8   8   8
#     4  12  23  39  59  91 131 174 212 254 322 407
#     4  11  22  36  61  95 130 162 202 267 328 388
#     4  11  22  39  60  89 124 165 217 258 308 389
#     4  11  23  40  65  93 120 160 213 276 327 374
#     4  11  22  40  60  92 131 163 213 261 325 391
#     4  10  21  33  60  91 127 162 199 257 319 388
#     4  12  25  39  62  98 138 173 209 266 338 408
#     4  10  20  37  63  88 118 159 214 265 318 371
#
# _framework density 18.957881
#
# number of rings (size 3 to 8) (size 9 to 14) (size 15 to 20)
#    0.000    1.000    6.250    1.500    0.000    0.500 
#    0.000    0.625    0.000    2.250    0.000    0.000 
#    0.000    0.000    0.000    0.000    0.000    0.000 
#
# Total GULP energy -396446.845501 kJ/mol
# GULP energy per Si atom -12388.963922 kJ/mol
# Density = 1.891473 g / cm^3
# Si number density = 18.957881 Si / 1000 Ang^3
#
#
#
# Elastic Constant Matrix: (Units=GPa)
#
#
# Indices 1 2 3 4 5 6 
#
# 1 78.1854 46.7182 34.1196 0.0000 0.0000 0.0000
# 2 46.7182 83.6226 57.1805 0.0000 0.0000 0.0000
# 3 34.1196 57.1805 127.8662 0.0000 0.0000 0.0000
# 4 0.0000 0.0000 0.0000 33.1976 0.0000 0.0000
# 5 0.0000 0.0000 0.0000 0.0000 32.1378 0.0000
# 6 0.0000 0.0000 0.0000 0.0000 0.0000 26.9357
#
#
#
# Elastic Compliance Matrix: (Units=1/GPa)
#
#
# Indices 1 2 3 4 5 6 
#
# 1 0.019219 -0.010415 -0.000471 0.000000 0.000000 0.000000
# 2 -0.010415 0.022870 -0.007448 0.000000 0.000000 0.000000
# 3 -0.000471 -0.007448 0.011277 0.000000 0.000000 0.000000
# 4 0.000000 0.000000 0.000000 0.030123 0.000000 0.000000
# 5 0.000000 0.000000 0.000000 0.000000 0.031116 0.000000
# 6 0.000000 0.000000 0.000000 0.000000 0.000000 0.037125
#
#
# Mechanical properties :
#
#
# Convention : Reuss Voigt Hill
#
# Bulk Modulus (GPa) = 59.88791 62.85674 61.37233
# Shear Modulus (GPa) = 25.77783 28.56461 27.17122
#
# Velocity S-wave (km/s) = 3.69147 3.88589 3.78992
# Velocity P-wave (km/s) = 7.05888 7.30489 7.18294
#
# Compressibility (1/GPa) = 0.01669786
#
# Stress axis : x y z
#
# Youngs Moduli (GPa) = 52.03170 43.72470 88.67593
#
# Poissons Ratio (x) = 0.45541 0.04174
# Poissons Ratio (y) = 0.54193 0.66047
# Poissons Ratio (z) = 0.02449 0.32567
#
# Static dielectric constant tensor:
#      x y z
#    x 3.405630 0.000000 0.000000 
#    y 0.000000 3.533780 0.000000 
#    z 0.000000 0.000000 3.698780 
# 
# 
# High freq. dielectric constant tensor:
#      x y z
#    x 1.719700 0.000000 0.000000 
#    y 0.000000 1.720470 0.000000 
#    z 0.000000 0.000000 1.746020 
# 
# From -- ./inp_files/21071.got.cif
#   From: 2010.03.12/outbox.cif.g09.slc.cpg/sg24_11_cif.got.tgz:21071.got - 2010.04.14 03:06:53.
