data_PCOD8165558
_publ_section_title
;
Structure prediction by ZEFSAII (Michael W. Deem and Ramdas Pophale) SiO2 
 PCOD8165558
Probable space group: I 21 21 21
;
_chemical_formula_sum "Si O2"
_cell_formula_units_Z 48
_cell_length_a 10.519496
_cell_length_b 13.939203
_cell_length_c 15.611102
_cell_angle_alpha 90.000000
_cell_angle_beta 90.000000
_cell_angle_gamma 90.000000
_cell_volume 2289.108811
_symmetry_space_group_name_H-M "I 21 21 21"
_symmetry_group_IT_number 24
_symmetry_cell_setting 'orthorhombic'
loop_
_space_group_symop_operation_xyz
x,y,z
-x,1/2-y,z
x,-y,1/2-z
1/2-x,y,-z
1/2+x,1/2+y,1/2+z
1/2-x,-y,1/2+z
1/2+x,1/2-y,-z
-x,1/2+y,1/2-z
loop_
_atom_site_type_symbol
_atom_site_label
_atom_site_fract_x
_atom_site_fract_y
_atom_site_fract_z
Si Si1 0.759446 0.432012 0.826106
Si Si2 0.667401 0.103585 0.279979
Si Si3 0.985785 0.857419 0.615042
Si Si4 0.887568 0.037858 0.538965
Si Si5 0.640349 0.271363 0.716697
Si Si6 0.634518 0.583852 0.935036
O O1 0.808864 0.500000 0.750000
O O2 0.705489 0.333064 0.790749
O O3 0.651824 0.486350 0.880665
O O4 0.878030 0.409467 0.886843
O O5 0.568948 0.147803 0.211640
O O6 0.594802 0.091669 0.370186
O O7 0.787625 0.171259 0.292819
O O8 0.719745 0.000000 0.250000
O O9 0.000000 0.750000 0.578003
O O10 0.898497 0.922363 0.552850
O O11 0.750000 0.060423 0.500000
O O12 0.996872 0.079675 0.478429
O O13 0.500000 0.250000 0.749538
O O14 0.637762 0.324013 0.625762
O O15 0.750000 0.597118 0.000000
#
# Coordination Sequence:
#
# PCOD8165558 Si02
#       6
#     8   8   8   8   8   8
#     4  10  21  41  66  92 126 169 215 265 313 380
#     4  10  23  41  69  91 125 166 219 266 313 375
#     4  11  21  41  68  93 119 168 228 262 308 381
#     4  11  24  43  64  94 136 169 204 264 331 380
#     4  11  24  40  64  98 127 167 217 265 320 379
#     4  11  24  42  67  94 134 172 205 265 329 382
#
# _framework density 20.968858000000001
#
# number of rings (size 3 to 8) (size 9 to 14) (size 15 to 20)
#    0.000    1.333    3.333    2.500    2.333    6.667 
#    3.000    0.000    0.000    0.000    0.000    0.000 
#    0.000    0.000    0.000    0.000    0.000    0.000 
#
# Total GULP energy -297707.592753 kJ/mol
# GULP energy per Si atom -12404.483031 kJ/mol
# Density = 2.092113 g / cm^3
# Si number density = 20.968858 Si / 1000 Ang^3
#
#
#
# Elastic Constant Matrix: (Units=GPa)
#
#
# Indices 1 2 3 4 5 6 
#
# 1 126.5708 38.0430 29.1961 0.0000 0.0000 0.0000
# 2 38.0430 111.9422 14.2021 0.0000 0.0000 0.0000
# 3 29.1961 14.2021 66.6924 0.0000 0.0000 0.0000
# 4 0.0000 0.0000 0.0000 16.2129 0.0000 0.0000
# 5 0.0000 0.0000 0.0000 0.0000 31.6786 0.0000
# 6 0.0000 0.0000 0.0000 0.0000 0.0000 28.6511
#
#
#
# Elastic Compliance Matrix: (Units=1/GPa)
#
#
# Indices 1 2 3 4 5 6 
#
# 1 0.009570 -0.002796 -0.003594 0.000000 0.000000 0.000000
# 2 -0.002796 0.009998 -0.000905 0.000000 0.000000 0.000000
# 3 -0.003594 -0.000905 0.016760 0.000000 0.000000 0.000000
# 4 0.000000 0.000000 0.000000 0.061679 0.000000 0.000000
# 5 0.000000 0.000000 0.000000 0.000000 0.031567 0.000000
# 6 0.000000 0.000000 0.000000 0.000000 0.000000 0.034903
#
#
# Mechanical properties :
#
#
# Convention : Reuss Voigt Hill
#
# Bulk Modulus (GPa) = 46.00243 52.00977 49.00610
# Shear Modulus (GPa) = 26.83630 30.22613 28.53122
#
# Velocity S-wave (km/s) = 3.58133 3.80080 3.69270
# Velocity P-wave (km/s) = 6.25199 6.64218 6.45004
#
# Compressibility (1/GPa) = 0.02173798
#
# Stress axis : x y z
#
# Youngs Moduli (GPa) = 104.49005 100.01657 59.66470
#
# Poissons Ratio (x) = 0.27969 0.21444
# Poissons Ratio (y) = 0.29220 0.05399
# Poissons Ratio (z) = 0.37555 0.09051
#
# Static dielectric constant tensor:
#      x y z
#    x 3.688950 0.000000 0.000000 
#    y 0.000000 4.016070 0.000000 
#    z 0.000000 0.000000 3.817480 
# 
# 
# High freq. dielectric constant tensor:
#      x y z
#    x 1.821860 0.000000 0.000000 
#    y 0.000000 1.829780 0.000000 
#    z 0.000000 0.000000 1.815660 
# 
# From -- ./inp_files/26446.got.cif
#   From: 2010.03.12/outbox.cif.g09.slc.cpg/sg24_14_cif.got.tgz:26446.got - 2010.04.14 03:06:53.
