data_PCOD8165760
_publ_section_title
;
Structure prediction by ZEFSAII (Michael W. Deem and Ramdas Pophale) SiO2 
 PCOD8165760
Probable space group: I 21 21 21
;
_chemical_formula_sum "Si O2"
_cell_formula_units_Z 56
_cell_length_a 20.414896
_cell_length_b 8.286267
_cell_length_c 13.510818
_cell_angle_alpha 90.000000
_cell_angle_beta 90.000000
_cell_angle_gamma 90.000000
_cell_volume 2285.534275
_symmetry_space_group_name_H-M "I 21 21 21"
_symmetry_group_IT_number 24
_symmetry_cell_setting 'orthorhombic'
loop_
_space_group_symop_operation_xyz
x,y,z
-x,1/2-y,z
x,-y,1/2-z
1/2-x,y,-z
1/2+x,1/2+y,1/2+z
1/2-x,-y,1/2+z
1/2+x,1/2-y,-z
-x,1/2+y,1/2-z
loop_
_atom_site_type_symbol
_atom_site_label
_atom_site_fract_x
_atom_site_fract_y
_atom_site_fract_z
Si Si1 0.263629 0.928701 0.113205
Si Si2 0.727218 0.919563 0.853529
Si Si3 0.860013 0.045274 0.865053
Si Si4 0.607819 0.411446 0.070753
Si Si5 0.862237 0.594995 0.345922
Si Si6 0.019591 0.431196 0.532758
Si Si7 0.905229 0.044984 0.143817
O O1 0.247313 0.763967 0.169767
O O2 0.337925 0.986859 0.131013
O O3 0.216394 0.069155 0.153494
O O4 0.250000 0.889051 0.000000
O O5 0.711280 0.000000 0.750000
O O6 0.787604 0.007901 0.911371
O O7 0.654969 0.937420 0.904071
O O8 0.882571 0.224073 0.899568
O O9 0.851917 0.000000 0.750000
O O10 0.914791 0.921316 0.902123
O O11 0.535335 0.474654 0.098147
O O12 0.611354 0.458223 0.953876
O O13 0.892536 0.500000 0.250000
O O14 0.876867 0.780000 0.336995
O O15 0.034605 0.533271 0.432622
O O16 0.000000 0.250000 0.504684
O O17 0.934497 0.000000 0.250000
#
# Coordination Sequence:
#
# PCOD8165760 Si02
#       7
#     8   8   8   8   8   8   8
#     4  10  23  40  71 104 141 188 238 298 366 436
#     4  10  22  42  70 106 143 181 238 307 378 442
#     4  11  25  48  75 106 142 191 252 315 379 442
#     4  11  25  47  70 103 150 197 245 309 374 445
#     4  11  23  42  73 108 149 187 243 301 379 451
#     4  12  28  46  70 103 149 197 255 301 371 451
#     4  11  25  44  70 107 150 194 239 306 372 452
#
# _framework density 24.501930000000002
#
# number of rings (size 3 to 8) (size 9 to 14) (size 15 to 20)
#    0.000    1.143    1.429    3.857    8.000    2.857 
#    0.000    3.571    0.000    0.000    0.000    0.000 
#    0.000    0.000    0.000    0.000    0.000    0.000 
#
# Total GULP energy -346968.258184 kJ/mol
# GULP energy per Si atom -12391.723507 kJ/mol
# Density = 2.444616 g / cm^3
# Si number density = 24.501930 Si / 1000 Ang^3
#
#
#
# Elastic Constant Matrix: (Units=GPa)
#
#
# Indices 1 2 3 4 5 6 
#
# 1 126.4708 49.0477 -2.6079 0.0000 0.0000 0.0000
# 2 49.0477 158.0163 21.7829 0.0000 0.0000 0.0000
# 3 -2.6079 21.7829 58.6496 0.0000 0.0000 0.0000
# 4 0.0000 0.0000 0.0000 41.5920 0.0000 0.0000
# 5 0.0000 0.0000 0.0000 0.0000 12.3501 0.0000
# 6 0.0000 0.0000 0.0000 0.0000 0.0000 30.5412
#
#
#
# Elastic Compliance Matrix: (Units=1/GPa)
#
#
# Indices 1 2 3 4 5 6 
#
# 1 0.009118 -0.003042 0.001535 0.000000 0.000000 0.000000
# 2 -0.003042 0.007685 -0.002989 0.000000 0.000000 0.000000
# 3 0.001535 -0.002989 0.018229 0.000000 0.000000 0.000000
# 4 0.000000 0.000000 0.000000 0.024043 0.000000 0.000000
# 5 0.000000 0.000000 0.000000 0.000000 0.080971 0.000000
# 6 0.000000 0.000000 0.000000 0.000000 0.000000 0.032743
#
#
# Mechanical properties :
#
#
# Convention : Reuss Voigt Hill
#
# Bulk Modulus (GPa) = 38.40270 53.28689 45.84480
# Shear Modulus (GPa) = 26.25212 35.22426 30.73819
#
# Velocity S-wave (km/s) = 3.27682 3.79570 3.54576
# Velocity P-wave (km/s) = 5.47943 6.40352 5.95941
#
# Compressibility (1/GPa) = 0.02603983
#
# Stress axis : x y z
#
# Youngs Moduli (GPa) = 109.66901 130.12751 54.85773
#
# Poissons Ratio (x) = 0.39584 -0.08422
# Poissons Ratio (y) = 0.33361 0.16399
# Poissons Ratio (z) = -0.16837 0.38901
#
# Static dielectric constant tensor:
#      x y z
#    x 4.768100 0.000000 0.000000 
#    y 0.000000 4.254980 0.000000 
#    z 0.000000 0.000000 4.569900 
# 
# 
# High freq. dielectric constant tensor:
#      x y z
#    x 1.985260 0.000000 0.000000 
#    y 0.000000 1.971060 0.000000 
#    z 0.000000 0.000000 1.971470 
# 
# From -- ./inp_files/27563.got.cif
#   From: 2010.03.12/outbox.cif.g09.slc.cpg/sg24_14_cif.got.tgz:27563.got - 2010.04.14 03:06:53.
