data_PCOD8165436
_publ_section_title
;
Structure prediction by ZEFSAII (Michael W. Deem and Ramdas Pophale) SiO2 
 PCOD8165436
Probable space group: I 21 21 21
;
_chemical_formula_sum "Si O2"
_cell_formula_units_Z 64
_cell_length_a 21.104156
_cell_length_b 8.797202
_cell_length_c 16.665960
_cell_angle_alpha 90.000000
_cell_angle_beta 90.000000
_cell_angle_gamma 90.000000
_cell_volume 3094.160858
_symmetry_space_group_name_H-M "I 21 21 21"
_symmetry_group_IT_number 24
_symmetry_cell_setting 'orthorhombic'
loop_
_space_group_symop_operation_xyz
x,y,z
-x,1/2-y,z
x,-y,1/2-z
1/2-x,y,-z
1/2+x,1/2+y,1/2+z
1/2-x,-y,1/2+z
1/2+x,1/2-y,-z
-x,1/2+y,1/2-z
loop_
_atom_site_type_symbol
_atom_site_label
_atom_site_fract_x
_atom_site_fract_y
_atom_site_fract_z
Si Si1 0.559521 0.663121 0.227517
Si Si2 0.430383 0.179853 0.969077
Si Si3 0.649544 0.128363 0.184244
Si Si4 0.126841 0.036757 0.582684
Si Si5 0.182292 0.243749 0.458514
Si Si6 0.363166 0.997356 0.842226
Si Si7 0.675957 0.082492 0.003712
Si Si8 0.733536 0.610443 0.324527
O O1 0.500000 0.750000 0.191268
O O2 0.531848 0.500000 0.250000
O O3 0.592041 0.749182 0.303196
O O4 0.611012 0.637057 0.159535
O O5 0.500000 0.250000 0.962193
O O6 0.420675 0.060071 0.896018
O O7 0.373704 0.303054 0.962846
O O8 0.425159 0.086962 0.052951
O O9 0.651857 0.057072 0.095437
O O10 0.714808 0.218306 0.200064
O O11 0.640801 0.000000 0.250000
O O12 0.131718 0.160062 0.513466
O O13 0.190808 0.942070 0.599927
O O14 0.250000 0.210458 0.500000
O O15 0.168405 0.165733 0.370909
O O16 0.170463 0.423975 0.455043
O O17 0.386493 0.000000 0.750000
O O18 0.305883 0.117235 0.851528
O O19 0.750000 0.139213 0.000000
O O20 0.722363 0.500000 0.250000
#
# Coordination Sequence:
#
# PCOD8165436 Si02
#       8
#     8   8   8   8   8   8   8   8
#     4  12  24  39  55  85 128 179 225 262 315 392
#     4  11  25  43  66  93 131 175 218 267 335 407
#     4  12  23  37  58  91 131 172 214 269 325 391
#     4  11  20  39  62  88 126 170 218 263 317 397
#     4  10  21  37  64  97 128 158 211 273 332 396
#     4  10  23  42  71  94 120 165 222 273 343 405
#     4  11  24  40  62  95 132 167 213 272 336 390
#     4  11  19  36  63  93 126 162 221 272 326 390
#
# _framework density 20.684123
#
# number of rings (size 3 to 8) (size 9 to 14) (size 15 to 20)
#    0.000    1.000    5.000    1.875    0.000    5.000 
#    0.000    3.750    0.000    0.000    0.000    0.000 
#    0.000    0.000    0.000    0.000    0.000    0.000 
#
# Total GULP energy -396506.023335 kJ/mol
# GULP energy per Si atom -12390.813229 kJ/mol
# Density = 2.063704 g / cm^3
# Si number density = 20.684123 Si / 1000 Ang^3
#
#
#
# Elastic Constant Matrix: (Units=GPa)
#
#
# Indices 1 2 3 4 5 6 
#
# 1 102.7225 36.8557 21.5062 0.0000 0.0000 0.0000
# 2 36.8557 103.2128 24.1901 0.0000 0.0000 0.0000
# 3 21.5062 24.1901 102.7323 0.0000 0.0000 0.0000
# 4 0.0000 0.0000 0.0000 26.1911 0.0000 0.0000
# 5 0.0000 0.0000 0.0000 0.0000 15.1058 0.0000
# 6 0.0000 0.0000 0.0000 0.0000 0.0000 30.6605
#
#
#
# Elastic Compliance Matrix: (Units=1/GPa)
#
#
# Indices 1 2 3 4 5 6 
#
# 1 0.011382 -0.003711 -0.001509 0.000000 0.000000 0.000000
# 2 -0.003711 0.011464 -0.001923 0.000000 0.000000 0.000000
# 3 -0.001509 -0.001923 0.010503 0.000000 0.000000 0.000000
# 4 0.000000 0.000000 0.000000 0.038181 0.000000 0.000000
# 5 0.000000 0.000000 0.000000 0.000000 0.066200 0.000000
# 6 0.000000 0.000000 0.000000 0.000000 0.000000 0.032615
#
#
# Mechanical properties :
#
#
# Convention : Reuss Voigt Hill
#
# Bulk Modulus (GPa) = 52.45375 52.64130 52.54753
# Shear Modulus (GPa) = 26.18008 29.46585 27.82297
#
# Velocity S-wave (km/s) = 3.56154 3.77843 3.67159
# Velocity P-wave (km/s) = 6.50594 6.67389 6.59045
#
# Compressibility (1/GPa) = 0.01906441
#
# Stress axis : x y z
#
# Youngs Moduli (GPa) = 87.85579 87.22649 95.21392
#
# Poissons Ratio (x) = 0.32368 0.14368
# Poissons Ratio (y) = 0.32601 0.18307
# Poissons Ratio (z) = 0.13258 0.16771
#
# Static dielectric constant tensor:
#      x y z
#    x 3.626920 0.000000 0.000000 
#    y 0.000000 3.947660 0.000000 
#    z 0.000000 0.000000 3.865350 
# 
# 
# High freq. dielectric constant tensor:
#      x y z
#    x 1.784230 0.000000 0.000000 
#    y 0.000000 1.816460 0.000000 
#    z 0.000000 0.000000 1.805550 
# 
# From -- ./inp_files/31408.got.cif
#   From: 2010.03.12/outbox.cif.g09.slc.cpg/sg24_16_cif.got.tgz:31408.got - 2010.04.14 03:06:53.
