data_PCOD8165583
_publ_section_title
;
Structure prediction by ZEFSAII (Michael W. Deem and Ramdas Pophale) SiO2 
 PCOD8165583
Probable space group: I 21 21 21
;
_chemical_formula_sum "Si O2"
_cell_formula_units_Z 40
_cell_length_a 15.778513
_cell_length_b 14.286322
_cell_length_c 8.562100
_cell_angle_alpha 90.000000
_cell_angle_beta 90.000000
_cell_angle_gamma 90.000000
_cell_volume 1930.042188
_symmetry_space_group_name_H-M "I 21 21 21"
_symmetry_group_IT_number 24
_symmetry_cell_setting 'orthorhombic'
loop_
_space_group_symop_operation_xyz
x,y,z
-x,1/2-y,z
x,-y,1/2-z
1/2-x,y,-z
1/2+x,1/2+y,1/2+z
1/2-x,-y,1/2+z
1/2+x,1/2-y,-z
-x,1/2+y,1/2-z
loop_
_atom_site_type_symbol
_atom_site_label
_atom_site_fract_x
_atom_site_fract_y
_atom_site_fract_z
Si Si1 0.599827 0.756055 0.939641
Si Si2 0.159117 0.769445 0.717828
Si Si3 0.405555 0.402832 0.810888
Si Si4 0.288152 0.908293 0.834573
Si Si5 0.750000 0.128134 0.000000
Si Si6 0.500000 0.750000 0.489815
O O1 0.500000 0.750000 0.955230
O O2 0.627655 0.845229 0.838324
O O3 0.634006 0.663268 0.853573
O O4 0.639962 0.768089 0.109368
O O5 0.213440 0.864420 0.727881
O O6 0.214712 0.690689 0.638758
O O7 0.074783 0.789570 0.618635
O O8 0.447206 0.500000 0.750000
O O9 0.326485 0.431579 0.923832
O O10 0.472307 0.337773 0.903665
O O11 0.324156 0.000000 0.750000
O O12 0.250000 0.937543 0.000000
#
# Coordination Sequence:
#
# PCOD8165583 Si02
#       6
#     8   8   8   8   4   4
#     4  11  22  43  64  95 133 173 214 274 333 395
#     4  10  21  42  68  92 134 175 218 271 331 392
#     4  11  24  42  66  97 131 176 222 275 335 395
#     4  10  23  40  66  97 127 174 219 270 335 396
#     4  10  22  40  68  92 122 176 218 280 320 388
#     4  10  22  44  66  98 134 174 222 278 334 392
#
# _framework density 20.724934999999999
#
# number of rings (size 3 to 8) (size 9 to 14) (size 15 to 20)
#    0.000    1.600    4.000    0.000    1.400    2.400 
#    7.200    3.000    0.000    0.000    0.000    0.000 
#    0.000    0.000    0.000    0.000    0.000    0.000 
#
# Total GULP energy -247988.463140 kJ/mol
# GULP energy per Si atom -12399.423157 kJ/mol
# Density = 2.067776 g / cm^3
# Si number density = 20.724935 Si / 1000 Ang^3
#
#
#
# Elastic Constant Matrix: (Units=GPa)
#
#
# Indices 1 2 3 4 5 6 
#
# 1 100.0200 38.0718 37.7095 0.0000 0.0000 0.0000
# 2 38.0718 128.5203 64.9775 0.0000 0.0000 0.0000
# 3 37.7095 64.9775 117.3002 0.0000 0.0000 0.0000
# 4 0.0000 0.0000 0.0000 25.6836 0.0000 0.0000
# 5 0.0000 0.0000 0.0000 0.0000 29.6777 0.0000
# 6 0.0000 0.0000 0.0000 0.0000 0.0000 31.3569
#
#
#
# Elastic Compliance Matrix: (Units=1/GPa)
#
#
# Indices 1 2 3 4 5 6 
#
# 1 0.011806 -0.002192 -0.002581 0.000000 0.000000 0.000000
# 2 -0.002192 0.011215 -0.005508 0.000000 0.000000 0.000000
# 3 -0.002581 -0.005508 0.012406 0.000000 0.000000 0.000000
# 4 0.000000 0.000000 0.000000 0.038935 0.000000 0.000000
# 5 0.000000 0.000000 0.000000 0.000000 0.033695 0.000000
# 6 0.000000 0.000000 0.000000 0.000000 0.000000 0.031891
#
#
# Mechanical properties :
#
#
# Convention : Reuss Voigt Hill
#
# Bulk Modulus (GPa) = 67.27394 69.70644 68.49019
# Shear Modulus (GPa) = 30.21806 31.01575 30.61690
#
# Velocity S-wave (km/s) = 3.82259 3.87271 3.84773
# Velocity P-wave (km/s) = 7.21206 7.32832 7.27042
#
# Compressibility (1/GPa) = 0.01486460
#
# Stress axis : x y z
#
# Youngs Moduli (GPa) = 84.70619 89.16749 80.60833
#
# Poissons Ratio (x) = 0.19549 0.20803
# Poissons Ratio (y) = 0.18571 0.44396
# Poissons Ratio (z) = 0.21861 0.49110
#
# Static dielectric constant tensor:
#      x y z
#    x 3.807300 0.000000 0.000000 
#    y 0.000000 3.427690 0.000000 
#    z 0.000000 0.000000 4.040200 
# 
# 
# High freq. dielectric constant tensor:
#      x y z
#    x 1.819750 0.000000 0.000000 
#    y 0.000000 1.785340 0.000000 
#    z 0.000000 0.000000 1.833450 
# 
# From -- ./inp_files/10781.got.cif
#   From: 2010.03.12/outbox.cif.g09.slc.cpg/sg24_6_cif.got.tgz:10781.got - 2010.04.14 03:06:53.
