data_PCOD8165582
_publ_section_title
;
Structure prediction by ZEFSAII (Michael W. Deem and Ramdas Pophale) SiO2 
 PCOD8165582
Probable space group: I 21 21 21
;
_chemical_formula_sum "Si O2"
_cell_formula_units_Z 40
_cell_length_a 16.477191
_cell_length_b 13.225112
_cell_length_c 7.946643
_cell_angle_alpha 90.000000
_cell_angle_beta 90.000000
_cell_angle_gamma 90.000000
_cell_volume 1731.674404
_symmetry_space_group_name_H-M "I 21 21 21"
_symmetry_group_IT_number 24
_symmetry_cell_setting 'orthorhombic'
loop_
_space_group_symop_operation_xyz
x,y,z
-x,1/2-y,z
x,-y,1/2-z
1/2-x,y,-z
1/2+x,1/2+y,1/2+z
1/2-x,-y,1/2+z
1/2+x,1/2-y,-z
-x,1/2+y,1/2-z
loop_
_atom_site_type_symbol
_atom_site_label
_atom_site_fract_x
_atom_site_fract_y
_atom_site_fract_z
Si Si1 0.399368 0.378504 0.247891
Si Si2 0.269048 0.711333 0.813506
Si Si3 0.570409 0.112501 0.611653
Si Si4 0.321808 0.910157 0.621760
Si Si5 0.999781 0.107375 0.060440
O O1 0.396007 0.500000 0.250000
O O2 0.309452 0.334304 0.220474
O O3 0.436939 0.337140 0.425456
O O4 0.455619 0.336578 0.095535
O O5 0.336635 0.623421 0.824880
O O6 0.301998 0.805114 0.708863
O O7 0.250000 0.751783 0.000000
O O8 0.512606 0.162994 0.756707
O O9 0.547333 0.996706 0.586303
O O10 0.250000 0.943932 0.500000
O O11 0.405358 0.900682 0.516215
O O12 0.336947 0.000000 0.750000
#
# Coordination Sequence:
#
# PCOD8165582 Si02
#       5
#     8   8   8   8   8
#     4   9  20  38  70 106 135 166 211 273 341 409
#     4  10  23  44  67 103 137 174 220 274 347 403
#     4   9  19  39  68  98 133 168 209 275 334 395
#     4  12  27  48  68  92 130 186 234 284 333 401
#     4  10  21  42  67  99 133 172 219 273 341 395
#
# _framework density 23.099029999999999
#
# number of rings (size 3 to 8) (size 9 to 14) (size 15 to 20)
#    0.000    2.000    2.000    0.600    5.600    3.200 
#    3.600    0.000    0.000    0.000    0.000    0.000 
#    0.000    0.000    0.000    0.000    0.000    0.000 
#
# Total GULP energy -247820.622137 kJ/mol
# GULP energy per Si atom -12391.031107 kJ/mol
# Density = 2.304646 g / cm^3
# Si number density = 23.099030 Si / 1000 Ang^3
#
#
#
# Elastic Constant Matrix: (Units=GPa)
#
#
# Indices 1 2 3 4 5 6 
#
# 1 182.0622 32.2803 79.9083 0.0000 0.0000 0.0000
# 2 32.2803 73.0000 6.0874 0.0000 0.0000 0.0000
# 3 79.9083 6.0874 146.0965 0.0000 0.0000 0.0000
# 4 0.0000 0.0000 0.0000 -1.3838 0.0000 0.0000
# 5 0.0000 0.0000 0.0000 0.0000 -421.0461 0.0000
# 6 0.0000 0.0000 0.0000 0.0000 0.0000 -48.0077
#
#
#
# Elastic Compliance Matrix: (Units=1/GPa)
#
#
# Indices 1 2 3 4 5 6 
#
# 1 0.007884 -0.003138 -0.004182 0.000000 0.000000 0.000000
# 2 -0.003138 0.014995 0.001091 0.000000 0.000000 0.000000
# 3 -0.004182 0.001091 0.009086 0.000000 0.000000 0.000000
# 4 0.000000 0.000000 0.000000 -0.722633 0.000000 0.000000
# 5 0.000000 0.000000 0.000000 0.000000 -0.002375 0.000000
# 6 0.000000 0.000000 0.000000 0.000000 0.000000 -0.020830
#
#
# Mechanical properties :
#
#
# Convention : Reuss Voigt Hill
#
# Bulk Modulus (GPa) = 51.25581 70.85677 61.05629
# Shear Modulus (GPa) = -7.19515 -75.22868 -41.21191
#
# Velocity S-wave (km/s) = -1.76683 -5.71302 -4.22849
# Velocity P-wave (km/s) = 4.25153 3.57440 1.62776
#
# Compressibility (1/GPa) = 0.01950998
#
# Stress axis : x y z
#
# Youngs Moduli (GPa) = 126.83433 66.68847 110.05358
#
# Poissons Ratio (x) = 0.20925 0.46020
# Poissons Ratio (y) = 0.39797 -0.12011
# Poissons Ratio (z) = 0.53037 -0.07278
#
# Static dielectric constant tensor:
#      x y z
#    x 4.257740 0.000000 0.000000 
#    y 0.000000 3.835980 0.000000 
#    z 0.000000 0.000000 7.667170 
# 
# 
# High freq. dielectric constant tensor:
#      x y z
#    x 1.917360 0.000000 0.000000 
#    y 0.000000 1.894640 0.000000 
#    z 0.000000 0.000000 1.930090 
# 
# From -- ./inp_files/12310.got.cif
#   From: 2010.03.12/outbox.cif.g09.slc.cpg/sg24_7_cif.got.tgz:12310.got - 2010.04.14 03:06:53.
