data_PCOD8165999
_publ_section_title
;
Structure prediction by ZEFSAII (Michael W. Deem and Ramdas Pophale) SiO2 
 PCOD8165999
Probable space group: I 21 21 21
;
_chemical_formula_sum "Si O2"
_cell_formula_units_Z 48
_cell_length_a 7.543932
_cell_length_b 21.477753
_cell_length_c 16.212842
_cell_angle_alpha 90.000000
_cell_angle_beta 90.000000
_cell_angle_gamma 90.000000
_cell_volume 2626.913419
_symmetry_space_group_name_H-M "I 21 21 21"
_symmetry_group_IT_number 24
_symmetry_cell_setting 'orthorhombic'
loop_
_space_group_symop_operation_xyz
x,y,z
-x,1/2-y,z
x,-y,1/2-z
1/2-x,y,-z
1/2+x,1/2+y,1/2+z
1/2-x,-y,1/2+z
1/2+x,1/2-y,-z
-x,1/2+y,1/2-z
loop_
_atom_site_type_symbol
_atom_site_label
_atom_site_fract_x
_atom_site_fract_y
_atom_site_fract_z
Si Si1 0.750000 0.305065 0.500000
Si Si2 0.672141 0.495832 0.157646
Si Si3 0.160957 0.626829 0.180687
Si Si4 0.816641 0.054200 0.817544
Si Si5 0.969765 0.984633 0.090137
Si Si6 0.500000 0.250000 0.627462
Si Si7 0.979609 0.902652 0.932565
O O1 0.675470 0.262953 0.573512
O O2 0.585685 0.346247 0.471596
O O3 0.746328 0.500000 0.250000
O O4 0.518378 0.442407 0.146819
O O5 0.590233 0.563954 0.138915
O O6 0.837284 0.482221 0.096529
O O7 0.252925 0.616981 0.270603
O O8 0.027628 0.570128 0.159734
O O9 0.052001 0.691186 0.184311
O O10 0.301099 0.625883 0.105202
O O11 0.822909 0.000000 0.750000
O O12 0.682649 0.035475 0.890974
O O13 0.938072 0.955875 0.000125
#
# Coordination Sequence:
#
# PCOD8165999 Si02
#       7
#     4   8   8   8   8   4   8
#     4  12  24  34  48  76  98 158 192 230 268 316
#     4  11  18  31  50  74 102 144 171 221 280 333
#     4  11  21  37  49  74 106 149 188 235 268 324
#     4   9  19  33  51  71  99 138 179 224 281 321
#     4  11  20  32  53  75 102 141 182 225 277 330
#     4  12  24  36  52  68 110 154 202 232 264 322
#     4  12  20  34  52  77 110 142 190 228 273 324
#
# _framework density 18.272393999999998
#
# number of rings (size 3 to 8) (size 9 to 14) (size 15 to 20)
#    0.000    1.000    8.333    3.000    0.000    0.000 
#    0.000    0.000    0.000    0.000    0.000    0.000 
#    0.000    0.000   34.000    0.000    1.000    0.333 
#
# Total GULP energy -297490.989749 kJ/mol
# GULP energy per Si atom -12395.457906 kJ/mol
# Density = 1.823081 g / cm^3
# Si number density = 18.272394 Si / 1000 Ang^3
#
#
#
# Elastic Constant Matrix: (Units=GPa)
#
#
# Indices 1 2 3 4 5 6 
#
# 1 117.1131 29.7307 22.6140 0.0000 0.0000 0.0000
# 2 29.7307 62.1794 28.8274 0.0000 0.0000 0.0000
# 3 22.6140 28.8274 42.0892 0.0001 0.0000 0.0000
# 4 0.0000 0.0000 0.0001 23.4257 0.0000 0.0000
# 5 0.0000 0.0000 0.0000 0.0000 21.4282 0.0000
# 6 0.0000 0.0000 0.0000 0.0000 0.0000 18.4975
#
#
#
# Elastic Compliance Matrix: (Units=1/GPa)
#
#
# Indices 1 2 3 4 5 6 
#
# 1 0.009982 -0.003350 -0.003069 0.000000 0.000000 0.000000
# 2 -0.003350 0.024690 -0.015110 0.000000 0.000000 0.000000
# 3 -0.003069 -0.015110 0.035757 0.000000 0.000000 0.000000
# 4 0.000000 0.000000 0.000000 0.042688 0.000000 0.000000
# 5 0.000000 0.000000 0.000000 0.000000 0.046668 0.000000
# 6 0.000000 0.000000 0.000000 0.000000 0.000000 0.054061
#
#
# Mechanical properties :
#
#
# Convention : Reuss Voigt Hill
#
# Bulk Modulus (GPa) = 36.53564 42.63620 39.58592
# Shear Modulus (GPa) = 18.79509 22.01758 20.40633
#
# Velocity S-wave (km/s) = 3.21067 3.47503 3.34546
# Velocity P-wave (km/s) = 5.81231 6.28374 6.05262
#
# Compressibility (1/GPa) = 0.02737053
#
# Stress axis : x y z
#
# Youngs Moduli (GPa) = 100.18296 40.50271 27.96654
#
# Poissons Ratio (x) = 0.13569 0.08582
# Poissons Ratio (y) = 0.33562 0.42258
# Poissons Ratio (z) = 0.30742 0.61201
#
# Static dielectric constant tensor:
#      x y z
#    x 3.774350 0.000000 0.000000 
#    y 0.000000 3.130580 0.000000 
#    z 0.000000 0.000000 3.410040 
# 
# 
# High freq. dielectric constant tensor:
#      x y z
#    x 1.735860 0.000000 0.000000 
#    y 0.000000 1.648840 0.000000 
#    z 0.000000 0.000000 1.686910 
# 
# From -- ./inp_files/29730.got.cif
#   From: 2010.03.12/outbox.cif.g09.slc.cpg/sg24_15_cif.got.tgz:29730.got - 2010.04.14 03:06:53.
