data_PCOD8165157
_publ_section_title
;
Structure prediction by ZEFSAII (Michael W. Deem and Ramdas Pophale) SiO2 
 PCOD8165157
Probable space group: I 21 21 21
;
_chemical_formula_sum "Si O2"
_cell_formula_units_Z 40
_cell_length_a 14.965050
_cell_length_b 5.057640
_cell_length_c 25.226774
_cell_angle_alpha 90.000000
_cell_angle_beta 90.000000
_cell_angle_gamma 90.000000
_cell_volume 1909.359920
_symmetry_space_group_name_H-M "I 21 21 21"
_symmetry_group_IT_number 24
_symmetry_cell_setting 'orthorhombic'
loop_
_space_group_symop_operation_xyz
x,y,z
-x,1/2-y,z
x,-y,1/2-z
1/2-x,y,-z
1/2+x,1/2+y,1/2+z
1/2-x,-y,1/2+z
1/2+x,1/2-y,-z
-x,1/2+y,1/2-z
loop_
_atom_site_type_symbol
_atom_site_label
_atom_site_fract_x
_atom_site_fract_y
_atom_site_fract_z
Si Si1 0.894812 0.216559 0.939145
Si Si2 0.061681 0.500000 0.250000
Si Si3 0.000000 0.250000 0.412374
Si Si4 0.146104 0.082633 0.050604
Si Si5 0.841305 0.988284 0.355061
Si Si6 0.701141 0.705951 0.094383
O O1 0.852576 0.429839 0.897370
O O2 0.000000 0.250000 0.939788
O O3 0.871470 0.916677 0.925326
O O4 0.846944 0.261202 0.995855
O O5 0.128877 0.600096 0.296540
O O6 0.000000 0.750000 0.234299
O O7 0.956933 0.479255 0.448683
O O8 0.077114 0.339082 0.374243
O O9 0.171688 0.250372 0.103141
O O10 0.218060 0.842263 0.051696
O O11 0.750909 0.169898 0.353624
#
# Coordination Sequence:
#
# PCOD8165157 Si02
#       6
#     8   4   4   8   8   8
#     4  12  26  42  62  93 127 175 220 267 321 384
#     4  12  26  42  68  98 134 176 222 260 320 390
#     4  10  20  36  58  92 126 176 208 264 306 374
#     4  11  24  38  63  89 136 169 222 255 325 384
#     4  11  23  42  61  94 133 174 216 264 317 385
#     4  11  26  41  62  91 128 172 214 270 323 381
#
# _framework density 20.949428999999999
#
# number of rings (size 3 to 8) (size 9 to 14) (size 15 to 20)
#    0.000    0.800    3.000    4.200   14.000    0.000 
#    0.000    0.000    0.000    0.000    0.000    2.800 
#    0.000    0.000    0.000    0.000    0.000    0.000 
#
# Total GULP energy -247769.651825 kJ/mol
# GULP energy per Si atom -12388.482591 kJ/mol
# Density = 2.090175 g / cm^3
# Si number density = 20.949429 Si / 1000 Ang^3
#
#
#
# Elastic Constant Matrix: (Units=GPa)
#
#
# Indices 1 2 3 4 5 6 
#
# 1 114.3805 31.9164 20.7631 0.0000 0.0000 0.0000
# 2 31.9164 102.4277 18.2790 0.0000 0.0000 0.0000
# 3 20.7631 18.2790 49.4103 0.0000 0.0000 0.0000
# 4 0.0000 0.0000 0.0000 19.3244 0.0000 0.0000
# 5 0.0000 0.0000 0.0000 0.0000 21.7161 0.0000
# 6 0.0000 0.0000 0.0000 0.0000 0.0000 51.5353
#
#
#
# Elastic Compliance Matrix: (Units=1/GPa)
#
#
# Indices 1 2 3 4 5 6 
#
# 1 0.010049 -0.002546 -0.003281 0.000000 0.000000 0.000000
# 2 -0.002546 0.011098 -0.003036 0.000000 0.000000 0.000000
# 3 -0.003281 -0.003036 0.022740 0.000000 0.000000 0.000000
# 4 0.000000 0.000000 0.000000 0.051748 0.000000 0.000000
# 5 0.000000 0.000000 0.000000 0.000000 0.046049 0.000000
# 6 0.000000 0.000000 0.000000 0.000000 0.000000 0.019404
#
#
# Mechanical properties :
#
#
# Convention : Reuss Voigt Hill
#
# Bulk Modulus (GPa) = 38.22299 45.34841 41.78570
# Shear Modulus (GPa) = 26.66186 31.53249 29.09718
#
# Velocity S-wave (km/s) = 3.57133 3.88386 3.73087
# Velocity P-wave (km/s) = 5.94061 6.46577 6.20874
#
# Compressibility (1/GPa) = 0.02616226
#
# Stress axis : x y z
#
# Youngs Moduli (GPa) = 99.51593 90.10648 43.97441
#
# Poissons Ratio (x) = 0.22938 0.14427
# Poissons Ratio (y) = 0.25333 0.13350
# Poissons Ratio (z) = 0.32650 0.27355
#
# Static dielectric constant tensor:
#      x y z
#    x 4.293300 0.000000 0.000000 
#    y 0.000000 4.081550 0.000000 
#    z 0.000000 0.000000 3.643080 
# 
# 
# High freq. dielectric constant tensor:
#      x y z
#    x 1.834820 0.000000 0.000000 
#    y 0.000000 1.838500 0.000000 
#    z 0.000000 0.000000 1.757170 
# 
# From -- ./inp_files/38666.got.cif
#   From: 2010.03.12/outbox.cif.g09.slc.cpg/sg24_20_cif.got.tgz:38666.got - 2010.04.14 03:06:53.
