data_PCOD8165363
_publ_section_title
;
Structure prediction by ZEFSAII (Michael W. Deem and Ramdas Pophale) SiO2 
 PCOD8165363
Probable space group: I 21 21 21
;
_chemical_formula_sum "Si O2"
_cell_formula_units_Z 64
_cell_length_a 9.025608
_cell_length_b 14.176026
_cell_length_c 23.105371
_cell_angle_alpha 90.000000
_cell_angle_beta 90.000000
_cell_angle_gamma 90.000000
_cell_volume 2956.268765
_symmetry_space_group_name_H-M "I 21 21 21"
_symmetry_group_IT_number 24
_symmetry_cell_setting 'orthorhombic'
loop_
_space_group_symop_operation_xyz
x,y,z
-x,1/2-y,z
x,-y,1/2-z
1/2-x,y,-z
1/2+x,1/2+y,1/2+z
1/2-x,-y,1/2+z
1/2+x,1/2-y,-z
-x,1/2+y,1/2-z
loop_
_atom_site_type_symbol
_atom_site_label
_atom_site_fract_x
_atom_site_fract_y
_atom_site_fract_z
Si Si1 0.769876 0.675556 0.654287
Si Si2 0.967515 0.506774 0.680988
Si Si3 0.273328 0.118467 0.628701
Si Si4 0.778402 0.923090 0.161991
Si Si5 0.985393 0.456455 0.126098
Si Si6 0.836133 0.253015 0.266323
Si Si7 0.850717 0.194027 0.055649
Si Si8 0.331127 0.713677 0.942322
O O1 0.912572 0.606154 0.652369
O O2 0.617391 0.617699 0.658439
O O3 0.781417 0.727020 0.715809
O O4 0.754688 0.748364 0.600897
O O5 0.942372 0.500000 0.750000
O O6 0.879768 0.422434 0.650966
O O7 0.134352 0.488777 0.662077
O O8 0.352170 0.169580 0.683055
O O9 0.236989 0.197133 0.580991
O O10 0.378486 0.038253 0.599950
O O11 0.770570 0.845382 0.211319
O O12 0.817176 0.875303 0.100295
O O13 0.910802 0.996384 0.174702
O O14 0.092836 0.407076 0.079000
O O15 0.000000 0.250000 0.239114
O O16 0.000000 0.250000 0.039010
O O17 0.750000 0.175903 0.000000
O O18 0.500000 0.750000 0.949749
O O19 0.250000 0.680058 0.000000
#
# Coordination Sequence:
#
# PCOD8165363 Si02
#       8
#     8   8   8   8   8   8   8   8
#     4  10  23  43  64  93 131 173 228 269 337 410
#     4  11  24  41  62  98 136 178 220 274 344 403
#     4  10  20  42  64  91 136 175 218 273 337 408
#     4  11  24  41  64  98 138 171 223 278 336 405
#     4  10  20  42  65  95 124 166 231 275 318 402
#     4  11  19  37  69  97 126 176 217 270 344 406
#     4  10  23  44  67  91 126 174 225 281 333 390
#     4  11  24  43  68 100 136 179 230 279 345 412
#
# _framework density 21.648911999999999
#
# number of rings (size 3 to 8) (size 9 to 14) (size 15 to 20)
#    0.000    1.500    3.750    1.875    1.750    5.000 
#    2.250    8.125    0.000    0.000    0.000    0.000 
#    0.000    0.000    0.000    0.000    0.000    0.000 
#
# Total GULP energy -396600.619515 kJ/mol
# GULP energy per Si atom -12393.769360 kJ/mol
# Density = 2.159964 g / cm^3
# Si number density = 21.648912 Si / 1000 Ang^3
#
#
#
# Elastic Constant Matrix: (Units=GPa)
#
#
# Indices 1 2 3 4 5 6 
#
# 1 97.0952 32.1747 29.3576 0.0000 0.0000 0.0000
# 2 32.1747 85.9609 37.6957 0.0000 0.0000 0.0000
# 3 29.3576 37.6957 96.4666 0.0000 0.0000 0.0000
# 4 0.0000 0.0000 0.0000 16.7765 0.0000 0.0000
# 5 0.0000 0.0000 0.0000 0.0000 26.8134 0.0000
# 6 0.0000 0.0000 0.0000 0.0000 0.0000 30.8206
#
#
#
# Elastic Compliance Matrix: (Units=1/GPa)
#
#
# Indices 1 2 3 4 5 6 
#
# 1 0.012174 -0.003538 -0.002322 0.000000 0.000000 0.000000
# 2 -0.003538 0.015067 -0.004811 0.000000 0.000000 0.000000
# 3 -0.002322 -0.004811 0.012953 0.000000 0.000000 0.000000
# 4 0.000000 0.000000 0.000000 0.059607 0.000000 0.000000
# 5 0.000000 0.000000 0.000000 0.000000 0.037295 0.000000
# 6 0.000000 0.000000 0.000000 0.000000 0.000000 0.032446
#
#
# Mechanical properties :
#
#
# Convention : Reuss Voigt Hill
#
# Bulk Modulus (GPa) = 53.04714 53.10875 53.07794
# Shear Modulus (GPa) = 25.35903 26.90175 26.13039
#
# Velocity S-wave (km/s) = 3.42625 3.52893 3.47797
# Velocity P-wave (km/s) = 6.34104 6.41791 6.37959
#
# Compressibility (1/GPa) = 0.01885116
#
# Stress axis : x y z
#
# Youngs Moduli (GPa) = 82.14370 66.36914 77.20246
#
# Poissons Ratio (x) = 0.23483 0.17928
# Poissons Ratio (y) = 0.29064 0.37142
# Poissons Ratio (z) = 0.19076 0.31930
#
# Static dielectric constant tensor:
#      x y z
#    x 3.812680 0.000000 0.000000 
#    y 0.000000 4.185380 0.000000 
#    z 0.000000 0.000000 3.630530 
# 
# 
# High freq. dielectric constant tensor:
#      x y z
#    x 1.851030 0.000000 0.000000 
#    y 0.000000 1.866790 0.000000 
#    z 0.000000 0.000000 1.824920 
# 
# From -- ./inp_files/16035.got.cif
#   From: 2010.03.12/outbox.cif.g09.slc.cpg/sg24_9_cif.got.tgz:16035.got - 2010.04.14 03:06:53.
