data_PCOD8165072
_publ_section_title
;
Structure prediction by ZEFSAII (Michael W. Deem and Ramdas Pophale) SiO2 
 PCOD8165072
Probable space group: I 21 21 21
;
_chemical_formula_sum "Si O2"
_cell_formula_units_Z 48
_cell_length_a 4.865803
_cell_length_b 28.844291
_cell_length_c 17.327022
_cell_angle_alpha 90.000000
_cell_angle_beta 90.000000
_cell_angle_gamma 90.000000
_cell_volume 2431.858587
_symmetry_space_group_name_H-M "I 21 21 21"
_symmetry_group_IT_number 24
_symmetry_cell_setting 'orthorhombic'
loop_
_space_group_symop_operation_xyz
x,y,z
-x,1/2-y,z
x,-y,1/2-z
1/2-x,y,-z
1/2+x,1/2+y,1/2+z
1/2-x,-y,1/2+z
1/2+x,1/2-y,-z
-x,1/2+y,1/2-z
loop_
_atom_site_type_symbol
_atom_site_label
_atom_site_fract_x
_atom_site_fract_y
_atom_site_fract_z
Si Si1 0.276634 0.933523 0.586897
Si Si2 0.180747 0.672904 0.087262
Si Si3 0.862908 0.382717 0.766065
Si Si4 0.674365 0.296329 0.323644
Si Si5 0.376728 0.585778 0.824441
Si Si6 0.778547 0.995773 0.587071
O O1 0.250000 0.913950 0.500000
O O2 0.186574 0.892172 0.643587
O O3 0.585155 0.951195 0.601971
O O4 0.088032 0.978824 0.600039
O O5 0.483210 0.673610 0.121931
O O6 0.083494 0.620104 0.101539
O O7 0.965896 0.708871 0.129543
O O8 0.250000 0.686748 0.000000
O O9 0.780329 0.328286 0.752370
O O10 0.671285 0.417464 0.716577
O O11 0.173320 0.393262 0.740366
O O12 0.500000 0.250000 0.303459
O O13 0.283776 0.535648 0.851856
O O14 0.750000 0.015031 0.500000
#
# Coordination Sequence:
#
# PCOD8165072 Si02
#       6
#     8   8   8   8   8   8
#     4  10  21  35  51  74 102 134 172 214 263 310
#     4  10  20  34  52  75 105 139 173 207 246 295
#     4  10  21  35  52  75 100 133 173 214 262 309
#     4  10  21  36  53  75 101 132 170 212 260 307
#     4  10  20  33  51  75 105 139 175 210 247 296
#     4  10  20  33  50  74 106 141 174 209 249 297
#
# _framework density 19.737988000000001
#
# number of rings (size 3 to 8) (size 9 to 14) (size 15 to 20)
#    0.000    2.000    0.000    3.500    0.000    5.333 
#    0.000    5.000    0.000    0.000    0.000   10.500 
#    0.000    0.000    0.000    0.000    0.000    0.000 
#
# Total GULP energy -297407.217118 kJ/mol
# GULP energy per Si atom -12391.967380 kJ/mol
# Density = 1.969306 g / cm^3
# Si number density = 19.737988 Si / 1000 Ang^3
#
#
#
# Elastic Constant Matrix: (Units=GPa)
#
#
# Indices 1 2 3 4 5 6 
#
# 1 74.6621 4.2509 12.2068 0.0000 0.0000 0.0000
# 2 4.2509 75.6878 61.4658 0.0000 0.0000 0.0000
# 3 12.2068 61.4658 97.4288 0.0000 0.0000 0.0000
# 4 0.0000 0.0000 0.0000 12.9700 0.0000 0.0000
# 5 0.0000 0.0000 0.0000 0.0000 22.7230 0.0000
# 6 0.0000 0.0000 0.0000 0.0000 0.0000 25.1642
#
#
#
# Elastic Compliance Matrix: (Units=1/GPa)
#
#
# Indices 1 2 3 4 5 6 
#
# 1 0.013734 0.001284 -0.002531 0.000000 0.000000 0.000000
# 2 0.001284 0.027213 -0.017329 0.000000 0.000000 0.000000
# 3 -0.002531 -0.017329 0.021513 0.000000 0.000000 0.000000
# 4 0.000000 0.000000 0.000000 0.077101 0.000000 0.000000
# 5 0.000000 0.000000 0.000000 0.000000 0.044008 0.000000
# 6 0.000000 0.000000 0.000000 0.000000 0.000000 0.039739
#
#
# Mechanical properties :
#
#
# Convention : Reuss Voigt Hill
#
# Bulk Modulus (GPa) = 39.51155 44.84727 42.17941
# Shear Modulus (GPa) = 18.59450 23.49510 21.04480
#
# Velocity S-wave (km/s) = 3.07264 3.45389 3.26883
# Velocity P-wave (km/s) = 5.71399 6.21904 5.97185
#
# Compressibility (1/GPa) = 0.02530906
#
# Stress axis : x y z
#
# Youngs Moduli (GPa) = 72.81021 36.74754 46.48282
#
# Poissons Ratio (x) = -0.04718 0.11763
# Poissons Ratio (y) = -0.09347 0.80549
# Poissons Ratio (z) = 0.18426 0.63679
#
# Static dielectric constant tensor:
#      x y z
#    x 3.844400 0.000000 0.000000 
#    y 0.000000 3.401320 0.000000 
#    z 0.000000 0.000000 3.601520 
# 
# 
# High freq. dielectric constant tensor:
#      x y z
#    x 1.795070 0.000000 0.000000 
#    y 0.000000 1.741710 0.000000 
#    z 0.000000 0.000000 1.744590 
# 
# From -- ./inp_files/28853.got.cif
#   From: 2010.03.12/outbox.cif.g09.slc.cpg/sg24_15_cif.got.tgz:28853.got - 2010.04.14 03:06:53.
