data_PCOD8165160
_publ_section_title
;
Structure prediction by ZEFSAII (Michael W. Deem and Ramdas Pophale) SiO2 
 PCOD8165160
Probable space group: I 21 21 21
;
_chemical_formula_sum "Si O2"
_cell_formula_units_Z 60
_cell_length_a 30.053050
_cell_length_b 5.144992
_cell_length_c 18.109826
_cell_angle_alpha 90.000000
_cell_angle_beta 90.000000
_cell_angle_gamma 90.000000
_cell_volume 2800.190226
_symmetry_space_group_name_H-M "I 21 21 21"
_symmetry_group_IT_number 24
_symmetry_cell_setting 'orthorhombic'
loop_
_space_group_symop_operation_xyz
x,y,z
-x,1/2-y,z
x,-y,1/2-z
1/2-x,y,-z
1/2+x,1/2+y,1/2+z
1/2-x,-y,1/2+z
1/2+x,1/2-y,-z
-x,1/2+y,1/2-z
loop_
_atom_site_type_symbol
_atom_site_label
_atom_site_fract_x
_atom_site_fract_y
_atom_site_fract_z
Si Si1 0.165755 0.438809 0.556201
Si Si2 0.028500 0.993601 0.083740
Si Si3 0.528686 0.492346 0.415240
Si Si4 0.330933 0.514478 0.886905
Si Si5 0.817087 0.500000 0.750000
Si Si6 0.619608 0.504347 0.662659
Si Si7 0.235580 0.386994 0.671659
Si Si8 0.874986 0.414256 0.879538
O O1 0.181244 0.447668 0.471963
O O2 0.209782 0.515975 0.603154
O O3 0.128561 0.660815 0.568190
O O4 0.147078 0.160147 0.579414
O O5 0.070032 0.055470 0.135711
O O6 0.000000 0.250000 0.086698
O O7 0.000000 0.750000 0.114336
O O8 0.043770 0.936579 0.999822
O O9 0.500000 0.250000 0.385022
O O10 0.573113 0.523079 0.366534
O O11 0.500000 0.750000 0.408156
O O12 0.346746 0.222794 0.868781
O O13 0.287966 0.590444 0.838678
O O14 0.368808 0.718313 0.866273
O O15 0.783899 0.399662 0.685104
O O16 0.851796 0.337090 0.801201
O O17 0.621869 0.500000 0.750000
O O18 0.219910 0.500000 0.750000
#
# Coordination Sequence:
#
# PCOD8165160 Si02
#       8
#     8   8   8   8   4   8   8   8
#     4  11  23  41  65  95 123 170 221 269 319 377
#     4  10  21  38  64  89 123 164 212 264 316 384
#     4  10  20  36  59  92 123 163 207 260 326 381
#     4  12  26  41  66  92 132 170 213 274 323 384
#     4  10  24  42  66  94 126 178 218 258 330 388
#     4  12  26  44  62  96 129 171 216 260 337 390
#     4  11  23  42  64  93 128 168 218 263 323 385
#     4  11  22  41  66  92 132 165 216 268 315 392
#
# _framework density 21.427116000000002
#
# number of rings (size 3 to 8) (size 9 to 14) (size 15 to 20)
#    0.000    1.067    1.333    5.600    2.800    2.667 
#    0.000    3.333    0.000    0.000    0.000    0.000 
#    0.000    0.000    0.000    0.000    0.000    0.000 
#
# Total GULP energy -371861.670574 kJ/mol
# GULP energy per Si atom -12395.389019 kJ/mol
# Density = 2.137835 g / cm^3
# Si number density = 21.427116 Si / 1000 Ang^3
#
#
#
# Elastic Constant Matrix: (Units=GPa)
#
#
# Indices 1 2 3 4 5 6 
#
# 1 118.5306 23.7042 45.5619 0.0000 0.0000 0.0000
# 2 23.7042 100.2894 12.8881 0.0000 0.0000 0.0000
# 3 45.5619 12.8881 90.7805 0.0000 0.0000 0.0000
# 4 0.0000 0.0000 0.0000 21.9852 0.0000 0.0000
# 5 0.0000 0.0000 0.0000 0.0000 15.7760 0.0000
# 6 0.0000 0.0000 0.0000 0.0000 0.0000 29.8110
#
#
#
# Elastic Compliance Matrix: (Units=1/GPa)
#
#
# Indices 1 2 3 4 5 6 
#
# 1 0.010794 -0.001889 -0.005149 0.000000 0.000000 0.000000
# 2 -0.001889 0.010487 -0.000541 0.000000 0.000000 0.000000
# 3 -0.005149 -0.000541 0.013677 0.000000 0.000000 0.000000
# 4 0.000000 0.000000 0.000000 0.045485 0.000000 0.000000
# 5 0.000000 0.000000 0.000000 0.000000 0.063387 0.000000
# 6 0.000000 0.000000 0.000000 0.000000 0.000000 0.033545
#
#
# Mechanical properties :
#
#
# Convention : Reuss Voigt Hill
#
# Bulk Modulus (GPa) = 50.50662 52.65655 51.58159
# Shear Modulus (GPa) = 25.10891 28.67753 26.89322
#
# Velocity S-wave (km/s) = 3.42691 3.66235 3.54659
# Velocity P-wave (km/s) = 6.26744 6.52011 6.39502
#
# Compressibility (1/GPa) = 0.01979938
#
# Stress axis : x y z
#
# Youngs Moduli (GPa) = 92.64623 95.35424 73.11773
#
# Poissons Ratio (x) = 0.18017 0.37649
# Poissons Ratio (y) = 0.17505 0.03952
# Poissons Ratio (z) = 0.47704 0.05154
#
# Static dielectric constant tensor:
#      x y z
#    x 3.802120 0.000000 0.000000 
#    y 0.000000 4.460520 0.000000 
#    z 0.000000 0.000000 4.041120 
# 
# 
# High freq. dielectric constant tensor:
#      x y z
#    x 1.845580 0.000000 0.000000 
#    y 0.000000 1.847200 0.000000 
#    z 0.000000 0.000000 1.838030 
# 
# From -- ./inp_files/31678.got.cif
#   From: 2010.03.12/outbox.cif.g09.slc.cpg/sg24_16_cif.got.tgz:31678.got - 2010.04.14 03:06:53.
