data_PCOD8165394
_publ_section_title
;
Structure prediction by ZEFSAII (Michael W. Deem and Ramdas Pophale) SiO2 
 PCOD8165394
Probable space group: I 21 21 21
;
_chemical_formula_sum "Si O2"
_cell_formula_units_Z 48
_cell_length_a 16.767911
_cell_length_b 5.016844
_cell_length_c 26.433560
_cell_angle_alpha 90.000000
_cell_angle_beta 90.000000
_cell_angle_gamma 90.000000
_cell_volume 2223.643768
_symmetry_space_group_name_H-M "I 21 21 21"
_symmetry_group_IT_number 24
_symmetry_cell_setting 'orthorhombic'
loop_
_space_group_symop_operation_xyz
x,y,z
-x,1/2-y,z
x,-y,1/2-z
1/2-x,y,-z
1/2+x,1/2+y,1/2+z
1/2-x,-y,1/2+z
1/2+x,1/2-y,-z
-x,1/2+y,1/2-z
loop_
_atom_site_type_symbol
_atom_site_label
_atom_site_fract_x
_atom_site_fract_y
_atom_site_fract_z
Si Si1 0.589728 0.273415 0.077100
Si Si2 0.916951 0.378886 0.039363
Si Si3 0.588414 0.151690 0.697160
Si Si4 0.855124 0.898209 0.089778
Si Si5 0.745891 0.262820 0.282030
Si Si6 0.680508 0.767314 0.112267
O O1 0.500000 0.250000 0.098094
O O2 0.641545 0.476837 0.109672
O O3 0.627209 0.981387 0.082799
O O4 0.588926 0.393499 0.020860
O O5 0.910661 0.673469 0.063391
O O6 0.000000 0.250000 0.057327
O O7 0.849648 0.171531 0.058080
O O8 0.500000 0.250000 0.686147
O O9 0.613270 0.002267 0.645096
O O10 0.663360 0.359720 0.701923
O O11 0.582080 0.000000 0.750000
O O12 0.768051 0.767333 0.088392
O O13 0.705787 0.500000 0.250000
O O14 0.688612 0.179825 0.327906
O O15 0.757730 0.000000 0.250000
#
# Coordination Sequence:
#
# PCOD8165394 Si02
#       6
#     8   8   8   8   8   8
#     4  11  24  42  65  89 117 154 197 248 309 370
#     4  11  23  40  60  87 124 164 200 243 299 352
#     4  10  21  35  56  85 120 161 205 244 282 337
#     4  11  24  39  60  89 123 162 205 249 296 347
#     4  10  21  38  60  86 119 157 193 236 293 349
#     4  11  23  40  64  92 119 155 200 247 299 357
#
# _framework density 21.586192
#
# number of rings (size 3 to 8) (size 9 to 14) (size 15 to 20)
#    0.000    1.333    0.000    5.500    0.000   15.333 
#    0.000    0.000    0.000   10.000    0.000    0.000 
#    0.000    0.000    0.000    0.000    0.000    0.000 
#
# Total GULP energy -297365.988556 kJ/mol
# GULP energy per Si atom -12390.249523 kJ/mol
# Density = 2.153706 g / cm^3
# Si number density = 21.586192 Si / 1000 Ang^3
#
#
#
# Elastic Constant Matrix: (Units=GPa)
#
#
# Indices 1 2 3 4 5 6 
#
# 1 97.6787 5.7928 29.0596 0.0000 0.0000 0.0000
# 2 5.7928 79.9306 8.8178 0.0000 0.0000 0.0000
# 3 29.0596 8.8178 73.4059 0.0000 0.0000 0.0000
# 4 0.0000 0.0000 0.0000 39.8110 0.0000 0.0000
# 5 0.0000 0.0000 0.0000 0.0000 33.5292 0.0000
# 6 0.0000 0.0000 0.0000 0.0000 0.0000 31.8119
#
#
#
# Elastic Compliance Matrix: (Units=1/GPa)
#
#
# Indices 1 2 3 4 5 6 
#
# 1 0.011613 -0.000339 -0.004557 0.000000 0.000000 0.000000
# 2 -0.000339 0.012689 -0.001390 0.000000 0.000000 0.000000
# 3 -0.004557 -0.001390 0.015594 0.000000 0.000000 0.000000
# 4 0.000000 0.000000 0.000000 0.025119 0.000000 0.000000
# 5 0.000000 0.000000 0.000000 0.000000 0.029825 0.000000
# 6 0.000000 0.000000 0.000000 0.000000 0.000000 0.031435
#
#
# Mechanical properties :
#
#
# Convention : Reuss Voigt Hill
#
# Bulk Modulus (GPa) = 36.59727 37.59505 37.09616
# Shear Modulus (GPa) = 33.79434 34.85342 34.32388
#
# Velocity S-wave (km/s) = 3.96100 4.02259 3.99191
# Velocity P-wave (km/s) = 6.15712 6.24732 6.20239
#
# Compressibility (1/GPa) = 0.02732445
#
# Stress axis : x y z
#
# Youngs Moduli (GPa) = 86.10753 78.80990 64.12821
#
# Poissons Ratio (x) = 0.02671 0.29222
# Poissons Ratio (y) = 0.02919 0.08914
# Poissons Ratio (z) = 0.39237 0.10955
#
# Static dielectric constant tensor:
#      x y z
#    x 4.115360 0.000000 0.000000 
#    y 0.000000 3.701070 0.000000 
#    z 0.000000 0.000000 3.974970 
# 
# 
# High freq. dielectric constant tensor:
#      x y z
#    x 1.846400 0.000000 0.000000 
#    y 0.000000 1.836560 0.000000 
#    z 0.000000 0.000000 1.857430 
# 
# From -- ./inp_files/37353.got.cif
#   From: 2010.03.12/outbox.cif.g09.slc.cpg/sg24_19_cif.got.tgz:37353.got - 2010.04.14 03:06:53.
