data_PCOD8165209
_publ_section_title
;
Structure prediction by ZEFSAII (Michael W. Deem and Ramdas Pophale) SiO2 
 PCOD8165209
Probable space group: I 21 21 21
;
_chemical_formula_sum "Si O2"
_cell_formula_units_Z 60
_cell_length_a 11.238542
_cell_length_b 9.773149
_cell_length_c 28.231034
_cell_angle_alpha 90.000000
_cell_angle_beta 90.000000
_cell_angle_gamma 90.000000
_cell_volume 3100.782312
_symmetry_space_group_name_H-M "I 21 21 21"
_symmetry_group_IT_number 24
_symmetry_cell_setting 'orthorhombic'
loop_
_space_group_symop_operation_xyz
x,y,z
-x,1/2-y,z
x,-y,1/2-z
1/2-x,y,-z
1/2+x,1/2+y,1/2+z
1/2-x,-y,1/2+z
1/2+x,1/2-y,-z
-x,1/2+y,1/2-z
loop_
_atom_site_type_symbol
_atom_site_label
_atom_site_fract_x
_atom_site_fract_y
_atom_site_fract_z
Si Si1 0.216496 0.024776 0.694535
Si Si2 0.614759 0.158997 0.559137
Si Si3 0.862803 0.739004 0.320915
Si Si4 0.633881 0.217905 0.711862
Si Si5 0.250000 0.138451 0.500000
Si Si6 0.271033 0.493720 0.646870
Si Si7 0.511198 0.087181 0.366034
Si Si8 0.993618 0.586857 0.971467
O O1 0.279526 0.170677 0.687509
O O2 0.095882 0.019910 0.663811
O O3 0.186788 0.000000 0.750000
O O4 0.308430 0.912464 0.673804
O O5 0.500000 0.250000 0.575191
O O6 0.717736 0.264985 0.544554
O O7 0.671009 0.068697 0.599968
O O8 0.582861 0.053530 0.515229
O O9 0.847517 0.786997 0.267403
O O10 0.000000 0.750000 0.336858
O O11 0.788423 0.842930 0.353801
O O12 0.500000 0.250000 0.697837
O O13 0.660507 0.068293 0.691833
O O14 0.359532 0.041641 0.485172
O O15 0.133958 0.459481 0.656695
O O16 0.500000 0.250000 0.365372
O O17 0.520043 0.025926 0.419774
O O18 0.000000 0.750000 0.969073
#
# Coordination Sequence:
#
# PCOD8165209 Si02
#       8
#     8   8   8   8   4   8   8   8
#     4  10  22  40  58  84 122 157 195 242 288 346
#     4   9  17  29  49  85 116 146 189 245 300 338
#     4  10  23  41  56  82 117 156 193 240 294 340
#     4  10  20  37  61  84 112 149 197 250 290 335
#     4   8  14  28  48  76 118 146 174 242 302 338
#     4  12  21  33  58  88 116 151 195 234 291 356
#     4  11  21  36  57  89 119 153 191 241 293 346
#     4   8  16  30  49  78 118 144 179 240 297 337
#
# _framework density 19.349954
#
# number of rings (size 3 to 8) (size 9 to 14) (size 15 to 20)
#    0.000    2.400    1.333    4.000    0.000    3.733 
#    2.400    0.000    0.000    0.000   10.400    0.000 
#    0.000    0.000    0.000    0.000    0.000    0.000 
#
# Total GULP energy -371790.954083 kJ/mol
# GULP energy per Si atom -12393.031803 kJ/mol
# Density = 1.930591 g / cm^3
# Si number density = 19.349954 Si / 1000 Ang^3
#
#
#
# Elastic Constant Matrix: (Units=GPa)
#
#
# Indices 1 2 3 4 5 6 
#
# 1 119.4550 21.5049 34.0260 0.0000 0.0000 0.0000
# 2 21.5049 62.5140 14.3102 0.0000 0.0000 0.0000
# 3 34.0260 14.3102 53.7245 0.0000 0.0000 0.0000
# 4 0.0000 0.0000 0.0000 13.4966 0.0000 0.0000
# 5 0.0000 0.0000 0.0000 0.0000 25.5982 0.0000
# 6 0.0000 0.0000 0.0000 0.0000 0.0000 24.0300
#
#
#
# Elastic Compliance Matrix: (Units=1/GPa)
#
#
# Indices 1 2 3 4 5 6 
#
# 1 0.010497 -0.002225 -0.006055 0.000000 0.000000 0.000000
# 2 -0.002225 0.017507 -0.003254 0.000000 0.000000 0.000000
# 3 -0.006055 -0.003254 0.023315 0.000000 0.000000 0.000000
# 4 0.000000 0.000000 0.000000 0.074093 0.000000 0.000000
# 5 0.000000 0.000000 0.000000 0.000000 0.039065 0.000000
# 6 0.000000 0.000000 0.000000 0.000000 0.000000 0.041615
#
#
# Mechanical properties :
#
#
# Convention : Reuss Voigt Hill
#
# Bulk Modulus (GPa) = 35.39796 41.70844 38.55320
# Shear Modulus (GPa) = 20.95764 23.68180 22.31972
#
# Velocity S-wave (km/s) = 3.29460 3.50218 3.39997
# Velocity P-wave (km/s) = 5.72763 6.16078 5.94815
#
# Compressibility (1/GPa) = 0.02825022
#
# Stress axis : x y z
#
# Youngs Moduli (GPa) = 95.26790 57.12125 42.89012
#
# Poissons Ratio (x) = 0.12708 0.25972
# Poissons Ratio (y) = 0.21195 0.13957
# Poissons Ratio (z) = 0.57689 0.18588
#
# Static dielectric constant tensor:
#      x y z
#    x 3.895130 0.000000 0.000000 
#    y 0.000000 3.140020 0.000000 
#    z 0.000000 0.000000 3.708400 
# 
# 
# High freq. dielectric constant tensor:
#      x y z
#    x 1.770570 0.000000 0.000000 
#    y 0.000000 1.703630 0.000000 
#    z 0.000000 0.000000 1.752930 
# 
# From -- ./inp_files/38593.got.cif
#   From: 2010.03.12/outbox.cif.g09.slc.cpg/sg24_20_cif.got.tgz:38593.got - 2010.04.14 03:06:53.
