data_PCOD8165234
_publ_section_title
;
Structure prediction by ZEFSAII (Michael W. Deem and Ramdas Pophale) SiO2 
 PCOD8165234
Probable space group: I 21 21 21
;
_chemical_formula_sum "Si O2"
_cell_formula_units_Z 24
_cell_length_a 8.957462
_cell_length_b 7.225168
_cell_length_c 19.372768
_cell_angle_alpha 90.000000
_cell_angle_beta 90.000000
_cell_angle_gamma 90.000000
_cell_volume 1253.789423
_symmetry_space_group_name_H-M "I 21 21 21"
_symmetry_group_IT_number 24
_symmetry_cell_setting 'orthorhombic'
loop_
_space_group_symop_operation_xyz
x,y,z
-x,1/2-y,z
x,-y,1/2-z
1/2-x,y,-z
1/2+x,1/2+y,1/2+z
1/2-x,-y,1/2+z
1/2+x,1/2-y,-z
-x,1/2+y,1/2-z
loop_
_atom_site_type_symbol
_atom_site_label
_atom_site_fract_x
_atom_site_fract_y
_atom_site_fract_z
Si Si1 0.161305 0.164352 0.564755
Si Si2 0.883667 0.591623 0.180551
Si Si3 0.500000 0.750000 0.595265
Si Si4 0.250000 0.187170 0.000000
O O1 0.250000 0.260084 0.500000
O O2 0.252994 0.186078 0.635914
O O3 0.000000 0.250000 0.575569
O O4 0.144401 0.945856 0.547479
O O5 0.816520 0.500000 0.250000
O O6 0.000000 0.750000 0.201966
O O7 0.968156 0.433028 0.138151
O O8 0.357383 0.691574 0.548332
#
# Coordination Sequence:
#
# PCOD8165234 Si02
#       4
#     8   8   4   4
#     4   9  19  36  59  90 116 151 198 245 297 346
#     4  11  22  38  62  84 118 162 196 243 297 355
#     4  10  20  38  56  90 118 146 200 236 296 350
#     4   8  20  32  60  88 116 150 184 252 290 350
#
# _framework density 19.141971999999999
#
# number of rings (size 3 to 8) (size 9 to 14) (size 15 to 20)
#    1.000    1.333    1.667    1.000    0.000    2.667 
#    0.000    1.667   14.667    0.000    0.000    0.000 
#    0.000    0.000    0.000    0.000    0.000    0.000 
#
# Total GULP energy -148691.784170 kJ/mol
# GULP energy per Si atom -12390.982014 kJ/mol
# Density = 1.909840 g / cm^3
# Si number density = 19.141972 Si / 1000 Ang^3
#
#
#
# Elastic Constant Matrix: (Units=GPa)
#
#
# Indices 1 2 3 4 5 6 
#
# 1 132.7941 43.2199 75.5697 0.0000 0.0000 0.0000
# 2 43.2199 46.9189 24.5802 0.0000 0.0000 0.0000
# 3 75.5697 24.5802 147.4539 0.0000 0.0000 0.0000
# 4 0.0000 0.0000 0.0000 258.0897 0.0000 0.0000
# 5 0.0000 0.0000 0.0000 0.0000 30.8409 0.0000
# 6 0.0000 0.0000 0.0000 0.0000 0.0000 30.4765
#
#
#
# Elastic Compliance Matrix: (Units=1/GPa)
#
#
# Indices 1 2 3 4 5 6 
#
# 1 0.013857 -0.009909 -0.005450 0.000000 0.000000 0.000000
# 2 -0.009909 0.030439 0.000004 0.000000 0.000000 0.000000
# 3 -0.005450 0.000004 0.009574 0.000000 0.000000 0.000000
# 4 0.000000 0.000000 0.000000 0.003875 0.000000 0.000000
# 5 0.000000 0.000000 0.000000 0.000000 0.032424 0.000000
# 6 0.000000 0.000000 0.000000 0.000000 0.000000 0.032812
#
#
# Mechanical properties :
#
#
# Convention : Reuss Voigt Hill
#
# Bulk Modulus (GPa) = 43.17668 68.21182 55.69425
# Shear Modulus (GPa) = 30.97676 76.13456 53.55566
#
# Velocity S-wave (km/s) = 4.02713 6.31348 5.29517
# Velocity P-wave (km/s) = 6.65046 9.42649 8.15743
#
# Compressibility (1/GPa) = 0.02316065
#
# Stress axis : x y z
#
# Youngs Moduli (GPa) = 72.16588 32.85235 104.44905
#
# Poissons Ratio (x) = 0.32555 0.56922
# Poissons Ratio (y) = 0.71512 -0.00046
# Poissons Ratio (z) = 0.39329 -0.00015
#
# Static dielectric constant tensor:
#      x y z
#    x 2.630270 0.000000 0.000000 
#    y 0.000000 3.268910 0.000000 
#    z 0.000000 0.000000 3.655010 
# 
# 
# High freq. dielectric constant tensor:
#      x y z
#    x 1.726890 0.000000 0.000000 
#    y 0.000000 1.731720 0.000000 
#    z 0.000000 0.000000 1.746080 
# 
# From -- ./inp_files/8729.got.cif
#   From: 2010.03.12/outbox.cif.g09.slc.cpg/sg24_5_cif.got.tgz:8729.got - 2010.04.14 03:06:53.
