data_PCOD8165004
_publ_section_title
;
Structure prediction by ZEFSAII (Michael W. Deem and Ramdas Pophale) SiO2 
 PCOD8165004
Probable space group: I 21 21 21
;
_chemical_formula_sum "Si O2"
_cell_formula_units_Z 60
_cell_length_a 11.777326
_cell_length_b 18.484300
_cell_length_c 13.583419
_cell_angle_alpha 90.000000
_cell_angle_beta 90.000000
_cell_angle_gamma 90.000000
_cell_volume 2957.050916
_symmetry_space_group_name_H-M "I 21 21 21"
_symmetry_group_IT_number 24
_symmetry_cell_setting 'orthorhombic'
loop_
_space_group_symop_operation_xyz
x,y,z
-x,1/2-y,z
x,-y,1/2-z
1/2-x,y,-z
1/2+x,1/2+y,1/2+z
1/2-x,-y,1/2+z
1/2+x,1/2-y,-z
-x,1/2+y,1/2-z
loop_
_atom_site_type_symbol
_atom_site_label
_atom_site_fract_x
_atom_site_fract_y
_atom_site_fract_z
Si Si1 0.744833 0.004546 0.359585
Si Si2 0.342115 0.357021 0.077995
Si Si3 0.759896 0.365464 0.165067
Si Si4 0.128430 0.739395 0.756074
Si Si5 0.576078 0.384459 0.002177
Si Si6 0.982570 0.967054 0.062043
Si Si7 0.119029 0.000000 0.250000
Si Si8 0.360083 0.640494 0.062820
O O1 0.663696 0.940608 0.393230
O O2 0.793114 0.000000 0.250000
O O3 0.852327 0.005606 0.432338
O O4 0.669104 0.075909 0.363316
O O5 0.317412 0.315652 0.178811
O O6 0.461707 0.341124 0.025565
O O7 0.250000 0.330358 0.000000
O O8 0.715561 0.307954 0.247622
O O9 0.653502 0.378634 0.096415
O O10 0.794115 0.439277 0.216183
O O11 0.868013 0.345996 0.094434
O O12 0.116080 0.709924 0.868307
O O13 0.000000 0.750000 0.719170
O O14 0.555827 0.470889 0.990696
O O15 0.968694 0.888910 0.003963
O O16 0.039046 0.959564 0.169614
O O17 0.250000 0.662107 0.000000
#
# Coordination Sequence:
#
# PCOD8165004 Si02
#       8
#     8   8   8   8   8   8   4   8
#     4  11  18  34  63  98 127 155 206 266 330 395
#     4  12  22  36  67 101 126 164 203 270 346 394
#     4  10  24  43  62  91 129 173 219 273 330 403
#     4  12  26  42  61  89 130 178 220 266 331 403
#     4  10  20  40  64  94 131 160 212 273 335 400
#     4  10  19  37  68 100 124 160 213 280 339 390
#     4  10  22  42  70  92 126 172 226 284 332 402
#     4  10  22  40  62  90 131 169 213 272 324 397
#
# _framework density 20.290486000000001
#
# number of rings (size 3 to 8) (size 9 to 14) (size 15 to 20)
#    0.000    1.333    6.000    0.400    1.867    1.067 
#    3.600    0.000    0.000    0.000    0.000    0.000 
#    0.000    0.000    0.000    0.000    0.000    0.000 
#
# Total GULP energy -371650.228715 kJ/mol
# GULP energy per Si atom -12388.340957 kJ/mol
# Density = 2.024430 g / cm^3
# Si number density = 20.290486 Si / 1000 Ang^3
#
#
#
# Elastic Constant Matrix: (Units=GPa)
#
#
# Indices 1 2 3 4 5 6 
#
# 1 94.6617 36.7662 28.2543 -0.0001 0.0000 0.0000
# 2 36.7662 83.7860 47.7848 0.0000 -0.0002 0.0000
# 3 28.2543 47.7848 109.5442 -0.0003 -0.0002 0.0000
# 4 -0.0001 0.0000 -0.0003 40.3396 -0.0002 0.0000
# 5 0.0000 -0.0002 -0.0002 -0.0002 0.8045 0.0000
# 6 0.0000 0.0000 0.0000 0.0000 0.0000 23.1600
#
#
#
# Elastic Compliance Matrix: (Units=1/GPa)
#
#
# Indices 1 2 3 4 5 6 
#
# 1 0.012840 -0.004986 -0.001137 0.000000 -0.000001 0.000000
# 2 -0.004986 0.017824 -0.006489 0.000000 0.000001 0.000000
# 3 -0.001137 -0.006489 0.012253 0.000000 0.000003 0.000000
# 4 0.000000 0.000000 0.000000 0.024790 0.000006 0.000000
# 5 -0.000001 0.000001 0.000003 0.000006 1.243047 0.000001
# 6 0.000000 0.000000 0.000000 0.000000 0.000001 0.043178
#
#
# Mechanical properties :
#
#
# Convention : Reuss Voigt Hill
#
# Bulk Modulus (GPa) = 56.52041 57.06696 56.79369
# Shear Modulus (GPa) = 3.60997 24.53992 14.07495
#
# Velocity S-wave (km/s) = 1.33529 3.48146 2.63662
# Velocity P-wave (km/s) = 5.50395 6.65934 6.10902
#
# Compressibility (1/GPa) = 0.01769272
#
# Stress axis : x y z
#
# Youngs Moduli (GPa) = 77.88321 56.10458 81.61564
#
# Poissons Ratio (x) = 0.27973 0.09278
# Poissons Ratio (y) = 0.38832 0.52961
# Poissons Ratio (z) = 0.08854 0.36406
#
# Static dielectric constant tensor:
#      x y z
#    x 3.837680 0.000000 0.000000 
#    y 0.000000 3.574960 0.000000 
#    z 0.000000 0.000000 3.855300 
# 
# 
# High freq. dielectric constant tensor:
#      x y z
#    x 1.789890 0.000000 0.000000 
#    y 0.000000 1.771350 0.000000 
#    z 0.000000 0.000000 1.802230 
# 
# From -- ./inp_files/25992.got.cif
#   From: 2010.03.12/outbox.cif.g09.slc.cpg/sg24_13_cif.got.tgz:25992.got - 2010.04.14 03:06:53.
