data_PCOD8165697
_publ_section_title
;
Structure prediction by ZEFSAII (Michael W. Deem and Ramdas Pophale) SiO2 
 PCOD8165697
Probable space group: I 21 21 21
;
_chemical_formula_sum "Si O2"
_cell_formula_units_Z 32
_cell_length_a 36.734034
_cell_length_b 8.370509
_cell_length_c 5.025660
_cell_angle_alpha 90.000000
_cell_angle_beta 90.000000
_cell_angle_gamma 90.000000
_cell_volume 1545.302814
_symmetry_space_group_name_H-M "I 21 21 21"
_symmetry_group_IT_number 24
_symmetry_cell_setting 'orthorhombic'
loop_
_space_group_symop_operation_xyz
x,y,z
-x,1/2-y,z
x,-y,1/2-z
1/2-x,y,-z
1/2+x,1/2+y,1/2+z
1/2-x,-y,1/2+z
1/2+x,1/2-y,-z
-x,1/2+y,1/2-z
loop_
_atom_site_type_symbol
_atom_site_label
_atom_site_fract_x
_atom_site_fract_y
_atom_site_fract_z
Si Si1 0.346319 0.390908 0.007819
Si Si2 0.461439 0.182724 0.664035
Si Si3 0.924842 0.180749 0.830907
Si Si4 0.792315 0.394892 0.002115
O O1 0.333626 0.500000 0.250000
O O2 0.382991 0.295397 0.083377
O O3 0.353228 0.500000 0.750000
O O4 0.314022 0.267958 0.965132
O O5 0.500000 0.250000 0.563103
O O6 0.433343 0.203203 0.418620
O O7 0.463258 0.000000 0.750000
O O8 0.450137 0.284695 0.918883
O O9 0.932847 0.000000 0.750000
O O10 0.803191 0.500000 0.250000
O O11 0.803733 0.500000 0.750000
O O12 0.750000 0.348449 0.000000
#
# Coordination Sequence:
#
# PCOD8165697 Si02
#       4
#     8   8   8   8
#     4  11  23  40  63  92 123 162 205 251 305 359
#     4  12  25  42  64  91 120 158 203 250 306 365
#     4  11  23  42  62  88 124 159 199 252 306 361
#     4  10  22  40  62  91 127 165 204 251 304 357
#
# _framework density 20.707917999999999
#
# number of rings (size 3 to 8) (size 9 to 14) (size 15 to 20)
#    0.000    1.000    0.000    8.250    0.000    4.000 
#    0.000    0.000    0.000    0.000    0.000    0.000 
#    0.000    0.000    0.000    0.000    0.000    0.000 
#
# Total GULP energy -198489.760022 kJ/mol
# GULP energy per Si atom -12405.610001 kJ/mol
# Density = 2.066079 g / cm^3
# Si number density = 20.707918 Si / 1000 Ang^3
#
#
#
# Elastic Constant Matrix: (Units=GPa)
#
#
# Indices 1 2 3 4 5 6 
#
# 1 102.5214 72.4954 51.1018 0.0019 -0.0015 0.0006
# 2 72.4954 99.0387 47.6890 0.0007 0.0001 0.0001
# 3 51.1018 47.6890 164.0155 0.0026 -0.0033 0.0009
# 4 0.0019 0.0007 0.0026 -179.2850 0.0002 0.0014
# 5 -0.0015 0.0001 -0.0033 0.0002 31.4810 0.0008
# 6 0.0006 0.0001 0.0009 0.0014 0.0008 60.7371
#
#
#
# Elastic Compliance Matrix: (Units=1/GPa)
#
#
# Indices 1 2 3 4 5 6 
#
# 1 0.021010 -0.014218 -0.002412 0.000000 0.000001 0.000000
# 2 -0.014218 0.021362 -0.001781 0.000000 -0.000001 0.000000
# 3 -0.002412 -0.001781 0.007366 0.000000 0.000001 0.000000
# 4 0.000000 0.000000 0.000000 -0.005578 0.000000 0.000000
# 5 0.000001 -0.000001 0.000001 0.000000 0.031765 0.000000
# 6 0.000000 0.000000 0.000000 0.000000 0.000000 0.016464
#
#
# Mechanical properties :
#
#
# Convention : Reuss Voigt Hill
#
# Bulk Modulus (GPa) = 77.42270 78.68313 78.05291
# Shear Modulus (GPa) = 37.44806 -4.46074 16.49366
#
# Velocity S-wave (km/s) = 4.25713 -1.46929 2.82528
# Velocity P-wave (km/s) = 7.85069 5.93302 6.95824
#
# Compressibility (1/GPa) = 0.01291611
#
# Stress axis : x y z
#
# Youngs Moduli (GPa) = 47.59631 46.81199 135.74971
#
# Poissons Ratio (x) = 0.66556 0.32744
# Poissons Ratio (y) = 0.67671 0.24183
# Poissons Ratio (z) = 0.11481 0.08339
#
# Static dielectric constant tensor:
#      x y z
#    x 3.767250 0.000000 0.000000 
#    y 0.000000 4.858380 -0.000010 
#    z 0.000000 -0.000010 4.126310 
# 
# 
# High freq. dielectric constant tensor:
#      x y z
#    x 1.812340 0.000000 0.000000 
#    y 0.000000 1.812270 0.000000 
#    z 0.000000 0.000000 1.835770 
# 
# From -- ./inp_files/7456.got.cif
#   From: 2010.03.12/outbox.cif.g09.slc.cpg/sg24_4_cif.got.tgz:7456.got - 2010.04.14 03:06:53.
