data_PCOD8165347
_publ_section_title
;
Structure prediction by ZEFSAII (Michael W. Deem and Ramdas Pophale) SiO2 
 PCOD8165347
Probable space group: I 21 21 21
;
_chemical_formula_sum "Si O2"
_cell_formula_units_Z 64
_cell_length_a 12.469977
_cell_length_b 30.818541
_cell_length_c 8.166644
_cell_angle_alpha 90.000000
_cell_angle_beta 90.000000
_cell_angle_gamma 90.000000
_cell_volume 3138.494352
_symmetry_space_group_name_H-M "I 21 21 21"
_symmetry_group_IT_number 24
_symmetry_cell_setting 'orthorhombic'
loop_
_space_group_symop_operation_xyz
x,y,z
-x,1/2-y,z
x,-y,1/2-z
1/2-x,y,-z
1/2+x,1/2+y,1/2+z
1/2-x,-y,1/2+z
1/2+x,1/2-y,-z
-x,1/2+y,1/2-z
loop_
_atom_site_type_symbol
_atom_site_label
_atom_site_fract_x
_atom_site_fract_y
_atom_site_fract_z
Si Si1 0.973087 0.800273 0.799525
Si Si2 0.133586 0.876793 0.799296
Si Si3 0.127965 0.125035 0.322341
Si Si4 0.253426 0.548411 0.191635
Si Si5 0.015625 0.547127 0.684067
Si Si6 0.370084 0.334158 0.983712
Si Si7 0.951636 0.918875 0.362454
Si Si8 0.531917 0.200523 0.667128
O O1 0.892661 0.806939 0.648527
O O2 0.000000 0.750000 0.797677
O O3 0.076360 0.830690 0.765785
O O4 0.924630 0.811176 0.982240
O O5 0.256067 0.873948 0.733024
O O6 0.075886 0.917827 0.717418
O O7 0.139509 0.886497 0.989734
O O8 0.054040 0.086040 0.253896
O O9 0.073268 0.171819 0.295746
O O10 0.231542 0.500000 0.250000
O O11 0.370666 0.564457 0.246636
O O12 0.158977 0.578263 0.262385
O O13 0.250000 0.551774 0.000000
O O14 0.982966 0.500000 0.750000
O O15 0.029995 0.541197 0.487115
O O16 0.446132 0.376135 0.977603
O O17 0.382566 0.307556 0.812296
O O18 0.250000 0.350464 0.000000
O O19 0.500000 0.250000 0.674302
#
# Coordination Sequence:
#
# PCOD8165347 Si02
#       8
#     8   8   8   8   8   8   8   8
#     4  10  21  39  64  90 121 170 210 259 323 375
#     4  10  20  41  61  86 124 159 211 259 306 381
#     4   9  21  38  62  85 118 169 200 258 321 356
#     4  11  22  38  62  90 122 163 206 254 312 370
#     4  11  22  38  61  88 123 162 201 251 307 369
#     4  11  22  37  57  89 127 161 202 262 320 374
#     4  11  22  40  59  90 125 159 209 255 311 376
#     4   9  20  39  60  88 124 159 216 263 308 382
#
# _framework density 20.391946000000001
#
# number of rings (size 3 to 8) (size 9 to 14) (size 15 to 20)
#    0.000    1.750    1.250    3.750    0.000    2.000 
#    0.000    5.625    0.000    0.000    0.000    0.000 
#    0.000    0.000    0.000    0.000    0.000    0.000 
#
# Total GULP energy -396622.642672 kJ/mol
# GULP energy per Si atom -12394.457584 kJ/mol
# Density = 2.034553 g / cm^3
# Si number density = 20.391946 Si / 1000 Ang^3
#
#
#
# Elastic Constant Matrix: (Units=GPa)
#
#
# Indices 1 2 3 4 5 6 
#
# 1 118.0568 33.4313 38.6193 0.0030 -0.0063 0.0000
# 2 33.4313 86.4694 35.8770 0.0134 -0.0134 -0.0003
# 3 38.6193 35.8770 122.8155 0.0462 -0.0314 -0.0023
# 4 0.0030 0.0134 0.0462 33.3793 -0.0107 -0.0033
# 5 -0.0063 -0.0134 -0.0314 -0.0107 25.7615 0.0011
# 6 0.0000 -0.0003 -0.0023 -0.0033 0.0011 22.4527
#
#
#
# Elastic Compliance Matrix: (Units=1/GPa)
#
#
# Indices 1 2 3 4 5 6 
#
# 1 0.010055 -0.002931 -0.002306 0.000003 -0.000002 0.000000
# 2 -0.002931 0.014014 -0.003172 -0.000001 0.000003 0.000000
# 3 -0.002306 -0.003172 0.009794 -0.000012 0.000010 0.000001
# 4 0.000003 -0.000001 -0.000012 0.029959 0.000012 0.000004
# 5 -0.000002 0.000003 0.000010 0.000012 0.038818 -0.000002
# 6 0.000000 0.000000 0.000001 0.000004 -0.000002 0.044538
#
#
# Mechanical properties :
#
#
# Convention : Reuss Voigt Hill
#
# Bulk Modulus (GPa) = 58.66625 60.35522 59.51074
# Shear Modulus (GPa) = 29.46793 30.94631 30.20712
#
# Velocity S-wave (km/s) = 3.80554 3.89983 3.85298
# Velocity P-wave (km/s) = 6.93839 7.06683 7.00291
#
# Compressibility (1/GPa) = 0.01704557
#
# Stress axis : x y z
#
# Youngs Moduli (GPa) = 99.45654 71.35677 102.10388
#
# Poissons Ratio (x) = 0.20913 0.23540
# Poissons Ratio (y) = 0.29149 0.32390
# Poissons Ratio (z) = 0.22930 0.22636
#
# Static dielectric constant tensor:
#      x y z
#    x 3.806880 0.000010 0.000030 
#    y 0.000010 3.514820 -0.000010 
#    z 0.000030 -0.000010 4.102050 
# 
# 
# High freq. dielectric constant tensor:
#      x y z
#    x 1.782780 0.000000 0.000000 
#    y 0.000000 1.789210 0.000000 
#    z 0.000000 0.000000 1.815710 
# 
# From -- ./inp_files/11646.got.cif
#   From: 2010.03.12/outbox.cif.g09.slc.cpg/sg24_6_cif.got.tgz:11646.got - 2010.04.14 03:06:53.
