data_PCOD8165486
_publ_section_title
;
Structure prediction by ZEFSAII (Michael W. Deem and Ramdas Pophale) SiO2 
 PCOD8165486
Probable space group: I 21 21 21
;
_chemical_formula_sum "Si O2"
_cell_formula_units_Z 60
_cell_length_a 12.361252
_cell_length_b 20.335705
_cell_length_c 11.602165
_cell_angle_alpha 90.000000
_cell_angle_beta 90.000000
_cell_angle_gamma 90.000000
_cell_volume 2916.491606
_symmetry_space_group_name_H-M "I 21 21 21"
_symmetry_group_IT_number 24
_symmetry_cell_setting 'orthorhombic'
loop_
_space_group_symop_operation_xyz
x,y,z
-x,1/2-y,z
x,-y,1/2-z
1/2-x,y,-z
1/2+x,1/2+y,1/2+z
1/2-x,-y,1/2+z
1/2+x,1/2-y,-z
-x,1/2+y,1/2-z
loop_
_atom_site_type_symbol
_atom_site_label
_atom_site_fract_x
_atom_site_fract_y
_atom_site_fract_z
Si Si1 0.792690 0.854565 0.122167
Si Si2 0.946871 0.679656 0.784742
Si Si3 0.847944 0.864205 0.666769
Si Si4 0.383476 0.222162 0.675141
Si Si5 0.258524 0.224231 0.126861
Si Si6 0.627729 0.398119 0.511075
Si Si7 0.556765 0.963121 0.868089
Si Si8 0.750000 0.965992 0.500000
O O1 0.707270 0.881636 0.212852
O O2 0.798376 0.775528 0.124333
O O3 0.909337 0.886800 0.154381
O O4 0.750000 0.879149 0.000000
O O5 0.838012 0.686136 0.712435
O O6 0.000000 0.750000 0.822269
O O7 0.025667 0.642446 0.695815
O O8 0.921431 0.636569 0.897623
O O9 0.798656 0.798678 0.610310
O O10 0.829011 0.923166 0.579333
O O11 0.500000 0.250000 0.650667
O O12 0.359279 0.218150 0.812606
O O13 0.363712 0.153661 0.614279
O O14 0.250000 0.191852 0.000000
O O15 0.750000 0.426310 0.500000
O O16 0.549026 0.458771 0.549186
O O17 0.525411 0.000000 0.750000
O O18 0.665087 0.993155 0.924106
#
# Coordination Sequence:
#
# PCOD8165486 Si02
#       8
#     8   8   8   8   8   8   8   4
#     4  11  21  37  61  97 130 161 210 272 336 391
#     4  10  22  39  65 103 136 172 213 271 343 409
#     4  10  22  39  64  91 135 171 210 266 333 400
#     4  11  22  35  65 101 129 169 209 273 343 398
#     4  10  21  39  59  97 138 175 210 258 329 419
#     4  12  24  45  67  96 135 172 222 283 336 402
#     4  12  26  42  65  96 130 176 228 283 326 385
#     4  12  24  46  66  96 132 174 230 278 332 392
#
# _framework density 20.572664
#
# number of rings (size 3 to 8) (size 9 to 14) (size 15 to 20)
#    0.000    1.067    5.333    1.600    3.733    1.600 
#    2.400    1.333    0.000    0.000    0.000    0.000 
#    0.000    0.000    0.000    0.000    0.000    0.000 
#
# Total GULP energy -371894.871677 kJ/mol
# GULP energy per Si atom -12396.495723 kJ/mol
# Density = 2.052584 g / cm^3
# Si number density = 20.572664 Si / 1000 Ang^3
#
#
#
# Elastic Constant Matrix: (Units=GPa)
#
#
# Indices 1 2 3 4 5 6 
#
# 1 93.0063 26.5504 29.6483 0.0001 0.0000 0.0000
# 2 26.5504 57.6995 34.7857 0.0011 0.0001 0.0000
# 3 29.6483 34.7857 129.4060 0.0017 0.0002 0.0000
# 4 0.0001 0.0011 0.0017 2.7925 0.0001 -0.0001
# 5 0.0000 0.0001 0.0002 0.0001 29.5585 0.0000
# 6 0.0000 0.0000 0.0000 -0.0001 0.0000 30.5158
#
#
#
# Elastic Compliance Matrix: (Units=1/GPa)
#
#
# Indices 1 2 3 4 5 6 
#
# 1 0.012647 -0.004860 -0.001591 0.000003 0.000000 0.000000
# 2 -0.004860 0.022551 -0.004948 -0.000006 0.000000 0.000000
# 3 -0.001591 -0.004948 0.009422 -0.000004 0.000000 0.000000
# 4 0.000003 -0.000006 -0.000004 0.358099 -0.000002 0.000001
# 5 0.000000 0.000000 0.000000 -0.000002 0.033831 0.000000
# 6 0.000000 0.000000 0.000000 0.000001 0.000000 0.032770
#
#
# Mechanical properties :
#
#
# Convention : Reuss Voigt Hill
#
# Bulk Modulus (GPa) = 45.82819 51.34232 48.58526
# Shear Modulus (GPa) = 10.01216 25.18185 17.59701
#
# Velocity S-wave (km/s) = 2.20846 3.50243 2.92782
# Velocity P-wave (km/s) = 5.36914 6.43170 5.92429
#
# Compressibility (1/GPa) = 0.02182063
#
# Stress axis : x y z
#
# Youngs Moduli (GPa) = 79.07295 44.34429 106.13100
#
# Poissons Ratio (x) = 0.21552 0.16886
# Poissons Ratio (y) = 0.38430 0.52518
# Poissons Ratio (z) = 0.12581 0.21943
#
# Static dielectric constant tensor:
#      x y z
#    x 4.004820 0.000000 0.000000 
#    y 0.000000 3.562340 0.000000 
#    z 0.000000 0.000000 3.917520 
# 
# 
# High freq. dielectric constant tensor:
#      x y z
#    x 1.811940 0.000000 0.000000 
#    y 0.000000 1.777390 0.000000 
#    z 0.000000 0.000000 1.807980 
# 
# From -- ./inp_files/20007.got.cif
#   From: 2010.03.12/outbox.cif.g09.slc.cpg/sg24_11_cif.got.tgz:20007.got - 2010.04.14 03:06:53.
