data_PCOD8165669
_publ_section_title
;
Structure prediction by ZEFSAII (Michael W. Deem and Ramdas Pophale) SiO2 
 PCOD8165669
Probable space group: I 21 21 21
;
_chemical_formula_sum "Si O2"
_cell_formula_units_Z 48
_cell_length_a 22.322176
_cell_length_b 20.265891
_cell_length_c 5.127270
_cell_angle_alpha 90.000000
_cell_angle_beta 90.000000
_cell_angle_gamma 90.000000
_cell_volume 2319.468177
_symmetry_space_group_name_H-M "I 21 21 21"
_symmetry_group_IT_number 24
_symmetry_cell_setting 'orthorhombic'
loop_
_space_group_symop_operation_xyz
x,y,z
-x,1/2-y,z
x,-y,1/2-z
1/2-x,y,-z
1/2+x,1/2+y,1/2+z
1/2-x,-y,1/2+z
1/2+x,1/2-y,-z
-x,1/2+y,1/2-z
loop_
_atom_site_type_symbol
_atom_site_label
_atom_site_fract_x
_atom_site_fract_y
_atom_site_fract_z
Si Si1 0.250000 0.401661 0.500000
Si Si2 0.969794 0.680788 0.315488
Si Si3 0.656924 0.000000 0.750000
Si Si4 0.147879 0.319028 0.625662
Si Si5 0.890660 0.323573 0.678762
Si Si6 0.591122 0.878401 0.611363
Si Si7 0.787964 0.576986 0.750026
O O1 0.300707 0.449530 0.604180
O O2 0.213054 0.352364 0.692672
O O3 0.937909 0.688890 0.592461
O O4 0.000000 0.750000 0.236659
O O5 0.020480 0.623949 0.328412
O O6 0.923930 0.660000 0.090759
O O7 0.613181 0.045702 0.924420
O O8 0.151992 0.240119 0.639324
O O9 0.127972 0.340204 0.335603
O O10 0.099767 0.342790 0.835812
O O11 0.850720 0.385715 0.754749
O O12 0.803443 0.500000 0.750000
O O13 0.750000 0.597980 0.500000
O O14 0.750000 0.598080 0.000000
#
# Coordination Sequence:
#
# PCOD8165669 Si02
#       7
#     4   8   4   8   8   8   8
#     4  10  22  38  64  90 128 166 212 258 310 380
#     4  12  22  41  64  89 129 168 209 267 323 360
#     4  10  22  42  60  88 128 172 204 254 314 366
#     4  11  22  38  61  93 120 160 215 259 312 366
#     4  12  23  40  66  95 126 163 213 267 315 380
#     4  11  23  40  62  86 122 170 213 253 312 373
#     4  10  23  45  68  94 130 167 201 258 335 400
#
# _framework density 20.694399000000001
#
# number of rings (size 3 to 8) (size 9 to 14) (size 15 to 20)
#    0.000    1.000    3.333    3.500    1.167    4.000 
#    6.000    0.000    0.000    0.000    0.000    0.000 
#    0.000    0.000    0.000    0.000    0.000    0.000 
#
# Total GULP energy -297544.952374 kJ/mol
# GULP energy per Si atom -12397.706349 kJ/mol
# Density = 2.064730 g / cm^3
# Si number density = 20.694399 Si / 1000 Ang^3
#
#
#
# Elastic Constant Matrix: (Units=GPa)
#
#
# Indices 1 2 3 4 5 6 
#
# 1 120.9809 82.0194 29.9053 0.0000 0.0000 0.0000
# 2 82.0194 99.0062 26.2084 0.0000 0.0000 0.0000
# 3 29.9053 26.2084 100.0091 0.0000 0.0000 0.0000
# 4 0.0000 0.0000 0.0000 34.5459 0.0000 0.0000
# 5 0.0000 0.0000 0.0000 0.0000 29.8123 0.0000
# 6 0.0000 0.0000 0.0000 0.0000 0.0000 48.2463
#
#
#
# Elastic Compliance Matrix: (Units=1/GPa)
#
#
# Indices 1 2 3 4 5 6 
#
# 1 0.019116 -0.015391 -0.001683 0.000000 0.000000 0.000000
# 2 -0.015391 0.023245 -0.001489 0.000000 0.000000 0.000000
# 3 -0.001683 -0.001489 0.010893 0.000000 0.000000 0.000000
# 4 0.000000 0.000000 0.000000 0.028947 0.000000 0.000000
# 5 0.000000 0.000000 0.000000 0.000000 0.033543 0.000000
# 6 0.000000 0.000000 0.000000 0.000000 0.000000 0.020727
#
#
# Mechanical properties :
#
#
# Convention : Reuss Voigt Hill
#
# Bulk Modulus (GPa) = 62.00586 66.25139 64.12862
# Shear Modulus (GPa) = 27.93736 34.64510 31.29123
#
# Velocity S-wave (km/s) = 3.67822 4.09605 3.89274
# Velocity P-wave (km/s) = 6.93302 7.37929 7.15963
#
# Compressibility (1/GPa) = 0.01612751
#
# Stress axis : x y z
#
# Youngs Moduli (GPa) = 52.31246 43.02064 91.80549
#
# Poissons Ratio (x) = 0.66212 0.15450
# Poissons Ratio (y) = 0.80512 0.13673
# Poissons Ratio (z) = 0.08803 0.06407
#
# Static dielectric constant tensor:
#      x y z
#    x 4.141040 0.000000 0.000000 
#    y 0.000000 4.126840 0.000000 
#    z 0.000000 0.000000 3.565680 
# 
# 
# High freq. dielectric constant tensor:
#      x y z
#    x 1.813740 0.000000 0.000000 
#    y 0.000000 1.810440 0.000000 
#    z 0.000000 0.000000 1.810900 
# 
# From -- ./inp_files/6424.got.cif
#   From: 2010.03.12/outbox.cif.g09.slc.cpg/sg24_4_cif.got.tgz:6424.got - 2010.04.14 03:06:53.
