data_PCOD8165734
_publ_section_title
;
Structure prediction by ZEFSAII (Michael W. Deem and Ramdas Pophale) SiO2 
 PCOD8165734
Probable space group: I 21 21 21
;
_chemical_formula_sum "Si O2"
_cell_formula_units_Z 48
_cell_length_a 9.328803
_cell_length_b 27.976969
_cell_length_c 8.667209
_cell_angle_alpha 90.000000
_cell_angle_beta 90.000000
_cell_angle_gamma 90.000000
_cell_volume 2262.069025
_symmetry_space_group_name_H-M "I 21 21 21"
_symmetry_group_IT_number 24
_symmetry_cell_setting 'orthorhombic'
loop_
_space_group_symop_operation_xyz
x,y,z
-x,1/2-y,z
x,-y,1/2-z
1/2-x,y,-z
1/2+x,1/2+y,1/2+z
1/2-x,-y,1/2+z
1/2+x,1/2-y,-z
-x,1/2+y,1/2-z
loop_
_atom_site_type_symbol
_atom_site_label
_atom_site_fract_x
_atom_site_fract_y
_atom_site_fract_z
Si Si1 0.891140 0.872223 0.544878
Si Si2 0.899621 0.887320 0.904963
Si Si3 0.887007 0.027120 0.088958
Si Si4 0.891404 0.523546 0.914301
Si Si5 0.401644 0.791884 0.427616
Si Si6 0.410916 0.795498 0.066134
O O1 0.750000 0.840672 0.500000
O O2 0.871993 0.886680 0.722885
O O3 0.881784 0.915248 0.418323
O O4 0.035402 0.842806 0.518914
O O5 0.993008 0.934586 0.925523
O O6 0.992910 0.842403 0.966415
O O7 0.750000 0.889847 0.000000
O O8 0.885287 0.000000 0.250000
O O9 0.750000 0.005364 0.000000
O O10 0.039178 0.019400 0.008570
O O11 0.854755 0.500000 0.750000
O O12 0.750000 0.542160 0.000000
O O13 0.500000 0.750000 0.494482
O O14 0.250000 0.785781 0.500000
O O15 0.389119 0.788079 0.245978
O O16 0.500000 0.750000 0.998162
O O17 0.250000 0.799957 0.000000
#
# Coordination Sequence:
#
# PCOD8165734 Si02
#       6
#     8   8   8   8   8   8
#     4  10  23  41  62  97 130 168 221 272 322 393
#     4  11  24  43  67  96 132 175 222 274 328 397
#     4  11  24  42  67  95 128 171 219 273 330 392
#     4  12  25  44  62  93 131 172 219 273 331 397
#     4  10  22  41  66  95 135 173 218 267 321 390
#     4  10  22  42  66 101 137 175 219 271 325 390
#
# _framework density 21.219512999999999
#
# number of rings (size 3 to 8) (size 9 to 14) (size 15 to 20)
#    0.000    1.333    1.667    3.000    7.000    2.667 
#    6.000    0.000    0.000    0.000    0.000    0.000 
#    0.000    0.000    0.000    0.000    0.000    0.000 
#
# Total GULP energy -297347.639661 kJ/mol
# GULP energy per Si atom -12389.484986 kJ/mol
# Density = 2.117122 g / cm^3
# Si number density = 21.219513 Si / 1000 Ang^3
#
#
#
# Elastic Constant Matrix: (Units=GPa)
#
#
# Indices 1 2 3 4 5 6 
#
# 1 196.1755 72.8231 63.1258 -0.0009 -0.0021 -0.0105
# 2 72.8231 119.3125 50.7896 -0.0010 0.0003 0.0039
# 3 63.1258 50.7896 91.1187 -0.0073 -0.0087 -0.0568
# 4 -0.0009 -0.0010 -0.0073 27.7917 -0.0023 -0.0027
# 5 -0.0021 0.0003 -0.0087 -0.0023 44.8075 -0.0141
# 6 -0.0105 0.0039 -0.0568 -0.0027 -0.0141 -32.0819
#
#
#
# Elastic Compliance Matrix: (Units=1/GPa)
#
#
# Indices 1 2 3 4 5 6 
#
# 1 0.007306 -0.003022 -0.003377 -0.000001 0.000000 0.000003
# 2 -0.003022 0.012238 -0.004728 -0.000001 -0.000001 0.000011
# 3 -0.003377 -0.004728 0.015950 0.000004 0.000003 -0.000028
# 4 -0.000001 -0.000001 0.000004 0.035982 0.000002 -0.000003
# 5 0.000000 -0.000001 0.000003 0.000002 0.022318 -0.000010
# 6 0.000003 0.000011 -0.000028 -0.000003 -0.000010 -0.031170
#
#
# Mechanical properties :
#
#
# Convention : Reuss Voigt Hill
#
# Bulk Modulus (GPa) = 75.52898 86.67595 81.10246
# Shear Modulus (GPa) = 55.99666 22.76136 39.37901
#
# Velocity S-wave (km/s) = 5.14262 3.27870 4.31256
# Velocity P-wave (km/s) = 8.42220 7.43432 7.94363
#
# Compressibility (1/GPa) = 0.01323995
#
# Stress axis : x y z
#
# Youngs Moduli (GPa) = 136.87710 81.71026 62.69622
#
# Poissons Ratio (x) = 0.24689 0.21174
# Poissons Ratio (y) = 0.41358 0.29645
# Poissons Ratio (z) = 0.46226 0.38636
#
# Static dielectric constant tensor:
#      x y z
#    x 4.059420 0.000000 -0.000040 
#    y 0.000000 3.979830 -0.000010 
#    z -0.000040 -0.000010 3.950810 
# 
# 
# High freq. dielectric constant tensor:
#      x y z
#    x 1.853470 0.000000 0.000000 
#    y 0.000000 1.838090 0.000000 
#    z 0.000000 0.000000 1.825110 
# 
# From -- ./inp_files/9752.got.cif
#   From: 2010.03.12/outbox.cif.g09.slc.cpg/sg24_5_cif.got.tgz:9752.got - 2010.04.14 03:06:53.
