data_PCOD8165929
_publ_section_title
;
Structure prediction by ZEFSAII (Michael W. Deem and Ramdas Pophale) SiO2 
 PCOD8165929
Probable space group: I 21 21 21
;
_chemical_formula_sum "Si O2"
_cell_formula_units_Z 28
_cell_length_a 8.718739
_cell_length_b 4.974283
_cell_length_c 26.078543
_cell_angle_alpha 90.000000
_cell_angle_beta 90.000000
_cell_angle_gamma 90.000000
_cell_volume 1131.012724
_symmetry_space_group_name_H-M "I 21 21 21"
_symmetry_group_IT_number 24
_symmetry_cell_setting 'orthorhombic'
loop_
_space_group_symop_operation_xyz
x,y,z
-x,1/2-y,z
x,-y,1/2-z
1/2-x,y,-z
1/2+x,1/2+y,1/2+z
1/2-x,-y,1/2+z
1/2+x,1/2-y,-z
-x,1/2+y,1/2-z
loop_
_atom_site_type_symbol
_atom_site_label
_atom_site_fract_x
_atom_site_fract_y
_atom_site_fract_z
Si Si1 0.665491 0.289273 0.900480
Si Si2 0.319223 0.713883 0.055187
Si Si3 0.903137 0.000000 0.750000
Si Si4 0.382931 0.543150 0.805874
O O1 0.500000 0.250000 0.928775
O O2 0.734972 0.587271 0.904668
O O3 0.784738 0.087557 0.927085
O O4 0.636682 0.225511 0.840168
O O5 0.500000 0.750000 0.054829
O O6 0.250000 0.780679 0.000000
O O7 0.794357 0.869197 0.794773
O O8 0.000000 0.750000 0.728093
O O9 0.500000 0.750000 0.835112
O O10 0.462814 0.500000 0.750000
#
# Coordination Sequence:
#
# PCOD8165929 Si02
#       4
#     8   8   4   8
#     4  12  25  45  74 109 144 191 246 297 360 432
#     4  12  27  49  75 107 147 187 239 301 371 437
#     4  10  26  42  66 100 142 184 236 300 356 402
#     4  10  24  44  75 102 150 194 253 284 359 423
#
# _framework density 24.756571000000001
#
# number of rings (size 3 to 8) (size 9 to 14) (size 15 to 20)
#    0.857    0.000    0.000    6.857    2.000    5.714 
#    0.000    0.000    0.000    0.000    0.000    0.000 
#    0.000    0.000    0.000    0.000    0.000    0.000 
#
# Total GULP energy -173463.893211 kJ/mol
# GULP energy per Si atom -12390.278087 kJ/mol
# Density = 2.470022 g / cm^3
# Si number density = 24.756571 Si / 1000 Ang^3
#
#
#
# Elastic Constant Matrix: (Units=GPa)
#
#
# Indices 1 2 3 4 5 6 
#
# 1 185.6043 26.1279 14.2999 0.0000 0.0000 0.0000
# 2 26.1279 76.3542 -0.5313 0.0000 0.0000 0.0000
# 3 14.2999 -0.5313 108.6390 0.0000 0.0000 0.0000
# 4 0.0000 0.0000 0.0000 24.3674 0.0000 0.0000
# 5 0.0000 0.0000 0.0000 0.0000 16.5937 0.0000
# 6 0.0000 0.0000 0.0000 0.0000 0.0000 55.5078
#
#
#
# Elastic Compliance Matrix: (Units=1/GPa)
#
#
# Indices 1 2 3 4 5 6 
#
# 1 0.005723 -0.001964 -0.000763 0.000000 0.000000 0.000000
# 2 -0.001964 0.013771 0.000326 0.000000 0.000000 0.000000
# 3 -0.000763 0.000326 0.009307 0.000000 0.000000 0.000000
# 4 0.000000 0.000000 0.000000 0.041038 0.000000 0.000000
# 5 0.000000 0.000000 0.000000 0.000000 0.060264 0.000000
# 6 0.000000 0.000000 0.000000 0.000000 0.000000 0.018015
#
#
# Mechanical properties :
#
#
# Convention : Reuss Voigt Hill
#
# Bulk Modulus (GPa) = 41.66777 50.04339 45.85558
# Shear Modulus (GPa) = 31.07135 41.34053 36.20594
#
# Velocity S-wave (km/s) = 3.54655 4.09085 3.82838
# Velocity P-wave (km/s) = 5.79984 6.52468 6.17291
#
# Compressibility (1/GPa) = 0.02399937
#
# Stress axis : x y z
#
# Youngs Moduli (GPa) = 174.73300 72.61595 107.44815
#
# Poissons Ratio (x) = 0.14260 0.08197
# Poissons Ratio (y) = 0.34312 -0.03501
# Poissons Ratio (z) = 0.13331 -0.02366
#
# Static dielectric constant tensor:
#      x y z
#    x 4.792200 0.000000 0.000000 
#    y 0.000000 4.261820 0.000000 
#    z 0.000000 0.000000 4.244350 
# 
# 
# High freq. dielectric constant tensor:
#      x y z
#    x 2.009890 0.000000 0.000000 
#    y 0.000000 1.981680 0.000000 
#    z 0.000000 0.000000 1.968540 
# 
# From -- ./inp_files/38088.got.cif
#   From: 2010.03.12/outbox.cif.g09.slc.cpg/sg24_20_cif.got.tgz:38088.got - 2010.04.14 03:06:53.
