data_PCOD8165807
_publ_section_title
;
Structure prediction by ZEFSAII (Michael W. Deem and Ramdas Pophale) SiO2 
 PCOD8165807
Probable space group: I 21 21 21
;
_chemical_formula_sum "Si O2"
_cell_formula_units_Z 52
_cell_length_a 7.870502
_cell_length_b 26.243445
_cell_length_c 11.655302
_cell_angle_alpha 90.000000
_cell_angle_beta 90.000000
_cell_angle_gamma 90.000000
_cell_volume 2407.391979
_symmetry_space_group_name_H-M "I 21 21 21"
_symmetry_group_IT_number 24
_symmetry_cell_setting 'orthorhombic'
loop_
_space_group_symop_operation_xyz
x,y,z
-x,1/2-y,z
x,-y,1/2-z
1/2-x,y,-z
1/2+x,1/2+y,1/2+z
1/2-x,-y,1/2+z
1/2+x,1/2-y,-z
-x,1/2+y,1/2-z
loop_
_atom_site_type_symbol
_atom_site_label
_atom_site_fract_x
_atom_site_fract_y
_atom_site_fract_z
Si Si1 0.187727 0.184358 0.251111
Si Si2 0.846927 0.215809 0.783266
Si Si3 0.750000 0.652326 0.000000
Si Si4 0.385301 0.362248 0.876173
Si Si5 0.836460 0.941796 0.720305
Si Si6 0.101520 0.886574 0.583547
Si Si7 0.897190 0.862813 0.910962
O O1 0.189416 0.244510 0.224496
O O2 0.215838 0.184862 0.386756
O O3 0.334795 0.153616 0.179699
O O4 0.008917 0.158161 0.223273
O O5 0.787204 0.171592 0.870529
O O6 0.909949 0.188929 0.665374
O O7 0.000000 0.250000 0.833334
O O8 0.924260 0.621735 0.972735
O O9 0.326655 0.420461 0.850793
O O10 0.467929 0.357896 0.000730
O O11 0.844561 0.911734 0.838727
O O12 0.011036 0.933742 0.647744
O O13 0.806532 0.000000 0.750000
O O14 0.250000 0.907711 0.500000
O O15 0.750000 0.851390 0.000000
#
# Coordination Sequence:
#
# PCOD8165807 Si02
#       7
#     8   8   4   8   8   8   8
#     4  11  22  41  66  99 138 181 228 274 339 407
#     4  11  21  40  60  98 139 172 230 273 328 409
#     4  12  20  40  68  92 144 184 220 292 336 404
#     4  10  23  42  70  96 133 180 223 280 348 405
#     4  11  23  46  68  98 134 166 228 291 349 420
#     4  10  22  46  69  96 135 174 224 284 343 406
#     4  11  25  41  64  99 139 181 227 282 350 417
#
# _framework density 21.600135999999999
#
# number of rings (size 3 to 8) (size 9 to 14) (size 15 to 20)
#    0.000    1.231    3.077    3.692    1.077    1.231 
#    1.385   24.615    0.000    0.000    0.000    0.000 
#    0.000    0.000    0.000    0.000    0.000    0.000 
#
# Total GULP energy -322166.259309 kJ/mol
# GULP energy per Si atom -12391.009973 kJ/mol
# Density = 2.155097 g / cm^3
# Si number density = 21.600136 Si / 1000 Ang^3
#
#
#
# Elastic Constant Matrix: (Units=GPa)
#
#
# Indices 1 2 3 4 5 6 
#
# 1 126.9037 46.2114 52.8964 0.0000 -0.0001 0.0000
# 2 46.2114 127.4828 22.5345 -0.0005 -0.0005 0.0000
# 3 52.8964 22.5345 89.5945 -0.0005 -0.0008 -0.0001
# 4 0.0000 -0.0005 -0.0005 10.8885 -0.0004 0.0000
# 5 -0.0001 -0.0005 -0.0008 -0.0004 41.7198 0.0001
# 6 0.0000 0.0000 -0.0001 0.0000 0.0001 23.9506
#
#
#
# Elastic Compliance Matrix: (Units=1/GPa)
#
#
# Indices 1 2 3 4 5 6 
#
# 1 0.011523 -0.003113 -0.006020 0.000000 0.000000 0.000000
# 2 -0.003113 0.009050 -0.000438 0.000000 0.000000 0.000000
# 3 -0.006020 -0.000438 0.014826 0.000001 0.000000 0.000000
# 4 0.000000 0.000000 0.000001 0.091840 0.000001 0.000000
# 5 0.000000 0.000000 0.000000 0.000001 0.023969 0.000000
# 6 0.000000 0.000000 0.000000 0.000000 0.000000 0.041753
#
#
# Mechanical properties :
#
#
# Convention : Reuss Voigt Hill
#
# Bulk Modulus (GPa) = 61.51541 65.25173 63.38357
# Shear Modulus (GPa) = 22.98616 30.13435 26.56026
#
# Velocity S-wave (km/s) = 3.26570 3.73916 3.51042
# Velocity P-wave (km/s) = 6.53917 6.99401 6.77041
#
# Compressibility (1/GPa) = 0.01625609
#
# Stress axis : x y z
#
# Youngs Moduli (GPa) = 86.78422 110.49660 67.44925
#
# Poissons Ratio (x) = 0.34395 0.40605
# Poissons Ratio (y) = 0.27014 0.02957
# Poissons Ratio (z) = 0.52245 0.04845
#
# Static dielectric constant tensor:
#      x y z
#    x 4.588500 0.000000 0.000000 
#    y 0.000000 3.505220 0.000000 
#    z 0.000000 0.000000 4.011500 
# 
# 
# High freq. dielectric constant tensor:
#      x y z
#    x 1.877610 0.000000 0.000000 
#    y 0.000000 1.804330 0.000000 
#    z 0.000000 0.000000 1.860770 
# 
# From -- ./inp_files/18752.got.cif
#   From: 2010.03.12/outbox.cif.g09.slc.cpg/sg24_10_cif.got.tgz:18752.got - 2010.04.14 03:06:53.
