data_PCOD8165970
_publ_section_title
;
Structure prediction by ZEFSAII (Michael W. Deem and Ramdas Pophale) SiO2 
 PCOD8165970
Probable space group: I 21 21 21
;
_chemical_formula_sum "Si O2"
_cell_formula_units_Z 36
_cell_length_a 5.492253
_cell_length_b 13.784203
_cell_length_c 20.217824
_cell_angle_alpha 90.000000
_cell_angle_beta 90.000000
_cell_angle_gamma 90.000000
_cell_volume 1530.617261
_symmetry_space_group_name_H-M "I 21 21 21"
_symmetry_group_IT_number 24
_symmetry_cell_setting 'orthorhombic'
loop_
_space_group_symop_operation_xyz
x,y,z
-x,1/2-y,z
x,-y,1/2-z
1/2-x,y,-z
1/2+x,1/2+y,1/2+z
1/2-x,-y,1/2+z
1/2+x,1/2-y,-z
-x,1/2+y,1/2-z
loop_
_atom_site_type_symbol
_atom_site_label
_atom_site_fract_x
_atom_site_fract_y
_atom_site_fract_z
Si Si1 0.619385 0.153560 0.311084
Si Si2 0.498122 0.139340 0.040293
Si Si3 0.761711 0.510601 0.871062
Si Si4 0.413933 0.647062 0.942790
Si Si5 0.942205 0.000000 0.250000
O O1 0.500000 0.250000 0.279616
O O2 0.390834 0.089332 0.327257
O O3 0.770209 0.176337 0.376988
O O4 0.786039 0.097574 0.259169
O O5 0.500000 0.250000 0.066273
O O6 0.463155 0.066059 0.102048
O O7 0.750000 0.117180 0.000000
O O8 0.250000 0.123406 0.000000
O O9 0.621126 0.566208 0.930320
O O10 0.580112 0.465632 0.816764
O O11 0.500000 0.750000 0.972625
O O12 0.250000 0.597868 0.000000
#
# Coordination Sequence:
#
# PCOD8165970 Si02
#       5
#     8   8   8   8   4
#     4  11  23  45  71 100 145 187 244 307 373 446
#     4  10  25  48  77 109 150 196 252 316 381 449
#     4  11  25  45  72 104 144 195 245 308 369 451
#     4  11  24  39  65 110 150 190 237 298 381 462
#     4  10  26  46  72 104 138 198 254 298 384 444
#
# _framework density 23.519922999999999
#
# number of rings (size 3 to 8) (size 9 to 14) (size 15 to 20)
#    0.000    1.333    2.222    1.333    9.333    0.000 
#    0.000    6.667    0.000    0.000    0.000    0.000 
#    0.000    0.000    0.000    0.000    0.000    0.000 
#
# Total GULP energy -223099.530393 kJ/mol
# GULP energy per Si atom -12394.418355 kJ/mol
# Density = 2.346639 g / cm^3
# Si number density = 23.519923 Si / 1000 Ang^3
#
#
#
# Elastic Constant Matrix: (Units=GPa)
#
#
# Indices 1 2 3 4 5 6 
#
# 1 155.5037 70.1667 56.7408 0.0000 0.0000 0.0000
# 2 70.1667 161.2009 70.2267 0.0000 0.0000 0.0000
# 3 56.7408 70.2267 93.1907 0.0000 0.0000 0.0000
# 4 0.0000 0.0000 0.0000 163.6525 0.0000 0.0000
# 5 0.0000 0.0000 0.0000 0.0000 35.2164 0.0000
# 6 0.0000 0.0000 0.0000 0.0000 0.0000 75.2224
#
#
#
# Elastic Compliance Matrix: (Units=1/GPa)
#
#
# Indices 1 2 3 4 5 6 
#
# 1 0.008771 -0.002220 -0.003667 0.000000 0.000000 0.000000
# 2 -0.002220 0.009797 -0.006031 0.000000 0.000000 0.000000
# 3 -0.003667 -0.006031 0.017509 0.000000 0.000000 0.000000
# 4 0.000000 0.000000 0.000000 0.006111 0.000000 0.000000
# 5 0.000000 0.000000 0.000000 0.000000 0.028396 0.000000
# 6 0.000000 0.000000 0.000000 0.000000 0.000000 0.013294
#
#
# Mechanical properties :
#
#
# Convention : Reuss Voigt Hill
#
# Bulk Modulus (GPa) = 81.70329 89.35152 85.52740
# Shear Modulus (GPa) = 44.72537 69.00235 56.86386
#
# Velocity S-wave (km/s) = 4.36546 5.42232 4.92233
# Velocity P-wave (km/s) = 7.76035 8.79058 8.29148
#
# Compressibility (1/GPa) = 0.01223941
#
# Stress axis : x y z
#
# Youngs Moduli (GPa) = 114.01846 102.06906 57.11487
#
# Poissons Ratio (x) = 0.22659 0.20945
# Poissons Ratio (y) = 0.25312 0.34448
# Poissons Ratio (z) = 0.41812 0.61561
#
# Static dielectric constant tensor:
#      x y z
#    x 4.618760 0.000000 0.000000 
#    y 0.000000 4.183350 0.000000 
#    z 0.000000 0.000000 3.954250 
# 
# 
# High freq. dielectric constant tensor:
#      x y z
#    x 1.951600 0.000000 0.000000 
#    y 0.000000 1.937190 0.000000 
#    z 0.000000 0.000000 1.911320 
# 
# From -- ./inp_files/31975.got.cif
#   From: 2010.03.12/outbox.cif.g09.slc.cpg/sg24_16_cif.got.tgz:31975.got - 2010.04.14 03:06:53.
