data_PCOD8165263
_publ_section_title
;
Structure prediction by ZEFSAII (Michael W. Deem and Ramdas Pophale) SiO2 
 PCOD8165263
Probable space group: I 21 21 21
;
_chemical_formula_sum "Si O2"
_cell_formula_units_Z 28
_cell_length_a 17.129737
_cell_length_b 15.733694
_cell_length_c 4.988958
_cell_angle_alpha 90.000000
_cell_angle_beta 90.000000
_cell_angle_gamma 90.000000
_cell_volume 1344.594227
_symmetry_space_group_name_H-M "I 21 21 21"
_symmetry_group_IT_number 24
_symmetry_cell_setting 'orthorhombic'
loop_
_space_group_symop_operation_xyz
x,y,z
-x,1/2-y,z
x,-y,1/2-z
1/2-x,y,-z
1/2+x,1/2+y,1/2+z
1/2-x,-y,1/2+z
1/2+x,1/2-y,-z
-x,1/2+y,1/2-z
loop_
_atom_site_type_symbol
_atom_site_label
_atom_site_fract_x
_atom_site_fract_y
_atom_site_fract_z
Si Si1 0.660471 0.057929 0.996838
Si Si2 0.300937 0.000000 0.250000
Si Si3 0.589292 0.762858 0.571934
Si Si4 0.161297 0.822296 0.920543
O O1 0.638593 0.000000 0.250000
O O2 0.750000 0.089500 0.000000
O O3 0.604427 0.137314 0.951192
O O4 0.643005 0.000000 0.750000
O O5 0.250000 0.962966 0.500000
O O6 0.352644 0.076218 0.377985
O O7 0.500000 0.750000 0.492125
O O8 0.646799 0.719415 0.363763
O O9 0.604316 0.720212 0.861667
O O10 0.250000 0.803841 0.000000
#
# Coordination Sequence:
#
# PCOD8165263 Si02
#       4
#     8   4   8   8
#     4  10  21  40  66  91 120 164 221 272 316 385
#     4  10  20  38  64  98 126 158 224 272 316 388
#     4  12  25  42  62  98 136 169 218 274 349 401
#     4  11  22  41  68  92 127 175 222 268 319 393
#
# _framework density 20.824127000000001
#
# number of rings (size 3 to 8) (size 9 to 14) (size 15 to 20)
#    0.000    1.143    0.000    8.571    0.000    2.286 
#    7.714    0.000    0.000    0.000    0.000    0.000 
#    0.000    0.000    0.000    0.000    0.000    0.000 
#
# Total GULP energy -173575.096405 kJ/mol
# GULP energy per Si atom -12398.221172 kJ/mol
# Density = 2.077673 g / cm^3
# Si number density = 20.824127 Si / 1000 Ang^3
#
#
#
# Elastic Constant Matrix: (Units=GPa)
#
#
# Indices 1 2 3 4 5 6 
#
# 1 90.6761 64.0063 17.7596 0.0000 0.0000 0.0000
# 2 64.0063 175.1711 56.7767 0.0000 0.0000 0.0000
# 3 17.7596 56.7767 125.4295 0.0000 0.0000 0.0000
# 4 0.0000 0.0000 0.0000 39.2215 0.0000 0.0000
# 5 0.0000 0.0000 0.0000 0.0000 21.8806 0.0000
# 6 0.0000 0.0000 0.0000 0.0000 0.0000 30.0233
#
#
#
# Elastic Compliance Matrix: (Units=1/GPa)
#
#
# Indices 1 2 3 4 5 6 
#
# 1 0.014880 -0.005572 0.000415 0.000000 0.000000 0.000000
# 2 -0.005572 0.008776 -0.003184 0.000000 0.000000 0.000000
# 3 0.000415 -0.003184 0.009355 0.000000 0.000000 0.000000
# 4 0.000000 0.000000 0.000000 0.025496 0.000000 0.000000
# 5 0.000000 0.000000 0.000000 0.000000 0.045703 0.000000
# 6 0.000000 0.000000 0.000000 0.000000 0.000000 0.033308
#
#
# Mechanical properties :
#
#
# Convention : Reuss Voigt Hill
#
# Bulk Modulus (GPa) = 61.23398 74.26243 67.74820
# Shear Modulus (GPa) = 31.32016 35.07402 33.19709
#
# Velocity S-wave (km/s) = 3.88239 4.10847 3.99703
# Velocity P-wave (km/s) = 7.04034 7.63185 7.34206
#
# Compressibility (1/GPa) = 0.01633080
#
# Stress axis : x y z
#
# Youngs Moduli (GPa) = 67.20535 113.94118 106.89446
#
# Poissons Ratio (x) = 0.63483 -0.04438
# Poissons Ratio (y) = 0.37444 0.34034
# Poissons Ratio (z) = -0.02790 0.36277
#
# Static dielectric constant tensor:
#      x y z
#    x 3.429060 0.000000 0.000000 
#    y 0.000000 3.881990 0.000000 
#    z 0.000000 0.000000 4.030550 
# 
# 
# High freq. dielectric constant tensor:
#      x y z
#    x 1.784810 0.000000 0.000000 
#    y 0.000000 1.831230 0.000000 
#    z 0.000000 0.000000 1.841530 
# 
# From -- ./inp_files/4229.got.cif
#   From: 2010.03.12/outbox.cif.g09.slc.cpg/sg24_3_cif.got.tgz:4229.got - 2010.04.14 03:06:53.
