data_PCOD8165688
_publ_section_title
;
Structure prediction by ZEFSAII (Michael W. Deem and Ramdas Pophale) SiO2 
 PCOD8165688
Probable space group: I 21 21 21
;
_chemical_formula_sum "Si O2"
_cell_formula_units_Z 48
_cell_length_a 9.597780
_cell_length_b 13.492543
_cell_length_c 17.358541
_cell_angle_alpha 90.000000
_cell_angle_beta 90.000000
_cell_angle_gamma 90.000000
_cell_volume 2247.904316
_symmetry_space_group_name_H-M "I 21 21 21"
_symmetry_group_IT_number 24
_symmetry_cell_setting 'orthorhombic'
loop_
_space_group_symop_operation_xyz
x,y,z
-x,1/2-y,z
x,-y,1/2-z
1/2-x,y,-z
1/2+x,1/2+y,1/2+z
1/2-x,-y,1/2+z
1/2+x,1/2-y,-z
-x,1/2+y,1/2-z
loop_
_atom_site_type_symbol
_atom_site_label
_atom_site_fract_x
_atom_site_fract_y
_atom_site_fract_z
Si Si1 0.689392 0.977673 0.625702
Si Si2 0.532892 0.639999 0.698260
Si Si3 0.997930 0.461286 0.833967
Si Si4 0.000000 0.750000 0.598750
Si Si5 0.229031 0.018664 0.084309
Si Si6 0.024103 0.860349 0.124151
Si Si7 0.250000 0.327850 0.000000
O O1 0.622239 0.084331 0.610044
O O2 0.607919 0.925761 0.696473
O O3 0.850014 0.997446 0.641952
O O4 0.663834 0.901503 0.555443
O O5 0.500000 0.750000 0.668064
O O6 0.652484 0.594099 0.643372
O O7 0.578892 0.640672 0.787255
O O8 0.964416 0.500000 0.750000
O O9 0.984170 0.342748 0.843921
O O10 0.882144 0.511463 0.887198
O O11 0.861633 0.760633 0.546020
O O12 0.141957 0.917118 0.075616
O O13 0.250000 0.067662 0.000000
O O14 0.000000 0.750000 0.092905
#
# Coordination Sequence:
#
# PCOD8165688 Si02
#       7
#     8   8   8   4   8   8   4
#     4  10  22  39  65  92 132 168 210 273 334 384
#     4  10  22  39  68  95 124 169 220 272 318 390
#     4  11  24  43  63  97 141 174 215 269 332 397
#     4  10  26  40  68 102 134 176 216 260 338 398
#     4  11  25  42  63  98 133 170 215 273 334 391
#     4  10  22  46  70  91 122 175 236 270 315 392
#     4  10  24  38  62 104 136 164 208 274 338 396
#
# _framework density 21.353221999999999
#
# number of rings (size 3 to 8) (size 9 to 14) (size 15 to 20)
#    0.000    1.667    0.000    4.000   16.333    0.000 
#    4.500    0.000    0.000    0.000    0.000    0.000 
#    0.000    0.000    0.000    0.000    0.000    0.000 
#
# Total GULP energy -297555.253200 kJ/mol
# GULP energy per Si atom -12398.135550 kJ/mol
# Density = 2.130462 g / cm^3
# Si number density = 21.353222 Si / 1000 Ang^3
#
#
#
# Elastic Constant Matrix: (Units=GPa)
#
#
# Indices 1 2 3 4 5 6 
#
# 1 155.1241 54.2556 37.5722 0.0000 0.0000 0.0000
# 2 54.2556 140.1171 22.3660 0.0000 0.0000 0.0000
# 3 37.5722 22.3660 93.4386 0.0000 0.0000 0.0000
# 4 0.0000 0.0000 0.0000 20.9164 0.0000 0.0000
# 5 0.0000 0.0000 0.0000 0.0000 28.0952 0.0000
# 6 0.0000 0.0000 0.0000 0.0000 0.0000 20.9826
#
#
#
# Elastic Compliance Matrix: (Units=1/GPa)
#
#
# Indices 1 2 3 4 5 6 
#
# 1 0.008012 -0.002691 -0.002578 0.000000 0.000000 0.000000
# 2 -0.002691 0.008324 -0.000911 0.000000 0.000000 0.000000
# 3 -0.002578 -0.000911 0.011957 0.000000 0.000000 0.000000
# 4 0.000000 0.000000 0.000000 0.047809 0.000000 0.000000
# 5 0.000000 0.000000 0.000000 0.000000 0.035593 0.000000
# 6 0.000000 0.000000 0.000000 0.000000 0.000000 0.047658
#
#
# Mechanical properties :
#
#
# Convention : Reuss Voigt Hill
#
# Bulk Modulus (GPa) = 62.75561 68.56306 65.65933
# Shear Modulus (GPa) = 28.24487 32.29791 30.27139
#
# Velocity S-wave (km/s) = 3.64090 3.89338 3.76925
# Velocity P-wave (km/s) = 6.86498 7.23809 7.05400
#
# Compressibility (1/GPa) = 0.01593483
#
# Stress axis : x y z
#
# Youngs Moduli (GPa) = 124.81420 120.13184 83.63592
#
# Poissons Ratio (x) = 0.32326 0.21557
# Poissons Ratio (y) = 0.33586 0.07615
# Poissons Ratio (z) = 0.32171 0.10938
#
# Static dielectric constant tensor:
#      x y z
#    x 4.011180 0.000000 0.000000 
#    y 0.000000 3.920630 0.000000 
#    z 0.000000 0.000000 3.914470 
# 
# 
# High freq. dielectric constant tensor:
#      x y z
#    x 1.847340 0.000000 0.000000 
#    y 0.000000 1.833520 0.000000 
#    z 0.000000 0.000000 1.830010 
# 
# From -- ./inp_files/29510.got.cif
#   From: 2010.03.12/outbox.cif.g09.slc.cpg/sg24_15_cif.got.tgz:29510.got - 2010.04.14 03:06:53.
