data_PCOD8165833
_publ_section_title
;
Structure prediction by ZEFSAII (Michael W. Deem and Ramdas Pophale) SiO2 
 PCOD8165833
Probable space group: I 21 21 21
;
_chemical_formula_sum "Si O2"
_cell_formula_units_Z 36
_cell_length_a 21.978414
_cell_length_b 7.785595
_cell_length_c 9.128575
_cell_angle_alpha 90.000000
_cell_angle_beta 90.000000
_cell_angle_gamma 90.000000
_cell_volume 1562.036386
_symmetry_space_group_name_H-M "I 21 21 21"
_symmetry_group_IT_number 24
_symmetry_cell_setting 'orthorhombic'
loop_
_space_group_symop_operation_xyz
x,y,z
-x,1/2-y,z
x,-y,1/2-z
1/2-x,y,-z
1/2+x,1/2+y,1/2+z
1/2-x,-y,1/2+z
1/2+x,1/2-y,-z
-x,1/2+y,1/2-z
loop_
_atom_site_type_symbol
_atom_site_label
_atom_site_fract_x
_atom_site_fract_y
_atom_site_fract_z
Si Si1 0.681576 0.178796 0.827777
Si Si2 0.020010 0.944168 0.905716
Si Si3 0.134110 0.858775 0.057805
Si Si4 0.613249 0.996048 0.419621
Si Si5 0.750000 0.580614 0.500000
O O1 0.640223 0.306465 0.728792
O O2 0.742364 0.290079 0.860219
O O3 0.698918 0.000000 0.750000
O O4 0.648083 0.145508 0.982691
O O5 0.000000 0.750000 0.890079
O O6 0.958467 0.049762 0.942865
O O7 0.048405 0.000000 0.750000
O O8 0.071623 0.965396 0.031047
O O9 0.190265 0.964170 0.990589
O O10 0.131827 0.683256 0.970469
O O11 0.631765 0.000000 0.250000
#
# Coordination Sequence:
#
# PCOD8165833 Si02
#       5
#     8   8   8   8   4
#     4  10  24  45  65  92 128 171 219 264 327 399
#     4   9  19  38  64  95 128 165 213 265 323 389
#     4  10  23  42  64  95 129 166 216 273 325 381
#     4   9  20  41  69  97 130 174 215 258 322 397
#     4  12  26  42  62  88 126 166 214 272 324 378
#
# _framework density 23.04684
#
# number of rings (size 3 to 8) (size 9 to 14) (size 15 to 20)
#    0.000    2.222    0.000    0.667    0.000   15.111 
#    0.000   17.778    0.000    0.000    0.000    0.000 
#    0.000    0.000    0.000    0.000    0.000    0.000 
#
# Total GULP energy -223024.012898 kJ/mol
# GULP energy per Si atom -12390.222939 kJ/mol
# Density = 2.299438 g / cm^3
# Si number density = 23.046840 Si / 1000 Ang^3
#
#
#
# Elastic Constant Matrix: (Units=GPa)
#
#
# Indices 1 2 3 4 5 6 
#
# 1 135.2210 58.0868 80.7335 0.0000 0.0000 0.0000
# 2 58.0868 62.6284 42.7488 0.0000 0.0000 0.0000
# 3 80.7335 42.7488 167.8970 0.0000 0.0000 0.0000
# 4 0.0000 0.0000 0.0000 26.0407 0.0000 0.0000
# 5 0.0000 0.0000 0.0000 0.0000 38.5584 0.0000
# 6 0.0000 0.0000 0.0000 0.0000 0.0000 27.3065
#
#
#
# Elastic Compliance Matrix: (Units=1/GPa)
#
#
# Indices 1 2 3 4 5 6 
#
# 1 0.014455 -0.010485 -0.004281 0.000000 0.000000 0.000000
# 2 -0.010485 0.026931 -0.001815 0.000000 0.000000 0.000000
# 3 -0.004281 -0.001815 0.008477 0.000000 0.000000 0.000000
# 4 0.000000 0.000000 0.000000 0.038401 0.000000 0.000000
# 5 0.000000 0.000000 0.000000 0.000000 0.025935 0.000000
# 6 0.000000 0.000000 0.000000 0.000000 0.000000 0.036621
#
#
# Mechanical properties :
#
#
# Convention : Reuss Voigt Hill
#
# Bulk Modulus (GPa) = 59.87949 80.98717 70.43333
# Shear Modulus (GPa) = 26.37825 30.65960 28.51892
#
# Velocity S-wave (km/s) = 3.38679 3.65131 3.52153
# Velocity P-wave (km/s) = 6.42898 7.27960 6.86748
#
# Compressibility (1/GPa) = 0.01670021
#
# Stress axis : x y z
#
# Youngs Moduli (GPa) = 69.17827 37.13233 117.96742
#
# Poissons Ratio (x) = 0.38932 0.50506
# Poissons Ratio (y) = 0.72532 0.21414
# Poissons Ratio (z) = 0.29618 0.06741
#
# Static dielectric constant tensor:
#      x y z
#    x 4.679180 0.000000 0.000000 
#    y 0.000000 4.392380 0.000000 
#    z 0.000000 0.000000 4.456430 
# 
# 
# High freq. dielectric constant tensor:
#      x y z
#    x 1.902210 0.000000 0.000000 
#    y 0.000000 1.927070 0.000000 
#    z 0.000000 0.000000 1.905460 
# 
# From -- ./inp_files/14827.got.cif
#   From: 2010.03.12/outbox.cif.g09.slc.cpg/sg24_8_cif.got.tgz:14827.got - 2010.04.14 03:06:53.
