data_PCOD8165601
_publ_section_title
;
Structure prediction by ZEFSAII (Michael W. Deem and Ramdas Pophale) SiO2 
 PCOD8165601
Probable space group: I 21 21 21
;
_chemical_formula_sum "Si O2"
_cell_formula_units_Z 64
_cell_length_a 10.455170
_cell_length_b 9.275981
_cell_length_c 30.976888
_cell_angle_alpha 90.000000
_cell_angle_beta 90.000000
_cell_angle_gamma 90.000000
_cell_volume 3004.199259
_symmetry_space_group_name_H-M "I 21 21 21"
_symmetry_group_IT_number 24
_symmetry_cell_setting 'orthorhombic'
loop_
_space_group_symop_operation_xyz
x,y,z
-x,1/2-y,z
x,-y,1/2-z
1/2-x,y,-z
1/2+x,1/2+y,1/2+z
1/2-x,-y,1/2+z
1/2+x,1/2-y,-z
-x,1/2+y,1/2-z
loop_
_atom_site_type_symbol
_atom_site_label
_atom_site_fract_x
_atom_site_fract_y
_atom_site_fract_z
Si Si1 0.826896 0.520061 0.130806
Si Si2 0.329888 0.706771 0.154704
Si Si3 0.716469 0.408911 0.048724
Si Si4 0.108137 0.502954 0.125620
Si Si5 0.515917 0.095696 0.418156
Si Si6 0.254498 0.425656 0.048283
Si Si7 0.623689 0.831229 0.252008
Si Si8 0.140586 0.247143 0.188641
O O1 0.714405 0.640510 0.132966
O O2 0.825009 0.447257 0.083234
O O3 0.811460 0.406897 0.170171
O O4 0.971424 0.580757 0.132994
O O5 0.210213 0.603166 0.148581
O O6 0.459128 0.636580 0.132993
O O7 0.354583 0.733621 0.204699
O O8 0.589911 0.482049 0.067992
O O9 0.697032 0.238134 0.048602
O O10 0.750000 0.462593 0.000000
O O11 0.125523 0.462244 0.074699
O O12 0.119709 0.348479 0.147801
O O13 0.500000 0.250000 0.442641
O O14 0.649157 0.027997 0.428212
O O15 0.250000 0.482352 0.000000
O O16 0.500000 0.750000 0.272468
O O17 0.751131 0.803850 0.279330
O O18 0.594234 0.000000 0.250000
O O19 0.000000 0.250000 0.212422
#
# Coordination Sequence:
#
# PCOD8165601 Si02
#       8
#     8   8   8   8   8   8   8   8
#     4  11  23  41  70  99 131 176 228 271 346 408
#     4  11  24  45  68  95 137 179 222 274 343 408
#     4  11  24  41  64  98 132 179 226 279 332 403
#     4  10  21  43  66  97 131 177 217 281 337 409
#     4  11  23  43  63  91 134 176 221 273 336 396
#     4  10  23  41  65  95 130 172 226 278 335 395
#     4  12  28  47  71 104 139 178 229 285 343 419
#     4  10  23  46  71 100 138 178 227 288 347 406
#
# _framework density 21.303512999999999
#
# number of rings (size 3 to 8) (size 9 to 14) (size 15 to 20)
#    0.000    1.250    3.750    1.125    3.500    1.500 
#    0.000    0.000    0.000    0.000    0.000    0.000 
#    0.000    0.000    0.000    0.000    0.000    0.000 
#
# Total GULP energy -396452.052022 kJ/mol
# GULP energy per Si atom -12389.126626 kJ/mol
# Density = 2.125503 g / cm^3
# Si number density = 21.303513 Si / 1000 Ang^3
#
#
#
# Elastic Constant Matrix: (Units=GPa)
#
#
# Indices 1 2 3 4 5 6 
#
# 1 104.7754 20.0153 39.5432 0.0000 0.0000 0.0000
# 2 20.0153 74.2553 8.1515 0.0000 0.0000 0.0000
# 3 39.5432 8.1515 105.6363 0.0000 0.0000 0.0000
# 4 0.0000 0.0000 0.0000 30.4040 0.0000 0.0000
# 5 0.0000 0.0000 0.0000 0.0000 -4.3057 0.0000
# 6 0.0000 0.0000 0.0000 0.0000 0.0000 37.5327
#
#
#
# Elastic Compliance Matrix: (Units=1/GPa)
#
#
# Indices 1 2 3 4 5 6 
#
# 1 0.011619 -0.002677 -0.004143 0.000000 0.000000 0.000000
# 2 -0.002677 0.014199 -0.000094 0.000000 0.000000 0.000000
# 3 -0.004143 -0.000094 0.011024 0.000000 0.000000 0.000000
# 4 0.000000 0.000000 0.000000 0.032890 0.000000 0.000000
# 5 0.000000 0.000000 0.000000 0.000000 -0.232249 0.000000
# 6 0.000000 0.000000 0.000000 0.000000 0.000000 0.026643
#
#
# Mechanical properties :
#
#
# Convention : Reuss Voigt Hill
#
# Bulk Modulus (GPa) = 43.44891 46.67633 45.06262
# Shear Modulus (GPa) = -43.71633 27.19001 -8.26316
#
# Velocity S-wave (km/s) = -4.53489 3.57643 -1.97160
# Velocity P-wave (km/s) = 2.64214 6.24597 4.00196
#
# Compressibility (1/GPa) = 0.02301554
#
# Stress axis : x y z
#
# Youngs Moduli (GPa) = 86.06445 70.42787 90.70726
#
# Poissons Ratio (x) = 0.18854 0.37579
# Poissons Ratio (y) = 0.23041 0.00848
# Poissons Ratio (z) = 0.35655 0.00659
#
# Static dielectric constant tensor:
#      x y z
#    x 4.097320 0.000000 0.000000 
#    y 0.000000 4.012160 0.000000 
#    z 0.000000 0.000000 3.949710 
# 
# 
# High freq. dielectric constant tensor:
#      x y z
#    x 1.851990 0.000000 0.000000 
#    y 0.000000 1.844470 0.000000 
#    z 0.000000 0.000000 1.827630 
# 
# From -- ./inp_files/38635.got.cif
#   From: 2010.03.12/outbox.cif.g09.slc.cpg/sg24_20_cif.got.tgz:38635.got - 2010.04.14 03:06:53.
