data_PCOD8165123
_publ_section_title
;
Structure prediction by ZEFSAII (Michael W. Deem and Ramdas Pophale) SiO2 
 PCOD8165123
Probable space group: I 21 21 21
;
_chemical_formula_sum "Si O2"
_cell_formula_units_Z 40
_cell_length_a 9.606676
_cell_length_b 8.184378
_cell_length_c 25.470906
_cell_angle_alpha 90.000000
_cell_angle_beta 90.000000
_cell_angle_gamma 90.000000
_cell_volume 2002.641520
_symmetry_space_group_name_H-M "I 21 21 21"
_symmetry_group_IT_number 24
_symmetry_cell_setting 'orthorhombic'
loop_
_space_group_symop_operation_xyz
x,y,z
-x,1/2-y,z
x,-y,1/2-z
1/2-x,y,-z
1/2+x,1/2+y,1/2+z
1/2-x,-y,1/2+z
1/2+x,1/2-y,-z
-x,1/2+y,1/2-z
loop_
_atom_site_type_symbol
_atom_site_label
_atom_site_fract_x
_atom_site_fract_y
_atom_site_fract_z
Si Si1 0.202939 0.633968 0.605502
Si Si2 0.250000 0.552247 0.000000
Si Si3 0.380681 0.541854 0.810380
Si Si4 0.000000 0.750000 0.965298
Si Si5 0.601293 0.518329 0.389212
Si Si6 0.188549 0.909442 0.194420
O O1 0.257465 0.553033 0.552484
O O2 0.305864 0.594762 0.653813
O O3 0.188944 0.824852 0.590829
O O4 0.055913 0.564456 0.624674
O O5 0.108492 0.656286 0.002102
O O6 0.385949 0.500000 0.750000
O O7 0.301499 0.713869 0.808655
O O8 0.539635 0.545932 0.831562
O O9 0.903479 0.627251 0.931444
O O10 0.676655 0.463778 0.336874
O O11 0.201895 0.000000 0.250000
#
# Coordination Sequence:
#
# PCOD8165123 Si02
#       6
#     8   4   8   4   8   8
#     4  10  22  39  59  84 117 151 191 240 290 348
#     4  10  22  40  60  86 116 152 194 238 290 344
#     4  10  21  37  57  85 118 151 192 241 290 346
#     4  10  22  40  62  84 114 148 194 242 286 348
#     4  10  21  39  59  83 114 150 190 238 290 345
#     4  10  20  35  58  85 115 153 195 238 289 346
#
# _framework density 19.97362
#
# number of rings (size 3 to 8) (size 9 to 14) (size 15 to 20)
#    0.000    2.000    0.000    3.600    0.000    7.200 
#    0.000    8.000    0.000    0.000    0.000    0.000 
#    0.000    0.000    0.000    0.000    0.000    0.000 
#
# Total GULP energy -247849.793778 kJ/mol
# GULP energy per Si atom -12392.489689 kJ/mol
# Density = 1.992816 g / cm^3
# Si number density = 19.973620 Si / 1000 Ang^3
#
#
#
# Elastic Constant Matrix: (Units=GPa)
#
#
# Indices 1 2 3 4 5 6 
#
# 1 83.2325 45.1912 54.0862 0.0000 0.0000 0.0000
# 2 45.1912 123.9581 40.8973 0.0000 0.0000 0.0000
# 3 54.0862 40.8973 84.7960 0.0000 0.0000 0.0000
# 4 0.0000 0.0000 0.0000 18.5228 0.0000 0.0000
# 5 0.0000 0.0000 0.0000 0.0000 44.1343 0.0000
# 6 0.0000 0.0000 0.0000 0.0000 0.0000 28.8446
#
#
#
# Elastic Compliance Matrix: (Units=1/GPa)
#
#
# Indices 1 2 3 4 5 6 
#
# 1 0.022108 -0.004052 -0.012147 0.000000 0.000000 0.000000
# 2 -0.004052 0.010337 -0.002401 0.000000 0.000000 0.000000
# 3 -0.012147 -0.002401 0.020699 0.000000 0.000000 0.000000
# 4 0.000000 0.000000 0.000000 0.053988 0.000000 0.000000
# 5 0.000000 0.000000 0.000000 0.000000 0.022658 0.000000
# 6 0.000000 0.000000 0.000000 0.000000 0.000000 0.034668
#
#
# Mechanical properties :
#
#
# Convention : Reuss Voigt Hill
#
# Bulk Modulus (GPa) = 62.72137 63.59287 63.15712
# Shear Modulus (GPa) = 24.15786 28.42114 26.28950
#
# Velocity S-wave (km/s) = 3.48154 3.77627 3.63190
# Velocity P-wave (km/s) = 6.90158 7.13591 7.01972
#
# Compressibility (1/GPa) = 0.01594353
#
# Stress axis : x y z
#
# Youngs Moduli (GPa) = 45.23230 96.74344 48.31222
#
# Poissons Ratio (x) = 0.39203 0.58685
# Poissons Ratio (y) = 0.18329 0.11598
# Poissons Ratio (z) = 0.54944 0.23225
#
# Static dielectric constant tensor:
#      x y z
#    x 3.776770 0.000000 0.000000 
#    y 0.000000 3.863340 0.000000 
#    z 0.000000 0.000000 3.374990 
# 
# 
# High freq. dielectric constant tensor:
#      x y z
#    x 1.787800 0.000000 0.000000 
#    y 0.000000 1.798710 0.000000 
#    z 0.000000 0.000000 1.763610 
# 
# From -- ./inp_files/9323.got.cif
#   From: 2010.03.12/outbox.cif.g09.slc.cpg/sg24_5_cif.got.tgz:9323.got - 2010.04.14 03:06:53.
