data_PCOD8165778
_publ_section_title
;
Structure prediction by ZEFSAII (Michael W. Deem and Ramdas Pophale) SiO2 
 PCOD8165778
Probable space group: I 21 21 21
;
_chemical_formula_sum "Si O2"
_cell_formula_units_Z 40
_cell_length_a 5.345304
_cell_length_b 17.946653
_cell_length_c 18.362688
_cell_angle_alpha 90.000000
_cell_angle_beta 90.000000
_cell_angle_gamma 90.000000
_cell_volume 1761.538464
_symmetry_space_group_name_H-M "I 21 21 21"
_symmetry_group_IT_number 24
_symmetry_cell_setting 'orthorhombic'
loop_
_space_group_symop_operation_xyz
x,y,z
-x,1/2-y,z
x,-y,1/2-z
1/2-x,y,-z
1/2+x,1/2+y,1/2+z
1/2-x,-y,1/2+z
1/2+x,1/2-y,-z
-x,1/2+y,1/2-z
loop_
_atom_site_type_symbol
_atom_site_label
_atom_site_fract_x
_atom_site_fract_y
_atom_site_fract_z
Si Si1 0.732327 0.109864 0.580570
Si Si2 0.517790 0.982356 0.664882
Si Si3 0.500000 0.750000 0.452114
Si Si4 0.396690 0.167413 0.312443
Si Si5 0.027199 0.891565 0.652139
Si Si6 0.500000 0.750000 0.880981
O O1 0.750000 0.074618 0.500000
O O2 0.670864 0.198015 0.568543
O O3 0.988051 0.109703 0.628356
O O4 0.526343 0.060425 0.622517
O O5 0.273840 0.939716 0.634424
O O6 0.771108 0.937679 0.646078
O O7 0.486251 0.000000 0.750000
O O8 0.250000 0.744957 0.500000
O O9 0.484663 0.822882 0.402469
O O10 0.500000 0.250000 0.321503
O O11 0.445614 0.136330 0.233740
O O12 0.107609 0.183651 0.329052
#
# Coordination Sequence:
#
# PCOD8165778 Si02
#       6
#     8   8   4   8   8   4
#     4  11  26  44  68 103 148 188 236 298 367 438
#     4  12  26  46  74 110 149 195 249 303 370 450
#     4  12  28  51  77 112 152 196 256 326 386 447
#     4  10  22  43  71 107 134 183 244 300 358 431
#     4  12  26  47  80 106 147 194 249 308 374 444
#     4  10  24  41  71 100 140 182 242 290 360 435
#
# _framework density 22.707425000000001
#
# number of rings (size 3 to 8) (size 9 to 14) (size 15 to 20)
#    0.000    0.800    3.000    3.000    9.800    3.200 
#    0.000    0.000    0.000    0.000    0.000    0.000 
#    0.000    0.000    0.000    0.000    0.000    0.000 
#
# Total GULP energy -247766.304677 kJ/mol
# GULP energy per Si atom -12388.315234 kJ/mol
# Density = 2.265574 g / cm^3
# Si number density = 22.707425 Si / 1000 Ang^3
#
#
#
# Elastic Constant Matrix: (Units=GPa)
#
#
# Indices 1 2 3 4 5 6 
#
# 1 146.6310 59.9640 36.7527 0.0000 0.0000 0.0000
# 2 59.9640 137.2335 52.1176 0.0000 0.0000 0.0000
# 3 36.7527 52.1176 135.6911 0.0000 0.0000 0.0000
# 4 0.0000 0.0000 0.0000 -38.3786 0.0000 0.0000
# 5 0.0000 0.0000 0.0000 0.0000 41.0351 0.0000
# 6 0.0000 0.0000 0.0000 0.0000 0.0000 36.0941
#
#
#
# Elastic Compliance Matrix: (Units=1/GPa)
#
#
# Indices 1 2 3 4 5 6 
#
# 1 0.008422 -0.003294 -0.001016 0.000000 0.000000 0.000000
# 2 -0.003294 0.009820 -0.002879 0.000000 0.000000 0.000000
# 3 -0.001016 -0.002879 0.008751 0.000000 0.000000 0.000000
# 4 0.000000 0.000000 0.000000 -0.026056 0.000000 0.000000
# 5 0.000000 0.000000 0.000000 0.000000 0.024369 0.000000
# 6 0.000000 0.000000 0.000000 0.000000 0.000000 0.027705
#
#
# Mechanical properties :
#
#
# Convention : Reuss Voigt Hill
#
# Bulk Modulus (GPa) = 79.28033 79.69157 79.48595
# Shear Modulus (GPa) = 69.83870 25.79821 47.81846
#
# Velocity S-wave (km/s) = 5.55182 3.37429 4.59393
# Velocity P-wave (km/s) = 8.72276 7.09593 7.95106
#
# Compressibility (1/GPa) = 0.01261347
#
# Stress axis : x y z
#
# Youngs Moduli (GPa) = 118.74352 101.83620 114.27543
#
# Poissons Ratio (x) = 0.33545 0.11608
# Poissons Ratio (y) = 0.39114 0.32905
# Poissons Ratio (z) = 0.12062 0.29323
#
# Static dielectric constant tensor:
#      x y z
#    x 11.435220 0.000000 0.000000 
#    y 0.000000 4.355120 0.000000 
#    z 0.000000 0.000000 3.983950 
# 
# 
# High freq. dielectric constant tensor:
#      x y z
#    x 1.907370 0.000000 0.000000 
#    y 0.000000 1.920060 0.000000 
#    z 0.000000 0.000000 1.888020 
# 
# From -- ./inp_files/28637.got.cif
#   From: 2010.03.12/outbox.cif.g09.slc.cpg/sg24_15_cif.got.tgz:28637.got - 2010.04.14 03:06:53.
