data_PCOD8165153
_publ_section_title
;
Structure prediction by ZEFSAII (Michael W. Deem and Ramdas Pophale) SiO2 
 PCOD8165153
Probable space group: I 21 21 21
;
_chemical_formula_sum "Si O2"
_cell_formula_units_Z 48
_cell_length_a 17.701531
_cell_length_b 8.910107
_cell_length_c 15.228490
_cell_angle_alpha 90.000000
_cell_angle_beta 90.000000
_cell_angle_gamma 90.000000
_cell_volume 2401.876051
_symmetry_space_group_name_H-M "I 21 21 21"
_symmetry_group_IT_number 24
_symmetry_cell_setting 'orthorhombic'
loop_
_space_group_symop_operation_xyz
x,y,z
-x,1/2-y,z
x,-y,1/2-z
1/2-x,y,-z
1/2+x,1/2+y,1/2+z
1/2-x,-y,1/2+z
1/2+x,1/2-y,-z
-x,1/2+y,1/2-z
loop_
_atom_site_type_symbol
_atom_site_label
_atom_site_fract_x
_atom_site_fract_y
_atom_site_fract_z
Si Si1 0.364255 0.423349 0.161169
Si Si2 0.916441 0.928396 0.009528
Si Si3 0.364710 0.069206 0.159878
Si Si4 0.289816 0.620428 0.591024
Si Si5 0.690243 0.559431 0.656100
Si Si6 0.085850 0.084364 0.488205
O O1 0.392552 0.500000 0.250000
O O2 0.415060 0.487842 0.083375
O O3 0.375688 0.246256 0.165132
O O4 0.275525 0.462605 0.146530
O O5 0.893093 0.756742 0.994277
O O6 0.000883 0.937192 0.048942
O O7 0.858148 0.005027 0.077021
O O8 0.278121 0.020285 0.145770
O O9 0.396620 0.000000 0.250000
O O10 0.411614 0.005465 0.079020
O O11 0.250000 0.675516 0.500000
O O12 0.322492 0.762304 0.644378
O O13 0.660292 0.500000 0.750000
O O14 0.644896 0.475837 0.581186
#
# Coordination Sequence:
#
# PCOD8165153 Si02
#       6
#     8   8   8   8   8   8
#     4  10  20  36  58  86 114 142 182 231 280 334
#     4  10  23  37  55  81 113 152 188 225 280 332
#     4  10  21  36  60  88 112 145 186 228 279 334
#     4   9  19  37  58  83 111 145 184 227 281 334
#     4  10  21  37  58  84 110 143 190 234 277 331
#     4  11  22  39  56  80 116 151 188 231 275 331
#
# _framework density 19.984379000000001
#
# number of rings (size 3 to 8) (size 9 to 14) (size 15 to 20)
#    0.000    2.000    0.000    4.500    0.000   11.333 
#    0.000    4.167    0.000    0.000    0.000    0.000 
#    0.000    0.000    0.000    0.000    0.000    0.000 
#
# Total GULP energy -297649.966537 kJ/mol
# GULP energy per Si atom -12402.081939 kJ/mol
# Density = 1.993889 g / cm^3
# Si number density = 19.984379 Si / 1000 Ang^3
#
#
#
# Elastic Constant Matrix: (Units=GPa)
#
#
# Indices 1 2 3 4 5 6 
#
# 1 62.0134 45.8136 15.1959 0.0000 0.0000 0.0000
# 2 45.8136 115.2074 35.7865 0.0000 0.0000 0.0000
# 3 15.1959 35.7865 69.9421 0.0000 0.0000 0.0000
# 4 0.0000 0.0000 0.0000 39.7588 0.0000 0.0000
# 5 0.0000 0.0000 0.0000 0.0000 0.7258 0.0000
# 6 0.0000 0.0000 0.0000 0.0000 0.0000 27.8124
#
#
#
# Elastic Compliance Matrix: (Units=1/GPa)
#
#
# Indices 1 2 3 4 5 6 
#
# 1 0.022842 -0.008967 -0.000375 0.000000 0.000000 0.000000
# 2 -0.008967 0.013840 -0.005133 0.000000 0.000000 0.000000
# 3 -0.000375 -0.005133 0.017005 0.000000 0.000000 0.000000
# 4 0.000000 0.000000 0.000000 0.025152 0.000000 0.000000
# 5 0.000000 0.000000 0.000000 0.000000 1.377733 0.000000
# 6 0.000000 0.000000 0.000000 0.000000 0.000000 0.035955
#
#
# Mechanical properties :
#
#
# Convention : Reuss Voigt Hill
#
# Bulk Modulus (GPa) = 40.42408 48.97274 44.69841
# Shear Modulus (GPa) = 3.26856 23.68388 13.47622
#
# Velocity S-wave (km/s) = 1.28028 3.44629 2.59962
# Velocity P-wave (km/s) = 4.73891 6.35568 5.60588
#
# Compressibility (1/GPa) = 0.02473773
#
# Stress axis : x y z
#
# Youngs Moduli (GPa) = 43.77921 72.25238 58.80459
#
# Poissons Ratio (x) = 0.64788 0.02203
# Poissons Ratio (y) = 0.39257 0.30186
# Poissons Ratio (z) = 0.01640 0.37090
#
# Static dielectric constant tensor:
#      x y z
#    x 3.560980 0.000000 0.000000 
#    y 0.000000 3.873730 0.000000 
#    z 0.000000 0.000000 3.711300 
# 
# 
# High freq. dielectric constant tensor:
#      x y z
#    x 1.775210 0.000000 0.000000 
#    y 0.000000 1.787560 0.000000 
#    z 0.000000 0.000000 1.772850 
# 
# From -- ./inp_files/12774.got.cif
#   From: 2010.03.12/outbox.cif.g09.slc.cpg/sg24_7_cif.got.tgz:12774.got - 2010.04.14 03:06:53.
