data_PCOD8165456
_publ_section_title
;
Structure prediction by ZEFSAII (Michael W. Deem and Ramdas Pophale) SiO2 
 PCOD8165456
Probable space group: I 21 21 21
;
_chemical_formula_sum "Si O2"
_cell_formula_units_Z 64
_cell_length_a 17.127678
_cell_length_b 12.344190
_cell_length_c 14.401492
_cell_angle_alpha 90.000000
_cell_angle_beta 90.000000
_cell_angle_gamma 90.000000
_cell_volume 3044.868735
_symmetry_space_group_name_H-M "I 21 21 21"
_symmetry_group_IT_number 24
_symmetry_cell_setting 'orthorhombic'
loop_
_space_group_symop_operation_xyz
x,y,z
-x,1/2-y,z
x,-y,1/2-z
1/2-x,y,-z
1/2+x,1/2+y,1/2+z
1/2-x,-y,1/2+z
1/2+x,1/2-y,-z
-x,1/2+y,1/2-z
loop_
_atom_site_type_symbol
_atom_site_label
_atom_site_fract_x
_atom_site_fract_y
_atom_site_fract_z
Si Si1 0.776694 0.517767 0.859080
Si Si2 0.922023 0.197086 0.333571
Si Si3 0.747864 0.235553 0.361006
Si Si4 0.607446 0.214508 0.876168
Si Si5 0.132327 0.939796 0.466328
Si Si6 0.325190 0.465084 0.445387
Si Si7 0.466083 0.493535 0.926515
Si Si8 0.748140 0.098394 0.809625
O O1 0.795373 0.500000 0.750000
O O2 0.781498 0.644518 0.880925
O O3 0.690468 0.477086 0.884562
O O4 0.835676 0.454904 0.928549
O O5 0.840294 0.220930 0.387266
O O6 0.909761 0.246285 0.230568
O O7 0.000000 0.250000 0.379198
O O8 0.940464 0.068017 0.338806
O O9 0.692771 0.160012 0.422826
O O10 0.732094 0.202064 0.254020
O O11 0.615385 0.313436 0.947151
O O12 0.537086 0.135141 0.906003
O O13 0.684750 0.139822 0.884260
O O14 0.055317 0.013634 0.456475
O O15 0.250000 0.509777 0.500000
O O16 0.409750 0.472780 0.489465
O O17 0.325340 0.546175 0.356139
O O18 0.708592 0.000000 0.750000
#
# Coordination Sequence:
#
# PCOD8165456 Si02
#       8
#     8   8   8   8   8   8   8   8
#     4  11  25  48  69  88 126 175 226 273 331 404
#     4  11  21  34  59  92 130 170 205 260 334 395
#     4  10  21  38  61  88 121 164 216 264 319 389
#     4  11  21  38  58  90 133 170 208 263 326 384
#     4  11  27  42  63  96 127 171 226 278 329 398
#     4  11  20  35  61  93 125 166 204 260 324 388
#     4  12  23  37  60  93 133 163 210 269 330 392
#     4   9  18  36  60  94 123 160 214 260 320 391
#
# _framework density 21.018968999999998
#
# number of rings (size 3 to 8) (size 9 to 14) (size 15 to 20)
#    0.000    1.250    2.500    5.250    1.750    5.000 
#    0.000    1.875    0.000    0.000    0.000    0.000 
#    0.000    0.000    0.000    0.000    0.000    0.000 
#
# Total GULP energy -396478.835760 kJ/mol
# GULP energy per Si atom -12389.963617 kJ/mol
# Density = 2.097113 g / cm^3
# Si number density = 21.018969 Si / 1000 Ang^3
#
#
#
# Elastic Constant Matrix: (Units=GPa)
#
#
# Indices 1 2 3 4 5 6 
#
# 1 98.5576 26.8167 39.1180 0.0000 0.0000 0.0000
# 2 26.8167 117.2770 34.2615 0.0000 0.0000 0.0000
# 3 39.1180 34.2615 95.9592 0.0000 0.0000 0.0000
# 4 0.0000 0.0000 0.0000 35.6712 0.0000 0.0000
# 5 0.0000 0.0000 0.0000 0.0000 23.4703 0.0000
# 6 0.0000 0.0000 0.0000 0.0000 0.0000 17.0526
#
#
#
# Elastic Compliance Matrix: (Units=1/GPa)
#
#
# Indices 1 2 3 4 5 6 
#
# 1 0.012340 -0.001510 -0.004491 0.000000 0.000000 0.000000
# 2 -0.001510 0.009704 -0.002850 0.000000 0.000000 0.000000
# 3 -0.004491 -0.002850 0.013269 0.000000 0.000000 0.000000
# 4 0.000000 0.000000 0.000000 0.028034 0.000000 0.000000
# 5 0.000000 0.000000 0.000000 0.000000 0.042607 0.000000
# 6 0.000000 0.000000 0.000000 0.000000 0.000000 0.058642
#
#
# Mechanical properties :
#
#
# Convention : Reuss Voigt Hill
#
# Bulk Modulus (GPa) = 56.77698 56.90958 56.84328
# Shear Modulus (GPa) = 26.57198 29.34533 27.95866
#
# Velocity S-wave (km/s) = 3.55940 3.74054 3.65110
# Velocity P-wave (km/s) = 6.63049 6.76681 6.69899
#
# Compressibility (1/GPa) = 0.01761277
#
# Stress axis : x y z
#
# Youngs Moduli (GPa) = 81.03919 103.04536 75.36124
#
# Poissons Ratio (x) = 0.15555 0.33847
# Poissons Ratio (y) = 0.12233 0.21475
# Poissons Ratio (z) = 0.36398 0.29363
#
# Static dielectric constant tensor:
#      x y z
#    x 3.748500 0.000000 0.000000 
#    y 0.000000 3.846170 0.000000 
#    z 0.000000 0.000000 3.903610 
# 
# 
# High freq. dielectric constant tensor:
#      x y z
#    x 1.804920 0.000000 0.000000 
#    y 0.000000 1.834410 0.000000 
#    z 0.000000 0.000000 1.808470 
# 
# From -- ./inp_files/27242.got.cif
#   From: 2010.03.12/outbox.cif.g09.slc.cpg/sg24_14_cif.got.tgz:27242.got - 2010.04.14 03:06:53.
