data_PCOD8165988
_publ_section_title
;
Structure prediction by ZEFSAII (Michael W. Deem and Ramdas Pophale) SiO2 
 PCOD8165988
Probable space group: I 21 21 21
;
_chemical_formula_sum "Si O2"
_cell_formula_units_Z 56
_cell_length_a 14.486071
_cell_length_b 13.803198
_cell_length_c 12.089133
_cell_angle_alpha 90.000000
_cell_angle_beta 90.000000
_cell_angle_gamma 90.000000
_cell_volume 2417.271784
_symmetry_space_group_name_H-M "I 21 21 21"
_symmetry_group_IT_number 24
_symmetry_cell_setting 'orthorhombic'
loop_
_space_group_symop_operation_xyz
x,y,z
-x,1/2-y,z
x,-y,1/2-z
1/2-x,y,-z
1/2+x,1/2+y,1/2+z
1/2-x,-y,1/2+z
1/2+x,1/2-y,-z
-x,1/2+y,1/2-z
loop_
_atom_site_type_symbol
_atom_site_label
_atom_site_fract_x
_atom_site_fract_y
_atom_site_fract_z
Si Si1 0.762865 0.427898 0.340953
Si Si2 0.901209 0.909689 0.046208
Si Si3 0.178919 0.278831 0.271686
Si Si4 0.656463 0.889499 0.561417
Si Si5 0.992339 0.862967 0.619700
Si Si6 0.646690 0.899193 0.202627
Si Si7 0.898471 0.471775 0.518899
O O1 0.725641 0.500000 0.250000
O O2 0.813961 0.335482 0.288399
O O3 0.837183 0.491630 0.410230
O O4 0.668877 0.400789 0.408663
O O5 0.880284 0.818991 0.125415
O O6 0.010244 0.916671 0.021898
O O7 0.851824 0.000682 0.109275
O O8 0.852208 0.894632 0.928792
O O9 0.130441 0.310257 0.155478
O O10 0.282929 0.317613 0.257599
O O11 0.750000 0.861752 0.500000
O O12 0.582538 0.900431 0.465117
O O13 0.955991 0.881991 0.745041
O O14 0.000000 0.750000 0.599044
O O15 0.081975 0.928095 0.588195
O O16 0.685393 0.000000 0.250000
#
# Coordination Sequence:
#
# PCOD8165988 Si02
#       7
#     8   8   8   8   8   8   8
#     4  11  29  50  72 101 152 206 252 293 368 450
#     4  11  24  43  75 106 151 181 243 311 375 433
#     4  12  26  43  74 111 146 195 240 300 376 451
#     4  11  21  44  71 108 145 181 239 311 378 430
#     4  11  26  44  74 108 140 192 252 304 371 442
#     4  12  22  43  71 110 145 181 234 314 376 428
#     4  10  26  50  71 103 147 196 249 309 366 430
#
# _framework density 23.166615
#
# number of rings (size 3 to 8) (size 9 to 14) (size 15 to 20)
#    0.000    0.857    4.286    2.571   10.000    2.857 
#    0.000    0.000    0.000    0.000    0.000    0.000 
#    0.000    0.000    0.000    0.000    0.000    0.000 
#
# Total GULP energy -346996.472529 kJ/mol
# GULP energy per Si atom -12392.731162 kJ/mol
# Density = 2.311389 g / cm^3
# Si number density = 23.166615 Si / 1000 Ang^3
#
#
#
# Elastic Constant Matrix: (Units=GPa)
#
#
# Indices 1 2 3 4 5 6 
#
# 1 77.2184 18.9720 25.0095 0.0000 0.0000 0.0000
# 2 18.9720 115.4693 29.6548 0.0000 0.0000 0.0000
# 3 25.0095 29.6548 117.4533 0.0000 0.0000 0.0000
# 4 0.0000 0.0000 0.0000 26.7389 0.0000 0.0000
# 5 0.0000 0.0000 0.0000 0.0000 29.0162 0.0000
# 6 0.0000 0.0000 0.0000 0.0000 0.0000 18.9958
#
#
#
# Elastic Compliance Matrix: (Units=1/GPa)
#
#
# Indices 1 2 3 4 5 6 
#
# 1 0.014203 -0.001665 -0.002604 0.000000 0.000000 0.000000
# 2 -0.001665 0.009456 -0.002033 0.000000 0.000000 0.000000
# 3 -0.002604 -0.002033 0.009582 0.000000 0.000000 0.000000
# 4 0.000000 0.000000 0.000000 0.037399 0.000000 0.000000
# 5 0.000000 0.000000 0.000000 0.000000 0.034464 0.000000
# 6 0.000000 0.000000 0.000000 0.000000 0.000000 0.052643
#
#
# Mechanical properties :
#
#
# Convention : Reuss Voigt Hill
#
# Bulk Modulus (GPa) = 48.45647 50.82373 49.64010
# Shear Modulus (GPa) = 28.21221 30.71714 29.46468
#
# Velocity S-wave (km/s) = 3.49348 3.64527 3.57018
# Velocity P-wave (km/s) = 6.10200 6.30106 6.20233
#
# Compressibility (1/GPa) = 0.02063708
#
# Stress axis : x y z
#
# Youngs Moduli (GPa) = 70.40933 105.75350 104.36508
#
# Poissons Ratio (x) = 0.17606 0.27175
# Poissons Ratio (y) = 0.11722 0.21217
# Poissons Ratio (z) = 0.18334 0.21499
#
# Static dielectric constant tensor:
#      x y z
#    x 4.435430 0.000000 0.000000 
#    y 0.000000 4.267690 0.000000 
#    z 0.000000 0.000000 4.515060 
# 
# 
# High freq. dielectric constant tensor:
#      x y z
#    x 1.915070 0.000000 0.000000 
#    y 0.000000 1.897130 0.000000 
#    z 0.000000 0.000000 1.928720 
# 
# From -- ./inp_files/20854.got.cif
#   From: 2010.03.12/outbox.cif.g09.slc.cpg/sg24_11_cif.got.tgz:20854.got - 2010.04.14 03:06:53.
