data_PCOD8165249
_publ_section_title
;
Structure prediction by ZEFSAII (Michael W. Deem and Ramdas Pophale) SiO2 
 PCOD8165249
Probable space group: I 21 21 21
;
_chemical_formula_sum "Si O2"
_cell_formula_units_Z 40
_cell_length_a 11.495085
_cell_length_b 8.147263
_cell_length_c 21.137890
_cell_angle_alpha 90.000000
_cell_angle_beta 90.000000
_cell_angle_gamma 90.000000
_cell_volume 1979.636973
_symmetry_space_group_name_H-M "I 21 21 21"
_symmetry_group_IT_number 24
_symmetry_cell_setting 'orthorhombic'
loop_
_space_group_symop_operation_xyz
x,y,z
-x,1/2-y,z
x,-y,1/2-z
1/2-x,y,-z
1/2+x,1/2+y,1/2+z
1/2-x,-y,1/2+z
1/2+x,1/2-y,-z
-x,1/2+y,1/2-z
loop_
_atom_site_type_symbol
_atom_site_label
_atom_site_fract_x
_atom_site_fract_y
_atom_site_fract_z
Si Si1 0.000000 0.750000 0.118697
Si Si2 0.000000 0.750000 0.525206
Si Si3 0.348401 0.514291 0.550625
Si Si4 0.203849 0.213580 0.879932
Si Si5 0.625540 0.192465 0.256784
Si Si6 0.302452 0.083596 0.682686
O O1 0.098343 0.651932 0.079342
O O2 0.067207 0.869522 0.165580
O O3 0.892625 0.688143 0.566758
O O4 0.041816 0.600605 0.482076
O O5 0.250000 0.463597 0.500000
O O6 0.292090 0.638197 0.602586
O O7 0.143503 0.237416 0.812788
O O8 0.267145 0.038629 0.874211
O O9 0.500000 0.250000 0.281561
O O10 0.716270 0.259748 0.309389
O O11 0.636604 0.000000 0.250000
O O12 0.306300 0.000000 0.750000
#
# Coordination Sequence:
#
# PCOD8165249 Si02
#       6
#     4   4   8   8   8   8
#     4  12  24  42  59  86 129 158 200 254 310 360
#     4  10  20  38  63  84 117 158 202 258 302 360
#     4  10  23  39  60  88 117 160 208 254 304 366
#     4  10  20  39  62  89 117 157 207 246 310 355
#     4  11  21  37  61  92 125 156 198 249 304 368
#     4  10  24  39  60  91 121 160 204 243 305 374
#
# _framework density 20.205725999999999
#
# number of rings (size 3 to 8) (size 9 to 14) (size 15 to 20)
#    0.000    1.600    1.000    4.200    0.000    5.600 
#    0.000    0.000    0.000    0.000    0.000    0.000 
#    0.000    0.000    0.000    0.000    0.000    0.000 
#
# Total GULP energy -247962.257064 kJ/mol
# GULP energy per Si atom -12398.112853 kJ/mol
# Density = 2.015974 g / cm^3
# Si number density = 20.205726 Si / 1000 Ang^3
#
#
#
# Elastic Constant Matrix: (Units=GPa)
#
#
# Indices 1 2 3 4 5 6 
#
# 1 122.2445 52.9736 31.5435 0.0000 0.0000 0.0000
# 2 52.9736 114.4717 16.6025 0.0000 0.0000 0.0000
# 3 31.5435 16.6025 51.9480 0.0000 0.0000 0.0000
# 4 0.0000 0.0000 0.0000 27.3434 0.0000 0.0000
# 5 0.0000 0.0000 0.0000 0.0000 23.8739 0.0000
# 6 0.0000 0.0000 0.0000 0.0000 0.0000 43.1139
#
#
#
# Elastic Compliance Matrix: (Units=1/GPa)
#
#
# Indices 1 2 3 4 5 6 
#
# 1 0.011596 -0.004556 -0.005585 0.000000 0.000000 0.000000
# 2 -0.004556 0.010951 -0.000733 0.000000 0.000000 0.000000
# 3 -0.005585 -0.000733 0.022876 0.000000 0.000000 0.000000
# 4 0.000000 0.000000 0.000000 0.036572 0.000000 0.000000
# 5 0.000000 0.000000 0.000000 0.000000 0.041887 0.000000
# 6 0.000000 0.000000 0.000000 0.000000 0.000000 0.023194
#
#
# Mechanical properties :
#
#
# Convention : Reuss Voigt Hill
#
# Bulk Modulus (GPa) = 42.24170 54.54483 48.39327
# Shear Modulus (GPa) = 28.29415 31.36919 29.83167
#
# Velocity S-wave (km/s) = 3.74612 3.94444 3.84656
# Velocity P-wave (km/s) = 6.29781 6.91362 6.61289
#
# Compressibility (1/GPa) = 0.02367329
#
# Stress axis : x y z
#
# Youngs Moduli (GPa) = 86.23797 91.31957 43.71455
#
# Poissons Ratio (x) = 0.41606 0.24415
# Poissons Ratio (y) = 0.39291 0.03205
# Poissons Ratio (z) = 0.48164 0.06696
#
# Static dielectric constant tensor:
#      x y z
#    x 2.955610 0.000000 0.000000 
#    y 0.000000 4.127160 0.000000 
#    z 0.000000 0.000000 3.701320 
# 
# 
# High freq. dielectric constant tensor:
#      x y z
#    x 1.802690 0.000000 0.000000 
#    y 0.000000 1.790650 0.000000 
#    z 0.000000 0.000000 1.786800 
# 
# From -- ./inp_files/9347.got.cif
#   From: 2010.03.12/outbox.cif.g09.slc.cpg/sg24_5_cif.got.tgz:9347.got - 2010.04.14 03:06:53.
