data_PCOD8165077
_publ_section_title
;
Structure prediction by ZEFSAII (Michael W. Deem and Ramdas Pophale) SiO2 
 PCOD8165077
Probable space group: I 21 21 21
;
_chemical_formula_sum "Si O2"
_cell_formula_units_Z 64
_cell_length_a 9.334578
_cell_length_b 24.769958
_cell_length_c 15.416420
_cell_angle_alpha 90.000000
_cell_angle_beta 90.000000
_cell_angle_gamma 90.000000
_cell_volume 3564.540002
_symmetry_space_group_name_H-M "I 21 21 21"
_symmetry_group_IT_number 24
_symmetry_cell_setting 'orthorhombic'
loop_
_space_group_symop_operation_xyz
x,y,z
-x,1/2-y,z
x,-y,1/2-z
1/2-x,y,-z
1/2+x,1/2+y,1/2+z
1/2-x,-y,1/2+z
1/2+x,1/2-y,-z
-x,1/2+y,1/2-z
loop_
_atom_site_type_symbol
_atom_site_label
_atom_site_fract_x
_atom_site_fract_y
_atom_site_fract_z
Si Si1 0.892541 0.482319 0.045464
Si Si2 0.367666 0.432162 0.065096
Si Si3 0.505624 0.085172 0.636628
Si Si4 0.396588 0.698417 0.124763
Si Si5 0.516892 0.106702 0.242004
Si Si6 0.782186 0.968733 0.829758
Si Si7 0.581831 0.805280 0.926967
Si Si8 0.717348 0.558389 0.720144
O O1 0.970689 0.538247 0.067931
O O2 0.850861 0.444482 0.125580
O O3 0.750000 0.502557 0.000000
O O4 0.984302 0.443499 0.983762
O O5 0.398516 0.394213 0.149076
O O6 0.302969 0.490208 0.091599
O O7 0.250000 0.405037 0.000000
O O8 0.677081 0.080659 0.649041
O O9 0.482076 0.146743 0.609162
O O10 0.412905 0.077901 0.721628
O O11 0.500000 0.750000 0.134389
O O12 0.449479 0.659733 0.202357
O O13 0.224881 0.707139 0.130352
O O14 0.404517 0.675613 0.026959
O O15 0.565623 0.055287 0.299243
O O16 0.347480 0.101009 0.224789
O O17 0.707078 0.000000 0.750000
O O18 0.500000 0.750000 0.921069
O O19 0.775275 0.500000 0.750000
#
# Coordination Sequence:
#
# PCOD8165077 Si02
#       8
#     8   8   8   8   8   8   8   8
#     4  11  22  36  51  83 125 154 192 230 280 345
#     4  11  22  34  57  86 115 154 191 238 283 336
#     4  11  22  35  57  80 115 161 190 232 287 339
#     4  10  23  41  63  82 113 147 192 245 289 344
#     4  11  22  37  58  83 113 154 192 236 288 341
#     4  10  20  33  52  80 116 148 192 230 272 336
#     4  10  23  41  57  87 115 145 195 244 287 334
#     4  10  22  36  52  83 125 159 190 227 280 347
#
# _framework density 17.954630000000002
#
# number of rings (size 3 to 8) (size 9 to 14) (size 15 to 20)
#    0.000    1.500    3.750    2.250    7.000    0.000 
#    2.250    0.000    0.000    0.000    3.250    0.000 
#    0.000    0.000    0.000    0.000    0.000    0.000 
#
# Total GULP energy -396514.394987 kJ/mol
# GULP energy per Si atom -12391.074843 kJ/mol
# Density = 1.791376 g / cm^3
# Si number density = 17.954630 Si / 1000 Ang^3
#
#
#
# Elastic Constant Matrix: (Units=GPa)
#
#
# Indices 1 2 3 4 5 6 
#
# 1 100.3609 34.8170 42.8585 0.0001 0.0000 -0.0001
# 2 34.8170 78.0888 48.6491 0.0001 0.0000 -0.0002
# 3 42.8585 48.6491 103.9846 0.0002 0.0000 0.0004
# 4 0.0001 0.0001 0.0002 30.1157 0.0000 0.0000
# 5 0.0000 0.0000 0.0000 0.0000 18.6989 -0.0001
# 6 -0.0001 -0.0002 0.0004 0.0000 -0.0001 16.1970
#
#
#
# Elastic Compliance Matrix: (Units=1/GPa)
#
#
# Indices 1 2 3 4 5 6 
#
# 1 0.012698 -0.003389 -0.003648 0.000000 0.000000 0.000000
# 2 -0.003389 0.018978 -0.007482 0.000000 0.000000 0.000000
# 3 -0.003648 -0.007482 0.014621 0.000000 0.000000 0.000000
# 4 0.000000 0.000000 0.000000 0.033205 0.000000 0.000000
# 5 0.000000 0.000000 0.000000 0.000000 0.053479 0.000000
# 6 0.000000 0.000000 0.000000 0.000000 0.000000 0.061740
#
#
# Mechanical properties :
#
#
# Convention : Reuss Voigt Hill
#
# Bulk Modulus (GPa) = 57.94158 59.45374 58.69766
# Shear Modulus (GPa) = 21.78536 23.40963 22.59749
#
# Velocity S-wave (km/s) = 3.48711 3.61476 3.55151
# Velocity P-wave (km/s) = 6.96810 7.11388 7.04136
#
# Compressibility (1/GPa) = 0.01725876
#
# Stress axis : x y z
#
# Youngs Moduli (GPa) = 78.75564 52.69187 68.39482
#
# Poissons Ratio (x) = 0.17855 0.24951
# Poissons Ratio (y) = 0.26687 0.51175
# Poissons Ratio (z) = 0.28731 0.39426
#
# Static dielectric constant tensor:
#      x y z
#    x 3.414750 0.000000 0.000000 
#    y 0.000000 3.004280 0.000000 
#    z 0.000000 0.000000 3.476150 
# 
# 
# High freq. dielectric constant tensor:
#      x y z
#    x 1.712340 0.000000 0.000000 
#    y 0.000000 1.654450 0.000000 
#    z 0.000000 0.000000 1.701180 
# 
# From -- ./inp_files/13368.got.cif
#   From: 2010.03.12/outbox.cif.g09.slc.cpg/sg24_7_cif.got.tgz:13368.got - 2010.04.14 03:06:53.
