data_PCOD8165749
_publ_section_title
;
Structure prediction by ZEFSAII (Michael W. Deem and Ramdas Pophale) SiO2 
 PCOD8165749
Probable space group: I 21 21 21
;
_chemical_formula_sum "Si O2"
_cell_formula_units_Z 36
_cell_length_a 19.070246
_cell_length_b 14.379714
_cell_length_c 5.203305
_cell_angle_alpha 90.000000
_cell_angle_beta 90.000000
_cell_angle_gamma 90.000000
_cell_volume 1426.874666
_symmetry_space_group_name_H-M "I 21 21 21"
_symmetry_group_IT_number 24
_symmetry_cell_setting 'orthorhombic'
loop_
_space_group_symop_operation_xyz
x,y,z
-x,1/2-y,z
x,-y,1/2-z
1/2-x,y,-z
1/2+x,1/2+y,1/2+z
1/2-x,-y,1/2+z
1/2+x,1/2-y,-z
-x,1/2+y,1/2-z
loop_
_atom_site_type_symbol
_atom_site_label
_atom_site_fract_x
_atom_site_fract_y
_atom_site_fract_z
Si Si1 0.296353 0.500000 0.250000
Si Si2 0.898318 0.851366 0.960845
Si Si3 0.905158 0.401913 0.990699
Si Si4 0.479141 0.500000 0.750000
Si Si5 0.500000 0.750000 0.378672
Si Si6 0.667499 0.347475 0.524035
O O1 0.250000 0.520808 0.500000
O O2 0.343632 0.409499 0.291640
O O3 0.860816 0.757157 0.050596
O O4 0.966899 0.830687 0.795730
O O5 0.927841 0.912538 0.198169
O O6 0.968149 0.477586 0.011679
O O7 0.849965 0.408917 0.224828
O O8 0.939973 0.299913 0.043813
O O9 0.866405 0.404378 0.715228
O O10 0.750000 0.342860 0.500000
#
# Coordination Sequence:
#
# PCOD8165749 Si02
#       6
#     4   8   8   4   4   8
#     4  12  27  44  64 100 141 180 218 268 342 414
#     4  11  24  42  70 100 138 177 224 285 340 404
#     4  11  24  42  70  99 135 175 224 284 337 399
#     4  12  23  44  72 108 139 174 228 292 358 398
#     4  10  22  42  66 100 134 178 230 280 340 400
#     4  11  25  46  69  98 133 183 230 271 329 411
#
# _framework density 25.229965
#
# number of rings (size 3 to 8) (size 9 to 14) (size 15 to 20)
#    0.000    0.889    0.000    7.333    0.000   12.444 
#    0.000    2.222    0.000    0.000    0.000    0.000 
#    0.000    0.000    0.000    0.000    0.000    0.000 
#
# Total GULP energy -223162.134016 kJ/mol
# GULP energy per Si atom -12397.896334 kJ/mol
# Density = 2.517254 g / cm^3
# Si number density = 25.229965 Si / 1000 Ang^3
#
#
#
# Elastic Constant Matrix: (Units=GPa)
#
#
# Indices 1 2 3 4 5 6 
#
# 1 153.0424 29.6743 49.0172 0.0000 0.0000 0.0000
# 2 29.6743 76.7295 -4.4928 0.0000 0.0000 0.0000
# 3 49.0172 -4.4928 124.3020 0.0000 0.0000 0.0000
# 4 0.0000 0.0000 0.0000 24.6244 0.0000 0.0000
# 5 0.0000 0.0000 0.0000 0.0000 55.8631 0.0000
# 6 0.0000 0.0000 0.0000 0.0000 0.0000 12.4646
#
#
#
# Elastic Compliance Matrix: (Units=1/GPa)
#
#
# Indices 1 2 3 4 5 6 
#
# 1 0.008278 -0.003400 -0.003387 0.000000 0.000000 0.000000
# 2 -0.003400 0.014457 0.001863 0.000000 0.000000 0.000000
# 3 -0.003387 0.001863 0.009448 0.000000 0.000000 0.000000
# 4 0.000000 0.000000 0.000000 0.040610 0.000000 0.000000
# 5 0.000000 0.000000 0.000000 0.000000 0.017901 0.000000
# 6 0.000000 0.000000 0.000000 0.000000 0.000000 0.080227
#
#
# Mechanical properties :
#
#
# Convention : Reuss Voigt Hill
#
# Bulk Modulus (GPa) = 44.77255 55.83016 50.30135
# Shear Modulus (GPa) = 26.56546 37.24876 31.90711
#
# Velocity S-wave (km/s) = 3.24841 3.84652 3.56005
# Velocity P-wave (km/s) = 5.64393 6.47335 6.07281
#
# Compressibility (1/GPa) = 0.02233512
#
# Stress axis : x y z
#
# Youngs Moduli (GPa) = 120.79813 69.17173 105.84218
#
# Poissons Ratio (x) = 0.23518 0.35852
# Poissons Ratio (y) = 0.41070 -0.19721
# Poissons Ratio (z) = 0.40918 -0.12888
#
# Static dielectric constant tensor:
#      x y z
#    x 4.717380 0.000000 0.000000 
#    y 0.000000 4.685230 0.000000 
#    z 0.000000 0.000000 4.465720 
# 
# 
# High freq. dielectric constant tensor:
#      x y z
#    x 2.015570 0.000000 0.000000 
#    y 0.000000 2.025960 0.000000 
#    z 0.000000 0.000000 2.001720 
# 
# From -- ./inp_files/5420.got.cif
#   From: 2010.03.12/outbox.cif.g09.slc.cpg/sg24_3_cif.got.tgz:5420.got - 2010.04.14 03:06:53.
