data_PCOD8165142
_publ_section_title
;
Structure prediction by ZEFSAII (Michael W. Deem and Ramdas Pophale) SiO2 
 PCOD8165142
Probable space group: I 21 21 21
;
_chemical_formula_sum "Si O2"
_cell_formula_units_Z 48
_cell_length_a 7.583647
_cell_length_b 7.972485
_cell_length_c 37.671248
_cell_angle_alpha 90.000000
_cell_angle_beta 90.000000
_cell_angle_gamma 90.000000
_cell_volume 2277.622940
_symmetry_space_group_name_H-M "I 21 21 21"
_symmetry_group_IT_number 24
_symmetry_cell_setting 'orthorhombic'
loop_
_space_group_symop_operation_xyz
x,y,z
-x,1/2-y,z
x,-y,1/2-z
1/2-x,y,-z
1/2+x,1/2+y,1/2+z
1/2-x,-y,1/2+z
1/2+x,1/2-y,-z
-x,1/2+y,1/2-z
loop_
_atom_site_type_symbol
_atom_site_label
_atom_site_fract_x
_atom_site_fract_y
_atom_site_fract_z
Si Si1 0.790593 0.065555 0.416291
Si Si2 0.500000 0.553245 0.209590
Si Si3 0.198497 0.944336 0.340873
Si Si4 0.709407 0.434445 0.583709
Si Si5 0.293113 0.750000 0.541032
Si Si6 0.801503 0.944336 0.340873
O O1 0.723476 0.250000 0.428984
O O2 0.000000 0.057016 0.417980
O O3 0.710538 0.918599 0.441257
O O4 0.730188 0.040645 0.375611
O O5 0.500000 0.750000 0.205292
O O6 0.500000 0.500000 0.250000
O O7 0.675882 0.479458 0.192143
O O8 0.324118 0.479458 0.192143
O O9 0.199732 0.750000 0.350820
O O10 0.000000 0.002451 0.330740
O O11 0.269812 0.040645 0.375611
O O12 0.789462 0.581401 0.558743
O O13 0.500000 0.750000 0.547689
O O14 0.250000 0.750000 0.500000
#
# Coordination Sequence:
#
# PCOD8165142 Si02
#       6
#     8   8   8   8   8   8
#     4   9  17  33  58  83 111 153 203 250 300 365
#     4  12  26  42  60  90 130 166 206 259 321 376
#     4  10  20  39  66  92 119 159 209 259 313 373
#     4   9  17  33  58  83 111 153 203 250 300 365
#     4  10  20  36  54  80 116 152 194 250 314 368
#     4  10  20  39  66  92 119 159 209 259 313 373
#
# _framework density 21.074603
#
# number of rings (size 3 to 8) (size 9 to 14) (size 15 to 20)
#    0.000    2.000    1.667    2.500    0.000    3.333 
#    3.000    0.000    0.000    0.000    0.000    0.000 
#    0.000    0.000    0.000    0.000    0.000    0.000 
#
# Total GULP energy -297565.803541 kJ/mol
# GULP energy per Si atom -12398.575148 kJ/mol
# Density = 2.102664 g / cm^3
# Si number density = 21.074603 Si / 1000 Ang^3
#
#
#
# Elastic Constant Matrix: (Units=GPa)
#
#
# Indices 1 2 3 4 5 6 
#
# 1 72.6771 25.5365 41.9646 0.0000 0.0000 0.0000
# 2 25.5365 164.6853 71.1071 0.0000 0.0000 0.0000
# 3 41.9646 71.1071 159.5373 0.0000 0.0000 0.0000
# 4 0.0000 0.0000 0.0000 32.7871 0.0000 0.0000
# 5 0.0000 0.0000 0.0000 0.0000 32.4993 0.0000
# 6 0.0000 0.0000 0.0000 0.0000 0.0000 15.1442
#
#
#
# Elastic Compliance Matrix: (Units=1/GPa)
#
#
# Indices 1 2 3 4 5 6 
#
# 1 0.016316 -0.000838 -0.003918 0.000000 0.000000 0.000000
# 2 -0.000838 0.007562 -0.003150 0.000000 0.000000 0.000000
# 3 -0.003918 -0.003150 0.008703 0.000000 0.000000 0.000000
# 4 0.000000 0.000000 0.000000 0.030500 0.000000 0.000000
# 5 0.000000 0.000000 0.000000 0.000000 0.030770 0.000000
# 6 0.000000 0.000000 0.000000 0.000000 0.000000 0.066032
#
#
# Mechanical properties :
#
#
# Convention : Reuss Voigt Hill
#
# Bulk Modulus (GPa) = 59.63609 74.90179 67.26894
# Shear Modulus (GPa) = 27.58078 33.30557 30.44318
#
# Velocity S-wave (km/s) = 3.62155 3.97969 3.80484
# Velocity P-wave (km/s) = 6.77101 7.53231 7.16178
#
# Compressibility (1/GPa) = 0.01676837
#
# Stress axis : x y z
#
# Youngs Moduli (GPa) = 61.28777 132.23493 114.90558
#
# Poissons Ratio (x) = 0.11085 0.45023
# Poissons Ratio (y) = 0.05138 0.36196
# Poissons Ratio (z) = 0.24014 0.41655
#
# Static dielectric constant tensor:
#      x y z
#    x 3.438250 0.000000 0.000000 
#    y 0.000000 4.294810 0.000000 
#    z 0.000000 0.000000 -5.029630 
# 
# 
# High freq. dielectric constant tensor:
#      x y z
#    x 1.806800 0.000000 0.000000 
#    y 0.000000 1.847130 0.000000 
#    z 0.000000 0.000000 1.812510 
# 
# From -- ./inp_files/38277.got.cif
#   From: 2010.03.12/outbox.cif.g09.slc.cpg/sg24_20_cif.got.tgz:38277.got - 2010.04.14 03:06:53.
