data_PCOD8165266
_publ_section_title
;
Structure prediction by ZEFSAII (Michael W. Deem and Ramdas Pophale) SiO2 
 PCOD8165266
Probable space group: I 21 21 21
;
_chemical_formula_sum "Si O2"
_cell_formula_units_Z 40
_cell_length_a 14.214745
_cell_length_b 14.395408
_cell_length_c 8.703785
_cell_angle_alpha 90.000000
_cell_angle_beta 90.000000
_cell_angle_gamma 90.000000
_cell_volume 1781.029882
_symmetry_space_group_name_H-M "I 21 21 21"
_symmetry_group_IT_number 24
_symmetry_cell_setting 'orthorhombic'
loop_
_space_group_symop_operation_xyz
x,y,z
-x,1/2-y,z
x,-y,1/2-z
1/2-x,y,-z
1/2+x,1/2+y,1/2+z
1/2-x,-y,1/2+z
1/2+x,1/2-y,-z
-x,1/2+y,1/2-z
loop_
_atom_site_type_symbol
_atom_site_label
_atom_site_fract_x
_atom_site_fract_y
_atom_site_fract_z
Si Si1 0.230611 0.731565 0.666908
Si Si2 0.992627 0.520203 0.082225
Si Si3 0.088090 0.652925 0.878339
Si Si4 0.347862 0.184860 0.583857
Si Si5 0.050537 0.161800 0.898104
O O1 0.250000 0.686158 0.500000
O O2 0.183455 0.652630 0.775984
O O3 0.324691 0.772010 0.747112
O O4 0.158933 0.817284 0.639970
O O5 0.034094 0.500000 0.250000
O O6 0.905775 0.590696 0.100387
O O7 0.954830 0.427363 0.004076
O O8 0.079548 0.561523 0.983937
O O9 0.997908 0.649734 0.767740
O O10 0.089020 0.743163 0.987931
O O11 0.250000 0.163202 0.500000
O O12 0.000000 0.250000 0.981636
#
# Coordination Sequence:
#
# PCOD8165266 Si02
#       5
#     8   8   8   8   8
#     4  10  20  38  65  93 124 160 200 252 311 362
#     4  12  24  36  61  95 125 162 207 251 297 365
#     4  10  22  41  62  88 125 165 200 245 307 369
#     4  10  21  39  63  93 127 159 198 252 313 363
#     4  10  22  42  65  89 122 166 206 250 305 361
#
# _framework density 22.458918000000001
#
# number of rings (size 3 to 8) (size 9 to 14) (size 15 to 20)
#    0.000    1.600    0.000    7.200    0.000    7.200 
#    0.000    0.000    0.000   68.400    0.000    0.000 
#    0.000    0.000    0.000    0.000    0.000    0.000 
#
# Total GULP energy -247931.531932 kJ/mol
# GULP energy per Si atom -12396.576597 kJ/mol
# Density = 2.240780 g / cm^3
# Si number density = 22.458918 Si / 1000 Ang^3
#
#
#
# Elastic Constant Matrix: (Units=GPa)
#
#
# Indices 1 2 3 4 5 6 
#
# 1 77.8290 34.8015 50.2110 0.0000 0.0000 0.0000
# 2 34.8015 80.6300 48.8295 0.0000 0.0000 0.0000
# 3 50.2110 48.8295 165.8870 0.0000 0.0000 0.0000
# 4 0.0000 0.0000 0.0000 23.1952 0.0000 0.0000
# 5 0.0000 0.0000 0.0000 0.0000 28.3309 0.0000
# 6 0.0000 0.0000 0.0000 0.0000 0.0000 17.8915
#
#
#
# Elastic Compliance Matrix: (Units=1/GPa)
#
#
# Indices 1 2 3 4 5 6 
#
# 1 0.017674 -0.005341 -0.003777 0.000000 0.000000 0.000000
# 2 -0.005341 0.016707 -0.003301 0.000000 0.000000 0.000000
# 3 -0.003777 -0.003301 0.008143 0.000000 0.000000 0.000000
# 4 0.000000 0.000000 0.000000 0.043112 0.000000 0.000000
# 5 0.000000 0.000000 0.000000 0.000000 0.035297 0.000000
# 6 0.000000 0.000000 0.000000 0.000000 0.000000 0.055892
#
#
# Mechanical properties :
#
#
# Convention : Reuss Voigt Hill
#
# Bulk Modulus (GPa) = 56.54485 65.78112 61.16298
# Shear Modulus (GPa) = 24.08948 26.58378 25.33663
#
# Velocity S-wave (km/s) = 3.27861 3.44417 3.36241
# Velocity P-wave (km/s) = 6.29000 6.72083 6.50898
#
# Compressibility (1/GPa) = 0.01768508
#
# Stress axis : x y z
#
# Youngs Moduli (GPa) = 56.58082 59.85641 122.80070
#
# Poissons Ratio (x) = 0.31968 0.46388
# Poissons Ratio (y) = 0.30218 0.40538
# Poissons Ratio (z) = 0.21373 0.19759
#
# Static dielectric constant tensor:
#      x y z
#    x 3.960120 0.000000 0.000000 
#    y 0.000000 3.988590 0.000000 
#    z 0.000000 0.000000 4.490330 
# 
# 
# High freq. dielectric constant tensor:
#      x y z
#    x 1.876410 0.000000 0.000000 
#    y 0.000000 1.858340 0.000000 
#    z 0.000000 0.000000 1.907080 
# 
# From -- ./inp_files/12292.got.cif
#   From: 2010.03.12/outbox.cif.g09.slc.cpg/sg24_7_cif.got.tgz:12292.got - 2010.04.14 03:06:53.
