data_PCOD8165973
_publ_section_title
;
Structure prediction by ZEFSAII (Michael W. Deem and Ramdas Pophale) SiO2 
 PCOD8165973
Probable space group: I 21 21 21
;
_chemical_formula_sum "Si O2"
_cell_formula_units_Z 60
_cell_length_a 15.792165
_cell_length_b 8.572402
_cell_length_c 22.107485
_cell_angle_alpha 90.000000
_cell_angle_beta 90.000000
_cell_angle_gamma 90.000000
_cell_volume 2992.840284
_symmetry_space_group_name_H-M "I 21 21 21"
_symmetry_group_IT_number 24
_symmetry_cell_setting 'orthorhombic'
loop_
_space_group_symop_operation_xyz
x,y,z
-x,1/2-y,z
x,-y,1/2-z
1/2-x,y,-z
1/2+x,1/2+y,1/2+z
1/2-x,-y,1/2+z
1/2+x,1/2-y,-z
-x,1/2+y,1/2-z
loop_
_atom_site_type_symbol
_atom_site_label
_atom_site_fract_x
_atom_site_fract_y
_atom_site_fract_z
Si Si1 0.154570 0.500000 0.750000
Si Si2 0.007336 0.069993 0.090683
Si Si3 0.812481 0.530304 0.348223
Si Si4 0.076373 0.361684 0.871069
Si Si5 0.686186 0.617763 0.444648
Si Si6 0.515775 0.568275 0.034034
Si Si7 0.706572 0.246643 0.741441
Si Si8 0.045191 0.593065 0.198219
O O1 0.102768 0.449263 0.809498
O O2 0.207239 0.347232 0.731622
O O3 0.097487 0.026870 0.119053
O O4 0.000000 0.250000 0.073632
O O5 0.938811 0.019134 0.140988
O O6 0.981926 0.972830 0.032195
O O7 0.740791 0.518042 0.398346
O O8 0.800391 0.379886 0.307836
O O9 0.799888 0.686600 0.309151
O O10 0.149051 0.268730 0.908847
O O11 0.000000 0.250000 0.851455
O O12 0.042047 0.491724 0.915735
O O13 0.750000 0.668207 0.500000
O O14 0.611887 0.499552 0.465387
O O15 0.500000 0.750000 0.044319
O O16 0.632120 0.125004 0.731859
O O17 0.989587 0.500000 0.250000
O O18 0.000000 0.750000 0.176614
#
# Coordination Sequence:
#
# PCOD8165973 Si02
#       8
#     4   8   8   8   8   8   8   8
#     4  12  24  46  72 100 130 170 232 282 342 390
#     4  12  24  39  66  93 137 184 223 264 331 403
#     4  11  23  42  64  96 134 181 218 271 344 388
#     4  10  25  49  70  99 131 171 223 277 339 403
#     4  11  22  45  73  95 134 177 223 272 337 401
#     4  11  26  46  68 100 132 171 223 280 330 405
#     4  11  24  40  63  96 138 171 219 282 327 393
#     4  12  22  37  57  91 135 179 224 266 317 392
#
# _framework density 20.047847000000001
#
# number of rings (size 3 to 8) (size 9 to 14) (size 15 to 20)
#    0.000    0.800    4.667    3.600    1.867    0.533 
#    2.400    0.667    0.000    0.000    0.000    0.000 
#    0.000    0.000    0.000    0.000    0.000    0.000 
#
# Total GULP energy -371846.071974 kJ/mol
# GULP energy per Si atom -12394.869066 kJ/mol
# Density = 2.000222 g / cm^3
# Si number density = 20.047847 Si / 1000 Ang^3
#
#
#
# Elastic Constant Matrix: (Units=GPa)
#
#
# Indices 1 2 3 4 5 6 
#
# 1 77.6544 40.7297 49.7600 0.0000 0.0000 0.0000
# 2 40.7297 119.9533 61.3106 0.0000 0.0000 0.0000
# 3 49.7600 61.3106 144.6105 0.0000 0.0000 0.0000
# 4 0.0000 0.0000 0.0000 40.3402 0.0000 0.0000
# 5 0.0000 0.0000 0.0000 0.0000 -5.9907 0.0000
# 6 0.0000 0.0000 0.0000 0.0000 0.0000 26.6761
#
#
#
# Elastic Compliance Matrix: (Units=1/GPa)
#
#
# Indices 1 2 3 4 5 6 
#
# 1 0.017721 -0.003703 -0.004528 0.000000 0.000000 0.000000
# 2 -0.003703 0.011417 -0.003566 0.000000 0.000000 0.000000
# 3 -0.004528 -0.003566 0.009985 0.000000 0.000000 0.000000
# 4 0.000000 0.000000 0.000000 0.024789 0.000000 0.000000
# 5 0.000000 0.000000 0.000000 0.000000 -0.166925 0.000000
# 6 0.000000 0.000000 0.000000 0.000000 0.000000 0.037487
#
#
# Mechanical properties :
#
#
# Convention : Reuss Voigt Hill
#
# Bulk Modulus (GPa) = 64.39547 71.75766 68.07656
# Shear Modulus (GPa) = -136.03027 24.89964 -55.56531
#
# Velocity S-wave (km/s) = -8.24622 3.52804 -5.27034
# Velocity P-wave (km/s) = 7.64697 7.24341 1.73338
#
# Compressibility (1/GPa) = 0.01552904
#
# Stress axis : x y z
#
# Youngs Moduli (GPa) = 56.42979 87.59167 100.14921
#
# Poissons Ratio (x) = 0.32434 0.45346
# Poissons Ratio (y) = 0.20895 0.35715
# Poissons Ratio (z) = 0.25551 0.31237
#
# Static dielectric constant tensor:
#      x y z
#    x 4.033010 0.000000 0.000000 
#    y 0.000000 3.803940 0.000000 
#    z 0.000000 0.000000 3.872920 
# 
# 
# High freq. dielectric constant tensor:
#      x y z
#    x 1.774160 0.000000 0.000000 
#    y 0.000000 1.793450 0.000000 
#    z 0.000000 0.000000 1.801050 
# 
# From -- ./inp_files/35836.got.cif
#   From: 2010.03.12/outbox.cif.g09.slc.cpg/sg24_18_cif.got.tgz:35836.got - 2010.04.14 03:06:53.
