data_PCOD8165319
_publ_section_title
;
Structure prediction by ZEFSAII (Michael W. Deem and Ramdas Pophale) SiO2 
 PCOD8165319
Probable space group: I 21 21 21
;
_chemical_formula_sum "Si O2"
_cell_formula_units_Z 52
_cell_length_a 8.627280
_cell_length_b 16.341783
_cell_length_c 19.391302
_cell_angle_alpha 90.000000
_cell_angle_beta 90.000000
_cell_angle_gamma 90.000000
_cell_volume 2733.885381
_symmetry_space_group_name_H-M "I 21 21 21"
_symmetry_group_IT_number 24
_symmetry_cell_setting 'orthorhombic'
loop_
_space_group_symop_operation_xyz
x,y,z
-x,1/2-y,z
x,-y,1/2-z
1/2-x,y,-z
1/2+x,1/2+y,1/2+z
1/2-x,-y,1/2+z
1/2+x,1/2-y,-z
-x,1/2+y,1/2-z
loop_
_atom_site_type_symbol
_atom_site_label
_atom_site_fract_x
_atom_site_fract_y
_atom_site_fract_z
Si Si1 0.252743 0.297068 0.796227
Si Si2 0.572994 0.355520 0.825868
Si Si3 0.921063 0.419849 0.632447
Si Si4 0.226918 0.000000 0.250000
Si Si5 0.652712 0.935488 0.399330
Si Si6 0.250000 0.964388 0.000000
Si Si7 0.000000 0.750000 0.812489
Si Si8 0.527774 0.072925 0.957511
O O1 0.425204 0.330855 0.777950
O O2 0.283648 0.207417 0.828638
O O3 0.161426 0.361898 0.844177
O O4 0.149206 0.278181 0.730555
O O5 0.623845 0.444321 0.800102
O O6 0.515992 0.354257 0.905442
O O7 0.825545 0.441318 0.700911
O O8 0.826130 0.413331 0.561430
O O9 0.059181 0.486498 0.629026
O O10 0.974264 0.327134 0.638772
O O11 0.566316 0.895573 0.465591
O O12 0.820641 0.969917 0.422871
O O13 0.119025 0.014646 0.039623
#
# Coordination Sequence:
#
# PCOD8165319 Si02
#       8
#     8   8   8   4   8   4   4   8
#     4  10  22  38  58  89 131 155 201 258 305 368
#     4  10  21  38  60  92 124 161 204 253 309 370
#     4  11  23  39  65  90 119 164 210 254 317 369
#     4  12  20  38  70  90 114 166 214 248 318 384
#     4   9  20  38  60  88 124 165 205 243 310 373
#     4  10  20  40  64  88 118 158 214 252 308 368
#     4  12  24  42  60  90 128 156 208 270 302 366
#     4   9  18  36  61  90 123 162 200 251 299 377
#
# _framework density 19.020548000000002
#
# number of rings (size 3 to 8) (size 9 to 14) (size 15 to 20)
#    0.000    1.846    3.077    0.923    0.000    2.462 
#    0.000   15.385    0.000    0.000    0.000    0.000 
#    0.000    0.000    0.000    0.000    0.000    0.000 
#
# Total GULP energy -322094.729263 kJ/mol
# GULP energy per Si atom -12388.258818 kJ/mol
# Density = 1.897726 g / cm^3
# Si number density = 19.020548 Si / 1000 Ang^3
#
#
#
# Elastic Constant Matrix: (Units=GPa)
#
#
# Indices 1 2 3 4 5 6 
#
# 1 97.6620 48.3072 46.7213 0.0000 0.0000 0.0000
# 2 48.3072 127.2925 52.2481 0.0000 0.0000 0.0000
# 3 46.7213 52.2481 89.3818 0.0000 0.0000 0.0000
# 4 0.0000 0.0000 0.0000 20.5017 0.0000 0.0000
# 5 0.0000 0.0000 0.0000 0.0000 24.1838 0.0000
# 6 0.0000 0.0000 0.0000 0.0000 0.0000 26.0519
#
#
#
# Elastic Compliance Matrix: (Units=1/GPa)
#
#
# Indices 1 2 3 4 5 6 
#
# 1 0.014560 -0.003160 -0.005764 0.000000 0.000000 0.000000
# 2 -0.003160 0.011021 -0.004791 0.000000 0.000000 0.000000
# 3 -0.005764 -0.004791 0.017001 0.000000 0.000000 0.000000
# 4 0.000000 0.000000 0.000000 0.048777 0.000000 0.000000
# 5 0.000000 0.000000 0.000000 0.000000 0.041350 0.000000
# 6 0.000000 0.000000 0.000000 0.000000 0.000000 0.038385
#
#
# Mechanical properties :
#
#
# Convention : Reuss Voigt Hill
#
# Bulk Modulus (GPa) = 65.98962 67.65437 66.82199
# Shear Modulus (GPa) = 24.56118 25.28480 24.92299
#
# Velocity S-wave (km/s) = 3.59736 3.64997 3.62376
# Velocity P-wave (km/s) = 7.21276 7.30817 7.26062
#
# Compressibility (1/GPa) = 0.01515390
#
# Stress axis : x y z
#
# Youngs Moduli (GPa) = 68.68361 90.73178 58.81918
#
# Poissons Ratio (x) = 0.28668 0.33901
# Poissons Ratio (y) = 0.21701 0.28180
# Poissons Ratio (z) = 0.39586 0.43470
#
# Static dielectric constant tensor:
#      x y z
#    x 3.797870 0.000000 0.000000 
#    y 0.000000 3.337780 0.000000 
#    z 0.000000 0.000000 3.506590 
# 
# 
# High freq. dielectric constant tensor:
#      x y z
#    x 1.758160 0.000000 0.000000 
#    y 0.000000 1.721580 0.000000 
#    z 0.000000 0.000000 1.738040 
# 
# From -- ./inp_files/29674.got.cif
#   From: 2010.03.12/outbox.cif.g09.slc.cpg/sg24_15_cif.got.tgz:29674.got - 2010.04.14 03:06:53.
