data_PCOD8165295
_publ_section_title
;
Structure prediction by ZEFSAII (Michael W. Deem and Ramdas Pophale) SiO2 
 PCOD8165295
Probable space group: I 21 21 21
;
_chemical_formula_sum "Si O2"
_cell_formula_units_Z 28
_cell_length_a 23.999513
_cell_length_b 5.145777
_cell_length_c 10.491223
_cell_angle_alpha 90.000000
_cell_angle_beta 90.000000
_cell_angle_gamma 90.000000
_cell_volume 1295.625565
_symmetry_space_group_name_H-M "I 21 21 21"
_symmetry_group_IT_number 24
_symmetry_cell_setting 'orthorhombic'
loop_
_space_group_symop_operation_xyz
x,y,z
-x,1/2-y,z
x,-y,1/2-z
1/2-x,y,-z
1/2+x,1/2+y,1/2+z
1/2-x,-y,1/2+z
1/2+x,1/2-y,-z
-x,1/2+y,1/2-z
loop_
_atom_site_type_symbol
_atom_site_label
_atom_site_fract_x
_atom_site_fract_y
_atom_site_fract_z
Si Si1 0.864924 0.500000 0.750000
Si Si2 0.682943 0.966686 0.608403
Si Si3 0.210543 0.500000 0.750000
Si Si4 0.877216 0.459480 0.475422
Si Si5 0.462962 0.000000 0.750000
O O1 0.825964 0.747445 0.750003
O O2 0.901504 0.499175 0.619668
O O3 0.656918 0.190251 0.520639
O O4 0.656115 0.000000 0.750000
O O5 0.750380 0.990072 0.622352
O O6 0.666514 0.685606 0.556039
O O7 0.927291 0.450469 0.376459
O O8 0.500000 0.750000 0.722611
#
# Coordination Sequence:
#
# PCOD8165295 Si02
#       5
#     4   8   4   8   4
#     4  12  26  37  60  91 136 165 196 245 312 366
#     4  10  20  39  63  88 127 167 214 253 270 337
#     4  10  22  39  56  97 120 185 212 237 278 348
#     4  12  23  43  62  93 126 159 198 260 316 348
#     4  12  24  44  72  92 106 150 212 256 308 384
#
# _framework density 21.611184999999999
#
# number of rings (size 3 to 8) (size 9 to 14) (size 15 to 20)
#    0.857    0.000    2.857    5.143    0.000    6.857 
#    0.000    1.429    0.000    0.000    0.000    0.000 
#    0.000    0.000    0.000    0.000    0.000    0.000 
#
# Total GULP energy -173566.683930 kJ/mol
# GULP energy per Si atom -12397.620281 kJ/mol
# Density = 2.156200 g / cm^3
# Si number density = 21.611185 Si / 1000 Ang^3
#
#
#
# Elastic Constant Matrix: (Units=GPa)
#
#
# Indices 1 2 3 4 5 6 
#
# 1 72.7855 25.5290 17.8421 0.0000 0.0000 0.0000
# 2 25.5290 131.6452 -18.9765 0.0000 0.0000 0.0000
# 3 17.8421 -18.9765 140.8946 0.0000 0.0000 0.0000
# 4 0.0000 0.0000 0.0000 16.0663 0.0000 0.0000
# 5 0.0000 0.0000 0.0000 0.0000 -1.8426 0.0000
# 6 0.0000 0.0000 0.0000 0.0000 0.0000 21.4201
#
#
#
# Elastic Compliance Matrix: (Units=1/GPa)
#
#
# Indices 1 2 3 4 5 6 
#
# 1 0.015508 -0.003356 -0.002416 0.000000 0.000000 0.000000
# 2 -0.003356 0.008473 0.001566 0.000000 0.000000 0.000000
# 3 -0.002416 0.001566 0.007614 0.000000 0.000000 0.000000
# 4 0.000000 0.000000 0.000000 0.062242 0.000000 0.000000
# 5 0.000000 0.000000 0.000000 0.000000 -0.542708 0.000000
# 6 0.000000 0.000000 0.000000 0.000000 0.000000 0.046685
#
#
# Mechanical properties :
#
#
# Convention : Reuss Voigt Hill
#
# Bulk Modulus (GPa) = 43.13235 43.79049 43.46142
# Shear Modulus (GPa) = -12.95180 28.52415 7.78617
#
# Velocity S-wave (km/s) = -2.45074 3.63696 1.90017
# Velocity P-wave (km/s) = 3.46317 6.15983 4.99685
#
# Compressibility (1/GPa) = 0.02318446
#
# Stress axis : x y z
#
# Youngs Moduli (GPa) = 64.48222 118.02678 131.33077
#
# Poissons Ratio (x) = 0.39605 0.31727
# Poissons Ratio (y) = 0.21638 -0.20568
# Poissons Ratio (z) = 0.15578 -0.18484
#
# Static dielectric constant tensor:
#      x y z
#    x 3.469270 0.000000 0.000000 
#    y 0.000000 3.942680 0.000000 
#    z 0.000000 0.000000 4.648480 
# 
# 
# High freq. dielectric constant tensor:
#      x y z
#    x 1.798370 0.000000 0.000000 
#    y 0.000000 1.870180 0.000000 
#    z 0.000000 0.000000 1.880260 
# 
# From -- ./inp_files/22396.got.cif
#   From: 2010.03.12/outbox.cif.g09.slc.cpg/sg24_12_cif.got.tgz:22396.got - 2010.04.14 03:06:53.
