data_PCOD8165349
_publ_section_title
;
Structure prediction by ZEFSAII (Michael W. Deem and Ramdas Pophale) SiO2 
 PCOD8165349
Probable space group: I 21 21 21
;
_chemical_formula_sum "Si O2"
_cell_formula_units_Z 56
_cell_length_a 14.325550
_cell_length_b 14.680738
_cell_length_c 12.319810
_cell_angle_alpha 90.000000
_cell_angle_beta 90.000000
_cell_angle_gamma 90.000000
_cell_volume 2590.974883
_symmetry_space_group_name_H-M "I 21 21 21"
_symmetry_group_IT_number 24
_symmetry_cell_setting 'orthorhombic'
loop_
_space_group_symop_operation_xyz
x,y,z
-x,1/2-y,z
x,-y,1/2-z
1/2-x,y,-z
1/2+x,1/2+y,1/2+z
1/2-x,-y,1/2+z
1/2+x,1/2-y,-z
-x,1/2+y,1/2-z
loop_
_atom_site_type_symbol
_atom_site_label
_atom_site_fract_x
_atom_site_fract_y
_atom_site_fract_z
Si Si1 0.000000 0.750000 0.247385
Si Si2 0.419088 0.072655 0.656543
Si Si3 0.262684 0.849963 0.226358
Si Si4 0.461420 0.533529 0.052936
Si Si5 0.096340 0.702488 0.832800
Si Si6 0.332519 0.716958 0.617567
Si Si7 0.404632 0.000000 0.250000
Si Si8 0.854236 0.857797 0.602478
O O1 0.954025 0.674854 0.172962
O O2 0.927281 0.806650 0.320632
O O3 0.306260 0.089210 0.649430
O O4 0.471535 0.037183 0.550761
O O5 0.441998 0.000000 0.750000
O O6 0.313477 0.768928 0.157609
O O7 0.206427 0.811354 0.330997
O O8 0.342122 0.912701 0.277651
O O9 0.395454 0.621099 0.078560
O O10 0.532278 0.523651 0.149748
O O11 0.390845 0.448797 0.044916
O O12 0.086194 0.665025 0.709197
O O13 0.000000 0.750000 0.863062
O O14 0.255750 0.636138 0.636227
O O15 0.356716 0.723698 0.488374
#
# Coordination Sequence:
#
# PCOD8165349 Si02
#       8
#     4   8   8   8   8   8   4   8
#     4  10  22  44  68  98 132 190 230 278 350 410
#     4  11  25  46  68 100 139 185 236 289 349 421
#     4  10  22  44  64  99 144 178 231 287 345 424
#     4  12  24  42  72  99 140 182 230 288 353 421
#     4  11  21  40  65  97 137 176 230 280 351 419
#     4   9  21  40  67  97 138 172 228 283 337 410
#     4  12  22  44  66 104 136 184 230 292 358 416
#     4  10  20  41  65 103 135 176 225 289 344 406
#
# _framework density 21.613486000000002
#
# number of rings (size 3 to 8) (size 9 to 14) (size 15 to 20)
#    0.000    1.429    3.571    0.857    2.000    0.571 
#   20.571   17.143    0.000    0.000    0.000    0.000 
#    0.000    0.000    0.000    0.000    0.000    0.000 
#
# Total GULP energy -346933.580796 kJ/mol
# GULP energy per Si atom -12390.485028 kJ/mol
# Density = 2.156429 g / cm^3
# Si number density = 21.613486 Si / 1000 Ang^3
#
#
#
# Elastic Constant Matrix: (Units=GPa)
#
#
# Indices 1 2 3 4 5 6 
#
# 1 92.3042 34.3592 32.2237 0.0000 0.0000 0.0000
# 2 34.3592 98.6543 32.2976 0.0000 0.0000 0.0000
# 3 32.2237 32.2976 98.5232 0.0000 0.0000 0.0000
# 4 0.0000 0.0000 0.0000 26.9149 0.0000 0.0000
# 5 0.0000 0.0000 0.0000 0.0000 24.2489 0.0000
# 6 0.0000 0.0000 0.0000 0.0000 0.0000 51.5918
#
#
#
# Elastic Compliance Matrix: (Units=1/GPa)
#
#
# Indices 1 2 3 4 5 6 
#
# 1 0.013274 -0.003587 -0.003166 0.000000 0.000000 0.000000
# 2 -0.003587 0.012324 -0.002867 0.000000 0.000000 0.000000
# 3 -0.003166 -0.002867 0.012125 0.000000 0.000000 0.000000
# 4 0.000000 0.000000 0.000000 0.037154 0.000000 0.000000
# 5 0.000000 0.000000 0.000000 0.000000 0.041239 0.000000
# 6 0.000000 0.000000 0.000000 0.000000 0.000000 0.019383
#
#
# Mechanical properties :
#
#
# Convention : Reuss Voigt Hill
#
# Bulk Modulus (GPa) = 54.09920 54.13809 54.11864
# Shear Modulus (GPa) = 31.07528 33.25788 32.16658
#
# Velocity S-wave (km/s) = 3.79591 3.92695 3.86199
# Velocity P-wave (km/s) = 6.65557 6.75751 6.70673
#
# Compressibility (1/GPa) = 0.01848456
#
# Stress axis : x y z
#
# Youngs Moduli (GPa) = 75.33519 81.14140 82.47318
#
# Poissons Ratio (x) = 0.29103 0.26109
# Poissons Ratio (y) = 0.27020 0.23645
# Poissons Ratio (z) = 0.23849 0.23263
#
# Static dielectric constant tensor:
#      x y z
#    x 4.395400 0.000000 0.000000 
#    y 0.000000 4.072990 0.000000 
#    z 0.000000 0.000000 3.508970 
# 
# 
# High freq. dielectric constant tensor:
#      x y z
#    x 1.863630 0.000000 0.000000 
#    y 0.000000 1.844780 0.000000 
#    z 0.000000 0.000000 1.829710 
# 
# From -- ./inp_files/20896.got.cif
#   From: 2010.03.12/outbox.cif.g09.slc.cpg/sg24_11_cif.got.tgz:20896.got - 2010.04.14 03:06:53.
