data_PCOD8165380
_publ_section_title
;
Structure prediction by ZEFSAII (Michael W. Deem and Ramdas Pophale) SiO2 
 PCOD8165380
Probable space group: I 21 21 21
;
_chemical_formula_sum "Si O2"
_cell_formula_units_Z 64
_cell_length_a 25.252075
_cell_length_b 16.720349
_cell_length_c 8.896517
_cell_angle_alpha 90.000000
_cell_angle_beta 90.000000
_cell_angle_gamma 90.000000
_cell_volume 3756.318608
_symmetry_space_group_name_H-M "I 21 21 21"
_symmetry_group_IT_number 24
_symmetry_cell_setting 'orthorhombic'
loop_
_space_group_symop_operation_xyz
x,y,z
-x,1/2-y,z
x,-y,1/2-z
1/2-x,y,-z
1/2+x,1/2+y,1/2+z
1/2-x,-y,1/2+z
1/2+x,1/2-y,-z
-x,1/2+y,1/2-z
loop_
_atom_site_type_symbol
_atom_site_label
_atom_site_fract_x
_atom_site_fract_y
_atom_site_fract_z
Si Si1 0.035596 0.683159 0.977630
Si Si2 0.875127 0.075684 0.944182
Si Si3 0.024567 0.907583 0.209045
Si Si4 0.542516 0.189366 0.950018
Si Si5 0.703908 0.202488 0.601510
Si Si6 0.217120 0.579815 0.346571
Si Si7 0.366183 0.602758 0.121465
Si Si8 0.102279 0.778266 0.217309
O O1 0.062244 0.729023 0.115326
O O2 0.000000 0.750000 0.892313
O O3 0.001511 0.608464 0.044516
O O4 0.080839 0.655390 0.864108
O O5 0.842088 0.097650 0.790781
O O6 0.886648 0.981766 0.940194
O O7 0.930008 0.125394 0.939176
O O8 0.843376 0.091985 0.098171
O O9 0.084605 0.871451 0.212027
O O10 0.989277 0.861314 0.328568
O O11 0.027372 0.000000 0.250000
O O12 0.500000 0.250000 0.029000
O O13 0.591693 0.241186 0.882225
O O14 0.750000 0.243584 0.500000
O O15 0.730289 0.155988 0.742076
O O16 0.675721 0.136786 0.496181
O O17 0.663181 0.269491 0.662083
O O18 0.225954 0.500000 0.250000
O O19 0.250000 0.575328 0.500000
#
# Coordination Sequence:
#
# PCOD8165380 Si02
#       8
#     8   8   8   8   8   8   8   8
#     4   8  15  28  44  64  94 128 161 199 232 282
#     4  11  21  32  45  68  97 132 163 204 235 286
#     4   9  15  25  48  73  98 123 161 200 247 289
#     4   9  17  30  46  68  99 132 163 198 240 286
#     4  11  20  35  51  66  93 130 163 206 245 288
#     4  12  24  34  50  69  96 129 169 204 244 288
#     4  10  21  31  45  67  98 128 169 195 240 287
#     4   8  16  29  44  70  94 122 160 202 241 289
#
# _framework density 17.037959000000001
#
# number of rings (size 3 to 8) (size 9 to 14) (size 15 to 20)
#    0.000    2.250    2.500    3.375    1.750    1.000 
#    0.000    0.000    0.000    0.000    0.000    0.875 
#    0.000    0.000    0.000    0.000    0.000    0.000 
#
# Total GULP energy -396418.884151 kJ/mol
# GULP energy per Si atom -12388.090130 kJ/mol
# Density = 1.699918 g / cm^3
# Si number density = 17.037959 Si / 1000 Ang^3
#
#
#
# Elastic Constant Matrix: (Units=GPa)
#
#
# Indices 1 2 3 4 5 6 
#
# 1 76.9758 30.3562 22.1903 0.0000 0.0000 0.0000
# 2 30.3562 58.4175 5.2546 0.0000 0.0000 0.0000
# 3 22.1903 5.2546 57.6716 0.0000 0.0000 0.0000
# 4 0.0000 0.0000 0.0000 14.5539 0.0000 0.0000
# 5 0.0000 0.0000 0.0000 0.0000 26.0597 0.0000
# 6 0.0000 0.0000 0.0000 0.0000 0.0000 20.5272
#
#
#
# Elastic Compliance Matrix: (Units=1/GPa)
#
#
# Indices 1 2 3 4 5 6 
#
# 1 0.018321 -0.008960 -0.006233 0.000000 0.000000 0.000000
# 2 -0.008960 0.021641 0.001476 0.000000 0.000000 0.000000
# 3 -0.006233 0.001476 0.019603 0.000000 0.000000 0.000000
# 4 0.000000 0.000000 0.000000 0.068710 0.000000 0.000000
# 5 0.000000 0.000000 0.000000 0.000000 0.038373 0.000000
# 6 0.000000 0.000000 0.000000 0.000000 0.000000 0.048716
#
#
# Mechanical properties :
#
#
# Convention : Reuss Voigt Hill
#
# Bulk Modulus (GPa) = 31.12210 34.29633 32.70922
# Shear Modulus (GPa) = 19.72301 21.24575 20.48438
#
# Velocity S-wave (km/s) = 3.40603 3.53507 3.47115
# Velocity P-wave (km/s) = 5.81155 6.06921 5.94178
#
# Compressibility (1/GPa) = 0.03213150
#
# Stress axis : x y z
#
# Youngs Moduli (GPa) = 54.58094 46.20776 51.01141
#
# Poissons Ratio (x) = 0.41402 0.31796
# Poissons Ratio (y) = 0.48904 -0.07528
# Poissons Ratio (z) = 0.34021 -0.06819
#
# Static dielectric constant tensor:
#      x y z
#    x 3.342240 0.000000 0.000000 
#    y 0.000000 3.187910 0.000000 
#    z 0.000000 0.000000 3.160830 
# 
# 
# High freq. dielectric constant tensor:
#      x y z
#    x 1.648580 0.000000 0.000000 
#    y 0.000000 1.624840 0.000000 
#    z 0.000000 0.000000 1.651880 
# 
# From -- ./inp_files/16107.got.cif
#   From: 2010.03.12/outbox.cif.g09.slc.cpg/sg24_9_cif.got.tgz:16107.got - 2010.04.14 03:06:53.
