data_PCOD8165887
_publ_section_title
;
Structure prediction by ZEFSAII (Michael W. Deem and Ramdas Pophale) SiO2 
 PCOD8165887
Probable space group: I 21 21 21
;
_chemical_formula_sum "Si O2"
_cell_formula_units_Z 48
_cell_length_a 5.184024
_cell_length_b 30.846992
_cell_length_c 14.146338
_cell_angle_alpha 90.000000
_cell_angle_beta 90.000000
_cell_angle_gamma 90.000000
_cell_volume 2262.162792
_symmetry_space_group_name_H-M "I 21 21 21"
_symmetry_group_IT_number 24
_symmetry_cell_setting 'orthorhombic'
loop_
_space_group_symop_operation_xyz
x,y,z
-x,1/2-y,z
x,-y,1/2-z
1/2-x,y,-z
1/2+x,1/2+y,1/2+z
1/2-x,-y,1/2+z
1/2+x,1/2-y,-z
-x,1/2+y,1/2-z
loop_
_atom_site_type_symbol
_atom_site_label
_atom_site_fract_x
_atom_site_fract_y
_atom_site_fract_z
Si Si1 0.512287 0.376903 0.559284
Si Si2 0.499407 0.301000 0.940737
Si Si3 0.496396 0.865350 0.725922
Si Si4 0.501206 0.414978 0.165267
Si Si5 0.750000 0.547399 0.500000
Si Si6 0.131412 0.500000 0.750000
Si Si7 0.550190 0.973468 0.917559
O O1 0.250000 0.371723 0.500000
O O2 0.470723 0.354545 0.662239
O O3 0.592614 0.427277 0.574401
O O4 0.750000 0.355575 0.500000
O O5 0.500000 0.250000 0.923157
O O6 0.492278 0.321823 0.836424
O O7 0.750000 0.315868 0.000000
O O8 0.250000 0.315857 0.000000
O O9 0.213287 0.885242 0.714390
O O10 0.715547 0.897627 0.686446
O O11 0.549535 0.419998 0.052221
O O12 0.544313 0.463886 0.201893
O O13 0.632240 0.515417 0.579178
O O14 0.307122 0.527832 0.819270
O O15 0.750000 0.980044 0.000000
#
# Coordination Sequence:
#
# PCOD8165887 Si02
#       7
#     8   8   8   8   4   4   8
#     4  11  24  42  63  86 121 169 224 268 317 366
#     4  10  23  46  76 105 136 170 203 251 330 424
#     4  12  26  44  66  98 129 169 215 278 330 387
#     4  12  28  39  62  89 132 171 223 275 328 378
#     4  12  26  38  58  84 122 174 228 278 336 378
#     4  12  24  44  56  84 122 176 230 272 324 378
#     4  11  23  41  56  76 117 165 229 272 318 374
#
# _framework density 21.218630999999998
#
# number of rings (size 3 to 8) (size 9 to 14) (size 15 to 20)
#    0.000    0.667    4.167    3.000    8.167    0.667 
#    0.000    0.000    0.000    1.000    0.000    0.000 
#    0.000    0.000    0.000    0.000    0.000    0.000 
#
# Total GULP energy -297520.837845 kJ/mol
# GULP energy per Si atom -12396.701577 kJ/mol
# Density = 2.117034 g / cm^3
# Si number density = 21.218631 Si / 1000 Ang^3
#
#
#
# Elastic Constant Matrix: (Units=GPa)
#
#
# Indices 1 2 3 4 5 6 
#
# 1 106.4095 24.3974 44.5620 0.0000 0.0000 0.0000
# 2 24.3974 56.5600 42.6142 -0.0001 0.0000 0.0000
# 3 44.5620 42.6142 163.7572 -0.0001 0.0000 0.0000
# 4 0.0000 -0.0001 -0.0001 43.4479 0.0000 0.0000
# 5 0.0000 0.0000 0.0000 0.0000 36.9405 0.0000
# 6 0.0000 0.0000 0.0000 0.0000 0.0000 13.8661
#
#
#
# Elastic Compliance Matrix: (Units=1/GPa)
#
#
# Indices 1 2 3 4 5 6 
#
# 1 0.011028 -0.003105 -0.002193 0.000000 0.000000 0.000000
# 2 -0.003105 0.022866 -0.005106 0.000000 0.000000 0.000000
# 3 -0.002193 -0.005106 0.008032 0.000000 0.000000 0.000000
# 4 0.000000 0.000000 0.000000 0.023016 0.000000 0.000000
# 5 0.000000 0.000000 0.000000 0.000000 0.027071 0.000000
# 6 0.000000 0.000000 0.000000 0.000000 0.000000 0.072118
#
#
# Mechanical properties :
#
#
# Convention : Reuss Voigt Hill
#
# Bulk Modulus (GPa) = 47.34928 61.09710 54.22319
# Shear Modulus (GPa) = 26.04473 33.19444 29.61959
#
# Velocity S-wave (km/s) = 3.50729 3.95954 3.74026
# Velocity P-wave (km/s) = 6.22614 7.05412 6.65302
#
# Compressibility (1/GPa) = 0.02111964
#
# Stress axis : x y z
#
# Youngs Moduli (GPa) = 90.67934 43.73251 124.50201
#
# Poissons Ratio (x) = 0.13577 0.27304
# Poissons Ratio (y) = 0.28152 0.63566
# Poissons Ratio (z) = 0.19886 0.22328
#
# Static dielectric constant tensor:
#      x y z
#    x 3.866340 0.000000 0.000000 
#    y 0.000000 3.497870 0.000000 
#    z 0.000000 0.000000 4.176930 
# 
# 
# High freq. dielectric constant tensor:
#      x y z
#    x 1.845480 0.000000 0.000000 
#    y 0.000000 1.785850 0.000000 
#    z 0.000000 0.000000 1.849850 
# 
# From -- ./inp_files/24039.got.cif
#   From: 2010.03.12/outbox.cif.g09.slc.cpg/sg24_13_cif.got.tgz:24039.got - 2010.04.14 03:06:53.
