data_PCOD8165950
_publ_section_title
;
Structure prediction by ZEFSAII (Michael W. Deem and Ramdas Pophale) SiO2 
 PCOD8165950
Probable space group: I 21 21 21
;
_chemical_formula_sum "Si O2"
_cell_formula_units_Z 56
_cell_length_a 14.559153
_cell_length_b 16.537937
_cell_length_c 10.797451
_cell_angle_alpha 90.000000
_cell_angle_beta 90.000000
_cell_angle_gamma 90.000000
_cell_volume 2599.792491
_symmetry_space_group_name_H-M "I 21 21 21"
_symmetry_group_IT_number 24
_symmetry_cell_setting 'orthorhombic'
loop_
_space_group_symop_operation_xyz
x,y,z
-x,1/2-y,z
x,-y,1/2-z
1/2-x,y,-z
1/2+x,1/2+y,1/2+z
1/2-x,-y,1/2+z
1/2+x,1/2-y,-z
-x,1/2+y,1/2-z
loop_
_atom_site_type_symbol
_atom_site_label
_atom_site_fract_x
_atom_site_fract_y
_atom_site_fract_z
Si Si1 0.006645 0.051098 0.140437
Si Si2 0.344617 0.941979 0.436778
Si Si3 0.650833 0.622985 0.030842
Si Si4 0.198698 0.540051 0.376142
Si Si5 0.094384 0.795141 0.735524
Si Si6 0.430639 0.185565 0.709385
Si Si7 0.269526 0.272398 0.860605
O O1 0.004193 0.142919 0.189208
O O2 0.907158 0.014539 0.107461
O O3 0.053439 0.000000 0.250000
O O4 0.069204 0.048391 0.023411
O O5 0.250000 0.910659 0.500000
O O6 0.378346 0.878655 0.334372
O O7 0.331535 0.036442 0.398835
O O8 0.592851 0.681683 0.120296
O O9 0.750000 0.661609 0.000000
O O10 0.597888 0.622829 0.899280
O O11 0.239791 0.500000 0.250000
O O12 0.250000 0.508887 0.500000
O O13 0.199507 0.635752 0.365121
O O14 0.173251 0.729712 0.711593
O O15 0.000000 0.750000 0.695669
O O16 0.500000 0.250000 0.648844
O O17 0.342790 0.219060 0.785032
O O18 0.250000 0.239198 0.000000
#
# Coordination Sequence:
#
# PCOD8165950 Si02
#       7
#     8   8   8   8   8   8   8
#     4  11  22  41  68  98 128 171 225 269 331 408
#     4  11  25  42  70 100 135 178 224 286 348 413
#     4  11  24  45  68  96 140 181 223 284 347 419
#     4  10  24  47  69  99 134 180 233 279 335 402
#     4  12  26  44  64 102 140 177 225 280 351 410
#     4  12  22  41  70 100 131 171 225 280 340 399
#     4  11  24  43  67  98 132 175 225 275 340 407
#
# _framework density 21.540178999999998
#
# number of rings (size 3 to 8) (size 9 to 14) (size 15 to 20)
#    0.000    0.857    4.286    3.000    4.000    1.143 
#    5.143    0.000    0.000    0.000    0.000    0.000 
#    0.000    0.000    0.000    0.000    0.000    0.000 
#
# Total GULP energy -346907.926456 kJ/mol
# GULP energy per Si atom -12389.568802 kJ/mol
# Density = 2.149115 g / cm^3
# Si number density = 21.540179 Si / 1000 Ang^3
#
#
#
# Elastic Constant Matrix: (Units=GPa)
#
#
# Indices 1 2 3 4 5 6 
#
# 1 111.0637 15.9785 46.9673 0.0000 0.0000 0.0000
# 2 15.9785 57.5014 24.4517 0.0000 0.0000 0.0000
# 3 46.9673 24.4517 115.2784 0.0000 0.0000 0.0000
# 4 0.0000 0.0000 0.0000 18.3121 0.0000 0.0000
# 5 0.0000 0.0000 0.0000 0.0000 36.0118 0.0000
# 6 0.0000 0.0000 0.0000 0.0000 0.0000 25.7551
#
#
#
# Elastic Compliance Matrix: (Units=1/GPa)
#
#
# Indices 1 2 3 4 5 6 
#
# 1 0.010961 -0.001260 -0.004198 0.000000 0.000000 0.000000
# 2 -0.001260 0.019260 -0.003572 0.000000 0.000000 0.000000
# 3 -0.004198 -0.003572 0.011143 0.000000 0.000000 0.000000
# 4 0.000000 0.000000 0.000000 0.054609 0.000000 0.000000
# 5 0.000000 0.000000 0.000000 0.000000 0.027769 0.000000
# 6 0.000000 0.000000 0.000000 0.000000 0.000000 0.038827
#
#
# Mechanical properties :
#
#
# Convention : Reuss Voigt Hill
#
# Bulk Modulus (GPa) = 42.91395 50.95981 46.93688
# Shear Modulus (GPa) = 26.53981 29.11220 27.82601
#
# Velocity S-wave (km/s) = 3.51395 3.68030 3.59809
# Velocity P-wave (km/s) = 6.03571 6.46289 6.25295
#
# Compressibility (1/GPa) = 0.02330244
#
# Stress axis : x y z
#
# Youngs Moduli (GPa) = 91.23617 51.92119 89.74478
#
# Poissons Ratio (x) = 0.06545 0.37677
# Poissons Ratio (y) = 0.11500 0.32054
# Poissons Ratio (z) = 0.38303 0.18545
#
# Static dielectric constant tensor:
#      x y z
#    x 4.033370 0.000000 0.000000 
#    y 0.000000 4.765030 0.000000 
#    z 0.000000 0.000000 4.125460 
# 
# 
# High freq. dielectric constant tensor:
#      x y z
#    x 1.847920 0.000000 0.000000 
#    y 0.000000 1.849830 0.000000 
#    z 0.000000 0.000000 1.845090 
# 
# From -- ./inp_files/20863.got.cif
#   From: 2010.03.12/outbox.cif.g09.slc.cpg/sg24_11_cif.got.tgz:20863.got - 2010.04.14 03:06:53.
