data_PCOD8165154
_publ_section_title
;
Structure prediction by ZEFSAII (Michael W. Deem and Ramdas Pophale) SiO2 
 PCOD8165154
Probable space group: I 21 21 21
;
_chemical_formula_sum "Si O2"
_cell_formula_units_Z 52
_cell_length_a 26.817789
_cell_length_b 5.018142
_cell_length_c 19.654336
_cell_angle_alpha 90.000000
_cell_angle_beta 90.000000
_cell_angle_gamma 90.000000
_cell_volume 2644.991570
_symmetry_space_group_name_H-M "I 21 21 21"
_symmetry_group_IT_number 24
_symmetry_cell_setting 'orthorhombic'
loop_
_space_group_symop_operation_xyz
x,y,z
-x,1/2-y,z
x,-y,1/2-z
1/2-x,y,-z
1/2+x,1/2+y,1/2+z
1/2-x,-y,1/2+z
1/2+x,1/2-y,-z
-x,1/2+y,1/2-z
loop_
_atom_site_type_symbol
_atom_site_label
_atom_site_fract_x
_atom_site_fract_y
_atom_site_fract_z
Si Si1 0.443191 0.252941 0.202425
Si Si2 0.303189 0.382238 0.977043
Si Si3 0.848421 0.136939 0.882555
Si Si4 0.106701 0.747731 0.202129
Si Si5 0.306020 0.119892 0.609155
Si Si6 0.296931 0.117391 0.323994
Si Si7 0.500000 0.750000 0.796454
O O1 0.500000 0.250000 0.173647
O O2 0.435215 0.500000 0.250000
O O3 0.405134 0.290537 0.139443
O O4 0.430876 0.000000 0.250000
O O5 0.291577 0.677289 0.950210
O O6 0.320423 0.172867 0.919178
O O7 0.250000 0.264472 0.000000
O O8 0.344367 0.422708 0.036926
O O9 0.816787 0.405877 0.877759
O O10 0.824100 0.901972 0.836360
O O11 0.117743 0.500000 0.250000
O O12 0.144991 0.755608 0.141412
O O13 0.052390 0.718787 0.163736
O O14 0.112282 0.000000 0.250000
O O15 0.262441 0.128503 0.665797
O O16 0.310219 0.000000 0.250000
O O17 0.509668 0.500000 0.750000
#
# Coordination Sequence:
#
# PCOD8165154 Si02
#       7
#     8   8   8   8   8   8   4
#     4  10  21  39  62  88 115 145 187 243 302 349
#     4  12  23  41  58  79 112 165 199 226 272 342
#     4  12  23  38  60  82 116 153 194 232 280 352
#     4  10  20  36  58  86 116 146 184 236 295 338
#     4  12  23  38  58  83 116 155 194 237 279 342
#     4  12  23  35  56  87 117 145 182 239 292 341
#     4   8  16  32  56  80 108 146 178 218 278 346
#
# _framework density 19.659799
#
# number of rings (size 3 to 8) (size 9 to 14) (size 15 to 20)
#    0.000    0.923    3.077    5.538    0.000    1.231 
#    0.000    0.000    3.385    0.000    0.000    0.000 
#    0.000    0.000    0.000    0.000    0.000    0.000 
#
# Total GULP energy -322231.743047 kJ/mol
# GULP energy per Si atom -12393.528579 kJ/mol
# Density = 1.961505 g / cm^3
# Si number density = 19.659799 Si / 1000 Ang^3
#
#
#
# Elastic Constant Matrix: (Units=GPa)
#
#
# Indices 1 2 3 4 5 6 
#
# 1 133.6985 21.9042 40.2905 0.0000 0.0000 0.0000
# 2 21.9042 112.6401 18.4359 0.0000 0.0000 0.0000
# 3 40.2905 18.4359 60.5660 0.0000 0.0000 0.0000
# 4 0.0000 0.0000 0.0000 27.7488 0.0000 0.0000
# 5 0.0000 0.0000 0.0000 0.0000 22.9333 0.0000
# 6 0.0000 0.0000 0.0000 0.0000 0.0000 25.3137
#
#
#
# Elastic Compliance Matrix: (Units=1/GPa)
#
#
# Indices 1 2 3 4 5 6 
#
# 1 0.009432 -0.000849 -0.006016 0.000000 0.000000 0.000000
# 2 -0.000849 0.009420 -0.002302 0.000000 0.000000 0.000000
# 3 -0.006016 -0.002302 0.021213 0.000000 0.000000 0.000000
# 4 0.000000 0.000000 0.000000 0.036038 0.000000 0.000000
# 5 0.000000 0.000000 0.000000 0.000000 0.043605 0.000000
# 6 0.000000 0.000000 0.000000 0.000000 0.000000 0.039504
#
#
# Mechanical properties :
#
#
# Convention : Reuss Voigt Hill
#
# Bulk Modulus (GPa) = 46.01886 52.01842 49.01864
# Shear Modulus (GPa) = 27.05782 30.28408 28.67095
#
# Velocity S-wave (km/s) = 3.71388 3.92906 3.82298
# Velocity P-wave (km/s) = 6.46908 6.86295 6.66892
#
# Compressibility (1/GPa) = 0.02173022
#
# Stress axis : x y z
#
# Youngs Moduli (GPa) = 106.02762 106.15901 47.13986
#
# Poissons Ratio (x) = 0.09018 0.28357
# Poissons Ratio (y) = 0.09007 0.10853
# Poissons Ratio (z) = 0.63782 0.24440
#
# Static dielectric constant tensor:
#      x y z
#    x 4.250230 0.000000 0.000000 
#    y 0.000000 3.770350 0.000000 
#    z 0.000000 0.000000 3.291490 
# 
# 
# High freq. dielectric constant tensor:
#      x y z
#    x 1.770160 0.000000 0.000000 
#    y 0.000000 1.794510 0.000000 
#    z 0.000000 0.000000 1.733950 
# 
# From -- ./inp_files/31646.got.cif
#   From: 2010.03.12/outbox.cif.g09.slc.cpg/sg24_16_cif.got.tgz:31646.got - 2010.04.14 03:06:53.
