data_PCOD8165600
_publ_section_title
;
Structure prediction by ZEFSAII (Michael W. Deem and Ramdas Pophale) SiO2 
 PCOD8165600
Probable space group: I 21 21 21
;
_chemical_formula_sum "Si O2"
_cell_formula_units_Z 36
_cell_length_a 11.399578
_cell_length_b 12.226352
_cell_length_c 11.502664
_cell_angle_alpha 90.000000
_cell_angle_beta 90.000000
_cell_angle_gamma 90.000000
_cell_volume 1603.186708
_symmetry_space_group_name_H-M "I 21 21 21"
_symmetry_group_IT_number 24
_symmetry_cell_setting 'orthorhombic'
loop_
_space_group_symop_operation_xyz
x,y,z
-x,1/2-y,z
x,-y,1/2-z
1/2-x,y,-z
1/2+x,1/2+y,1/2+z
1/2-x,-y,1/2+z
1/2+x,1/2-y,-z
-x,1/2+y,1/2-z
loop_
_atom_site_type_symbol
_atom_site_label
_atom_site_fract_x
_atom_site_fract_y
_atom_site_fract_z
Si Si1 0.500000 0.750000 0.078681
Si Si2 0.500000 0.750000 0.465989
Si Si3 0.658393 0.000000 0.750000
Si Si4 0.334968 0.304863 0.217426
Si Si5 0.950321 0.416203 0.381850
Si Si6 0.152305 0.137337 0.154331
O O1 0.393405 0.704091 0.155612
O O2 0.448521 0.847332 0.999503
O O3 0.433223 0.664827 0.379110
O O4 0.597415 0.693642 0.542821
O O5 0.736116 0.103612 0.782740
O O6 0.577011 0.025507 0.637456
O O7 0.280581 0.187136 0.179790
O O8 0.926035 0.339261 0.269844
O O9 0.846619 0.507964 0.378895
#
# Coordination Sequence:
#
# PCOD8165600 Si02
#       6
#     4   4   4   8   8   8
#     4  11  25  46  68 104 143 175 230 300 340 423
#     4  11  23  42  66  94 135 181 224 292 332 429
#     4  10  22  42  70  96 136 180 232 278 346 422
#     4  11  25  43  67 104 138 176 232 290 353 408
#     4  10  23  43  69 100 135 181 229 284 345 419
#     4  10  21  43  65  97 136 181 226 279 345 413
#
# _framework density 22.455276000000001
#
# number of rings (size 3 to 8) (size 9 to 14) (size 15 to 20)
#    0.000    1.778    0.000    5.333    3.111    3.556 
#   20.000    0.000    0.000    0.000    0.000    0.000 
#    0.000    0.000    0.000    0.000    0.000    0.000 
#
# Total GULP energy -223114.126605 kJ/mol
# GULP energy per Si atom -12395.229256 kJ/mol
# Density = 2.240417 g / cm^3
# Si number density = 22.455276 Si / 1000 Ang^3
#
#
#
# Elastic Constant Matrix: (Units=GPa)
#
#
# Indices 1 2 3 4 5 6 
#
# 1 71.9370 19.3161 32.1516 0.0000 0.0000 0.0000
# 2 19.3161 79.3719 35.2206 0.0000 0.0000 0.0000
# 3 32.1516 35.2206 161.2111 0.0000 0.0000 0.0000
# 4 0.0000 0.0000 0.0000 -11.5035 0.0000 0.0000
# 5 0.0000 0.0000 0.0000 0.0000 26.1631 0.0000
# 6 0.0000 0.0000 0.0000 0.0000 0.0000 35.5090
#
#
#
# Elastic Compliance Matrix: (Units=1/GPa)
#
#
# Indices 1 2 3 4 5 6 
#
# 1 0.015769 -0.002704 -0.002554 0.000000 0.000000 0.000000
# 2 -0.002704 0.014415 -0.002610 0.000000 0.000000 0.000000
# 3 -0.002554 -0.002610 0.007283 0.000000 0.000000 0.000000
# 4 0.000000 0.000000 0.000000 -0.086930 0.000000 0.000000
# 5 0.000000 0.000000 0.000000 0.000000 0.038222 0.000000
# 6 0.000000 0.000000 0.000000 0.000000 0.000000 0.028162
#
#
# Mechanical properties :
#
#
# Convention : Reuss Voigt Hill
#
# Bulk Modulus (GPa) = 46.01939 53.98852 50.00395
# Shear Modulus (GPa) = 125.31271 25.08916 75.20094
#
# Velocity S-wave (km/s) = 7.47841 3.34622 5.79326
# Velocity P-wave (km/s) = 9.75229 6.24696 8.18937
#
# Compressibility (1/GPa) = 0.02172997
#
# Stress axis : x y z
#
# Youngs Moduli (GPa) = 63.41687 69.37123 137.31240
#
# Poissons Ratio (x) = 0.18759 0.35071
# Poissons Ratio (y) = 0.17149 0.35839
# Poissons Ratio (z) = 0.16197 0.18106
#
# Static dielectric constant tensor:
#      x y z
#    x 4.008150 0.000000 0.000000 
#    y 0.000000 4.035450 0.000000 
#    z 0.000000 0.000000 4.155350 
# 
# 
# High freq. dielectric constant tensor:
#      x y z
#    x 1.881690 0.000000 0.000000 
#    y 0.000000 1.870740 0.000000 
#    z 0.000000 0.000000 1.897800 
# 
# From -- ./inp_files/19256.got.cif
#   From: 2010.03.12/outbox.cif.g09.slc.cpg/sg24_10_cif.got.tgz:19256.got - 2010.04.14 03:06:53.
