data_PCOD8165566
_publ_section_title
;
Structure prediction by ZEFSAII (Michael W. Deem and Ramdas Pophale) SiO2 
 PCOD8165566
Probable space group: I 21 21 21
;
_chemical_formula_sum "Si O2"
_cell_formula_units_Z 56
_cell_length_a 11.309080
_cell_length_b 14.799770
_cell_length_c 13.717538
_cell_angle_alpha 90.000000
_cell_angle_beta 90.000000
_cell_angle_gamma 90.000000
_cell_volume 2295.928792
_symmetry_space_group_name_H-M "I 21 21 21"
_symmetry_group_IT_number 24
_symmetry_cell_setting 'orthorhombic'
loop_
_space_group_symop_operation_xyz
x,y,z
-x,1/2-y,z
x,-y,1/2-z
1/2-x,y,-z
1/2+x,1/2+y,1/2+z
1/2-x,-y,1/2+z
1/2+x,1/2-y,-z
-x,1/2+y,1/2-z
loop_
_atom_site_type_symbol
_atom_site_label
_atom_site_fract_x
_atom_site_fract_y
_atom_site_fract_z
Si Si1 0.753054 0.571499 0.886194
Si Si2 0.489715 0.148112 0.619156
Si Si3 0.419831 0.339143 0.827954
Si Si4 0.457162 0.477624 0.997920
Si Si5 0.815346 0.923617 0.679268
Si Si6 0.452733 0.158243 0.264940
Si Si7 0.180362 0.886667 0.588415
O O1 0.643425 0.627209 0.843517
O O2 0.877375 0.604830 0.843286
O O3 0.735178 0.463633 0.862422
O O4 0.750000 0.591436 0.000000
O O5 0.500000 0.250000 0.578457
O O6 0.564896 0.135323 0.716210
O O7 0.538246 0.082210 0.534648
O O8 0.500000 0.250000 0.854987
O O9 0.274740 0.337774 0.835388
O O10 0.454465 0.417677 0.901190
O O11 0.347142 0.462062 0.071226
O O12 0.579214 0.452583 0.048522
O O13 0.935481 0.899420 0.734254
O O14 0.756409 0.000000 0.750000
O O15 0.500000 0.250000 0.311967
O O16 0.371930 0.181687 0.168371
O O17 0.250000 0.834886 0.500000
#
# Coordination Sequence:
#
# PCOD8165566 Si02
#       7
#     8   8   8   8   8   8   8
#     4  11  23  46  71 105 144 193 250 307 379 455
#     4  11  25  44  74 112 151 197 259 307 385 457
#     4  11  27  46  73 108 149 197 256 313 378 461
#     4  11  22  45  76 110 148 203 249 309 386 456
#     4  11  25  49  74 106 153 202 256 310 393 457
#     4  11  26  41  72 110 151 195 245 320 386 446
#     4  10  21  41  70 106 141 192 249 298 376 451
#
# _framework density 24.390999999999998
#
# number of rings (size 3 to 8) (size 9 to 14) (size 15 to 20)
#    0.000    1.143    2.857    3.857    6.000    4.000 
#    0.000    0.000    0.000    0.000    0.000    0.000 
#    0.000    0.000    0.000    0.000    0.000    0.000 
#
# Total GULP energy -346908.698404 kJ/mol
# GULP energy per Si atom -12389.596372 kJ/mol
# Density = 2.433548 g / cm^3
# Si number density = 24.391000 Si / 1000 Ang^3
#
#
#
# Elastic Constant Matrix: (Units=GPa)
#
#
# Indices 1 2 3 4 5 6 
#
# 1 139.5483 45.7352 36.4808 0.0000 0.0000 0.0000
# 2 45.7352 81.0647 30.2468 0.0001 0.0000 0.0000
# 3 36.4808 30.2468 84.9118 0.0001 0.0000 0.0000
# 4 0.0000 0.0001 0.0001 23.4112 0.0000 0.0000
# 5 0.0000 0.0000 0.0000 0.0000 45.5904 0.0000
# 6 0.0000 0.0000 0.0000 0.0000 0.0000 42.6444
#
#
#
# Elastic Compliance Matrix: (Units=1/GPa)
#
#
# Indices 1 2 3 4 5 6 
#
# 1 0.009206 -0.004288 -0.002428 0.000000 0.000000 0.000000
# 2 -0.004288 0.016224 -0.003937 0.000000 0.000000 0.000000
# 3 -0.002428 -0.003937 0.014222 0.000000 0.000000 0.000000
# 4 0.000000 0.000000 0.000000 0.042715 0.000000 0.000000
# 5 0.000000 0.000000 0.000000 0.000000 0.021934 0.000000
# 6 0.000000 0.000000 0.000000 0.000000 0.000000 0.023450
#
#
# Mechanical properties :
#
#
# Convention : Reuss Voigt Hill
#
# Bulk Modulus (GPa) = 54.50500 58.93893 56.72197
# Shear Modulus (GPa) = 32.22229 35.20001 33.71115
#
# Velocity S-wave (km/s) = 3.63860 3.80301 3.72171
# Velocity P-wave (km/s) = 6.32830 6.59549 6.46328
#
# Compressibility (1/GPa) = 0.01834694
#
# Stress axis : x y z
#
# Youngs Moduli (GPa) = 108.62516 61.63710 70.31188
#
# Poissons Ratio (x) = 0.26430 0.17070
# Poissons Ratio (y) = 0.46579 0.27681
# Poissons Ratio (z) = 0.26371 0.24266
#
# Static dielectric constant tensor:
#      x y z
#    x 5.254220 0.000000 0.000000 
#    y 0.000000 3.738580 0.000000 
#    z 0.000000 0.000000 4.464320 
# 
# 
# High freq. dielectric constant tensor:
#      x y z
#    x 1.983600 0.000000 0.000000 
#    y 0.000000 1.948890 0.000000 
#    z 0.000000 0.000000 1.977380 
# 
# From -- ./inp_files/25833.got.cif
#   From: 2010.03.12/outbox.cif.g09.slc.cpg/sg24_13_cif.got.tgz:25833.got - 2010.04.14 03:06:53.
