data_PCOD8165107
_publ_section_title
;
Structure prediction by ZEFSAII (Michael W. Deem and Ramdas Pophale) SiO2 
 PCOD8165107
Probable space group: I 21 21 21
;
_chemical_formula_sum "Si O2"
_cell_formula_units_Z 40
_cell_length_a 10.036480
_cell_length_b 26.213056
_cell_length_c 7.330535
_cell_angle_alpha 90.000000
_cell_angle_beta 90.000000
_cell_angle_gamma 90.000000
_cell_volume 1928.567085
_symmetry_space_group_name_H-M "I 21 21 21"
_symmetry_group_IT_number 24
_symmetry_cell_setting 'orthorhombic'
loop_
_space_group_symop_operation_xyz
x,y,z
-x,1/2-y,z
x,-y,1/2-z
1/2-x,y,-z
1/2+x,1/2+y,1/2+z
1/2-x,-y,1/2+z
1/2+x,1/2-y,-z
-x,1/2+y,1/2-z
loop_
_atom_site_type_symbol
_atom_site_label
_atom_site_fract_x
_atom_site_fract_y
_atom_site_fract_z
Si Si1 0.752480 0.056849 0.710046
Si Si2 0.587739 0.799846 0.493954
Si Si3 0.512479 0.124064 0.296262
Si Si4 0.997013 0.885808 0.231273
Si Si5 0.761244 0.439699 0.711761
O O1 0.750000 0.068121 0.500000
O O2 0.863562 0.093665 0.790901
O O3 0.608116 0.070300 0.787647
O O4 0.795541 0.000000 0.750000
O O5 0.500000 0.750000 0.528010
O O6 0.750000 0.790785 0.500000
O O7 0.532838 0.821028 0.298860
O O8 0.541733 0.835677 0.659486
O O9 0.506147 0.128822 0.515723
O O10 0.387630 0.092117 0.217865
O O11 0.133925 0.911577 0.299610
O O12 0.770890 0.500000 0.750000
O O13 0.750000 0.432189 0.500000
#
# Coordination Sequence:
#
# PCOD8165107 Si02
#       5
#     8   8   8   8   8
#     4  10  20  34  60  91 127 170 210 252 317 386
#     4  12  28  46  72  98 122 172 228 282 345 384
#     4  10  23  43  63  94 136 170 214 271 323 395
#     4  10  23  43  63  94 136 170 214 271 323 395
#     4  10  22  38  62  99 137 182 218 256 323 388
#
# _framework density 20.740787000000001
#
# number of rings (size 3 to 8) (size 9 to 14) (size 15 to 20)
#    0.000    1.600    2.000    1.200    8.400    0.800 
#    0.000    0.000    0.000    0.000    0.000    0.000 
#    0.000    0.000    0.000    0.000    0.000    0.000 
#
# Total GULP energy -247779.448323 kJ/mol
# GULP energy per Si atom -12388.972416 kJ/mol
# Density = 2.069358 g / cm^3
# Si number density = 20.740787 Si / 1000 Ang^3
#
#
#
# Elastic Constant Matrix: (Units=GPa)
#
#
# Indices 1 2 3 4 5 6 
#
# 1 166.3160 47.2883 17.1133 0.0017 0.0001 0.0000
# 2 47.2883 112.3878 14.9450 0.0027 0.0006 -0.0005
# 3 17.1133 14.9450 53.1432 0.0038 -0.0103 -0.0005
# 4 0.0017 0.0027 0.0038 25.7650 -0.0004 -0.0006
# 5 0.0001 0.0006 -0.0103 -0.0004 10.7392 -0.0010
# 6 0.0000 -0.0005 -0.0005 -0.0006 -0.0010 43.1598
#
#
#
# Elastic Compliance Matrix: (Units=1/GPa)
#
#
# Indices 1 2 3 4 5 6 
#
# 1 0.006938 -0.002724 -0.001468 0.000000 -0.000001 0.000000
# 2 -0.002724 0.010313 -0.002023 -0.000001 -0.000003 0.000000
# 3 -0.001468 -0.002023 0.019859 -0.000003 0.000019 0.000000
# 4 0.000000 -0.000001 -0.000003 0.038812 0.000001 0.000001
# 5 -0.000001 -0.000003 0.000019 0.000001 0.093116 0.000002
# 6 0.000000 0.000000 0.000000 0.000001 0.000002 0.023170
#
#
# Mechanical properties :
#
#
# Convention : Reuss Voigt Hill
#
# Bulk Modulus (GPa) = 40.51960 54.50448 47.51204
# Shear Modulus (GPa) = 23.48900 32.76618 28.12759
#
# Velocity S-wave (km/s) = 3.36892 3.97897 3.68659
# Velocity P-wave (km/s) = 5.89164 6.88808 6.40925
#
# Compressibility (1/GPa) = 0.02467942
#
# Stress axis : x y z
#
# Youngs Moduli (GPa) = 144.12831 96.96529 50.35549
#
# Poissons Ratio (x) = 0.26414 0.07393
# Poissons Ratio (y) = 0.39262 0.10187
# Poissons Ratio (z) = 0.21161 0.19616
#
# Static dielectric constant tensor:
#      x y z
#    x 5.047040 -0.000040 -0.000010 
#    y -0.000040 3.282680 0.000050 
#    z -0.000010 0.000050 3.608170 
# 
# 
# High freq. dielectric constant tensor:
#      x y z
#    x 1.835240 0.000000 0.000000 
#    y 0.000000 1.798950 0.000000 
#    z 0.000000 0.000000 1.816870 
# 
# From -- ./inp_files/9301.got.cif
#   From: 2010.03.12/outbox.cif.g09.slc.cpg/sg24_5_cif.got.tgz:9301.got - 2010.04.14 03:06:53.
