data_PCOD8165283
_publ_section_title
;
Structure prediction by ZEFSAII (Michael W. Deem and Ramdas Pophale) SiO2 
 PCOD8165283
Probable space group: I 21 21 21
;
_chemical_formula_sum "Si O2"
_cell_formula_units_Z 40
_cell_length_a 12.395949
_cell_length_b 8.332024
_cell_length_c 17.708144
_cell_angle_alpha 90.000000
_cell_angle_beta 90.000000
_cell_angle_gamma 90.000000
_cell_volume 1828.956338
_symmetry_space_group_name_H-M "I 21 21 21"
_symmetry_group_IT_number 24
_symmetry_cell_setting 'orthorhombic'
loop_
_space_group_symop_operation_xyz
x,y,z
-x,1/2-y,z
x,-y,1/2-z
1/2-x,y,-z
1/2+x,1/2+y,1/2+z
1/2-x,-y,1/2+z
1/2+x,1/2-y,-z
-x,1/2+y,1/2-z
loop_
_atom_site_type_symbol
_atom_site_label
_atom_site_fract_x
_atom_site_fract_y
_atom_site_fract_z
Si Si1 0.750000 0.221938 0.000000
Si Si2 0.500000 0.750000 0.705715
Si Si3 0.592734 0.457782 0.917746
Si Si4 0.953732 0.922848 0.561526
Si Si5 0.805970 0.658099 0.199503
Si Si6 0.406357 0.358787 0.303968
O O1 0.684066 0.327653 0.939326
O O2 0.828454 0.103992 0.955221
O O3 0.514676 0.597977 0.650737
O O4 0.606312 0.769441 0.757768
O O5 0.651322 0.614313 0.884659
O O6 0.519358 0.491744 0.990090
O O7 0.000000 0.750000 0.588535
O O8 0.961335 0.062883 0.622417
O O9 0.781231 0.500000 0.250000
O O10 0.697911 0.752549 0.181210
O O11 0.500000 0.250000 0.266555
O O12 0.368795 0.500000 0.250000
#
# Coordination Sequence:
#
# PCOD8165283 Si02
#       6
#     4   4   8   8   8   8
#     4  10  20  38  74  98 136 186 222 280 346 426
#     4  10  20  44  68 104 130 174 232 280 346 396
#     4  10  21  43  71 102 136 177 233 278 346 421
#     4  10  23  43  71 100 135 186 228 281 348 426
#     4  10  25  43  75  99 136 183 229 296 349 413
#     4  12  28  46  67 102 142 184 236 291 352 421
#
# _framework density 21.870398999999999
#
# number of rings (size 3 to 8) (size 9 to 14) (size 15 to 20)
#    0.000    1.600    3.000    1.200   11.200    4.000 
#    5.400    0.000    0.000    0.000    0.000    0.000 
#    0.000    0.000    0.000    0.000    0.000    0.000 
#
# Total GULP energy -247944.609033 kJ/mol
# GULP energy per Si atom -12397.230452 kJ/mol
# Density = 2.182062 g / cm^3
# Si number density = 21.870399 Si / 1000 Ang^3
#
#
#
# Elastic Constant Matrix: (Units=GPa)
#
#
# Indices 1 2 3 4 5 6 
#
# 1 139.8212 54.5424 46.0097 0.0000 0.0000 0.0000
# 2 54.5424 89.6620 43.1324 0.0000 0.0000 0.0000
# 3 46.0097 43.1324 112.4777 0.0000 0.0000 0.0000
# 4 0.0000 0.0000 0.0000 25.9153 0.0000 0.0000
# 5 0.0000 0.0000 0.0000 0.0000 17.2307 0.0000
# 6 0.0000 0.0000 0.0000 0.0000 0.0000 42.5302
#
#
#
# Elastic Compliance Matrix: (Units=1/GPa)
#
#
# Indices 1 2 3 4 5 6 
#
# 1 0.009767 -0.004929 -0.002105 0.000000 0.000000 0.000000
# 2 -0.004929 0.016163 -0.004182 0.000000 0.000000 0.000000
# 3 -0.002105 -0.004182 0.011356 0.000000 0.000000 0.000000
# 4 0.000000 0.000000 0.000000 0.038587 0.000000 0.000000
# 5 0.000000 0.000000 0.000000 0.000000 0.058036 0.000000
# 6 0.000000 0.000000 0.000000 0.000000 0.000000 0.023513
#
#
# Mechanical properties :
#
#
# Convention : Reuss Voigt Hill
#
# Bulk Modulus (GPa) = 67.32319 69.92553 68.62436
# Shear Modulus (GPa) = 27.05548 30.35367 28.70458
#
# Velocity S-wave (km/s) = 3.52103 3.72948 3.62675
# Velocity P-wave (km/s) = 6.88330 7.11249 6.99883
#
# Compressibility (1/GPa) = 0.01485372
#
# Stress axis : x y z
#
# Youngs Moduli (GPa) = 102.38078 61.86965 88.06288
#
# Poissons Ratio (x) = 0.30495 0.18540
# Poissons Ratio (y) = 0.50462 0.36827
# Poissons Ratio (z) = 0.21555 0.25873
#
# Static dielectric constant tensor:
#      x y z
#    x 4.063300 0.000000 0.000000 
#    y 0.000000 3.886910 0.000000 
#    z 0.000000 0.000000 3.982740 
# 
# 
# High freq. dielectric constant tensor:
#      x y z
#    x 1.873490 0.000000 0.000000 
#    y 0.000000 1.841950 0.000000 
#    z 0.000000 0.000000 1.861550 
# 
# From -- ./inp_files/10760.got.cif
#   From: 2010.03.12/outbox.cif.g09.slc.cpg/sg24_6_cif.got.tgz:10760.got - 2010.04.14 03:06:53.
