data_PCOD8165418
_publ_section_title
;
Structure prediction by ZEFSAII (Michael W. Deem and Ramdas Pophale) SiO2 
 PCOD8165418
Probable space group: I 21 21 21
;
_chemical_formula_sum "Si O2"
_cell_formula_units_Z 40
_cell_length_a 18.720409
_cell_length_b 14.894388
_cell_length_c 8.036023
_cell_angle_alpha 90.000000
_cell_angle_beta 90.000000
_cell_angle_gamma 90.000000
_cell_volume 2240.676540
_symmetry_space_group_name_H-M "I 21 21 21"
_symmetry_group_IT_number 24
_symmetry_cell_setting 'orthorhombic'
loop_
_space_group_symop_operation_xyz
x,y,z
-x,1/2-y,z
x,-y,1/2-z
1/2-x,y,-z
1/2+x,1/2+y,1/2+z
1/2-x,-y,1/2+z
1/2+x,1/2-y,-z
-x,1/2+y,1/2-z
loop_
_atom_site_type_symbol
_atom_site_label
_atom_site_fract_x
_atom_site_fract_y
_atom_site_fract_z
Si Si1 0.000000 0.250000 0.857452
Si Si2 0.250000 0.214178 0.500000
Si Si3 0.451694 0.087443 0.925743
Si Si4 0.401429 0.728581 0.064393
Si Si5 0.211247 0.096797 0.176509
Si Si6 0.487023 0.106009 0.568026
O O1 0.927306 0.237420 0.753810
O O2 0.986033 0.339327 0.957773
O O3 0.316687 0.277950 0.455380
O O4 0.234757 0.160420 0.329158
O O5 0.371524 0.107223 0.867216
O O6 0.499606 0.091864 0.762178
O O7 0.459240 0.988596 0.010817
O O8 0.428642 0.817008 0.966947
O O9 0.435799 0.636115 0.998713
O O10 0.230181 0.000000 0.250000
O O11 0.250000 0.116296 0.000000
#
# Coordination Sequence:
#
# PCOD8165418 Si02
#       6
#     4   4   8   8   8   8
#     4  10  22  34  60  90 112 146 210 252 292 366
#     4  12  22  40  58  82 130 158 202 250 314 376
#     4  11  19  37  57  84 113 153 197 252 295 356
#     4  10  21  37  54  84 113 158 192 245 299 359
#     4  12  23  35  55  90 125 162 193 238 315 385
#     4   9  19  35  57  77 113 153 194 230 306 348
#
# _framework density 17.851749999999999
#
# number of rings (size 3 to 8) (size 9 to 14) (size 15 to 20)
#    0.000    1.600    5.000    2.400    0.000    3.200 
#    0.000    0.000    0.000    4.800    0.000    0.000 
#    0.000    0.000    0.000    0.000    0.000    0.000 
#
# Total GULP energy -247771.747866 kJ/mol
# GULP energy per Si atom -12388.587393 kJ/mol
# Density = 1.781112 g / cm^3
# Si number density = 17.851750 Si / 1000 Ang^3
#
#
#
# Elastic Constant Matrix: (Units=GPa)
#
#
# Indices 1 2 3 4 5 6 
#
# 1 126.8192 39.9561 33.9692 0.0000 0.0000 0.0000
# 2 39.9561 87.8866 41.6159 0.0000 0.0000 0.0000
# 3 33.9692 41.6159 101.1836 0.0000 0.0000 0.0000
# 4 0.0000 0.0000 0.0000 34.4080 0.0000 0.0000
# 5 0.0000 0.0000 0.0000 0.0000 25.4251 0.0000
# 6 0.0000 0.0000 0.0000 0.0000 0.0000 13.9860
#
#
#
# Elastic Compliance Matrix: (Units=1/GPa)
#
#
# Indices 1 2 3 4 5 6 
#
# 1 0.009445 -0.003468 -0.001745 0.000000 0.000000 0.000000
# 2 -0.003468 0.015404 -0.005171 0.000000 0.000000 0.000000
# 3 -0.001745 -0.005171 0.012596 0.000000 0.000000 0.000000
# 4 0.000000 0.000000 0.000000 0.029063 0.000000 0.000000
# 5 0.000000 0.000000 0.000000 0.000000 0.039331 0.000000
# 6 0.000000 0.000000 0.000000 0.000000 0.000000 0.071500
#
#
# Mechanical properties :
#
#
# Convention : Reuss Voigt Hill
#
# Bulk Modulus (GPa) = 59.96286 60.77463 60.36875
# Shear Modulus (GPa) = 24.55013 28.12036 26.33524
#
# Velocity S-wave (km/s) = 3.71242 3.97320 3.84502
# Velocity P-wave (km/s) = 7.21376 7.42741 7.32137
#
# Compressibility (1/GPa) = 0.01667699
#
# Stress axis : x y z
#
# Youngs Moduli (GPa) = 105.87419 64.92003 79.39328
#
# Poissons Ratio (x) = 0.22514 0.13851
# Poissons Ratio (y) = 0.36717 0.41055
# Poissons Ratio (z) = 0.18470 0.33571
#
# Static dielectric constant tensor:
#      x y z
#    x 3.341050 0.000000 0.000000 
#    y 0.000000 3.463940 0.000000 
#    z 0.000000 0.000000 3.644900 
# 
# 
# High freq. dielectric constant tensor:
#      x y z
#    x 1.678240 0.000000 0.000000 
#    y 0.000000 1.677770 0.000000 
#    z 0.000000 0.000000 1.705440 
# 
# From -- ./inp_files/14013.got.cif
#   From: 2010.03.12/outbox.cif.g09.slc.cpg/sg24_8_cif.got.tgz:14013.got - 2010.04.14 03:06:53.
