data_PCOD8165070
_publ_section_title
;
Structure prediction by ZEFSAII (Michael W. Deem and Ramdas Pophale) SiO2 
 PCOD8165070
Probable space group: I 21 21 21
;
_chemical_formula_sum "Si O2"
_cell_formula_units_Z 48
_cell_length_a 5.179689
_cell_length_b 17.144335
_cell_length_c 26.345810
_cell_angle_alpha 90.000000
_cell_angle_beta 90.000000
_cell_angle_gamma 90.000000
_cell_volume 2339.569140
_symmetry_space_group_name_H-M "I 21 21 21"
_symmetry_group_IT_number 24
_symmetry_cell_setting 'orthorhombic'
loop_
_space_group_symop_operation_xyz
x,y,z
-x,1/2-y,z
x,-y,1/2-z
1/2-x,y,-z
1/2+x,1/2+y,1/2+z
1/2-x,-y,1/2+z
1/2+x,1/2-y,-z
-x,1/2+y,1/2-z
loop_
_atom_site_type_symbol
_atom_site_label
_atom_site_fract_x
_atom_site_fract_y
_atom_site_fract_z
Si Si1 0.731088 0.842995 0.695036
Si Si2 0.749113 0.301382 0.442681
Si Si3 0.751300 0.276144 0.099696
Si Si4 0.617086 0.170992 0.692431
Si Si5 0.272359 0.919045 0.338672
Si Si6 0.854121 0.403117 0.650062
O O1 0.731903 0.773962 0.653214
O O2 0.689560 0.806269 0.750233
O O3 0.511552 0.909576 0.685748
O O4 0.007670 0.884919 0.698111
O O5 0.500000 0.250000 0.432024
O O6 0.750000 0.334637 0.500000
O O7 0.742632 0.374335 0.404789
O O8 0.000000 0.250000 0.432528
O O9 0.500000 0.250000 0.068587
O O10 0.736398 0.367963 0.109553
O O11 0.000000 0.250000 0.067081
O O12 0.500000 0.250000 0.666070
O O13 0.376178 0.111478 0.690567
O O14 0.872411 0.137048 0.664593
O O15 0.369999 0.004155 0.353486
#
# Coordination Sequence:
#
# PCOD8165070 Si02
#       6
#     8   8   8   8   8   8
#     4  10  20  35  50  68  99 146 185 205 239 299
#     4  10  21  40  62  78  98 132 171 211 263 331
#     4   8  15  29  47  62  86 126 172 202 224 278
#     4  12  24  36  51  70 101 142 180 217 254 300
#     4  10  20  33  49  72 102 132 172 218 258 296
#     4  12  24  35  52  79 105 126 165 225 275 311
#
# _framework density 20.516596
#
# number of rings (size 3 to 8) (size 9 to 14) (size 15 to 20)
#    0.000    1.667    0.000    6.500    0.000    6.667 
#    0.000    0.000    0.000    0.000    0.000    0.000 
#    0.000   12.000    0.000    0.000    0.000   14.167 
#
# Total GULP energy -297320.033392 kJ/mol
# GULP energy per Si atom -12388.334725 kJ/mol
# Density = 2.046990 g / cm^3
# Si number density = 20.516596 Si / 1000 Ang^3
#
#
#
# Elastic Constant Matrix: (Units=GPa)
#
#
# Indices 1 2 3 4 5 6 
#
# 1 177.6427 36.2085 2.8592 0.0000 0.0000 0.0000
# 2 36.2085 120.9669 16.8429 0.0000 0.0000 0.0000
# 3 2.8592 16.8429 36.0241 0.0000 0.0000 0.0000
# 4 0.0000 0.0000 0.0000 10.7660 0.0000 0.0000
# 5 0.0000 0.0000 0.0000 0.0000 13.7691 0.0000
# 6 0.0000 0.0000 0.0000 0.0000 0.0000 31.5929
#
#
#
# Elastic Compliance Matrix: (Units=1/GPa)
#
#
# Indices 1 2 3 4 5 6 
#
# 1 0.006000 -0.001850 0.000389 0.000000 0.000000 0.000000
# 2 -0.001850 0.009413 -0.004254 0.000000 0.000000 0.000000
# 3 0.000389 -0.004254 0.029717 0.000000 0.000000 0.000000
# 4 0.000000 0.000000 0.000000 0.092885 0.000000 0.000000
# 5 0.000000 0.000000 0.000000 0.000000 0.072626 0.000000
# 6 0.000000 0.000000 0.000000 0.000000 0.000000 0.031653
#
#
# Mechanical properties :
#
#
# Convention : Reuss Voigt Hill
#
# Bulk Modulus (GPa) = 29.67409 49.60609 39.64009
# Shear Modulus (GPa) = 18.87093 29.80716 24.33904
#
# Velocity S-wave (km/s) = 3.03609 3.81574 3.44802
# Velocity P-wave (km/s) = 5.17545 6.60637 5.93420
#
# Compressibility (1/GPa) = 0.03369943
#
# Stress axis : x y z
#
# Youngs Moduli (GPa) = 166.66312 106.23789 33.65045
#
# Poissons Ratio (x) = 0.19655 -0.01308
# Poissons Ratio (y) = 0.30835 0.14315
# Poissons Ratio (z) = -0.06480 0.45194
#
# Static dielectric constant tensor:
#      x y z
#    x 5.140870 0.000000 0.000000 
#    y 0.000000 3.573400 0.000000 
#    z 0.000000 0.000000 3.225560 
# 
# 
# High freq. dielectric constant tensor:
#      x y z
#    x 1.845520 0.000000 0.000000 
#    y 0.000000 1.788460 0.000000 
#    z 0.000000 0.000000 1.750280 
# 
# From -- ./inp_files/36462.got.cif
#   From: 2010.03.12/outbox.cif.g09.slc.cpg/sg24_19_cif.got.tgz:36462.got - 2010.04.14 03:06:53.
