data_PCOD8165546
_publ_section_title
;
Structure prediction by ZEFSAII (Michael W. Deem and Ramdas Pophale) SiO2 
 PCOD8165546
Probable space group: I 21 21 21
;
_chemical_formula_sum "Si O2"
_cell_formula_units_Z 60
_cell_length_a 5.409580
_cell_length_b 19.213756
_cell_length_c 25.920433
_cell_angle_alpha 90.000000
_cell_angle_beta 90.000000
_cell_angle_gamma 90.000000
_cell_volume 2694.127042
_symmetry_space_group_name_H-M "I 21 21 21"
_symmetry_group_IT_number 24
_symmetry_cell_setting 'orthorhombic'
loop_
_space_group_symop_operation_xyz
x,y,z
-x,1/2-y,z
x,-y,1/2-z
1/2-x,y,-z
1/2+x,1/2+y,1/2+z
1/2-x,-y,1/2+z
1/2+x,1/2-y,-z
-x,1/2+y,1/2-z
loop_
_atom_site_type_symbol
_atom_site_label
_atom_site_fract_x
_atom_site_fract_y
_atom_site_fract_z
Si Si1 0.497591 0.398842 0.524719
Si Si2 0.500000 0.750000 0.174908
Si Si3 0.686097 0.360652 0.727566
Si Si4 0.957812 0.978427 0.801743
Si Si5 0.323289 0.632926 0.862781
Si Si6 0.474200 0.168555 0.841046
Si Si7 0.500798 0.944773 0.482996
Si Si8 0.490414 0.600119 0.371933
O O1 0.750000 0.366369 0.500000
O O2 0.482365 0.382241 0.585651
O O3 0.498885 0.480930 0.512330
O O4 0.250000 0.365068 0.500000
O O5 0.374998 0.798244 0.218237
O O6 0.354766 0.700378 0.133954
O O7 0.491590 0.344974 0.683737
O O8 0.553613 0.357783 0.782617
O O9 0.807756 0.435546 0.718506
O O10 0.811587 0.938441 0.846591
O O11 0.800012 0.000000 0.750000
O O12 0.053054 0.050791 0.824269
O O13 0.500000 0.250000 0.842241
O O14 0.722127 0.135852 0.865971
O O15 0.224425 0.152338 0.873811
O O16 0.750000 0.903605 0.500000
O O17 0.507719 0.949927 0.421654
O O18 0.250000 0.904570 0.500000
#
# Coordination Sequence:
#
# PCOD8165546 Si02
#       8
#     8   4   8   8   8   8   8   8
#     4  10  23  41  68 101 132 178 233 295 359 423
#     4  10  24  44  68 100 140 200 254 290 352 426
#     4  11  25  41  71 101 147 198 238 294 349 439
#     4  11  23  39  63 107 150 184 234 299 372 424
#     4  11  24  41  72  96 144 191 249 295 363 436
#     4  12  27  47  73 102 147 195 245 281 352 439
#     4  10  21  40  68 102 136 175 225 285 364 427
#     4  12  26  44  72 107 146 184 234 306 357 429
#
# _framework density 22.270665000000001
#
# number of rings (size 3 to 8) (size 9 to 14) (size 15 to 20)
#    0.000    1.067    1.333    4.800   13.067    0.533 
#    0.000    0.000    2.933    8.000    0.000    0.000 
#    0.000    0.000    0.000    0.000    0.000    0.000 
#
# Total GULP energy -371662.655349 kJ/mol
# GULP energy per Si atom -12388.755178 kJ/mol
# Density = 2.221998 g / cm^3
# Si number density = 22.270665 Si / 1000 Ang^3
#
#
#
# Elastic Constant Matrix: (Units=GPa)
#
#
# Indices 1 2 3 4 5 6 
#
# 1 173.0967 25.2908 41.6348 0.0000 0.0000 0.0000
# 2 25.2908 63.7239 10.5600 0.0000 0.0000 0.0000
# 3 41.6348 10.5600 122.9620 0.0000 0.0000 0.0000
# 4 0.0000 0.0000 0.0000 34.8891 0.0000 0.0000
# 5 0.0000 0.0000 0.0000 0.0000 38.5310 0.0000
# 6 0.0000 0.0000 0.0000 0.0000 0.0000 2.6001
#
#
#
# Elastic Compliance Matrix: (Units=1/GPa)
#
#
# Indices 1 2 3 4 5 6 
#
# 1 0.006601 -0.002282 -0.002039 0.000000 0.000000 0.000000
# 2 -0.002282 0.016708 -0.000662 0.000000 0.000000 0.000000
# 3 -0.002039 -0.000662 0.008880 0.000000 0.000000 0.000000
# 4 0.000000 0.000000 0.000000 0.028662 0.000000 0.000000
# 5 0.000000 0.000000 0.000000 0.000000 0.025953 0.000000
# 6 0.000000 0.000000 0.000000 0.000000 0.000000 0.384602
#
#
# Mechanical properties :
#
#
# Convention : Reuss Voigt Hill
#
# Bulk Modulus (GPa) = 44.99951 57.19486 51.09719
# Shear Modulus (GPa) = 10.22955 34.02382 22.12668
#
# Velocity S-wave (km/s) = 2.14552 3.91287 3.15546
# Velocity P-wave (km/s) = 5.13685 6.79349 6.02241
#
# Compressibility (1/GPa) = 0.02222246
#
# Stress axis : x y z
#
# Youngs Moduli (GPa) = 151.49252 59.85126 112.61375
#
# Poissons Ratio (x) = 0.13657 0.22963
# Poissons Ratio (y) = 0.34569 0.07458
# Poissons Ratio (z) = 0.30891 0.03964
#
# Static dielectric constant tensor:
#      x y z
#    x 4.582000 0.000000 0.000000 
#    y 0.000000 3.813520 0.000000 
#    z 0.000000 0.000000 3.821070 
# 
# 
# High freq. dielectric constant tensor:
#      x y z
#    x 1.894020 0.000000 0.000000 
#    y 0.000000 1.857480 0.000000 
#    z 0.000000 0.000000 1.878700 
# 
# From -- ./inp_files/34792.got.cif
#   From: 2010.03.12/outbox.cif.g09.slc.cpg/sg24_18_cif.got.tgz:34792.got - 2010.04.14 03:06:53.
