data_PCOD8165801
_publ_section_title
;
Structure prediction by ZEFSAII (Michael W. Deem and Ramdas Pophale) SiO2 
 PCOD8165801
Probable space group: I 21 21 21
;
_chemical_formula_sum "Si O2"
_cell_formula_units_Z 40
_cell_length_a 7.436041
_cell_length_b 8.870004
_cell_length_c 28.348858
_cell_angle_alpha 90.000000
_cell_angle_beta 90.000000
_cell_angle_gamma 90.000000
_cell_volume 1869.825852
_symmetry_space_group_name_H-M "I 21 21 21"
_symmetry_group_IT_number 24
_symmetry_cell_setting 'orthorhombic'
loop_
_space_group_symop_operation_xyz
x,y,z
-x,1/2-y,z
x,-y,1/2-z
1/2-x,y,-z
1/2+x,1/2+y,1/2+z
1/2-x,-y,1/2+z
1/2+x,1/2-y,-z
-x,1/2+y,1/2-z
loop_
_atom_site_type_symbol
_atom_site_label
_atom_site_fract_x
_atom_site_fract_y
_atom_site_fract_z
Si Si1 0.466304 0.926039 0.199304
Si Si2 0.238637 0.608117 0.359098
Si Si3 0.169667 0.048925 0.138722
Si Si4 0.109558 0.105880 0.459083
Si Si5 0.853528 0.137270 0.042498
O O1 0.500000 0.750000 0.204758
O O2 0.455536 0.000000 0.250000
O O3 0.621220 0.010929 0.170067
O O4 0.274839 0.937934 0.173510
O O5 0.262523 0.787774 0.353000
O O6 0.271606 0.577521 0.415173
O O7 0.038362 0.552368 0.345708
O O8 0.195404 0.983568 0.085464
O O9 0.250000 0.149123 0.500000
O O10 0.000000 0.250000 0.440250
O O11 0.959575 0.998322 0.482833
O O12 0.000000 0.250000 0.066880
O O13 0.750000 0.222057 0.000000
#
# Coordination Sequence:
#
# PCOD8165801 Si02
#       5
#     8   8   8   8   8
#     4  12  28  46  74 104 132 175 225 283 352 415
#     4  10  22  45  68 101 137 178 228 284 336 406
#     4  10  23  44  70  97 139 180 227 282 341 404
#     4  11  24  40  60  97 141 185 229 276 338 399
#     4  11  22  38  63  98 134 182 232 270 331 395
#
# _framework density 21.392367
#
# number of rings (size 3 to 8) (size 9 to 14) (size 15 to 20)
#    0.000    1.200    4.000    3.000    8.400    1.600 
#    0.000    0.000    0.000    0.000    0.000    0.000 
#    0.000    0.000    0.000    0.000    0.000    0.000 
#
# Total GULP energy -247878.572461 kJ/mol
# GULP energy per Si atom -12393.928623 kJ/mol
# Density = 2.134368 g / cm^3
# Si number density = 21.392367 Si / 1000 Ang^3
#
#
#
# Elastic Constant Matrix: (Units=GPa)
#
#
# Indices 1 2 3 4 5 6 
#
# 1 70.5416 32.5287 61.0253 0.0000 0.0000 0.0000
# 2 32.5287 124.9186 44.1908 0.0000 0.0000 0.0000
# 3 61.0253 44.1908 147.4538 0.0000 0.0000 0.0000
# 4 0.0000 0.0000 0.0000 46.6940 0.0000 0.0000
# 5 0.0000 0.0000 0.0000 0.0000 26.0837 0.0000
# 6 0.0000 0.0000 0.0000 0.0000 0.0000 39.1298
#
#
#
# Elastic Compliance Matrix: (Units=1/GPa)
#
#
# Indices 1 2 3 4 5 6 
#
# 1 0.023004 -0.002933 -0.008642 0.000000 0.000000 0.000000
# 2 -0.002933 0.009329 -0.001582 0.000000 0.000000 0.000000
# 3 -0.008642 -0.001582 0.010832 0.000000 0.000000 0.000000
# 4 0.000000 0.000000 0.000000 0.021416 0.000000 0.000000
# 5 0.000000 0.000000 0.000000 0.000000 0.038338 0.000000
# 6 0.000000 0.000000 0.000000 0.000000 0.000000 0.025556
#
#
# Mechanical properties :
#
#
# Convention : Reuss Voigt Hill
#
# Bulk Modulus (GPa) = 59.33993 68.71152 64.02573
# Shear Modulus (GPa) = 31.17093 36.05945 33.61519
#
# Velocity S-wave (km/s) = 3.82135 4.11009 3.96834
# Velocity P-wave (km/s) = 6.87527 7.39683 7.14081
#
# Compressibility (1/GPa) = 0.01685206
#
# Stress axis : x y z
#
# Youngs Moduli (GPa) = 43.46993 107.19727 92.31739
#
# Poissons Ratio (x) = 0.31445 0.79776
# Poissons Ratio (y) = 0.12751 0.14602
# Poissons Ratio (z) = 0.37565 0.16956
#
# Static dielectric constant tensor:
#      x y z
#    x 3.708760 0.000000 0.000000 
#    y 0.000000 4.170610 0.000000 
#    z 0.000000 0.000000 3.684990 
# 
# 
# High freq. dielectric constant tensor:
#      x y z
#    x 1.837640 0.000000 0.000000 
#    y 0.000000 1.850700 0.000000 
#    z 0.000000 0.000000 1.831460 
# 
# From -- ./inp_files/35004.got.cif
#   From: 2010.03.12/outbox.cif.g09.slc.cpg/sg24_18_cif.got.tgz:35004.got - 2010.04.14 03:06:53.
