data_PCOD8165353
_publ_section_title
;
Structure prediction by ZEFSAII (Michael W. Deem and Ramdas Pophale) SiO2 
 PCOD8165353
Probable space group: I 21 21 21
;
_chemical_formula_sum "Si O2"
_cell_formula_units_Z 40
_cell_length_a 12.120973
_cell_length_b 25.711480
_cell_length_c 6.095276
_cell_angle_alpha 90.000000
_cell_angle_beta 90.000000
_cell_angle_gamma 90.000000
_cell_volume 1899.581519
_symmetry_space_group_name_H-M "I 21 21 21"
_symmetry_group_IT_number 24
_symmetry_cell_setting 'orthorhombic'
loop_
_space_group_symop_operation_xyz
x,y,z
-x,1/2-y,z
x,-y,1/2-z
1/2-x,y,-z
1/2+x,1/2+y,1/2+z
1/2-x,-y,1/2+z
1/2+x,1/2-y,-z
-x,1/2+y,1/2-z
loop_
_atom_site_type_symbol
_atom_site_label
_atom_site_fract_x
_atom_site_fract_y
_atom_site_fract_z
Si Si1 0.602357 0.784461 0.785399
Si Si2 0.750000 0.086321 0.000000
Si Si3 0.542895 0.942672 0.733962
Si Si4 0.750000 0.716103 0.500000
Si Si5 0.539797 0.352102 0.021086
Si Si6 0.614080 0.873779 0.115744
O O1 0.500000 0.750000 0.873690
O O2 0.707873 0.750579 0.705508
O O3 0.557964 0.816255 0.575349
O O4 0.640110 0.821776 0.980313
O O5 0.643003 0.052246 0.942230
O O6 0.782173 0.120429 0.783617
O O7 0.450327 0.902027 0.643280
O O8 0.489080 0.000000 0.750000
O O9 0.596298 0.923958 0.962056
O O10 0.651493 0.678151 0.432478
O O11 0.501764 0.369690 0.259770
#
# Coordination Sequence:
#
# PCOD8165353 Si02
#       6
#     8   4   8   4   8   8
#     4   9  20  38  59  86 118 161 202 242 296 353
#     4  10  22  33  58  88 118 160 196 245 300 370
#     4  10  22  38  61  84 121 157 200 249 309 363
#     4  10  20  41  68  86 120 164 208 251 304 362
#     4   9  21  40  59  88 122 155 201 258 297 360
#     4  10  21  39  55  86 126 156 194 244 302 357
#
# _framework density 21.057269000000002
#
# number of rings (size 3 to 8) (size 9 to 14) (size 15 to 20)
#    0.000    2.400    0.000    0.600    2.800   13.600 
#    0.000   23.000    4.400    0.000    0.000    0.000 
#    0.000    0.000    0.000    0.000    0.000    0.000 
#
# Total GULP energy -247892.432017 kJ/mol
# GULP energy per Si atom -12394.621601 kJ/mol
# Density = 2.100934 g / cm^3
# Si number density = 21.057269 Si / 1000 Ang^3
#
#
#
# Elastic Constant Matrix: (Units=GPa)
#
#
# Indices 1 2 3 4 5 6 
#
# 1 91.5494 48.8518 41.8665 -0.0021 -0.0149 0.0028
# 2 48.8518 153.4411 52.3520 -0.0170 0.0015 0.0006
# 3 41.8665 52.3520 100.0347 -0.0668 0.0056 -0.0097
# 4 -0.0021 -0.0170 -0.0668 16.2819 0.0023 0.0007
# 5 -0.0149 0.0015 0.0056 0.0023 18.3313 -0.0002
# 6 0.0028 0.0006 -0.0097 0.0007 -0.0002 25.3675
#
#
#
# Elastic Compliance Matrix: (Units=1/GPa)
#
#
# Indices 1 2 3 4 5 6 
#
# 1 0.014648 -0.003131 -0.004492 -0.000020 0.000014 -0.000003
# 2 -0.003131 0.008603 -0.003192 -0.000005 -0.000002 -0.000001
# 3 -0.004492 -0.003192 0.013547 0.000052 -0.000008 0.000006
# 4 -0.000020 -0.000005 0.000052 0.061418 -0.000008 -0.000002
# 5 0.000014 -0.000002 -0.000008 -0.000008 0.054551 0.000000
# 6 -0.000003 -0.000001 0.000006 -0.000002 0.000000 0.039420
#
#
# Mechanical properties :
#
#
# Convention : Reuss Voigt Hill
#
# Bulk Modulus (GPa) = 65.92675 70.12953 68.02814
# Shear Modulus (GPa) = 22.84421 25.45982 24.15202
#
# Velocity S-wave (km/s) = 3.29730 3.48095 3.39037
# Velocity P-wave (km/s) = 6.77292 7.03793 6.90670
#
# Compressibility (1/GPa) = 0.01516835
#
# Stress axis : x y z
#
# Youngs Moduli (GPa) = 68.26875 116.23828 73.81722
#
# Poissons Ratio (x) = 0.36394 0.33158
# Poissons Ratio (y) = 0.21375 0.23562
# Poissons Ratio (z) = 0.30666 0.37102
#
# Static dielectric constant tensor:
#      x y z
#    x 3.649130 0.000060 0.000120 
#    y 0.000060 3.848040 -0.000180 
#    z 0.000120 -0.000180 3.936010 
# 
# 
# High freq. dielectric constant tensor:
#      x y z
#    x 1.799550 0.000000 0.000000 
#    y 0.000000 1.819440 -0.000010 
#    z 0.000000 -0.000010 1.832390 
# 
# From -- ./inp_files/2486.got.cif
#   From: 2010.03.12/outbox.cif.g09.slc.cpg/sg24_2_cif.got.tgz:2486.got - 2010.04.14 03:06:53.
