data_PCOD8165553
_publ_section_title
;
Structure prediction by ZEFSAII (Michael W. Deem and Ramdas Pophale) SiO2 
 PCOD8165553
Probable space group: I 21 21 21
;
_chemical_formula_sum "Si O2"
_cell_formula_units_Z 40
_cell_length_a 24.355335
_cell_length_b 8.580817
_cell_length_c 9.342251
_cell_angle_alpha 90.000000
_cell_angle_beta 90.000000
_cell_angle_gamma 90.000000
_cell_volume 1952.424636
_symmetry_space_group_name_H-M "I 21 21 21"
_symmetry_group_IT_number 24
_symmetry_cell_setting 'orthorhombic'
loop_
_space_group_symop_operation_xyz
x,y,z
-x,1/2-y,z
x,-y,1/2-z
1/2-x,y,-z
1/2+x,1/2+y,1/2+z
1/2-x,-y,1/2+z
1/2+x,1/2-y,-z
-x,1/2+y,1/2-z
loop_
_atom_site_type_symbol
_atom_site_label
_atom_site_fract_x
_atom_site_fract_y
_atom_site_fract_z
Si Si1 0.944981 0.325974 0.442031
Si Si2 0.735938 0.180511 0.222440
Si Si3 0.841087 0.396251 0.611572
Si Si4 0.173501 0.201654 0.039609
Si Si5 0.944278 0.314018 0.123157
O O1 0.894188 0.302598 0.551500
O O2 0.936469 0.249388 0.285569
O O3 0.950805 0.504419 0.400831
O O4 0.000000 0.250000 0.512210
O O5 0.706314 0.269815 0.353937
O O6 0.794427 0.263624 0.188285
O O7 0.746448 0.000000 0.250000
O O8 0.697464 0.190556 0.084144
O O9 0.857793 0.500000 0.750000
O O10 0.818621 0.516853 0.492123
O O11 0.109722 0.247822 0.043603
O O12 0.000000 0.250000 0.053149
#
# Coordination Sequence:
#
# PCOD8165553 Si02
#       5
#     8   8   8   8   8
#     4   9  18  35  56  87 112 142 196 233 286 353
#     4  10  21  41  57  87 122 150 197 249 295 344
#     4   9  19  40  60  80 116 158 195 235 287 365
#     4   9  20  42  57  84 118 150 198 238 288 365
#     4   9  18  36  59  82 114 146 184 244 290 341
#
# _framework density 20.487345999999999
#
# number of rings (size 3 to 8) (size 9 to 14) (size 15 to 20)
#    0.000    2.800    0.000    0.000    0.000    1.600 
#   54.000   10.000    0.000    0.000    0.000    0.000 
#    0.000    0.000    0.000    0.000    0.000    0.000 
#
# Total GULP energy -247818.292188 kJ/mol
# GULP energy per Si atom -12390.914609 kJ/mol
# Density = 2.044072 g / cm^3
# Si number density = 20.487346 Si / 1000 Ang^3
#
#
#
# Elastic Constant Matrix: (Units=GPa)
#
#
# Indices 1 2 3 4 5 6 
#
# 1 181.4289 63.9217 50.2504 0.0000 0.0000 0.0000
# 2 63.9217 80.6840 37.2072 0.0000 0.0000 0.0000
# 3 50.2504 37.2072 43.6017 0.0000 0.0000 0.0000
# 4 0.0000 0.0000 0.0000 26.4019 0.0000 0.0000
# 5 0.0000 0.0000 0.0000 0.0000 38.7717 0.0000
# 6 0.0000 0.0000 0.0000 0.0000 0.0000 36.9096
#
#
#
# Elastic Compliance Matrix: (Units=1/GPa)
#
#
# Indices 1 2 3 4 5 6 
#
# 1 0.008736 -0.003756 -0.006863 0.000000 0.000000 0.000000
# 2 -0.003756 0.022051 -0.014488 0.000000 0.000000 0.000000
# 3 -0.006863 -0.014488 0.043207 0.000000 0.000000 0.000000
# 4 0.000000 0.000000 0.000000 0.037876 0.000000 0.000000
# 5 0.000000 0.000000 0.000000 0.000000 0.025792 0.000000
# 6 0.000000 0.000000 0.000000 0.000000 0.000000 0.027093
#
#
# Mechanical properties :
#
#
# Convention : Reuss Voigt Hill
#
# Bulk Modulus (GPa) = 42.05162 67.60816 54.82989
# Shear Modulus (GPa) = 22.43197 30.70566 26.56881
#
# Velocity S-wave (km/s) = 3.31254 3.87558 3.60507
# Velocity P-wave (km/s) = 5.93303 7.28687 6.64452
#
# Compressibility (1/GPa) = 0.02378029
#
# Stress axis : x y z
#
# Youngs Moduli (GPa) = 114.46856 45.34928 23.14434
#
# Poissons Ratio (x) = 0.17035 0.15883
# Poissons Ratio (y) = 0.42999 0.33531
# Poissons Ratio (z) = 0.78556 0.65702
#
# Static dielectric constant tensor:
#      x y z
#    x 3.992640 0.000000 0.000000 
#    y 0.000000 3.467610 0.000000 
#    z 0.000000 0.000000 3.825820 
# 
# 
# High freq. dielectric constant tensor:
#      x y z
#    x 1.810550 0.000000 0.000000 
#    y 0.000000 1.780570 0.000000 
#    z 0.000000 0.000000 1.784480 
# 
# From -- ./inp_files/16257.got.cif
#   From: 2010.03.12/outbox.cif.g09.slc.cpg/sg24_9_cif.got.tgz:16257.got - 2010.04.14 03:06:53.
