data_PCOD8165951
_publ_section_title
;
Structure prediction by ZEFSAII (Michael W. Deem and Ramdas Pophale) SiO2 
 PCOD8165951
Probable space group: I 21 21 21
;
_chemical_formula_sum "Si O2"
_cell_formula_units_Z 60
_cell_length_a 20.238590
_cell_length_b 8.259465
_cell_length_c 17.362578
_cell_angle_alpha 90.000000
_cell_angle_beta 90.000000
_cell_angle_gamma 90.000000
_cell_volume 2902.327249
_symmetry_space_group_name_H-M "I 21 21 21"
_symmetry_group_IT_number 24
_symmetry_cell_setting 'orthorhombic'
loop_
_space_group_symop_operation_xyz
x,y,z
-x,1/2-y,z
x,-y,1/2-z
1/2-x,y,-z
1/2+x,1/2+y,1/2+z
1/2-x,-y,1/2+z
1/2+x,1/2-y,-z
-x,1/2+y,1/2-z
loop_
_atom_site_type_symbol
_atom_site_label
_atom_site_fract_x
_atom_site_fract_y
_atom_site_fract_z
Si Si1 0.066837 0.845515 0.948324
Si Si2 0.815646 0.122793 0.538929
Si Si3 0.388556 0.000000 0.750000
Si Si4 0.427643 0.199518 0.092399
Si Si5 0.975977 0.579533 0.113546
Si Si6 0.319568 0.602873 0.320915
Si Si7 0.897673 0.114953 0.060529
Si Si8 0.324377 0.324394 0.787464
O O1 0.133605 0.752229 0.926680
O O2 0.000000 0.750000 0.924355
O O3 0.072887 0.007508 0.899437
O O4 0.067678 0.878627 0.039219
O O5 0.750000 0.200429 0.500000
O O6 0.794583 0.009719 0.609477
O O7 0.852641 0.025700 0.472760
O O8 0.433689 0.980345 0.674782
O O9 0.347010 0.166692 0.738568
O O10 0.500000 0.250000 0.119205
O O11 0.374815 0.272147 0.151436
O O12 0.413005 0.251898 0.004557
O O13 0.000000 0.750000 0.150596
O O14 0.034629 0.462008 0.089093
O O15 0.349489 0.500000 0.250000
O O16 0.254355 0.695954 0.292500
O O17 0.858348 0.196902 0.129804
O O18 0.343950 0.500000 0.750000
#
# Coordination Sequence:
#
# PCOD8165951 Si02
#       8
#     8   8   4   8   8   8   8   8
#     4  11  21  40  63  98 131 169 219 286 338 396
#     4  11  21  41  69  96 126 175 229 271 334 404
#     4  12  28  38  64 102 142 186 236 270 334 420
#     4  11  22  42  70  97 128 168 223 285 339 398
#     4  11  22  39  61  98 138 182 225 278 336 395
#     4  10  24  47  70  94 132 176 219 275 348 409
#     4  11  21  40  66  91 134 177 226 276 325 396
#     4  11  25  45  65  94 142 186 226 275 341 404
#
# _framework density 20.673065000000001
#
# number of rings (size 3 to 8) (size 9 to 14) (size 15 to 20)
#    0.000    1.067    5.333    2.400    2.800    0.000 
#    9.600    2.000    0.000    0.000    0.000    0.000 
#    0.000    0.000    0.000    0.000    0.000    0.000 
#
# Total GULP energy -372025.897737 kJ/mol
# GULP energy per Si atom -12400.863258 kJ/mol
# Density = 2.062601 g / cm^3
# Si number density = 20.673065 Si / 1000 Ang^3
#
#
#
# Elastic Constant Matrix: (Units=GPa)
#
#
# Indices 1 2 3 4 5 6 
#
# 1 123.9236 57.9541 39.2461 0.0000 0.0000 0.0000
# 2 57.9541 134.2235 30.6285 0.0000 0.0000 0.0000
# 3 39.2461 30.6285 75.1612 0.0000 0.0000 0.0000
# 4 0.0000 0.0000 0.0000 30.6981 0.0000 0.0000
# 5 0.0000 0.0000 0.0000 0.0000 30.1773 0.0000
# 6 0.0000 0.0000 0.0000 0.0000 0.0000 35.7758
#
#
#
# Elastic Compliance Matrix: (Units=1/GPa)
#
#
# Indices 1 2 3 4 5 6 
#
# 1 0.011240 -0.003874 -0.004290 0.000000 0.000000 0.000000
# 2 -0.003874 0.009549 -0.001869 0.000000 0.000000 0.000000
# 3 -0.004290 -0.001869 0.016306 0.000000 0.000000 0.000000
# 4 0.000000 0.000000 0.000000 0.032575 0.000000 0.000000
# 5 0.000000 0.000000 0.000000 0.000000 0.033138 0.000000
# 6 0.000000 0.000000 0.000000 0.000000 0.000000 0.027952
#
#
# Mechanical properties :
#
#
# Convention : Reuss Voigt Hill
#
# Bulk Modulus (GPa) = 58.72044 65.44062 62.08053
# Shear Modulus (GPa) = 31.94826 33.02887 32.48856
#
# Velocity S-wave (km/s) = 3.93543 4.00143 3.96857
# Velocity P-wave (km/s) = 7.00829 7.28508 7.14802
#
# Compressibility (1/GPa) = 0.01702985
#
# Stress axis : x y z
#
# Youngs Moduli (GPa) = 88.96800 104.71894 61.32556
#
# Poissons Ratio (x) = 0.40569 0.26311
# Poissons Ratio (y) = 0.34467 0.11459
# Poissons Ratio (z) = 0.38170 0.19567
#
# Static dielectric constant tensor:
#      x y z
#    x 3.325880 0.000000 0.000000 
#    y 0.000000 3.785930 0.000000 
#    z 0.000000 0.000000 3.721290 
# 
# 
# High freq. dielectric constant tensor:
#      x y z
#    x 1.815980 0.000000 0.000000 
#    y 0.000000 1.808970 0.000000 
#    z 0.000000 0.000000 1.795960 
# 
# From -- ./inp_files/31182.got.cif
#   From: 2010.03.12/outbox.cif.g09.slc.cpg/sg24_16_cif.got.tgz:31182.got - 2010.04.14 03:06:53.
