data_PCOD8165076
_publ_section_title
;
Structure prediction by ZEFSAII (Michael W. Deem and Ramdas Pophale) SiO2 
 PCOD8165076
Probable space group: I 21 21 21
;
_chemical_formula_sum "Si O2"
_cell_formula_units_Z 48
_cell_length_a 9.389263
_cell_length_b 9.469818
_cell_length_c 30.767118
_cell_angle_alpha 90.000000
_cell_angle_beta 90.000000
_cell_angle_gamma 90.000000
_cell_volume 2735.646352
_symmetry_space_group_name_H-M "I 21 21 21"
_symmetry_group_IT_number 24
_symmetry_cell_setting 'orthorhombic'
loop_
_space_group_symop_operation_xyz
x,y,z
-x,1/2-y,z
x,-y,1/2-z
1/2-x,y,-z
1/2+x,1/2+y,1/2+z
1/2-x,-y,1/2+z
1/2+x,1/2-y,-z
-x,1/2+y,1/2-z
loop_
_atom_site_type_symbol
_atom_site_label
_atom_site_fract_x
_atom_site_fract_y
_atom_site_fract_z
Si Si1 0.336490 0.042185 0.378937
Si Si2 0.838008 0.236614 0.847540
Si Si3 0.663432 0.047766 0.383853
Si Si4 0.336970 0.237913 0.456353
Si Si5 0.860454 0.162433 0.233134
Si Si6 0.832222 0.243011 0.325252
O O1 0.500851 0.082534 0.370177
O O2 0.301734 0.098244 0.427591
O O3 0.240735 0.118934 0.343792
O O4 0.293019 0.879867 0.371852
O O5 0.747524 0.181667 0.806675
O O6 0.000000 0.250000 0.830822
O O7 0.821536 0.121143 0.886115
O O8 0.704629 0.121182 0.429324
O O9 0.769773 0.102404 0.346916
O O10 0.500000 0.250000 0.470091
O O11 0.250000 0.228794 0.500000
O O12 0.794289 0.242142 0.274459
O O13 0.000000 0.250000 0.218839
O O14 0.890912 0.000000 0.250000
O O15 0.000000 0.250000 0.333773
#
# Coordination Sequence:
#
# PCOD8165076 Si02
#       6
#     8   8   8   8   8   8
#     4   9  20  35  56  79 105 140 174 222 270 315
#     4  10  21  37  57  79 104 143 187 226 264 311
#     4   9  18  37  55  77 107 137 176 221 269 311
#     4   9  18  34  56  80 106 135 169 216 266 324
#     4  11  24  38  52  76 113 148 182 227 273 314
#     4  10  20  33  52  75 103 144 184 217 262 315
#
# _framework density 17.546128
#
# number of rings (size 3 to 8) (size 9 to 14) (size 15 to 20)
#    0.000    2.333    1.667    1.500    4.667    4.000 
#    0.000    0.833    0.000    0.000    0.000    0.000 
#    0.000    0.000    0.000    0.000    0.000    0.000 
#
# Total GULP energy -297367.624539 kJ/mol
# GULP energy per Si atom -12390.317689 kJ/mol
# Density = 1.750619 g / cm^3
# Si number density = 17.546128 Si / 1000 Ang^3
#
#
#
# Elastic Constant Matrix: (Units=GPa)
#
#
# Indices 1 2 3 4 5 6 
#
# 1 66.6867 54.4501 59.9235 0.0000 0.0000 0.0000
# 2 54.4501 158.9661 62.8326 0.0000 0.0000 0.0000
# 3 59.9235 62.8326 119.2459 0.0000 0.0000 0.0000
# 4 0.0000 0.0000 0.0000 14.1297 0.0000 0.0000
# 5 0.0000 0.0000 0.0000 0.0000 31.2382 0.0000
# 6 0.0000 0.0000 0.0000 0.0000 0.0000 24.4723
#
#
#
# Elastic Compliance Matrix: (Units=1/GPa)
#
#
# Indices 1 2 3 4 5 6 
#
# 1 0.030849 -0.005607 -0.012548 0.000000 0.000000 0.000000
# 2 -0.005607 0.008965 -0.001906 0.000000 0.000000 0.000000
# 3 -0.012548 -0.001906 0.015696 0.000000 0.000000 0.000000
# 4 0.000000 0.000000 0.000000 0.070773 0.000000 0.000000
# 5 0.000000 0.000000 0.000000 0.000000 0.032012 0.000000
# 6 0.000000 0.000000 0.000000 0.000000 0.000000 0.040863
#
#
# Mechanical properties :
#
#
# Convention : Reuss Voigt Hill
#
# Bulk Modulus (GPa) = 64.98645 77.70126 71.34385
# Shear Modulus (GPa) = 20.45768 25.14754 22.80261
#
# Velocity S-wave (km/s) = 3.41829 3.78990 3.60888
# Velocity P-wave (km/s) = 7.25930 7.97065 7.62328
#
# Compressibility (1/GPa) = 0.01538782
#
# Stress axis : x y z
#
# Youngs Moduli (GPa) = 32.41622 111.55101 63.71125
#
# Poissons Ratio (x) = 0.62546 0.79943
# Poissons Ratio (y) = 0.18175 0.12143
# Poissons Ratio (z) = 0.40675 0.21261
#
# Static dielectric constant tensor:
#      x y z
#    x 3.278910 0.000000 0.000000 
#    y 0.000000 3.607650 0.000000 
#    z 0.000000 0.000000 3.090880 
# 
# 
# High freq. dielectric constant tensor:
#      x y z
#    x 1.677480 0.000000 0.000000 
#    y 0.000000 1.689890 0.000000 
#    z 0.000000 0.000000 1.661240 
# 
# From -- ./inp_files/38279.got.cif
#   From: 2010.03.12/outbox.cif.g09.slc.cpg/sg24_20_cif.got.tgz:38279.got - 2010.04.14 03:06:53.
