data_PCOD8165514
_publ_section_title
;
Structure prediction by ZEFSAII (Michael W. Deem and Ramdas Pophale) SiO2 
 PCOD8165514
Probable space group: I 21 21 21
;
_chemical_formula_sum "Si O2"
_cell_formula_units_Z 40
_cell_length_a 8.563381
_cell_length_b 9.781759
_cell_length_c 25.393458
_cell_angle_alpha 90.000000
_cell_angle_beta 90.000000
_cell_angle_gamma 90.000000
_cell_volume 2127.081211
_symmetry_space_group_name_H-M "I 21 21 21"
_symmetry_group_IT_number 24
_symmetry_cell_setting 'orthorhombic'
loop_
_space_group_symop_operation_xyz
x,y,z
-x,1/2-y,z
x,-y,1/2-z
1/2-x,y,-z
1/2+x,1/2+y,1/2+z
1/2-x,-y,1/2+z
1/2+x,1/2-y,-z
-x,1/2+y,1/2-z
loop_
_atom_site_type_symbol
_atom_site_label
_atom_site_fract_x
_atom_site_fract_y
_atom_site_fract_z
Si Si1 0.323518 0.294342 0.448283
Si Si2 0.315949 0.765839 0.441744
Si Si3 0.323485 0.484480 0.887128
Si Si4 0.476820 0.088875 0.699536
Si Si5 0.161032 0.963879 0.094556
O O1 0.500000 0.250000 0.454749
O O2 0.250000 0.364091 0.500000
O O3 0.310183 0.407524 0.402917
O O4 0.212393 0.166802 0.437644
O O5 0.500000 0.750000 0.443516
O O6 0.250000 0.736783 0.500000
O O7 0.241393 0.666441 0.397594
O O8 0.277289 0.915887 0.421089
O O9 0.367218 0.518205 0.826080
O O10 0.482292 0.501697 0.921988
O O11 0.500000 0.250000 0.712835
O O12 0.431001 0.000000 0.750000
O O13 0.335409 0.071667 0.657271
#
# Coordination Sequence:
#
# PCOD8165514 Si02
#       5
#     8   8   8   8   8
#     4  12  22  36  60  87 127 169 205 250 312 377
#     4  12  24  38  58  91 131 175 213 252 312 373
#     4  10  21  40  59  90 124 156 213 258 306 373
#     4  10  22  40  72  98 120 158 218 270 321 372
#     4  10  21  40  59  90 124 156 213 258 306 373
#
# _framework density 18.805112000000001
#
# number of rings (size 3 to 8) (size 9 to 14) (size 15 to 20)
#    1.200    0.000    2.000    6.000    2.800    0.000 
#    0.000    0.000    0.000    7.200    0.000    0.000 
#    0.000    0.000    0.000    0.000    0.000    0.000 
#
# Total GULP energy -247853.909505 kJ/mol
# GULP energy per Si atom -12392.695475 kJ/mol
# Density = 1.876231 g / cm^3
# Si number density = 18.805112 Si / 1000 Ang^3
#
#
#
# Elastic Constant Matrix: (Units=GPa)
#
#
# Indices 1 2 3 4 5 6 
#
# 1 68.8947 -13.6118 19.2106 0.0000 0.0000 0.0000
# 2 -13.6118 92.3165 23.3658 0.0000 0.0000 0.0000
# 3 19.2106 23.3658 74.0118 0.0000 0.0000 0.0000
# 4 0.0000 0.0000 0.0000 30.2621 0.0000 0.0000
# 5 0.0000 0.0000 0.0000 0.0000 20.5141 0.0000
# 6 0.0000 0.0000 0.0000 0.0000 0.0000 24.8841
#
#
#
# Elastic Compliance Matrix: (Units=1/GPa)
#
#
# Indices 1 2 3 4 5 6 
#
# 1 0.016849 0.003903 -0.005606 0.000000 0.000000 0.000000
# 2 0.003903 0.012677 -0.005015 0.000000 0.000000 0.000000
# 3 -0.005606 -0.005015 0.016550 0.000000 0.000000 0.000000
# 4 0.000000 0.000000 0.000000 0.033045 0.000000 0.000000
# 5 0.000000 0.000000 0.000000 0.000000 0.048747 0.000000
# 6 0.000000 0.000000 0.000000 0.000000 0.000000 0.040186
#
#
# Mechanical properties :
#
#
# Convention : Reuss Voigt Hill
#
# Bulk Modulus (GPa) = 30.63685 32.57249 31.60467
# Shear Modulus (GPa) = 25.99161 28.88263 27.43712
#
# Velocity S-wave (km/s) = 3.72177 3.92330 3.82386
# Velocity P-wave (km/s) = 5.89880 6.15481 6.02817
#
# Compressibility (1/GPa) = 0.03264043
#
# Stress axis : x y z
#
# Youngs Moduli (GPa) = 59.35022 78.88164 60.42391
#
# Poissons Ratio (x) = -0.30789 0.33871
# Poissons Ratio (y) = -0.23165 0.30305
# Poissons Ratio (z) = 0.33270 0.39562
#
# Static dielectric constant tensor:
#      x y z
#    x 3.143930 0.000000 0.000000 
#    y 0.000000 3.579430 0.000000 
#    z 0.000000 0.000000 3.232000 
# 
# 
# High freq. dielectric constant tensor:
#      x y z
#    x 1.718350 0.000000 0.000000 
#    y 0.000000 1.748260 0.000000 
#    z 0.000000 0.000000 1.708580 
# 
# From -- ./inp_files/35011.got.cif
#   From: 2010.03.12/outbox.cif.g09.slc.cpg/sg24_18_cif.got.tgz:35011.got - 2010.04.14 03:06:53.
