data_PCOD8165245
_publ_section_title
;
Structure prediction by ZEFSAII (Michael W. Deem and Ramdas Pophale) SiO2 
 PCOD8165245
Probable space group: I 21 21 21
;
_chemical_formula_sum "Si O2"
_cell_formula_units_Z 64
_cell_length_a 9.951489
_cell_length_b 16.992508
_cell_length_c 18.635608
_cell_angle_alpha 90.000000
_cell_angle_beta 90.000000
_cell_angle_gamma 90.000000
_cell_volume 3151.295410
_symmetry_space_group_name_H-M "I 21 21 21"
_symmetry_group_IT_number 24
_symmetry_cell_setting 'orthorhombic'
loop_
_space_group_symop_operation_xyz
x,y,z
-x,1/2-y,z
x,-y,1/2-z
1/2-x,y,-z
1/2+x,1/2+y,1/2+z
1/2-x,-y,1/2+z
1/2+x,1/2-y,-z
-x,1/2+y,1/2-z
loop_
_atom_site_type_symbol
_atom_site_label
_atom_site_fract_x
_atom_site_fract_y
_atom_site_fract_z
Si Si1 0.641089 0.089132 0.063467
Si Si2 0.635804 0.088248 0.444010
Si Si3 0.718360 0.806883 0.830677
Si Si4 0.075093 0.144551 0.323269
Si Si5 0.606394 0.318954 0.830290
Si Si6 0.393684 0.107978 0.978142
Si Si7 0.349791 0.717018 0.320585
Si Si8 0.115651 0.924528 0.031450
O O1 0.679431 0.138682 0.133459
O O2 0.613339 0.999067 0.090357
O O3 0.750000 0.093185 0.000000
O O4 0.508437 0.134136 0.033459
O O5 0.750000 0.073369 0.500000
O O6 0.679875 0.156197 0.388949
O O7 0.506156 0.118112 0.489152
O O8 0.653117 0.722649 0.851155
O O9 0.586703 0.859885 0.821502
O O10 0.808850 0.803282 0.760207
O O11 0.120659 0.126675 0.241207
O O12 0.115408 0.080307 0.382065
O O13 0.500000 0.250000 0.810305
O O14 0.558542 0.368537 0.898303
O O15 0.751415 0.284392 0.850454
O O16 0.389007 0.015369 0.986039
O O17 0.250000 0.145573 0.000000
O O18 0.500000 0.750000 0.323638
O O19 0.250000 0.885465 0.000000
#
# Coordination Sequence:
#
# PCOD8165245 Si02
#       8
#     8   8   8   8   8   8   8   8
#     4  10  22  37  57  89 120 150 200 247 289 348
#     4  10  20  38  61  86 119 155 193 243 295 349
#     4  10  21  39  60  85 119 151 192 239 293 344
#     4  10  20  40  60  86 118 149 192 245 283 348
#     4  11  21  38  60  84 118 156 198 241 290 347
#     4  10  22  39  59  85 119 158 194 239 293 349
#     4  11  23  38  57  86 120 155 197 247 292 345
#     4  10  22  40  60  88 120 151 195 243 291 350
#
# _framework density 20.309108999999999
#
# number of rings (size 3 to 8) (size 9 to 14) (size 15 to 20)
#    0.000    1.750    3.750    1.500    0.000    6.500 
#    0.000    1.250    0.000    7.500    0.000    0.000 
#    0.000    0.000    0.000    0.000    0.000    0.000 
#
# Total GULP energy -396502.762075 kJ/mol
# GULP energy per Si atom -12390.711315 kJ/mol
# Density = 2.026288 g / cm^3
# Si number density = 20.309109 Si / 1000 Ang^3
#
#
#
# Elastic Constant Matrix: (Units=GPa)
#
#
# Indices 1 2 3 4 5 6 
#
# 1 124.4106 19.5153 29.7766 0.0000 0.0000 0.0000
# 2 19.5153 24.7043 30.7371 0.0000 0.0000 0.0000
# 3 29.7766 30.7371 102.8571 0.0000 0.0000 0.0000
# 4 0.0000 0.0000 0.0000 33.8784 0.0000 0.0000
# 5 0.0000 0.0000 0.0000 0.0000 34.5840 0.0000
# 6 0.0000 0.0000 0.0000 0.0000 0.0000 19.6476
#
#
#
# Elastic Compliance Matrix: (Units=1/GPa)
#
#
# Indices 1 2 3 4 5 6 
#
# 1 0.009214 -0.006304 -0.000784 0.000000 0.000000 0.000000
# 2 -0.006304 0.068750 -0.018720 0.000000 0.000000 0.000000
# 3 -0.000784 -0.018720 0.015543 0.000000 0.000000 0.000000
# 4 0.000000 0.000000 0.000000 0.029517 0.000000 0.000000
# 5 0.000000 0.000000 0.000000 0.000000 0.028915 0.000000
# 6 0.000000 0.000000 0.000000 0.000000 0.000000 0.050897
#
#
# Mechanical properties :
#
#
# Convention : Reuss Voigt Hill
#
# Bulk Modulus (GPa) = 23.87054 45.78110 34.82582
# Shear Modulus (GPa) = 18.62786 29.08488 23.85637
#
# Velocity S-wave (km/s) = 3.03184 3.78843 3.43105
# Velocity P-wave (km/s) = 4.90257 6.45967 5.73422
#
# Compressibility (1/GPa) = 0.04189265
#
# Stress axis : x y z
#
# Youngs Moduli (GPa) = 108.52696 14.54551 64.33690
#
# Poissons Ratio (x) = 0.09169 0.05042
# Poissons Ratio (y) = 0.68413 1.20437
# Poissons Ratio (z) = 0.08505 0.27229
#
# Static dielectric constant tensor:
#      x y z
#    x 4.063890 0.000000 0.000000 
#    y 0.000000 3.454300 0.000000 
#    z 0.000000 0.000000 3.580610 
# 
# 
# High freq. dielectric constant tensor:
#      x y z
#    x 1.808600 0.000000 0.000000 
#    y 0.000000 1.764980 0.000000 
#    z 0.000000 0.000000 1.796360 
# 
# From -- ./inp_files/29827.got.cif
#   From: 2010.03.12/outbox.cif.g09.slc.cpg/sg24_15_cif.got.tgz:29827.got - 2010.04.14 03:06:53.
