data_PCOD8165197
_publ_section_title
;
Structure prediction by ZEFSAII (Michael W. Deem and Ramdas Pophale) SiO2 
 PCOD8165197
Probable space group: I 21 21 21
;
_chemical_formula_sum "Si O2"
_cell_formula_units_Z 44
_cell_length_a 4.997357
_cell_length_b 15.300441
_cell_length_c 29.177814
_cell_angle_alpha 90.000000
_cell_angle_beta 90.000000
_cell_angle_gamma 90.000000
_cell_volume 2230.987185
_symmetry_space_group_name_H-M "I 21 21 21"
_symmetry_group_IT_number 24
_symmetry_cell_setting 'orthorhombic'
loop_
_space_group_symop_operation_xyz
x,y,z
-x,1/2-y,z
x,-y,1/2-z
1/2-x,y,-z
1/2+x,1/2+y,1/2+z
1/2-x,-y,1/2+z
1/2+x,1/2-y,-z
-x,1/2+y,1/2-z
loop_
_atom_site_type_symbol
_atom_site_label
_atom_site_fract_x
_atom_site_fract_y
_atom_site_fract_z
Si Si1 0.407435 0.020976 0.393913
Si Si2 0.902347 0.916360 0.414766
Si Si3 0.247803 0.189096 0.552070
Si Si4 0.113714 0.344229 0.181820
Si Si5 0.391996 0.050558 0.203538
Si Si6 0.750000 0.804989 0.500000
O O1 0.286755 0.112524 0.410903
O O2 0.699981 0.999599 0.414747
O O3 0.435744 0.017020 0.338709
O O4 0.207709 0.946680 0.411848
O O5 0.847398 0.850775 0.372792
O O6 0.873577 0.863909 0.460829
O O7 0.500000 0.250000 0.563304
O O8 0.250000 0.150888 0.500000
O O9 0.000000 0.250000 0.558600
O O10 0.404882 0.366595 0.202647
O O11 0.000000 0.250000 0.196052
O O12 0.910667 0.416117 0.201345
O O13 0.443401 0.000000 0.250000
O O14 0.500000 0.750000 0.480252
#
# Coordination Sequence:
#
# PCOD8165197 Si02
#       6
#     8   8   8   8   8   4
#     4  10  21  38  58  81 110 150 190 228 287 344
#     4  10  22  35  56  82 111 152 186 228 271 332
#     4  10  21  36  56  82 110 145 185 235 284 330
#     4  10  20  37  59  83 112 149 190 227 281 341
#     4  10  21  38  59  84 114 146 188 240 285 339
#     4  12  24  36  52  82 118 148 184 230 278 318
#
# _framework density 19.722208999999999
#
# number of rings (size 3 to 8) (size 9 to 14) (size 15 to 20)
#    0.000    1.818    0.000    3.818    2.545    2.909 
#    0.000    2.727    0.000    0.000    0.000    0.000 
#    0.000    0.000    0.000    0.000    0.000    0.000 
#
# Total GULP energy -272788.479653 kJ/mol
# GULP energy per Si atom -12399.476348 kJ/mol
# Density = 1.967732 g / cm^3
# Si number density = 19.722209 Si / 1000 Ang^3
#
#
#
# Elastic Constant Matrix: (Units=GPa)
#
#
# Indices 1 2 3 4 5 6 
#
# 1 99.6160 13.4194 26.7090 0.0000 0.0000 0.0000
# 2 13.4194 81.9269 54.2622 0.0000 0.0000 0.0000
# 3 26.7090 54.2622 119.1544 0.0000 0.0000 0.0000
# 4 0.0000 0.0000 0.0000 15.9779 0.0000 0.0000
# 5 0.0000 0.0000 0.0000 0.0000 21.5950 0.0000
# 6 0.0000 0.0000 0.0000 0.0000 0.0000 37.4601
#
#
#
# Elastic Compliance Matrix: (Units=1/GPa)
#
#
# Indices 1 2 3 4 5 6 
#
# 1 0.010684 -0.000235 -0.002288 0.000000 0.000000 0.000000
# 2 -0.000235 0.017483 -0.007909 0.000000 0.000000 0.000000
# 3 -0.002288 -0.007909 0.012507 0.000000 0.000000 0.000000
# 4 0.000000 0.000000 0.000000 0.062586 0.000000 0.000000
# 5 0.000000 0.000000 0.000000 0.000000 0.046307 0.000000
# 6 0.000000 0.000000 0.000000 0.000000 0.000000 0.026695
#
#
# Mechanical properties :
#
#
# Convention : Reuss Voigt Hill
#
# Bulk Modulus (GPa) = 50.47861 54.38653 52.43257
# Shear Modulus (GPa) = 24.54251 28.76038 26.65144
#
# Velocity S-wave (km/s) = 3.53145 3.82288 3.68005
# Velocity P-wave (km/s) = 6.50219 6.86455 6.68583
#
# Compressibility (1/GPa) = 0.01981037
#
# Stress axis : x y z
#
# Youngs Moduli (GPa) = 93.60141 57.19933 79.95510
#
# Poissons Ratio (x) = 0.01342 0.18293
# Poissons Ratio (y) = 0.02196 0.63236
# Poissons Ratio (z) = 0.21416 0.45239
#
# Static dielectric constant tensor:
#      x y z
#    x 3.920480 0.000000 0.000000 
#    y 0.000000 3.315150 0.000000 
#    z 0.000000 0.000000 3.213370 
# 
# 
# High freq. dielectric constant tensor:
#      x y z
#    x 1.796700 0.000000 0.000000 
#    y 0.000000 1.751870 0.000000 
#    z 0.000000 0.000000 1.754550 
# 
# From -- ./inp_files/7048.got.cif
#   From: 2010.03.12/outbox.cif.g09.slc.cpg/sg24_4_cif.got.tgz:7048.got - 2010.04.14 03:06:53.
