data_PCOD8165229
_publ_section_title
;
Structure prediction by ZEFSAII (Michael W. Deem and Ramdas Pophale) SiO2 
 PCOD8165229
Probable space group: I 21 21 21
;
_chemical_formula_sum "Si O2"
_cell_formula_units_Z 52
_cell_length_a 11.613897
_cell_length_b 24.301691
_cell_length_c 9.685231
_cell_angle_alpha 90.000000
_cell_angle_beta 90.000000
_cell_angle_gamma 90.000000
_cell_volume 2733.533798
_symmetry_space_group_name_H-M "I 21 21 21"
_symmetry_group_IT_number 24
_symmetry_cell_setting 'orthorhombic'
loop_
_space_group_symop_operation_xyz
x,y,z
-x,1/2-y,z
x,-y,1/2-z
1/2-x,y,-z
1/2+x,1/2+y,1/2+z
1/2-x,-y,1/2+z
1/2+x,1/2-y,-z
-x,1/2+y,1/2-z
loop_
_atom_site_type_symbol
_atom_site_label
_atom_site_fract_x
_atom_site_fract_y
_atom_site_fract_z
Si Si1 0.523205 0.500000 0.250000
Si Si2 0.577746 0.699749 0.849481
Si Si3 0.552191 0.155135 0.400822
Si Si4 0.881782 0.964226 0.992265
Si Si5 0.106918 0.886484 0.670676
Si Si6 0.127175 0.109778 0.144892
Si Si7 0.250000 0.734871 0.000000
Si Si8 0.024072 0.000000 0.250000
O O1 0.444022 0.504408 0.385132
O O2 0.601831 0.445930 0.245353
O O3 0.500000 0.750000 0.802268
O O4 0.558662 0.654301 0.732847
O O5 0.702272 0.726328 0.877617
O O6 0.545718 0.670460 0.991923
O O7 0.610597 0.097344 0.435048
O O8 0.483805 0.153313 0.252625
O O9 0.654018 0.199851 0.416169
O O10 0.750000 0.982694 0.000000
O O11 0.941902 0.970999 0.139281
O O12 0.076228 0.885985 0.509121
O O13 0.241561 0.871276 0.672597
O O14 0.107427 0.046916 0.190218
#
# Coordination Sequence:
#
# PCOD8165229 Si02
#       8
#     4   8   8   8   8   8   4   4
#     4  10  20  38  52  86 122 154 194 240 304 366
#     4  10  21  38  61  87 117 155 206 255 307 370
#     4  10  20  38  61  89 120 159 209 258 312 372
#     4  11  21  36  58  87 121 160 200 251 302 372
#     4  10  22  37  59  84 126 156 202 252 303 375
#     4  11  22  40  58  90 120 163 200 253 313 365
#     4  10  20  38  66  90 118 158 208 270 316 366
#     4  12  22  38  62  88 126 162 204 250 312 378
#
# _framework density 19.022995000000002
#
# number of rings (size 3 to 8) (size 9 to 14) (size 15 to 20)
#    0.000    1.538    3.846    1.846    0.000    0.000 
#    0.000    5.385    0.000    0.000    0.000    0.000 
#    0.000    0.000    0.000    0.000    0.000    0.000 
#
# Total GULP energy -322184.156698 kJ/mol
# GULP energy per Si atom -12391.698335 kJ/mol
# Density = 1.897970 g / cm^3
# Si number density = 19.022995 Si / 1000 Ang^3
#
#
#
# Elastic Constant Matrix: (Units=GPa)
#
#
# Indices 1 2 3 4 5 6 
#
# 1 80.9412 14.1232 43.4929 0.0001 0.0000 -0.0001
# 2 14.1232 74.1219 37.2261 0.0001 0.0001 -0.0002
# 3 43.4929 37.2261 130.8833 0.0006 0.0003 -0.0007
# 4 0.0001 0.0001 0.0006 32.9269 0.0002 -0.0001
# 5 0.0000 0.0001 0.0003 0.0002 24.4859 -0.0001
# 6 -0.0001 -0.0002 -0.0007 -0.0001 -0.0001 17.3664
#
#
#
# Elastic Compliance Matrix: (Units=1/GPa)
#
#
# Indices 1 2 3 4 5 6 
#
# 1 0.015051 -0.000415 -0.004883 0.000000 0.000000 0.000000
# 2 -0.000415 0.015751 -0.004342 0.000000 0.000000 0.000000
# 3 -0.004883 -0.004342 0.010498 0.000000 0.000000 0.000000
# 4 0.000000 0.000000 0.000000 0.030370 0.000000 0.000000
# 5 0.000000 0.000000 0.000000 0.000000 0.040840 0.000000
# 6 0.000000 0.000000 0.000000 0.000000 0.000000 0.057583
#
#
# Mechanical properties :
#
#
# Convention : Reuss Voigt Hill
#
# Bulk Modulus (GPa) = 45.41523 52.84787 49.13155
# Shear Modulus (GPa) = 25.41759 27.69610 26.55685
#
# Velocity S-wave (km/s) = 3.65931 3.81980 3.74041
# Velocity P-wave (km/s) = 6.46372 6.87720 6.67366
#
# Compressibility (1/GPa) = 0.02201905
#
# Stress axis : x y z
#
# Youngs Moduli (GPa) = 66.44004 63.48772 95.25509
#
# Poissons Ratio (x) = 0.02636 0.46517
# Poissons Ratio (y) = 0.02759 0.41359
# Poissons Ratio (z) = 0.32446 0.27566
#
# Static dielectric constant tensor:
#      x y z
#    x 3.332270 0.000000 0.000000 
#    y 0.000000 3.524990 0.000000 
#    z 0.000000 0.000000 3.027890 
# 
# 
# High freq. dielectric constant tensor:
#      x y z
#    x 1.741090 0.000000 0.000000 
#    y 0.000000 1.742120 0.000000 
#    z 0.000000 0.000000 1.735490 
# 
# From -- ./inp_files/11492.got.cif
#   From: 2010.03.12/outbox.cif.g09.slc.cpg/sg24_6_cif.got.tgz:11492.got - 2010.04.14 03:06:53.
