data_PCOD8165048
_publ_section_title
;
Structure prediction by ZEFSAII (Michael W. Deem and Ramdas Pophale) SiO2 
 PCOD8165048
Probable space group: I 21 21 21
;
_chemical_formula_sum "Si O2"
_cell_formula_units_Z 64
_cell_length_a 17.226300
_cell_length_b 14.644391
_cell_length_c 14.163826
_cell_angle_alpha 90.000000
_cell_angle_beta 90.000000
_cell_angle_gamma 90.000000
_cell_volume 3573.089585
_symmetry_space_group_name_H-M "I 21 21 21"
_symmetry_group_IT_number 24
_symmetry_cell_setting 'orthorhombic'
loop_
_space_group_symop_operation_xyz
x,y,z
-x,1/2-y,z
x,-y,1/2-z
1/2-x,y,-z
1/2+x,1/2+y,1/2+z
1/2-x,-y,1/2+z
1/2+x,1/2-y,-z
-x,1/2+y,1/2-z
loop_
_atom_site_type_symbol
_atom_site_label
_atom_site_fract_x
_atom_site_fract_y
_atom_site_fract_z
Si Si1 0.925480 0.099967 0.994734
Si Si2 0.425480 0.400033 0.494734
Si Si3 0.438040 0.105585 0.141009
Si Si4 0.841030 0.284837 0.000346
Si Si5 0.540380 0.653369 0.854574
Si Si6 0.158970 0.215163 0.499654
Si Si7 0.938040 0.605585 0.858991
Si Si8 0.040380 0.153369 0.145426
O O1 0.859845 0.176719 0.004947
O O2 0.978276 0.126340 0.904910
O O3 0.886196 1.000000 0.981277
O O4 0.981720 0.090882 0.085884
O O5 0.481720 0.409118 0.585884
O O6 0.359845 0.323281 0.504947
O O7 0.478276 0.373660 0.404910
O O8 0.373432 0.170285 0.094967
O O9 0.444025 0.131363 0.250000
O O10 0.414700 1.000000 0.125398
O O11 0.750000 0.298902 0.000000
O O12 0.877704 0.336269 0.090980
O O13 0.500000 0.750000 0.845727
O O14 0.555287 0.611769 0.750000
O O15 0.622296 0.663731 0.909020
O O16 0.250000 0.201098 0.500000
O O17 0.126568 0.170285 0.594967
O O18 0.000000 0.250000 0.154273
#
# Coordination Sequence:
#
# PCOD8165048 Si02
#       8
#     8   8   8   8   8   8   8   8
#     4   9  18  32  50  73  98 127 166 202 233 280
#     4   9  18  32  50  73  98 127 166 202 233 280
#     4   9  18  34  55  74  92 121 164 209 246 281
#     4  10  20  31  47  74 105 132 156 191 242 297
#     4   8  15  30  49  66  88 122 164 204 235 268
#     4  10  20  31  47  74 105 132 156 191 242 297
#     4   9  18  34  55  74  92 121 164 209 246 281
#     4   8  15  30  49  66  88 122 164 204 235 268
#
# _framework density 17.911670000000001
#
# number of rings (size 3 to 8) (size 9 to 14) (size 15 to 20)
#    0.000    3.000    0.000    2.250    0.000    4.500 
#    0.000    0.000    0.000    0.000    0.000    7.000 
#    0.000    0.000    0.000    0.000    0.000    0.000 
#
# Total GULP energy -396654.342713 kJ/mol
# GULP energy per Si atom -12395.448210 kJ/mol
# Density = 1.787090 g / cm^3
# Si number density = 17.911670 Si / 1000 Ang^3
#
#
#
# Elastic Constant Matrix: (Units=GPa)
#
#
# Indices 1 2 3 4 5 6 
#
# 1 54.6768 -3.9711 17.8382 0.0000 0.0000 0.0000
# 2 -3.9711 42.1820 5.3577 0.0000 0.0000 0.0000
# 3 17.8382 5.3577 134.9308 0.0000 0.0000 0.0000
# 4 0.0000 0.0000 0.0000 6.1327 0.0000 0.0000
# 5 0.0000 0.0000 0.0000 0.0000 10.6629 0.0000
# 6 0.0000 0.0000 0.0000 0.0000 0.0000 16.2514
#
#
#
# Elastic Compliance Matrix: (Units=1/GPa)
#
#
# Indices 1 2 3 4 5 6 
#
# 1 0.019306 0.002153 -0.002638 0.000000 0.000000 0.000000
# 2 0.002153 0.024067 -0.001240 0.000000 0.000000 0.000000
# 3 -0.002638 -0.001240 0.007809 0.000000 0.000000 0.000000
# 4 0.000000 0.000000 0.000000 0.163061 0.000000 0.000000
# 5 0.000000 0.000000 0.000000 0.000000 0.093783 0.000000
# 6 0.000000 0.000000 0.000000 0.000000 0.000000 0.061533
#
#
# Mechanical properties :
#
#
# Convention : Reuss Voigt Hill
#
# Bulk Modulus (GPa) = 20.95051 30.02655 25.48853
# Shear Modulus (GPa) = 12.85609 20.78040 16.81825
#
# Velocity S-wave (km/s) = 2.68199 3.40981 3.06756
# Velocity P-wave (km/s) = 4.61657 5.68352 5.17760
#
# Compressibility (1/GPa) = 0.04773154
#
# Stress axis : x y z
#
# Youngs Moduli (GPa) = 51.79681 41.55068 128.05455
#
# Poissons Ratio (x) = -0.08944 0.33778
# Poissons Ratio (y) = -0.11150 0.15881
# Poissons Ratio (z) = 0.13663 0.05153
#
# Static dielectric constant tensor:
#      x y z
#    x 2.901380 0.000000 0.000000 
#    y 0.000000 3.409580 0.000000 
#    z 0.000000 0.000000 3.774470 
# 
# 
# High freq. dielectric constant tensor:
#      x y z
#    x 1.653140 0.000000 0.000000 
#    y 0.000000 1.700230 0.000000 
#    z 0.000000 0.000000 1.699140 
# 
# From -- ./inp_files/27270.got.cif
#   From: 2010.03.12/outbox.cif.g09.slc.cpg/sg24_14_cif.got.tgz:27270.got - 2010.04.14 03:06:53.
