data_PCOD8165765
_publ_section_title
;
Structure prediction by ZEFSAII (Michael W. Deem and Ramdas Pophale) SiO2 
 PCOD8165765
Probable space group: I 21 21 21
;
_chemical_formula_sum "Si O2"
_cell_formula_units_Z 40
_cell_length_a 7.862149
_cell_length_b 24.580905
_cell_length_c 9.097595
_cell_angle_alpha 90.000000
_cell_angle_beta 90.000000
_cell_angle_gamma 90.000000
_cell_volume 1758.189725
_symmetry_space_group_name_H-M "I 21 21 21"
_symmetry_group_IT_number 24
_symmetry_cell_setting 'orthorhombic'
loop_
_space_group_symop_operation_xyz
x,y,z
-x,1/2-y,z
x,-y,1/2-z
1/2-x,y,-z
1/2+x,1/2+y,1/2+z
1/2-x,-y,1/2+z
1/2+x,1/2-y,-z
-x,1/2+y,1/2-z
loop_
_atom_site_type_symbol
_atom_site_label
_atom_site_fract_x
_atom_site_fract_y
_atom_site_fract_z
Si Si1 0.596517 0.476406 0.909553
Si Si2 0.188810 0.269039 0.655034
Si Si3 0.500000 0.250000 0.869907
Si Si4 0.010298 0.632403 0.476139
Si Si5 0.750000 0.972002 0.000000
Si Si6 0.190858 0.384631 0.747329
O O1 0.606473 0.500000 0.750000
O O2 0.624502 0.410626 0.907819
O O3 0.750000 0.504122 0.000000
O O4 0.414045 0.489915 0.982661
O O5 0.250000 0.243479 0.500000
O O6 0.327722 0.252972 0.775976
O O7 0.182162 0.334052 0.636644
O O8 0.000000 0.250000 0.699155
O O9 0.466819 0.196683 0.970488
O O10 0.024149 0.614265 0.648272
O O11 0.169406 0.624123 0.370697
O O12 0.721856 0.937668 0.148978
#
# Coordination Sequence:
#
# PCOD8165765 Si02
#       6
#     8   8   4   8   4   8
#     4  12  29  48  74 111 144 189 248 299 365 432
#     4  11  22  40  66 101 142 184 238 296 353 432
#     4  10  24  46  70 102 144 188 234 296 364 436
#     4  10  23  46  71 101 146 182 237 296 354 433
#     4  12  24  48  80  98 146 194 236 308 358 430
#     4  10  22  42  73 105 135 187 242 285 362 428
#
# _framework density 22.750674
#
# number of rings (size 3 to 8) (size 9 to 14) (size 15 to 20)
#    0.000    1.200    4.000    1.200    4.200    1.600 
#    3.600    0.000    0.000    0.000    0.000    0.000 
#    0.000    0.000    0.000    0.000    0.000    0.000 
#
# Total GULP energy -247776.574862 kJ/mol
# GULP energy per Si atom -12388.828743 kJ/mol
# Density = 2.269889 g / cm^3
# Si number density = 22.750674 Si / 1000 Ang^3
#
#
#
# Elastic Constant Matrix: (Units=GPa)
#
#
# Indices 1 2 3 4 5 6 
#
# 1 144.1800 35.4601 37.5841 -0.0028 0.0000 0.0001
# 2 35.4601 154.2408 52.3919 -0.0023 0.0001 0.0001
# 3 37.5841 52.3919 113.1980 -0.0196 -0.0008 0.0006
# 4 -0.0028 -0.0023 -0.0196 108.4170 -0.0017 0.0017
# 5 0.0000 0.0001 -0.0008 -0.0017 24.4586 0.0000
# 6 0.0001 0.0001 0.0006 0.0017 0.0000 25.5406
#
#
#
# Elastic Compliance Matrix: (Units=1/GPa)
#
#
# Indices 1 2 3 4 5 6 
#
# 1 0.007740 -0.001076 -0.002072 0.000000 0.000000 0.000000
# 2 -0.001076 0.007842 -0.003273 0.000000 0.000000 0.000000
# 3 -0.002072 -0.003273 0.011037 0.000002 0.000000 0.000000
# 4 0.000000 0.000000 0.000002 0.009224 0.000001 -0.000001
# 5 0.000000 0.000000 0.000000 0.000001 0.040885 0.000000
# 6 0.000000 0.000000 0.000000 -0.000001 0.000000 0.039153
#
#
# Mechanical properties :
#
#
# Convention : Reuss Voigt Hill
#
# Bulk Modulus (GPa) = 72.57544 73.61013 73.09279
# Shear Modulus (GPa) = 37.50501 50.76208 44.13354
#
# Velocity S-wave (km/s) = 4.06461 4.72872 4.40918
# Velocity P-wave (km/s) = 7.34831 7.88922 7.62356
#
# Compressibility (1/GPa) = 0.01377877
#
# Stress axis : x y z
#
# Youngs Moduli (GPa) = 129.19087 127.51409 90.60674
#
# Poissons Ratio (x) = 0.13717 0.18775
# Poissons Ratio (y) = 0.13897 0.29651
# Poissons Ratio (z) = 0.26770 0.41729
#
# Static dielectric constant tensor:
#      x y z
#    x 2.640470 -0.000020 -0.000010 
#    y -0.000020 4.455390 0.000000 
#    z -0.000010 0.000000 4.065520 
# 
# 
# High freq. dielectric constant tensor:
#      x y z
#    x 1.890560 0.000000 0.000000 
#    y 0.000000 1.904160 0.000000 
#    z 0.000000 0.000000 1.906560 
# 
# From -- ./inp_files/9523.got.cif
#   From: 2010.03.12/outbox.cif.g09.slc.cpg/sg24_5_cif.got.tgz:9523.got - 2010.04.14 03:06:53.
