data_PCOD8165247
_publ_section_title
;
Structure prediction by ZEFSAII (Michael W. Deem and Ramdas Pophale) SiO2 
 PCOD8165247
Probable space group: I 21 21 21
;
_chemical_formula_sum "Si O2"
_cell_formula_units_Z 56
_cell_length_a 15.685810
_cell_length_b 12.219983
_cell_length_c 14.067682
_cell_angle_alpha 90.000000
_cell_angle_beta 90.000000
_cell_angle_gamma 90.000000
_cell_volume 2696.497950
_symmetry_space_group_name_H-M "I 21 21 21"
_symmetry_group_IT_number 24
_symmetry_cell_setting 'orthorhombic'
loop_
_space_group_symop_operation_xyz
x,y,z
-x,1/2-y,z
x,-y,1/2-z
1/2-x,y,-z
1/2+x,1/2+y,1/2+z
1/2-x,-y,1/2+z
1/2+x,1/2-y,-z
-x,1/2+y,1/2-z
loop_
_atom_site_type_symbol
_atom_site_label
_atom_site_fract_x
_atom_site_fract_y
_atom_site_fract_z
Si Si1 0.750532 0.500000 0.750000
Si Si2 0.575624 0.899681 0.811018
Si Si3 0.885290 0.666384 0.248402
Si Si4 0.842923 0.725935 0.459367
Si Si5 0.548977 0.966834 0.147287
Si Si6 0.396192 0.886022 0.358228
Si Si7 0.000000 0.250000 0.708669
Si Si8 0.845283 0.977231 0.478018
O O1 0.687979 0.590712 0.798094
O O2 0.804180 0.435876 0.830406
O O3 0.627391 0.789469 0.788692
O O4 0.476047 0.881265 0.786674
O O5 0.598438 0.935515 0.918341
O O6 0.612604 0.000000 0.750000
O O7 0.873714 0.663604 0.363711
O O8 0.750000 0.695790 0.500000
O O9 0.902155 0.685927 0.545916
O O10 0.849382 0.854916 0.435231
O O11 0.548505 0.835065 0.139825
O O12 0.582590 0.000000 0.250000
O O13 0.453724 0.007772 0.127190
O O14 0.613392 0.028509 0.080388
O O15 0.430343 0.811719 0.272522
O O16 0.750000 0.018275 0.500000
#
# Coordination Sequence:
#
# PCOD8165247 Si02
#       8
#     4   8   8   8   8   8   4   8
#     4  12  22  42  66 108 138 180 240 294 360 444
#     4  11  24  45  69 101 145 191 240 303 372 441
#     4  11  25  42  72 102 144 196 241 298 374 437
#     4  11  22  39  67 103 132 177 237 303 345 417
#     4  10  22  41  65  94 128 177 224 282 356 427
#     4  11  22  39  66 101 136 173 229 292 353 430
#     4  10  20  38  62  90 130 180 212 272 362 418
#     4  11  26  45  67 101 136 179 248 301 362 435
#
# _framework density 20.767679000000001
#
# number of rings (size 3 to 8) (size 9 to 14) (size 15 to 20)
#    0.000    1.143    5.714    1.714    2.000    4.000 
#    0.000    0.000    3.143    0.000    0.000    0.000 
#    0.000    0.000    0.000    0.000    0.000    0.000 
#
# Total GULP energy -347020.511439 kJ/mol
# GULP energy per Si atom -12393.589694 kJ/mol
# Density = 2.072041 g / cm^3
# Si number density = 20.767679 Si / 1000 Ang^3
#
#
#
# Elastic Constant Matrix: (Units=GPa)
#
#
# Indices 1 2 3 4 5 6 
#
# 1 120.6465 50.2411 45.3402 0.0000 0.0000 0.0000
# 2 50.2411 128.2078 24.6068 0.0000 0.0000 0.0000
# 3 45.3402 24.6068 87.8537 0.0000 0.0000 0.0000
# 4 0.0000 0.0000 0.0000 16.6969 0.0000 0.0000
# 5 0.0000 0.0000 0.0000 0.0000 32.9348 0.0000
# 6 0.0000 0.0000 0.0000 0.0000 0.0000 36.8652
#
#
#
# Elastic Compliance Matrix: (Units=1/GPa)
#
#
# Indices 1 2 3 4 5 6 
#
# 1 0.011678 -0.003614 -0.005015 0.000000 0.000000 0.000000
# 2 -0.003614 0.009361 -0.000757 0.000000 0.000000 0.000000
# 3 -0.005015 -0.000757 0.014183 0.000000 0.000000 0.000000
# 4 0.000000 0.000000 0.000000 0.059891 0.000000 0.000000
# 5 0.000000 0.000000 0.000000 0.000000 0.030363 0.000000
# 6 0.000000 0.000000 0.000000 0.000000 0.000000 0.027126
#
#
# Mechanical properties :
#
#
# Convention : Reuss Voigt Hill
#
# Bulk Modulus (GPa) = 60.78660 64.12046 62.45353
# Shear Modulus (GPa) = 28.27140 31.73403 30.00271
#
# Velocity S-wave (km/s) = 3.69361 3.91327 3.80502
# Velocity P-wave (km/s) = 6.89374 7.16661 7.03150
#
# Compressibility (1/GPa) = 0.01645100
#
# Stress axis : x y z
#
# Youngs Moduli (GPa) = 85.62945 106.82281 70.50887
#
# Poissons Ratio (x) = 0.38605 0.35359
# Poissons Ratio (y) = 0.30946 0.05337
# Poissons Ratio (z) = 0.42941 0.08085
#
# Static dielectric constant tensor:
#      x y z
#    x 3.887490 0.000000 0.000000 
#    y 0.000000 4.170330 0.000000 
#    z 0.000000 0.000000 3.780280 
# 
# 
# High freq. dielectric constant tensor:
#      x y z
#    x 1.809350 0.000000 0.000000 
#    y 0.000000 1.828680 0.000000 
#    z 0.000000 0.000000 1.797980 
# 
# From -- ./inp_files/26554.got.cif
#   From: 2010.03.12/outbox.cif.g09.slc.cpg/sg24_14_cif.got.tgz:26554.got - 2010.04.14 03:06:53.
