data_PCOD8165544
_publ_section_title
;
Structure prediction by ZEFSAII (Michael W. Deem and Ramdas Pophale) SiO2 
 PCOD8165544
Probable space group: I 21 21 21
;
_chemical_formula_sum "Si O2"
_cell_formula_units_Z 48
_cell_length_a 10.512103
_cell_length_b 22.414654
_cell_length_c 9.402775
_cell_angle_alpha 90.000000
_cell_angle_beta 90.000000
_cell_angle_gamma 90.000000
_cell_volume 2215.530284
_symmetry_space_group_name_H-M "I 21 21 21"
_symmetry_group_IT_number 24
_symmetry_cell_setting 'orthorhombic'
loop_
_space_group_symop_operation_xyz
x,y,z
-x,1/2-y,z
x,-y,1/2-z
1/2-x,y,-z
1/2+x,1/2+y,1/2+z
1/2-x,-y,1/2+z
1/2+x,1/2-y,-z
-x,1/2+y,1/2-z
loop_
_atom_site_type_symbol
_atom_site_label
_atom_site_fract_x
_atom_site_fract_y
_atom_site_fract_z
Si Si1 0.494223 0.068035 0.785865
Si Si2 0.887908 0.967811 0.556097
Si Si3 0.421830 0.338493 0.585913
Si Si4 0.525496 0.085848 0.321906
Si Si5 0.233080 0.125061 0.830429
Si Si6 0.185033 0.780154 0.137820
O O1 0.591393 0.103215 0.683040
O O2 0.349506 0.088520 0.761169
O O3 0.511546 0.000000 0.750000
O O4 0.539688 0.076537 0.947838
O O5 0.750000 0.987938 0.500000
O O6 0.869862 0.929117 0.700613
O O7 0.978589 0.026156 0.580048
O O8 0.431484 0.357927 0.419143
O O9 0.542370 0.302227 0.638604
O O10 0.306867 0.292261 0.621035
O O11 0.393986 0.096505 0.235962
O O12 0.243634 0.194460 0.778534
O O13 0.250000 0.122331 0.000000
O O14 0.250000 0.809862 0.000000
#
# Coordination Sequence:
#
# PCOD8165544 Si02
#       6
#     8   8   8   8   8   8
#     4  11  23  39  66 101 143 176 226 278 353 416
#     4  11  26  42  62 100 145 189 233 270 336 437
#     4  10  22  40  66  98 130 177 223 284 340 410
#     4  11  23  43  70  97 140 180 231 286 345 411
#     4  11  23  42  69 105 140 177 223 300 363 410
#     4  10  21  40  67  96 130 171 235 282 337 407
#
# _framework density 21.665241000000002
#
# number of rings (size 3 to 8) (size 9 to 14) (size 15 to 20)
#    0.000    1.333    5.000    0.000    4.667    2.000 
#    0.000    2.500    3.667    0.000    0.000    0.000 
#    0.000    0.000    0.000    0.000    0.000    0.000 
#
# Total GULP energy -297342.972853 kJ/mol
# GULP energy per Si atom -12389.290536 kJ/mol
# Density = 2.161593 g / cm^3
# Si number density = 21.665241 Si / 1000 Ang^3
#
#
#
# Elastic Constant Matrix: (Units=GPa)
#
#
# Indices 1 2 3 4 5 6 
#
# 1 79.0501 42.6572 35.9721 0.0002 0.0000 0.0000
# 2 42.6572 125.9198 59.9238 0.0000 -0.0001 0.0001
# 3 35.9721 59.9238 127.9824 0.0008 -0.0007 0.0002
# 4 0.0002 0.0000 0.0008 -18.0418 -0.0001 0.0001
# 5 0.0000 -0.0001 -0.0007 -0.0001 28.0552 0.0000
# 6 0.0000 0.0001 0.0002 0.0001 0.0000 21.1959
#
#
#
# Elastic Compliance Matrix: (Units=1/GPa)
#
#
# Indices 1 2 3 4 5 6 
#
# 1 0.016095 -0.004246 -0.002536 0.000000 0.000000 0.000000
# 2 -0.004246 0.011338 -0.004116 0.000000 0.000000 0.000000
# 3 -0.002536 -0.004116 0.010453 0.000000 0.000000 0.000000
# 4 0.000000 0.000000 0.000000 -0.055427 0.000000 0.000000
# 5 0.000000 0.000000 0.000000 0.000000 0.035644 0.000000
# 6 0.000000 0.000000 0.000000 0.000000 0.000000 0.047179
#
#
# Mechanical properties :
#
#
# Convention : Reuss Voigt Hill
#
# Bulk Modulus (GPa) = 62.14028 67.78429 64.96228
# Shear Modulus (GPa) = 54.08814 19.20180 36.64497
#
# Velocity S-wave (km/s) = 5.00196 2.98030 4.11715
# Velocity P-wave (km/s) = 7.88059 6.57252 7.25609
#
# Compressibility (1/GPa) = 0.01609262
#
# Stress axis : x y z
#
# Youngs Moduli (GPa) = 62.12997 88.19617 95.66327
#
# Poissons Ratio (x) = 0.37445 0.24260
# Poissons Ratio (y) = 0.26378 0.39370
# Poissons Ratio (z) = 0.15756 0.36297
#
# Static dielectric constant tensor:
#      x y z
#    x 3.808350 0.000000 0.000000 
#    y 0.000000 4.339530 0.000000 
#    z 0.000000 0.000000 4.344230 
# 
# 
# High freq. dielectric constant tensor:
#      x y z
#    x 1.842320 0.000000 0.000000 
#    y 0.000000 1.843650 0.000000 
#    z 0.000000 0.000000 1.860850 
# 
# From -- ./inp_files/11274.got.cif
#   From: 2010.03.12/outbox.cif.g09.slc.cpg/sg24_6_cif.got.tgz:11274.got - 2010.04.14 03:06:53.
