data_PCOD8165270
_publ_section_title
;
Structure prediction by ZEFSAII (Michael W. Deem and Ramdas Pophale) SiO2 
 PCOD8165270
Probable space group: I 21 21 21
;
_chemical_formula_sum "Si O2"
_cell_formula_units_Z 32
_cell_length_a 5.067324
_cell_length_b 18.883642
_cell_length_c 15.867270
_cell_angle_alpha 90.000000
_cell_angle_beta 90.000000
_cell_angle_gamma 90.000000
_cell_volume 1518.331645
_symmetry_space_group_name_H-M "I 21 21 21"
_symmetry_group_IT_number 24
_symmetry_cell_setting 'orthorhombic'
loop_
_space_group_symop_operation_xyz
x,y,z
-x,1/2-y,z
x,-y,1/2-z
1/2-x,y,-z
1/2+x,1/2+y,1/2+z
1/2-x,-y,1/2+z
1/2+x,1/2-y,-z
-x,1/2+y,1/2-z
loop_
_atom_site_type_symbol
_atom_site_label
_atom_site_fract_x
_atom_site_fract_y
_atom_site_fract_z
Si Si1 0.250000 0.702037 0.000000
Si Si2 0.169825 0.898023 0.404431
Si Si3 0.748800 0.800111 0.183008
Si Si4 0.811712 0.930303 0.695263
Si Si5 0.000000 0.250000 0.052899
O O1 0.500000 0.750000 0.988043
O O2 0.227443 0.661071 0.910208
O O3 0.250000 0.915717 0.500000
O O4 0.401113 0.920346 0.342866
O O5 0.112740 0.814232 0.391952
O O6 0.906011 0.940158 0.378386
O O7 0.500000 0.750000 0.199676
O O8 0.767575 0.862521 0.249907
O O9 0.000000 0.750000 0.191921
O O10 0.815843 0.000000 0.750000
O O11 0.250000 0.280420 0.000000
#
# Coordination Sequence:
#
# PCOD8165270 Si02
#       5
#     4   8   8   8   4
#     4   8  16  34  58  86 118 146 204 264 314 378
#     4  11  24  44  67  95 135 176 219 269 334 403
#     4  10  21  39  65  94 122 165 213 269 330 384
#     4  12  26  43  65  97 140 169 225 276 330 398
#     4  10  20  38  66 102 128 164 224 276 320 384
#
# _framework density 21.075763999999999
#
# number of rings (size 3 to 8) (size 9 to 14) (size 15 to 20)
#    0.000    1.500    0.000    6.000    5.250    0.000 
#    4.500    0.000    5.500    0.000    0.000    0.000 
#    0.000    0.000    0.000    0.000    0.000    0.000 
#
# Total GULP energy -198288.167280 kJ/mol
# GULP energy per Si atom -12393.010455 kJ/mol
# Density = 2.102780 g / cm^3
# Si number density = 21.075764 Si / 1000 Ang^3
#
#
#
# Elastic Constant Matrix: (Units=GPa)
#
#
# Indices 1 2 3 4 5 6 
#
# 1 139.2247 41.6602 12.7049 0.0000 0.0000 0.0000
# 2 41.6602 100.0775 41.4013 0.0000 0.0000 0.0000
# 3 12.7049 41.4013 82.1974 0.0000 -0.0001 0.0000
# 4 0.0000 0.0000 0.0000 29.8849 0.0000 0.0000
# 5 0.0000 0.0000 -0.0001 0.0000 34.9265 0.0000
# 6 0.0000 0.0000 0.0000 0.0000 0.0000 22.9274
#
#
#
# Elastic Compliance Matrix: (Units=1/GPa)
#
#
# Indices 1 2 3 4 5 6 
#
# 1 0.008226 -0.003661 0.000573 0.000000 0.000000 0.000000
# 2 -0.003661 0.014252 -0.006613 0.000000 0.000000 0.000000
# 3 0.000573 -0.006613 0.015408 0.000000 0.000000 0.000000
# 4 0.000000 0.000000 0.000000 0.033462 0.000000 0.000000
# 5 0.000000 0.000000 0.000000 0.000000 0.028632 0.000000
# 6 0.000000 0.000000 0.000000 0.000000 0.000000 0.043616
#
#
# Mechanical properties :
#
#
# Convention : Reuss Voigt Hill
#
# Bulk Modulus (GPa) = 54.10204 57.00359 55.55282
# Shear Modulus (GPa) = 29.55812 32.59664 31.07738
#
# Velocity S-wave (km/s) = 3.74902 3.93700 3.84416
# Velocity P-wave (km/s) = 6.66830 6.91175 6.79112
#
# Compressibility (1/GPa) = 0.01848359
#
# Stress axis : x y z
#
# Youngs Moduli (GPa) = 121.56715 70.16618 64.90160
#
# Poissons Ratio (x) = 0.25689 -0.03716
# Poissons Ratio (y) = 0.44508 0.42916
# Poissons Ratio (z) = -0.06961 0.46398
#
# Static dielectric constant tensor:
#      x y z
#    x 3.802210 0.000000 0.000000 
#    y 0.000000 3.459730 0.000000 
#    z 0.000000 0.000000 4.393290 
# 
# 
# High freq. dielectric constant tensor:
#      x y z
#    x 1.858040 0.000000 0.000000 
#    y 0.000000 1.782050 0.000000 
#    z 0.000000 0.000000 1.845250 
# 
# From -- ./inp_files/23538.got.cif
#   From: 2010.03.12/outbox.cif.g09.slc.cpg/sg24_12_cif.got.tgz:23538.got - 2010.04.14 03:06:53.
