data_PCOD8165002
_publ_section_title
;
Structure prediction by ZEFSAII (Michael W. Deem and Ramdas Pophale) SiO2 
 PCOD8165002
Probable space group: I 21 21 21
;
_chemical_formula_sum "Si O2"
_cell_formula_units_Z 48
_cell_length_a 9.787512
_cell_length_b 8.659064
_cell_length_c 28.143579
_cell_angle_alpha 90.000000
_cell_angle_beta 90.000000
_cell_angle_gamma 90.000000
_cell_volume 2385.187818
_symmetry_space_group_name_H-M "I 21 21 21"
_symmetry_group_IT_number 24
_symmetry_cell_setting 'orthorhombic'
loop_
_space_group_symop_operation_xyz
x,y,z
-x,1/2-y,z
x,-y,1/2-z
1/2-x,y,-z
1/2+x,1/2+y,1/2+z
1/2-x,-y,1/2+z
1/2+x,1/2-y,-z
-x,1/2+y,1/2-z
loop_
_atom_site_type_symbol
_atom_site_label
_atom_site_fract_x
_atom_site_fract_y
_atom_site_fract_z
Si Si1 0.756986 0.444015 0.446808
Si Si2 0.407121 0.896849 0.796010
Si Si3 0.280569 0.417525 0.445492
Si Si4 0.522661 0.429133 0.110091
Si Si5 0.515154 0.069856 0.608961
Si Si6 0.592996 0.603591 0.203533
O O1 0.750000 0.504138 0.500000
O O2 0.706413 0.267252 0.442078
O O3 0.670252 0.554202 0.413277
O O4 0.913182 0.472603 0.433112
O O5 0.500000 0.750000 0.784270
O O6 0.472273 0.999308 0.839582
O O7 0.250030 0.849542 0.809142
O O8 0.407555 0.000000 0.750000
O O9 0.250000 0.465941 0.500000
O O10 0.418002 0.496363 0.427533
O O11 0.163796 0.478811 0.409461
O O12 0.500000 0.250000 0.119487
O O13 0.519746 0.515510 0.160245
O O14 0.500000 0.250000 0.619487
O O15 0.500000 0.750000 0.214652
O O16 0.591724 0.500000 0.250000
#
# Coordination Sequence:
#
# PCOD8165002 Si02
#       6
#     8   8   8   8   8   8
#     4  10  19  37  65  90 119 160 211 263 310 364
#     4  10  22  41  63  93 125 156 200 254 311 371
#     4  10  21  39  65  93 121 162 215 260 310 371
#     4  12  25  40  59  92 132 172 207 255 318 377
#     4   9  18  35  59  90 118 153 199 255 309 360
#     4  11  24  44  68  94 127 163 212 263 318 379
#
# _framework density 20.124199999999998
#
# number of rings (size 3 to 8) (size 9 to 14) (size 15 to 20)
#    0.000    1.667    1.667    3.000    4.667    4.000 
#    6.000    0.833    0.000    0.000    0.000    0.000 
#    0.000    0.000    0.000    0.000    0.000    0.000 
#
# Total GULP energy -297549.491628 kJ/mol
# GULP energy per Si atom -12397.895485 kJ/mol
# Density = 2.007840 g / cm^3
# Si number density = 20.124200 Si / 1000 Ang^3
#
#
#
# Elastic Constant Matrix: (Units=GPa)
#
#
# Indices 1 2 3 4 5 6 
#
# 1 84.9434 28.3086 28.7475 0.0000 0.0000 0.0000
# 2 28.3086 65.0757 16.6899 0.0000 0.0000 0.0000
# 3 28.7475 16.6899 128.2148 0.0000 0.0000 0.0000
# 4 0.0000 0.0000 0.0000 19.9517 0.0000 0.0000
# 5 0.0000 0.0000 0.0000 0.0000 38.9469 0.0000
# 6 0.0000 0.0000 0.0000 0.0000 0.0000 10.7943
#
#
#
# Elastic Compliance Matrix: (Units=1/GPa)
#
#
# Indices 1 2 3 4 5 6 
#
# 1 0.014513 -0.005668 -0.002516 0.000000 0.000000 0.000000
# 2 -0.005668 0.018111 -0.001087 0.000000 0.000000 0.000000
# 3 -0.002516 -0.001087 0.008505 0.000000 0.000000 0.000000
# 4 0.000000 0.000000 0.000000 0.050121 0.000000 0.000000
# 5 0.000000 0.000000 0.000000 0.000000 0.025676 0.000000
# 6 0.000000 0.000000 0.000000 0.000000 0.000000 0.092641
#
#
# Mechanical properties :
#
#
# Convention : Reuss Voigt Hill
#
# Bulk Modulus (GPa) = 44.27259 47.30286 45.78773
# Shear Modulus (GPa) = 21.21895 27.57110 24.39503
#
# Velocity S-wave (km/s) = 3.25067 3.70543 3.48548
# Velocity P-wave (km/s) = 6.01137 6.47020 6.24500
#
# Compressibility (1/GPa) = 0.02258734
#
# Stress axis : x y z
#
# Youngs Moduli (GPa) = 68.90353 55.21491 117.57740
#
# Poissons Ratio (x) = 0.31296 0.29585
# Poissons Ratio (y) = 0.39054 0.12777
# Poissons Ratio (z) = 0.17338 0.06000
#
# Static dielectric constant tensor:
#      x y z
#    x 3.900230 0.000000 0.000000 
#    y 0.000000 3.304990 0.000000 
#    z 0.000000 0.000000 3.957170 
# 
# 
# High freq. dielectric constant tensor:
#      x y z
#    x 1.799650 0.000000 0.000000 
#    y 0.000000 1.745190 0.000000 
#    z 0.000000 0.000000 1.811730 
# 
# From -- ./inp_files/9727.got.cif
#   From: 2010.03.12/outbox.cif.g09.slc.cpg/sg24_5_cif.got.tgz:9727.got - 2010.04.14 03:06:53.
