data_PCOD8165078
_publ_section_title
;
Structure prediction by ZEFSAII (Michael W. Deem and Ramdas Pophale) SiO2 
 PCOD8165078
Probable space group: I 21 21 21
;
_chemical_formula_sum "Si O2"
_cell_formula_units_Z 40
_cell_length_a 22.909625
_cell_length_b 17.805765
_cell_length_c 4.931923
_cell_angle_alpha 90.000000
_cell_angle_beta 90.000000
_cell_angle_gamma 90.000000
_cell_volume 2011.846794
_symmetry_space_group_name_H-M "I 21 21 21"
_symmetry_group_IT_number 24
_symmetry_cell_setting 'orthorhombic'
loop_
_space_group_symop_operation_xyz
x,y,z
-x,1/2-y,z
x,-y,1/2-z
1/2-x,y,-z
1/2+x,1/2+y,1/2+z
1/2-x,-y,1/2+z
1/2+x,1/2-y,-z
-x,1/2+y,1/2-z
loop_
_atom_site_type_symbol
_atom_site_label
_atom_site_fract_x
_atom_site_fract_y
_atom_site_fract_z
Si Si1 0.368719 0.780634 0.842923
Si Si2 0.372129 0.584667 0.308159
Si Si3 0.709868 0.585880 0.751816
Si Si4 0.064930 0.269571 0.856891
Si Si5 0.806684 0.864500 0.182337
O O1 0.348103 0.864712 0.780521
O O2 0.424091 0.766028 0.650787
O O3 0.314197 0.724786 0.766802
O O4 0.388826 0.768561 0.151781
O O5 0.392758 0.500000 0.250000
O O6 0.424858 0.640136 0.394555
O O7 0.316823 0.592667 0.524713
O O8 0.359338 0.611413 0.005789
O O9 0.688509 0.500000 0.750000
O O10 0.750000 0.606834 0.500000
O O11 0.750000 0.605451 0.000000
O O12 0.000000 0.250000 0.761317
O O13 0.750000 0.885266 0.000000
#
# Coordination Sequence:
#
# PCOD8165078 Si02
#       5
#     8   8   8   8   8
#     4  10  20  35  56  80 107 140 183 224 262 323
#     4  10  21  36  53  77 108 140 176 219 266 315
#     4  10  20  34  54  81 114 146 173 213 270 324
#     4  10  21  38  58  78 104 142 184 229 274 312
#     4  10  20  33  53  78 106 142 177 211 258 318
#
# _framework density 19.88223
#
# number of rings (size 3 to 8) (size 9 to 14) (size 15 to 20)
#    0.000    2.000    0.000    3.600    0.000    4.800 
#    0.000    2.000    0.000    1.200    0.000    0.000 
#    0.000    0.000    0.000    0.000    0.000    0.000 
#
# Total GULP energy -247774.449865 kJ/mol
# GULP energy per Si atom -12388.722493 kJ/mol
# Density = 1.983698 g / cm^3
# Si number density = 19.882230 Si / 1000 Ang^3
#
#
#
# Elastic Constant Matrix: (Units=GPa)
#
#
# Indices 1 2 3 4 5 6 
#
# 1 70.4718 56.5326 11.6280 0.0000 0.0000 0.0000
# 2 56.5326 130.7738 30.5426 0.0000 0.0000 0.0000
# 3 11.6280 30.5426 111.9851 0.0000 0.0000 0.0000
# 4 0.0000 0.0000 0.0000 26.0185 0.0000 0.0000
# 5 0.0000 0.0000 0.0000 0.0000 27.6570 0.0000
# 6 0.0000 0.0000 0.0000 0.0000 0.0000 17.3052
#
#
#
# Elastic Compliance Matrix: (Units=1/GPa)
#
#
# Indices 1 2 3 4 5 6 
#
# 1 0.021735 -0.009472 0.000327 0.000000 0.000000 0.000000
# 2 -0.009472 0.012295 -0.002370 0.000000 0.000000 0.000000
# 3 0.000327 -0.002370 0.009542 0.000000 0.000000 0.000000
# 4 0.000000 0.000000 0.000000 0.038434 0.000000 0.000000
# 5 0.000000 0.000000 0.000000 0.000000 0.036157 0.000000
# 6 0.000000 0.000000 0.000000 0.000000 0.000000 0.057786
#
#
# Mechanical properties :
#
#
# Convention : Reuss Voigt Hill
#
# Bulk Modulus (GPa) = 48.68234 56.73745 52.70989
# Shear Modulus (GPa) = 24.29225 28.49797 26.39511
#
# Velocity S-wave (km/s) = 3.49923 3.79005 3.64754
# Velocity P-wave (km/s) = 6.39255 6.91024 6.65643
#
# Compressibility (1/GPa) = 0.02054133
#
# Stress axis : x y z
#
# Youngs Moduli (GPa) = 46.00946 81.33423 104.79788
#
# Poissons Ratio (x) = 0.77040 -0.03422
# Poissons Ratio (y) = 0.43580 0.24835
# Poissons Ratio (z) = -0.01502 0.19274
#
# Static dielectric constant tensor:
#      x y z
#    x 3.112380 0.000000 0.000000 
#    y 0.000000 3.762980 0.000000 
#    z 0.000000 0.000000 3.886670 
# 
# 
# High freq. dielectric constant tensor:
#      x y z
#    x 1.728730 0.000000 0.000000 
#    y 0.000000 1.772550 0.000000 
#    z 0.000000 0.000000 1.803760 
# 
# From -- ./inp_files/3506.got.cif
#   From: 2010.03.12/outbox.cif.g09.slc.cpg/sg24_2_cif.got.tgz:3506.got - 2010.04.14 03:06:53.
