data_PCOD8165402
_publ_section_title
;
Structure prediction by ZEFSAII (Michael W. Deem and Ramdas Pophale) SiO2 
 PCOD8165402
Probable space group: I 21 21 21
;
_chemical_formula_sum "Si O2"
_cell_formula_units_Z 48
_cell_length_a 9.480960
_cell_length_b 23.346799
_cell_length_c 10.742174
_cell_angle_alpha 90.000000
_cell_angle_beta 90.000000
_cell_angle_gamma 90.000000
_cell_volume 2377.780939
_symmetry_space_group_name_H-M "I 21 21 21"
_symmetry_group_IT_number 24
_symmetry_cell_setting 'orthorhombic'
loop_
_space_group_symop_operation_xyz
x,y,z
-x,1/2-y,z
x,-y,1/2-z
1/2-x,y,-z
1/2+x,1/2+y,1/2+z
1/2-x,-y,1/2+z
1/2+x,1/2-y,-z
-x,1/2+y,1/2-z
loop_
_atom_site_type_symbol
_atom_site_label
_atom_site_fract_x
_atom_site_fract_y
_atom_site_fract_z
Si Si1 0.478045 0.868887 0.230497
Si Si2 0.262144 0.950950 0.851676
Si Si3 0.746610 0.847287 0.354603
Si Si4 0.475837 0.855211 0.776600
Si Si5 0.911726 0.198909 0.515608
Si Si6 0.257835 0.784268 0.352239
O O1 0.382296 0.922842 0.196806
O O2 0.607169 0.884360 0.322035
O O3 0.390319 0.817513 0.293748
O O4 0.563119 0.854296 0.105143
O O5 0.391560 0.907403 0.838754
O O6 0.293468 0.000000 0.750000
O O7 0.250000 0.969717 0.000000
O O8 0.750000 0.846749 0.500000
O O9 0.735299 0.781439 0.303924
O O10 0.886341 0.877382 0.298266
O O11 0.522938 0.812795 0.882904
O O12 0.383842 0.816394 0.686076
O O13 0.750000 0.215979 0.500000
O O14 0.000000 0.250000 0.577158
O O15 0.250000 0.786299 0.500000
#
# Coordination Sequence:
#
# PCOD8165402 Si02
#       6
#     8   8   8   8   8   8
#     4  11  23  39  61  92 127 166 216 265 323 386
#     4  11  26  48  71  92 122 166 226 291 338 392
#     4  11  21  36  59  93 134 170 206 252 318 401
#     4  11  23  39  61  92 127 166 216 265 323 386
#     4  12  24  36  64 100 140 176 208 252 324 399
#     4  10  21  36  56  89 136 180 212 249 308 393
#
# _framework density 20.186889999999998
#
# number of rings (size 3 to 8) (size 9 to 14) (size 15 to 20)
#    0.000    1.000    3.333    4.000    4.667    6.667 
#    0.000    0.833    0.000    0.000    0.000    0.000 
#    0.000    0.000    0.000    0.000    0.000    0.000 
#
# Total GULP energy -297462.079716 kJ/mol
# GULP energy per Si atom -12394.253322 kJ/mol
# Density = 2.014094 g / cm^3
# Si number density = 20.186890 Si / 1000 Ang^3
#
#
#
# Elastic Constant Matrix: (Units=GPa)
#
#
# Indices 1 2 3 4 5 6 
#
# 1 151.9217 25.2145 32.0619 0.0001 -0.0002 0.0003
# 2 25.2145 51.1735 25.6584 0.0002 -0.0004 -0.0008
# 3 32.0619 25.6584 95.7223 -0.0022 0.0047 0.0072
# 4 0.0001 0.0002 -0.0022 25.1095 0.0002 0.0020
# 5 -0.0002 -0.0004 0.0047 0.0002 36.7861 -0.0011
# 6 0.0003 -0.0008 0.0072 0.0020 -0.0011 39.4331
#
#
#
# Elastic Compliance Matrix: (Units=1/GPa)
#
#
# Indices 1 2 3 4 5 6 
#
# 1 0.007410 -0.002780 -0.001737 0.000000 0.000000 0.000000
# 2 -0.002780 0.023619 -0.005400 -0.000001 0.000001 0.000001
# 3 -0.001737 -0.005400 0.012476 0.000001 -0.000002 -0.000002
# 4 0.000000 -0.000001 0.000001 0.039826 0.000000 -0.000002
# 5 0.000000 0.000001 -0.000002 0.000000 0.027184 0.000001
# 6 0.000000 0.000001 -0.000002 -0.000002 0.000001 0.025359
#
#
# Mechanical properties :
#
#
# Convention : Reuss Voigt Hill
#
# Bulk Modulus (GPa) = 42.24536 51.63190 46.93863
# Shear Modulus (GPa) = 30.56261 34.65792 32.61027
#
# Velocity S-wave (km/s) = 3.89521 4.14799 4.02359
# Velocity P-wave (km/s) = 6.41894 6.96947 6.69986
#
# Compressibility (1/GPa) = 0.02367124
#
# Stress axis : x y z
#
# Youngs Moduli (GPa) = 134.94658 42.33922 80.15378
#
# Poissons Ratio (x) = 0.11772 0.13921
# Poissons Ratio (y) = 0.37521 0.43281
# Poissons Ratio (z) = 0.23437 0.22862
#
# Static dielectric constant tensor:
#      x y z
#    x 3.855660 0.000000 0.000020 
#    y 0.000000 3.344680 0.000000 
#    z 0.000020 0.000000 3.812010 
# 
# 
# High freq. dielectric constant tensor:
#      x y z
#    x 1.809720 0.000000 0.000000 
#    y 0.000000 1.737010 0.000000 
#    z 0.000000 0.000000 1.815600 
# 
# From -- ./inp_files/11287.got.cif
#   From: 2010.03.12/outbox.cif.g09.slc.cpg/sg24_6_cif.got.tgz:11287.got - 2010.04.14 03:06:53.
