data_PCOD8165645
_publ_section_title
;
Structure prediction by ZEFSAII (Michael W. Deem and Ramdas Pophale) SiO2 
 PCOD8165645
Probable space group: I 21 21 21
;
_chemical_formula_sum "Si O2"
_cell_formula_units_Z 44
_cell_length_a 14.153946
_cell_length_b 16.808376
_cell_length_c 9.657910
_cell_angle_alpha 90.000000
_cell_angle_beta 90.000000
_cell_angle_gamma 90.000000
_cell_volume 2297.663594
_symmetry_space_group_name_H-M "I 21 21 21"
_symmetry_group_IT_number 24
_symmetry_cell_setting 'orthorhombic'
loop_
_space_group_symop_operation_xyz
x,y,z
-x,1/2-y,z
x,-y,1/2-z
1/2-x,y,-z
1/2+x,1/2+y,1/2+z
1/2-x,-y,1/2+z
1/2+x,1/2-y,-z
-x,1/2+y,1/2-z
loop_
_atom_site_type_symbol
_atom_site_label
_atom_site_fract_x
_atom_site_fract_y
_atom_site_fract_z
Si Si1 0.575613 0.527718 0.595198
Si Si2 0.035656 0.329158 0.183479
Si Si3 0.652874 0.774834 0.084290
Si Si4 0.750000 0.621745 0.500000
Si Si5 0.521724 0.359711 0.516977
Si Si6 0.761469 0.224035 0.152024
O O1 0.607215 0.500000 0.750000
O O2 0.488086 0.590202 0.600710
O O3 0.659299 0.565105 0.504110
O O4 0.541475 0.453059 0.505220
O O5 0.975055 0.330932 0.324444
O O6 0.145859 0.317346 0.216381
O O7 0.000000 0.250000 0.100171
O O8 0.600569 0.689963 0.066178
O O9 0.583482 0.845681 0.040695
O O10 0.674823 0.792225 0.245458
O O11 0.750000 0.774232 0.000000
O O12 0.763417 0.679279 0.365423
O O13 0.750000 0.184197 0.000000
#
# Coordination Sequence:
#
# PCOD8165645 Si02
#       6
#     8   8   8   4   8   8
#     4  10  23  37  62  92 128 161 202 263 319 378
#     4  11  16  39  64  87 123 165 212 246 308 385
#     4  11  20  38  67  90 123 161 215 264 301 379
#     4  10  22  38  58  94 124 158 204 248 318 380
#     4  10  22  36  62  98 121 158 210 266 320 357
#     4  10  22  38  65  91 118 169 209 251 310 377
#
# _framework density 19.149888000000001
#
# number of rings (size 3 to 8) (size 9 to 14) (size 15 to 20)
#    0.545    1.091    5.455    0.000    3.818    0.000 
#    9.818    0.909    0.000    0.000    0.000    0.000 
#    0.000    0.000    0.000    0.000    0.000    0.000 
#
# Total GULP energy -272599.212599 kJ/mol
# GULP energy per Si atom -12390.873300 kJ/mol
# Density = 1.910630 g / cm^3
# Si number density = 19.149888 Si / 1000 Ang^3
#
#
#
# Elastic Constant Matrix: (Units=GPa)
#
#
# Indices 1 2 3 4 5 6 
#
# 1 139.2497 63.4818 39.9930 0.0000 0.0000 0.0000
# 2 63.4818 128.0522 26.3251 0.0000 0.0000 0.0000
# 3 39.9930 26.3251 72.8278 0.0000 0.0000 0.0000
# 4 0.0000 0.0000 0.0000 16.8282 0.0000 0.0000
# 5 0.0000 0.0000 0.0000 0.0000 33.1021 0.0000
# 6 0.0000 0.0000 0.0000 0.0000 0.0000 33.1232
#
#
#
# Elastic Compliance Matrix: (Units=1/GPa)
#
#
# Indices 1 2 3 4 5 6 
#
# 1 0.010308 -0.004263 -0.004120 0.000000 0.000000 0.000000
# 2 -0.004263 0.010199 -0.001346 0.000000 0.000000 0.000000
# 3 -0.004120 -0.001346 0.016480 0.000000 0.000000 0.000000
# 4 0.000000 0.000000 0.000000 0.059424 0.000000 0.000000
# 5 0.000000 0.000000 0.000000 0.000000 0.030210 0.000000
# 6 0.000000 0.000000 0.000000 0.000000 0.000000 0.030190
#
#
# Mechanical properties :
#
#
# Convention : Reuss Voigt Hill
#
# Bulk Modulus (GPa) = 57.04444 66.63662 61.84053
# Shear Modulus (GPa) = 27.45568 30.63269 29.04418
#
# Velocity S-wave (km/s) = 3.79056 4.00387 3.89868
# Velocity P-wave (km/s) = 7.00078 7.49984 7.25460
#
# Compressibility (1/GPa) = 0.01753019
#
# Stress axis : x y z
#
# Youngs Moduli (GPa) = 97.01131 98.04408 60.68090
#
# Poissons Ratio (x) = 0.41799 0.24998
# Poissons Ratio (y) = 0.41359 0.08165
# Poissons Ratio (z) = 0.39964 0.13193
#
# Static dielectric constant tensor:
#      x y z
#    x 3.449870 0.000000 0.000000 
#    y 0.000000 3.601360 0.000000 
#    z 0.000000 0.000000 3.342890 
# 
# 
# High freq. dielectric constant tensor:
#      x y z
#    x 1.745280 0.000000 0.000000 
#    y 0.000000 1.738590 0.000000 
#    z 0.000000 0.000000 1.720690 
# 
# From -- ./inp_files/19633.got.cif
#   From: 2010.03.12/outbox.cif.g09.slc.cpg/sg24_10_cif.got.tgz:19633.got - 2010.04.14 03:06:53.
