data_PCOD8165221
_publ_section_title
;
Structure prediction by ZEFSAII (Michael W. Deem and Ramdas Pophale) SiO2 
 PCOD8165221
Probable space group: I 21 21 21
;
_chemical_formula_sum "Si O2"
_cell_formula_units_Z 40
_cell_length_a 7.862877
_cell_length_b 8.726647
_cell_length_c 26.853035
_cell_angle_alpha 90.000000
_cell_angle_beta 90.000000
_cell_angle_gamma 90.000000
_cell_volume 1842.562672
_symmetry_space_group_name_H-M "I 21 21 21"
_symmetry_group_IT_number 24
_symmetry_cell_setting 'orthorhombic'
loop_
_space_group_symop_operation_xyz
x,y,z
-x,1/2-y,z
x,-y,1/2-z
1/2-x,y,-z
1/2+x,1/2+y,1/2+z
1/2-x,-y,1/2+z
1/2+x,1/2-y,-z
-x,1/2+y,1/2-z
loop_
_atom_site_type_symbol
_atom_site_label
_atom_site_fract_x
_atom_site_fract_y
_atom_site_fract_z
Si Si1 0.301712 0.251669 0.333512
Si Si2 0.671697 0.666827 0.269335
Si Si3 0.412406 0.413674 0.594385
Si Si4 0.750000 0.040973 0.000000
Si Si5 0.277709 0.924263 0.628049
Si Si6 0.000000 0.750000 0.560854
O O1 0.500000 0.250000 0.324591
O O2 0.226570 0.247806 0.276750
O O3 0.231283 0.403109 0.361793
O O4 0.267548 0.101934 0.366152
O O5 0.500000 0.750000 0.286310
O O6 0.617084 0.500000 0.250000
O O7 0.790259 0.659163 0.318410
O O8 0.500000 0.250000 0.596484
O O9 0.327781 0.429715 0.541084
O O10 0.532921 0.563280 0.603728
O O11 0.899419 0.137800 0.975276
O O12 0.139775 0.840435 0.593426
#
# Coordination Sequence:
#
# PCOD8165221 Si02
#       6
#     8   8   8   4   8   4
#     4   9  18  36  65  92 126 166 217 257 313 384
#     4   9  17  33  63  94 126 171 213 252 316 395
#     4  10  23  41  65  92 128 160 216 274 321 377
#     4  12  26  42  64  90 120 170 218 266 324 376
#     4  10  20  37  63  90 131 166 205 266 323 389
#     4  12  24  40  64  88 130 168 214 262 324 398
#
# _framework density 21.708894000000001
#
# number of rings (size 3 to 8) (size 9 to 14) (size 15 to 20)
#    0.000    2.000    1.000    2.400    0.000    4.000 
#    0.000    0.000   35.200    0.000    0.000    0.000 
#    0.000    0.000    0.000    0.000    0.000    0.000 
#
# Total GULP energy -247804.859318 kJ/mol
# GULP energy per Si atom -12390.242966 kJ/mol
# Density = 2.165948 g / cm^3
# Si number density = 21.708894 Si / 1000 Ang^3
#
#
#
# Elastic Constant Matrix: (Units=GPa)
#
#
# Indices 1 2 3 4 5 6 
#
# 1 94.9406 26.6286 65.6464 0.0000 0.0000 0.0000
# 2 26.6286 43.9930 45.8193 0.0000 0.0000 0.0000
# 3 65.6464 45.8193 176.8314 0.0000 0.0000 0.0000
# 4 0.0000 0.0000 0.0000 30.9639 0.0000 0.0000
# 5 0.0000 0.0000 0.0000 0.0000 33.0327 0.0000
# 6 0.0000 0.0000 0.0000 0.0000 0.0000 22.7671
#
#
#
# Elastic Compliance Matrix: (Units=1/GPa)
#
#
# Indices 1 2 3 4 5 6 
#
# 1 0.014773 -0.004424 -0.004338 0.000000 0.000000 0.000000
# 2 -0.004424 0.032457 -0.006768 0.000000 0.000000 0.000000
# 3 -0.004338 -0.006768 0.009019 0.000000 0.000000 0.000000
# 4 0.000000 0.000000 0.000000 0.032296 0.000000 0.000000
# 5 0.000000 0.000000 0.000000 0.000000 0.030273 0.000000
# 6 0.000000 0.000000 0.000000 0.000000 0.000000 0.043923
#
#
# Mechanical properties :
#
#
# Convention : Reuss Voigt Hill
#
# Bulk Modulus (GPa) = 39.69798 65.77261 52.73530
# Shear Modulus (GPa) = 24.72824 29.19746 26.96285
#
# Velocity S-wave (km/s) = 3.37869 3.67134 3.52805
# Velocity P-wave (km/s) = 5.79197 6.95234 6.39851
#
# Compressibility (1/GPa) = 0.02519020
#
# Stress axis : x y z
#
# Youngs Moduli (GPa) = 67.68973 30.80961 110.87475
#
# Poissons Ratio (x) = 0.13630 0.48098
# Poissons Ratio (y) = 0.29946 0.75038
# Poissons Ratio (z) = 0.29364 0.20851
#
# Static dielectric constant tensor:
#      x y z
#    x 4.541220 0.000000 0.000000 
#    y 0.000000 3.907650 0.000000 
#    z 0.000000 0.000000 4.633720 
# 
# 
# High freq. dielectric constant tensor:
#      x y z
#    x 1.844960 0.000000 0.000000 
#    y 0.000000 1.845120 0.000000 
#    z 0.000000 0.000000 1.871090 
# 
# From -- ./inp_files/9515.got.cif
#   From: 2010.03.12/outbox.cif.g09.slc.cpg/sg24_5_cif.got.tgz:9515.got - 2010.04.14 03:06:53.
