data_PCOD8165246
_publ_section_title
;
Structure prediction by ZEFSAII (Michael W. Deem and Ramdas Pophale) SiO2 
 PCOD8165246
Probable space group: I 21 21 21
;
_chemical_formula_sum "Si O2"
_cell_formula_units_Z 28
_cell_length_a 5.118418
_cell_length_b 16.452545
_cell_length_c 17.181838
_cell_angle_alpha 90.000000
_cell_angle_beta 90.000000
_cell_angle_gamma 90.000000
_cell_volume 1446.899802
_symmetry_space_group_name_H-M "I 21 21 21"
_symmetry_group_IT_number 24
_symmetry_cell_setting 'orthorhombic'
loop_
_space_group_symop_operation_xyz
x,y,z
-x,1/2-y,z
x,-y,1/2-z
1/2-x,y,-z
1/2+x,1/2+y,1/2+z
1/2-x,-y,1/2+z
1/2+x,1/2-y,-z
-x,1/2+y,1/2-z
loop_
_atom_site_type_symbol
_atom_site_label
_atom_site_fract_x
_atom_site_fract_y
_atom_site_fract_z
Si Si1 0.249259 0.803983 0.589777
Si Si2 0.250000 0.694998 0.000000
Si Si3 0.704040 0.524130 0.337569
Si Si4 0.297634 0.539768 0.915512
O O1 0.500000 0.750000 0.609112
O O2 0.250000 0.833733 0.500000
O O3 0.243580 0.880311 0.647772
O O4 0.000000 0.750000 0.608260
O O5 0.500000 0.750000 0.007180
O O6 0.262426 0.637398 0.923282
O O7 0.770344 0.500000 0.250000
O O8 0.407438 0.497716 0.355131
O O9 0.905355 0.475695 0.391523
O O10 0.250000 0.497624 0.000000
#
# Coordination Sequence:
#
# PCOD8165246 Si02
#       4
#     8   4   8   8
#     4  10  21  38  62  88 118 158 208 261 305 362
#     4  10  20  38  62  90 118 152 216 260 300 366
#     4  12  23  40  61  94 129 163 207 261 328 387
#     4  10  22  38  64  86 119 165 213 257 304 368
#
# _framework density 19.351718000000002
#
# number of rings (size 3 to 8) (size 9 to 14) (size 15 to 20)
#    0.857    0.571    0.000    6.857    0.000    2.286 
#    0.000    8.571    0.000    0.000    0.000    0.000 
#    0.000    0.000    0.000    0.000    0.000    0.000 
#
# Total GULP energy -173602.226227 kJ/mol
# GULP energy per Si atom -12400.159016 kJ/mol
# Density = 1.930767 g / cm^3
# Si number density = 19.351718 Si / 1000 Ang^3
#
#
#
# Elastic Constant Matrix: (Units=GPa)
#
#
# Indices 1 2 3 4 5 6 
#
# 1 117.7152 50.4879 7.9840 0.0000 0.0000 0.0000
# 2 50.4879 155.4825 42.8669 0.0000 0.0000 0.0000
# 3 7.9840 42.8669 88.5372 0.0000 0.0000 0.0000
# 4 0.0000 0.0000 0.0000 31.3452 0.0000 0.0000
# 5 0.0000 0.0000 0.0000 0.0000 29.1505 0.0000
# 6 0.0000 0.0000 0.0000 0.0000 0.0000 33.4606
#
#
#
# Elastic Compliance Matrix: (Units=1/GPa)
#
#
# Indices 1 2 3 4 5 6 
#
# 1 0.009915 -0.003431 0.000767 0.000000 0.000000 0.000000
# 2 -0.003431 0.008610 -0.003859 0.000000 0.000000 0.000000
# 3 0.000767 -0.003859 0.013094 0.000000 0.000000 0.000000
# 4 0.000000 0.000000 0.000000 0.031903 0.000000 0.000000
# 5 0.000000 0.000000 0.000000 0.000000 0.034305 0.000000
# 6 0.000000 0.000000 0.000000 0.000000 0.000000 0.029886
#
#
# Mechanical properties :
#
#
# Convention : Reuss Voigt Hill
#
# Bulk Modulus (GPa) = 53.84375 62.71250 58.27812
# Shear Modulus (GPa) = 34.02557 36.15100 35.08828
#
# Velocity S-wave (km/s) = 4.19772 4.32684 4.26277
# Velocity P-wave (km/s) = 7.16789 7.57886 7.37624
#
# Compressibility (1/GPa) = 0.01857226
#
# Stress axis : x y z
#
# Youngs Moduli (GPa) = 100.86166 116.14879 76.37099
#
# Poissons Ratio (x) = 0.39850 -0.05858
# Poissons Ratio (y) = 0.34605 0.29473
# Poissons Ratio (z) = -0.07737 0.44823
#
# Static dielectric constant tensor:
#      x y z
#    x 3.530330 0.000000 0.000000 
#    y 0.000000 3.503700 0.000000 
#    z 0.000000 0.000000 3.388800 
# 
# 
# High freq. dielectric constant tensor:
#      x y z
#    x 1.776880 0.000000 0.000000 
#    y 0.000000 1.756970 0.000000 
#    z 0.000000 0.000000 1.726110 
# 
# From -- ./inp_files/4243.got.cif
#   From: 2010.03.12/outbox.cif.g09.slc.cpg/sg24_3_cif.got.tgz:4243.got - 2010.04.14 03:06:53.
