data_PCOD8165419
_publ_section_title
;
Structure prediction by ZEFSAII (Michael W. Deem and Ramdas Pophale) SiO2 
 PCOD8165419
Probable space group: I 21 21 21
;
_chemical_formula_sum "Si O2"
_cell_formula_units_Z 48
_cell_length_a 7.620053
_cell_length_b 18.725054
_cell_length_c 17.336989
_cell_angle_alpha 90.000000
_cell_angle_beta 90.000000
_cell_angle_gamma 90.000000
_cell_volume 2473.743947
_symmetry_space_group_name_H-M "I 21 21 21"
_symmetry_group_IT_number 24
_symmetry_cell_setting 'orthorhombic'
loop_
_space_group_symop_operation_xyz
x,y,z
-x,1/2-y,z
x,-y,1/2-z
1/2-x,y,-z
1/2+x,1/2+y,1/2+z
1/2-x,-y,1/2+z
1/2+x,1/2-y,-z
-x,1/2+y,1/2-z
loop_
_atom_site_type_symbol
_atom_site_label
_atom_site_fract_x
_atom_site_fract_y
_atom_site_fract_z
Si Si1 0.347107 0.417618 0.339961
Si Si2 0.785668 0.416972 0.912081
Si Si3 0.285668 0.916972 0.087919
Si Si4 0.483334 0.670740 0.840586
Si Si5 0.483334 0.329260 0.840586
Si Si6 0.652893 0.082382 0.160039
O O1 0.516605 0.396205 0.389649
O O2 0.188375 0.369715 0.373225
O O3 0.386437 0.403080 0.250000
O O4 0.295503 0.500000 0.353272
O O5 0.750432 0.500000 0.896589
O O6 0.657136 0.373292 0.857786
O O7 0.983395 0.396205 0.889649
O O8 0.750000 0.395770 0.000000
O O9 0.157135 0.873292 0.142214
O O10 0.250000 0.895770 0.000000
O O11 0.500000 0.750000 0.876980
O O12 0.460320 0.676278 0.750000
O O13 0.500000 0.250000 0.876980
O O14 0.311625 0.369715 0.873224
#
# Coordination Sequence:
#
# PCOD8165419 Si02
#       6
#     8   8   8   8   8   8
#     4   9  18  34  58  84 108 142 188 232 273 320
#     4  10  21  37  56  81 112 146 186 231 278 331
#     4  10  21  37  56  81 112 146 186 231 278 331
#     4  10  21  37  56  81 112 146 186 231 278 331
#     4  10  21  37  56  81 112 146 186 231 278 331
#     4   9  18  34  58  84 108 142 188 232 273 320
#
# _framework density 19.403786
#
# number of rings (size 3 to 8) (size 9 to 14) (size 15 to 20)
#    0.000    2.333    0.000    2.000    0.000    6.000 
#    6.000   10.000    0.000    0.000    0.000    0.000 
#    0.000    0.000    0.000    0.000    0.000    0.000 
#
# Total GULP energy -297663.134572 kJ/mol
# GULP energy per Si atom -12402.630607 kJ/mol
# Density = 1.935962 g / cm^3
# Si number density = 19.403786 Si / 1000 Ang^3
#
#
#
# Elastic Constant Matrix: (Units=GPa)
#
#
# Indices 1 2 3 4 5 6 
#
# 1 163.8934 95.0955 37.5286 0.0000 0.0000 0.0000
# 2 95.0955 102.7488 31.6816 0.0000 0.0000 0.0000
# 3 37.5286 31.6816 29.0775 0.0000 0.0000 0.0000
# 4 0.0000 0.0000 0.0000 14.9646 0.0000 0.0000
# 5 0.0000 0.0000 0.0000 0.0000 17.8336 0.0000
# 6 0.0000 0.0000 0.0000 0.0000 0.0000 3.7130
#
#
#
# Elastic Compliance Matrix: (Units=1/GPa)
#
#
# Indices 1 2 3 4 5 6 
#
# 1 0.013813 -0.010974 -0.005871 0.000000 0.000000 0.000000
# 2 -0.010974 0.023375 -0.011305 0.000000 0.000000 0.000000
# 3 -0.005871 -0.011305 0.054285 0.000000 0.000000 0.000000
# 4 0.000000 0.000000 0.000000 0.066824 0.000000 0.000000
# 5 0.000000 0.000000 0.000000 0.000000 0.056074 0.000000
# 6 0.000000 0.000000 0.000000 0.000000 0.000000 0.269323
#
#
# Mechanical properties :
#
#
# Convention : Reuss Voigt Hill
#
# Bulk Modulus (GPa) = 28.43016 69.37012 48.90014
# Shear Modulus (GPa) = 9.06257 16.06319 12.56288
#
# Velocity S-wave (km/s) = 2.16348 2.88034 2.54725
# Velocity P-wave (km/s) = 4.57434 6.84764 5.82300
#
# Compressibility (1/GPa) = 0.03517392
#
# Stress axis : x y z
#
# Youngs Moduli (GPa) = 72.39306 42.78090 18.42116
#
# Poissons Ratio (x) = 0.46949 0.10815
# Poissons Ratio (y) = 0.79446 0.20824
# Poissons Ratio (z) = 0.42503 0.48362
#
# Static dielectric constant tensor:
#      x y z
#    x 3.620410 0.000000 0.000000 
#    y 0.000000 3.738500 0.000000 
#    z 0.000000 0.000000 3.332570 
# 
# 
# High freq. dielectric constant tensor:
#      x y z
#    x 1.766790 0.000000 0.000000 
#    y 0.000000 1.753870 0.000000 
#    z 0.000000 0.000000 1.736970 
# 
# From -- ./inp_files/32126.got.cif
#   From: 2010.03.12/outbox.cif.g09.slc.cpg/sg24_17_cif.got.tgz:32126.got - 2010.04.14 03:06:53.
