data_PCOD8165559
_publ_section_title
;
Structure prediction by ZEFSAII (Michael W. Deem and Ramdas Pophale) SiO2 
 PCOD8165559
Probable space group: I 21 21 21
;
_chemical_formula_sum "Si O2"
_cell_formula_units_Z 52
_cell_length_a 9.541676
_cell_length_b 19.232828
_cell_length_c 13.648643
_cell_angle_alpha 90.000000
_cell_angle_beta 90.000000
_cell_angle_gamma 90.000000
_cell_volume 2504.709064
_symmetry_space_group_name_H-M "I 21 21 21"
_symmetry_group_IT_number 24
_symmetry_cell_setting 'orthorhombic'
loop_
_space_group_symop_operation_xyz
x,y,z
-x,1/2-y,z
x,-y,1/2-z
1/2-x,y,-z
1/2+x,1/2+y,1/2+z
1/2-x,-y,1/2+z
1/2+x,1/2-y,-z
-x,1/2+y,1/2-z
loop_
_atom_site_type_symbol
_atom_site_label
_atom_site_fract_x
_atom_site_fract_y
_atom_site_fract_z
Si Si1 0.754304 0.414290 0.613162
Si Si2 0.485432 0.326983 0.107931
Si Si3 0.723931 0.566315 0.385605
Si Si4 0.500000 0.250000 0.917932
Si Si5 0.340672 0.232821 0.400049
Si Si6 0.481926 0.077995 0.750142
Si Si7 0.282063 0.688833 0.714416
O O1 0.750000 0.421756 0.500000
O O2 0.816337 0.488018 0.652830
O O3 0.841929 0.346019 0.642981
O O4 0.593684 0.405865 0.647474
O O5 0.500000 0.250000 0.158238
O O6 0.599760 0.381616 0.145870
O O7 0.332790 0.349783 0.145945
O O8 0.498274 0.318196 0.989294
O O9 0.750000 0.568482 0.500000
O O10 0.866332 0.590668 0.334250
O O11 0.360537 0.250978 0.849765
O O12 0.500000 0.250000 0.426108
O O13 0.250000 0.239120 0.500000
O O14 0.277956 0.282422 0.316291
O O15 0.607596 0.130057 0.761355
O O16 0.542642 0.000000 0.750000
#
# Coordination Sequence:
#
# PCOD8165559 Si02
#       7
#     8   8   8   4   8   8   8
#     4   9  21  41  68  89 120 163 225 266 320 389
#     4  10  25  38  59 103 133 164 224 253 316 396
#     4  10  21  41  66  92 128 173 213 263 316 393
#     4  10  24  36  66  94 140 174 206 248 330 402
#     4  11  27  45  68  98 124 165 227 282 331 386
#     4  10  23  41  65  95 127 177 222 256 330 403
#     4  12  24  41  66  95 137 172 209 279 327 373
#
# _framework density 20.760895000000001
#
# number of rings (size 3 to 8) (size 9 to 14) (size 15 to 20)
#    0.462    1.231    0.000    2.769   14.000    0.000 
#    2.769    0.000    0.000    0.000    0.000    0.000 
#    0.000    0.000    0.000    0.000    0.000    0.000 
#
# Total GULP energy -322155.026968 kJ/mol
# GULP energy per Si atom -12390.577960 kJ/mol
# Density = 2.071364 g / cm^3
# Si number density = 20.760895 Si / 1000 Ang^3
#
#
#
# Elastic Constant Matrix: (Units=GPa)
#
#
# Indices 1 2 3 4 5 6 
#
# 1 159.7032 90.3097 64.2420 0.0000 0.0000 0.0000
# 2 90.3097 145.8329 38.4205 0.0000 0.0000 0.0000
# 3 64.2420 38.4205 126.6147 0.0001 0.0001 0.0000
# 4 0.0000 0.0000 0.0001 17.3934 0.0000 0.0000
# 5 0.0000 0.0000 0.0001 0.0000 33.3091 0.0000
# 6 0.0000 0.0000 0.0000 0.0000 0.0000 34.8624
#
#
#
# Elastic Compliance Matrix: (Units=1/GPa)
#
#
# Indices 1 2 3 4 5 6 
#
# 1 0.011144 -0.005882 -0.003870 0.000000 0.000000 0.000000
# 2 -0.005882 0.010557 -0.000219 0.000000 0.000000 0.000000
# 3 -0.003870 -0.000219 0.009928 0.000000 0.000000 0.000000
# 4 0.000000 0.000000 0.000000 0.057493 0.000000 0.000000
# 5 0.000000 0.000000 0.000000 0.000000 0.030022 0.000000
# 6 0.000000 0.000000 0.000000 0.000000 0.000000 0.028684
#
#
# Mechanical properties :
#
#
# Convention : Reuss Voigt Hill
#
# Bulk Modulus (GPa) = 85.55656 90.89946 88.22801
# Shear Modulus (GPa) = 29.12632 33.05822 31.09227
#
# Velocity S-wave (km/s) = 3.74965 3.99473 3.87413
# Velocity P-wave (km/s) = 7.74896 8.07194 7.91210
#
# Compressibility (1/GPa) = 0.01168817
#
# Stress axis : x y z
#
# Youngs Moduli (GPa) = 89.73210 94.72067 100.72662
#
# Poissons Ratio (x) = 0.55713 0.38977
# Poissons Ratio (y) = 0.52779 0.02208
# Poissons Ratio (z) = 0.34723 0.02077
#
# Static dielectric constant tensor:
#      x y z
#    x 3.630470 0.000000 0.000000 
#    y 0.000000 4.736140 0.000000 
#    z 0.000000 0.000000 3.912390 
# 
# 
# High freq. dielectric constant tensor:
#      x y z
#    x 1.795880 0.000000 0.000000 
#    y 0.000000 1.813980 0.000000 
#    z 0.000000 0.000000 1.830760 
# 
# From -- ./inp_files/25023.got.cif
#   From: 2010.03.12/outbox.cif.g09.slc.cpg/sg24_13_cif.got.tgz:25023.got - 2010.04.14 03:06:53.
