data_PCOD8165320
_publ_section_title
;
Structure prediction by ZEFSAII (Michael W. Deem and Ramdas Pophale) SiO2 
 PCOD8165320
Probable space group: I 21 21 21
;
_chemical_formula_sum "Si O2"
_cell_formula_units_Z 56
_cell_length_a 15.131120
_cell_length_b 9.166921
_cell_length_c 20.367638
_cell_angle_alpha 90.000000
_cell_angle_beta 90.000000
_cell_angle_gamma 90.000000
_cell_volume 2825.109150
_symmetry_space_group_name_H-M "I 21 21 21"
_symmetry_group_IT_number 24
_symmetry_cell_setting 'orthorhombic'
loop_
_space_group_symop_operation_xyz
x,y,z
-x,1/2-y,z
x,-y,1/2-z
1/2-x,y,-z
1/2+x,1/2+y,1/2+z
1/2-x,-y,1/2+z
1/2+x,1/2-y,-z
-x,1/2+y,1/2-z
loop_
_atom_site_type_symbol
_atom_site_label
_atom_site_fract_x
_atom_site_fract_y
_atom_site_fract_z
Si Si1 0.096048 0.245089 0.526793
Si Si2 0.297697 0.941373 0.109141
Si Si3 0.088906 0.839589 0.774092
Si Si4 0.356706 0.269796 0.614632
Si Si5 0.272603 0.253001 0.169444
Si Si6 0.911411 0.173891 0.243032
Si Si7 0.276881 0.497288 0.429054
O O1 0.151777 0.094496 0.540283
O O2 0.080659 0.261825 0.448848
O O3 0.147019 0.380740 0.558499
O O4 0.000000 0.250000 0.560053
O O5 0.361873 0.853126 0.157588
O O6 0.201976 0.873550 0.111328
O O7 0.281142 0.108429 0.125638
O O8 0.157007 0.753917 0.727472
O O9 0.000000 0.750000 0.781479
O O10 0.063965 0.000000 0.750000
O O11 0.406733 0.262816 0.683448
O O12 0.303340 0.420312 0.608830
O O13 0.174060 0.279967 0.199037
O O14 0.306782 0.376657 0.120021
O O15 0.000000 0.250000 0.212154
O O16 0.920931 0.000000 0.250000
O O17 0.250000 0.563889 0.500000
#
# Coordination Sequence:
#
# PCOD8165320 Si02
#       7
#     8   8   8   8   8   8   8
#     4  10  21  39  62  93 123 163 217 261 301 378
#     4  10  21  37  62  86 125 162 207 255 316 369
#     4  10  22  36  57  90 122 163 208 255 308 374
#     4  10  20  40  64  89 121 165 209 254 311 374
#     4  11  23  41  62  89 128 163 204 264 324 375
#     4  12  26  41  67  96 126 170 215 267 327 382
#     4   9  20  38  62  85 117 161 207 250 316 382
#
# _framework density 19.822241999999999
#
# number of rings (size 3 to 8) (size 9 to 14) (size 15 to 20)
#    0.000    1.714    2.857    2.143    2.000    6.286 
#    0.000    0.000    0.000    0.857    0.000    0.000 
#    0.000    0.000    0.000    0.000    0.000    0.000 
#
# Total GULP energy -346955.629240 kJ/mol
# GULP energy per Si atom -12391.272473 kJ/mol
# Density = 1.977713 g / cm^3
# Si number density = 19.822242 Si / 1000 Ang^3
#
#
#
# Elastic Constant Matrix: (Units=GPa)
#
#
# Indices 1 2 3 4 5 6 
#
# 1 117.5156 48.1400 26.4575 0.0000 0.0000 0.0000
# 2 48.1400 98.6900 38.1079 0.0000 0.0000 0.0000
# 3 26.4575 38.1079 78.3882 0.0000 0.0000 0.0000
# 4 0.0000 0.0000 0.0000 25.0219 0.0000 0.0000
# 5 0.0000 0.0000 0.0000 0.0000 19.6990 0.0000
# 6 0.0000 0.0000 0.0000 0.0000 0.0000 24.0345
#
#
#
# Elastic Compliance Matrix: (Units=1/GPa)
#
#
# Indices 1 2 3 4 5 6 
#
# 1 0.010746 -0.004729 -0.001328 0.000000 0.000000 0.000000
# 2 -0.004729 0.014555 -0.005480 0.000000 0.000000 0.000000
# 3 -0.001328 -0.005480 0.015869 0.000000 0.000000 0.000000
# 4 0.000000 0.000000 0.000000 0.039965 0.000000 0.000000
# 5 0.000000 0.000000 0.000000 0.000000 0.050764 0.000000
# 6 0.000000 0.000000 0.000000 0.000000 0.000000 0.041607
#
#
# Mechanical properties :
#
#
# Convention : Reuss Voigt Hill
#
# Bulk Modulus (GPa) = 55.25827 57.77830 56.51829
# Shear Modulus (GPa) = 24.67771 25.87698 25.27734
#
# Velocity S-wave (km/s) = 3.53221 3.61702 3.57487
# Velocity P-wave (km/s) = 6.67629 6.83047 6.75382
#
# Compressibility (1/GPa) = 0.01809684
#
# Stress axis : x y z
#
# Youngs Moduli (GPa) = 93.06092 68.70284 63.01489
#
# Poissons Ratio (x) = 0.32489 0.08368
# Poissons Ratio (y) = 0.44007 0.34532
# Poissons Ratio (z) = 0.12358 0.37649
#
# Static dielectric constant tensor:
#      x y z
#    x 3.546560 0.000000 0.000000 
#    y 0.000000 3.476190 0.000000 
#    z 0.000000 0.000000 3.562820 
# 
# 
# High freq. dielectric constant tensor:
#      x y z
#    x 1.775520 0.000000 0.000000 
#    y 0.000000 1.764810 0.000000 
#    z 0.000000 0.000000 1.783760 
# 
# From -- ./inp_files/15243.got.cif
#   From: 2010.03.12/outbox.cif.g09.slc.cpg/sg24_8_cif.got.tgz:15243.got - 2010.04.14 03:06:53.
