data_PCOD8165391
_publ_section_title
;
Structure prediction by ZEFSAII (Michael W. Deem and Ramdas Pophale) SiO2 
 PCOD8165391
Probable space group: I 21 21 21
;
_chemical_formula_sum "Si O2"
_cell_formula_units_Z 40
_cell_length_a 8.702930
_cell_length_b 26.389805
_cell_length_c 8.182625
_cell_angle_alpha 90.000000
_cell_angle_beta 90.000000
_cell_angle_gamma 90.000000
_cell_volume 1879.292238
_symmetry_space_group_name_H-M "I 21 21 21"
_symmetry_group_IT_number 24
_symmetry_cell_setting 'orthorhombic'
loop_
_space_group_symop_operation_xyz
x,y,z
-x,1/2-y,z
x,-y,1/2-z
1/2-x,y,-z
1/2+x,1/2+y,1/2+z
1/2-x,-y,1/2+z
1/2+x,1/2-y,-z
-x,1/2+y,1/2-z
loop_
_atom_site_type_symbol
_atom_site_label
_atom_site_fract_x
_atom_site_fract_y
_atom_site_fract_z
Si Si1 0.599329 0.968554 0.909996
Si Si2 0.922802 0.556583 0.561479
Si Si3 0.956724 0.377171 0.226560
Si Si4 0.145009 0.881783 0.852594
Si Si5 0.928651 0.194967 0.464525
O O1 0.493127 0.920625 0.865286
O O2 0.645452 0.000000 0.750000
O O3 0.750000 0.947250 0.000000
O O4 0.511159 0.004343 0.037881
O O5 0.750000 0.547404 0.500000
O O6 0.937615 0.572631 0.752314
O O7 0.001262 0.601384 0.451260
O O8 0.053678 0.327986 0.280988
O O9 0.776175 0.360815 0.227269
O O10 0.022837 0.839162 0.904713
O O11 0.250000 0.902475 0.000000
O O12 0.750000 0.197329 0.500000
O O13 0.000000 0.250000 0.471835
#
# Coordination Sequence:
#
# PCOD8165391 Si02
#       5
#     8   8   8   8   8
#     4  10  21  35  53  82 118 156 197 242 293 349
#     4   9  19  36  58  83 116 154 192 238 287 345
#     4   9  19  37  56  81 114 149 193 238 289 346
#     4   9  19  36  58  83 110 147 190 234 284 338
#     4  11  22  38  59  83 111 146 190 240 292 348
#
# _framework density 21.284607999999999
#
# number of rings (size 3 to 8) (size 9 to 14) (size 15 to 20)
#    0.000    2.400    0.000    2.400    0.000    8.800 
#    0.000    8.000    0.000    2.400    0.000    0.000 
#    0.000    0.000    0.000    0.000    0.000    0.000 
#
# Total GULP energy -247777.172564 kJ/mol
# GULP energy per Si atom -12388.858628 kJ/mol
# Density = 2.123616 g / cm^3
# Si number density = 21.284608 Si / 1000 Ang^3
#
#
#
# Elastic Constant Matrix: (Units=GPa)
#
#
# Indices 1 2 3 4 5 6 
#
# 1 127.4062 54.8339 32.9613 0.0027 0.0013 -0.0006
# 2 54.8339 89.4613 59.3646 0.0025 -0.0009 -0.0003
# 3 32.9613 59.3646 89.6194 -0.0350 -0.0095 0.0032
# 4 0.0027 0.0025 -0.0350 25.7834 -0.0026 0.0015
# 5 0.0013 -0.0009 -0.0095 -0.0026 24.6895 -0.0021
# 6 -0.0006 -0.0003 0.0032 0.0015 -0.0021 34.6054
#
#
#
# Elastic Compliance Matrix: (Units=1/GPa)
#
#
# Indices 1 2 3 4 5 6 
#
# 1 0.010688 -0.007035 0.000729 0.000001 -0.000001 0.000000
# 2 -0.007035 0.024575 -0.013692 -0.000020 -0.000004 0.000001
# 3 0.000729 -0.013692 0.019960 0.000028 0.000007 -0.000002
# 4 0.000001 -0.000020 0.000028 0.038785 0.000004 -0.000002
# 5 -0.000001 -0.000004 0.000007 0.000004 0.040503 0.000002
# 6 0.000000 0.000001 -0.000002 -0.000002 0.000002 0.028897
#
#
# Mechanical properties :
#
#
# Convention : Reuss Voigt Hill
#
# Bulk Modulus (GPa) = 65.66792 66.75627 66.21210
# Shear Modulus (GPa) = 23.98328 27.63747 25.81038
#
# Velocity S-wave (km/s) = 3.36041 3.60734 3.48606
# Velocity P-wave (km/s) = 6.78054 6.98443 6.88324
#
# Compressibility (1/GPa) = 0.01522814
#
# Stress axis : x y z
#
# Youngs Moduli (GPa) = 93.56293 40.69132 50.10120
#
# Poissons Ratio (x) = 0.28625 -0.03652
# Poissons Ratio (y) = 0.65819 0.68596
# Poissons Ratio (z) = -0.06820 0.55713
#
# Static dielectric constant tensor:
#      x y z
#    x 3.991200 -0.000010 -0.000020 
#    y -0.000010 3.687960 0.000000 
#    z -0.000020 0.000000 4.206180 
# 
# 
# High freq. dielectric constant tensor:
#      x y z
#    x 1.841980 0.000000 0.000000 
#    y 0.000000 1.810480 0.000000 
#    z 0.000000 0.000000 1.832360 
# 
# From -- ./inp_files/9497.got.cif
#   From: 2010.03.12/outbox.cif.g09.slc.cpg/sg24_5_cif.got.tgz:9497.got - 2010.04.14 03:06:53.
