data_PCOD8165652
_publ_section_title
;
Structure prediction by ZEFSAII (Michael W. Deem and Ramdas Pophale) SiO2 
 PCOD8165652
Probable space group: I 21 21 21
;
_chemical_formula_sum "Si O2"
_cell_formula_units_Z 24
_cell_length_a 4.935791
_cell_length_b 10.992910
_cell_length_c 19.686745
_cell_angle_alpha 90.000000
_cell_angle_beta 90.000000
_cell_angle_gamma 90.000000
_cell_volume 1068.177314
_symmetry_space_group_name_H-M "I 21 21 21"
_symmetry_group_IT_number 24
_symmetry_cell_setting 'orthorhombic'
loop_
_space_group_symop_operation_xyz
x,y,z
-x,1/2-y,z
x,-y,1/2-z
1/2-x,y,-z
1/2+x,1/2+y,1/2+z
1/2-x,-y,1/2+z
1/2+x,1/2-y,-z
-x,1/2+y,1/2-z
loop_
_atom_site_type_symbol
_atom_site_label
_atom_site_fract_x
_atom_site_fract_y
_atom_site_fract_z
Si Si1 0.111553 0.031959 0.363605
Si Si2 0.000000 0.750000 0.238203
Si Si3 0.750000 0.334299 0.500000
Si Si4 0.376832 0.586554 0.312313
O O1 0.112553 0.140725 0.308345
O O2 0.189595 0.081390 0.436437
O O3 0.317444 0.924216 0.339839
O O4 0.821296 0.967172 0.370966
O O5 0.261089 0.717113 0.286214
O O6 0.500000 0.250000 0.480108
O O7 0.327148 0.500000 0.250000
#
# Coordination Sequence:
#
# PCOD8165652 Si02
#       4
#     8   4   4   8
#     4  11  23  39  60  93 124 163 208 251 315 375
#     4  10  22  42  62  94 130 162 206 266 316 380
#     4  12  24  40  62  88 128 170 202 260 314 372
#     4  10  22  37  60  90 124 163 203 255 313 370
#
# _framework density 22.468178999999999
#
# number of rings (size 3 to 8) (size 9 to 14) (size 15 to 20)
#    0.000    1.333    1.667    5.000    4.667    6.667 
#    0.000    0.000    0.000    4.000    0.000    0.000 
#    0.000    0.000    0.000    0.000    0.000    0.000 
#
# Total GULP energy -148710.941988 kJ/mol
# GULP energy per Si atom -12392.578499 kJ/mol
# Density = 2.241704 g / cm^3
# Si number density = 22.468179 Si / 1000 Ang^3
#
#
#
# Elastic Constant Matrix: (Units=GPa)
#
#
# Indices 1 2 3 4 5 6 
#
# 1 100.7225 -0.4323 0.0871 0.0000 0.0000 0.0000
# 2 -0.4323 59.0952 19.5157 0.0000 0.0000 0.0000
# 3 0.0871 19.5157 91.2384 0.0000 0.0000 0.0000
# 4 0.0000 0.0000 0.0000 34.0444 0.0000 0.0000
# 5 0.0000 0.0000 0.0000 0.0000 30.6604 0.0000
# 6 0.0000 0.0000 0.0000 0.0000 0.0000 8.2875
#
#
#
# Elastic Compliance Matrix: (Units=1/GPa)
#
#
# Indices 1 2 3 4 5 6 
#
# 1 0.009929 0.000082 -0.000027 0.000000 0.000000 0.000000
# 2 0.000082 0.018209 -0.003895 0.000000 0.000000 0.000000
# 3 -0.000027 -0.003895 0.011793 0.000000 0.000000 0.000000
# 4 0.000000 0.000000 0.000000 0.029373 0.000000 0.000000
# 5 0.000000 0.000000 0.000000 0.000000 0.032615 0.000000
# 6 0.000000 0.000000 0.000000 0.000000 0.000000 0.120664
#
#
# Mechanical properties :
#
#
# Convention : Reuss Voigt Hill
#
# Bulk Modulus (GPa) = 31.00756 32.15524 31.58140
# Shear Modulus (GPa) = 20.74566 30.05749 25.40158
#
# Velocity S-wave (km/s) = 3.04194 3.66154 3.36602
# Velocity P-wave (km/s) = 5.11551 5.67612 5.40309
#
# Compressibility (1/GPa) = 0.03225020
#
# Stress axis : x y z
#
# Youngs Moduli (GPa) = 100.71876 54.91881 84.79293
#
# Poissons Ratio (x) = -0.00448 0.00228
# Poissons Ratio (y) = -0.00821 0.33026
# Poissons Ratio (z) = 0.00271 0.21390
#
# Static dielectric constant tensor:
#      x y z
#    x 4.551290 0.000000 0.000000 
#    y 0.000000 4.411350 0.000000 
#    z 0.000000 0.000000 3.827180 
# 
# 
# High freq. dielectric constant tensor:
#      x y z
#    x 1.914840 0.000000 0.000000 
#    y 0.000000 1.889840 0.000000 
#    z 0.000000 0.000000 1.852470 
# 
# From -- ./inp_files/1707.got.cif
#   From: 2010.03.12/outbox.cif.g09.slc.cpg/sg24_1_cif.got.tgz:1707.got - 2010.04.14 03:06:53.
