data_PCOD8165199
_publ_section_title
;
Structure prediction by ZEFSAII (Michael W. Deem and Ramdas Pophale) SiO2 
 PCOD8165199
Probable space group: I 21 21 21
;
_chemical_formula_sum "Si O2"
_cell_formula_units_Z 40
_cell_length_a 15.461897
_cell_length_b 14.467948
_cell_length_c 8.179455
_cell_angle_alpha 90.000000
_cell_angle_beta 90.000000
_cell_angle_gamma 90.000000
_cell_volume 1829.759803
_symmetry_space_group_name_H-M "I 21 21 21"
_symmetry_group_IT_number 24
_symmetry_cell_setting 'orthorhombic'
loop_
_space_group_symop_operation_xyz
x,y,z
-x,1/2-y,z
x,-y,1/2-z
1/2-x,y,-z
1/2+x,1/2+y,1/2+z
1/2-x,-y,1/2+z
1/2+x,1/2-y,-z
-x,1/2+y,1/2-z
loop_
_atom_site_type_symbol
_atom_site_label
_atom_site_fract_x
_atom_site_fract_y
_atom_site_fract_z
Si Si1 0.381370 0.166158 0.828379
Si Si2 0.710678 0.709784 0.169722
Si Si3 0.980036 0.974121 0.430702
Si Si4 0.546701 0.339461 0.477579
Si Si5 0.844417 0.165828 0.945216
O O1 0.279358 0.153257 0.782342
O O2 0.426129 0.077233 0.913845
O O3 0.433212 0.187915 0.664344
O O4 0.387057 0.253647 0.945982
O O5 0.668699 0.797913 0.261157
O O6 0.750000 0.748842 0.000000
O O7 0.633685 0.639506 0.125020
O O8 0.911268 0.917930 0.538131
O O9 0.944028 0.000000 0.250000
O O10 0.990860 0.067941 0.533336
O O11 0.500000 0.250000 0.399340
O O12 0.750000 0.131981 0.000000
#
# Coordination Sequence:
#
# PCOD8165199 Si02
#       5
#     8   8   8   8   8
#     4   9  18  37  63  89 119 159 209 262 317 373
#     4   9  20  39  61  88 125 168 207 258 323 378
#     4  10  20  37  65  95 123 163 213 266 322 380
#     4  10  20  37  59  86 125 165 203 256 320 379
#     4  10  20  38  64  92 121 161 210 260 313 380
#
# _framework density 21.860793000000001
#
# number of rings (size 3 to 8) (size 9 to 14) (size 15 to 20)
#    0.000    2.400    0.000    3.000    0.000    1.600 
#    0.000   34.000    0.000    0.000    0.000    0.000 
#    0.000    0.000    0.000    0.000    0.000    0.000 
#
# Total GULP energy -247841.514903 kJ/mol
# GULP energy per Si atom -12392.075745 kJ/mol
# Density = 2.181104 g / cm^3
# Si number density = 21.860793 Si / 1000 Ang^3
#
#
#
# Elastic Constant Matrix: (Units=GPa)
#
#
# Indices 1 2 3 4 5 6 
#
# 1 118.2761 74.5635 43.0279 0.0000 0.0000 0.0000
# 2 74.5635 130.2865 34.4296 0.0000 0.0000 0.0000
# 3 43.0279 34.4296 74.6751 0.0000 0.0000 0.0000
# 4 0.0000 0.0000 0.0000 20.3831 0.0000 0.0000
# 5 0.0000 0.0000 0.0000 0.0000 25.3864 0.0000
# 6 0.0000 0.0000 0.0000 0.0000 0.0000 34.7368
#
#
#
# Elastic Compliance Matrix: (Units=1/GPa)
#
#
# Indices 1 2 3 4 5 6 
#
# 1 0.014857 -0.007106 -0.005284 0.000000 0.000000 0.000000
# 2 -0.007106 0.012139 -0.001502 0.000000 0.000000 0.000000
# 3 -0.005284 -0.001502 0.017129 0.000000 0.000000 0.000000
# 4 0.000000 0.000000 0.000000 0.049060 0.000000 0.000000
# 5 0.000000 0.000000 0.000000 0.000000 0.039391 0.000000
# 6 0.000000 0.000000 0.000000 0.000000 0.000000 0.028788
#
#
# Mechanical properties :
#
#
# Convention : Reuss Voigt Hill
#
# Bulk Modulus (GPa) = 61.20134 69.69775 65.44955
# Shear Modulus (GPa) = 25.69413 27.51571 26.60492
#
# Velocity S-wave (km/s) = 3.43206 3.55163 3.49236
# Velocity P-wave (km/s) = 6.61529 6.98359 6.80194
#
# Compressibility (1/GPa) = 0.01633951
#
# Stress axis : x y z
#
# Youngs Moduli (GPa) = 67.30760 82.37642 58.38133
#
# Poissons Ratio (x) = 0.58540 0.30850
# Poissons Ratio (y) = 0.47831 0.08770
# Poissons Ratio (z) = 0.35567 0.12375
#
# Static dielectric constant tensor:
#      x y z
#    x 4.150770 0.000000 0.000000 
#    y 0.000000 3.643190 0.000000 
#    z 0.000000 0.000000 3.973120 
# 
# 
# High freq. dielectric constant tensor:
#      x y z
#    x 1.868730 0.000000 0.000000 
#    y 0.000000 1.827340 0.000000 
#    z 0.000000 0.000000 1.856140 
# 
# From -- ./inp_files/12287.got.cif
#   From: 2010.03.12/outbox.cif.g09.slc.cpg/sg24_7_cif.got.tgz:12287.got - 2010.04.14 03:06:53.
