data_PCOD8165066
_publ_section_title
;
Structure prediction by ZEFSAII (Michael W. Deem and Ramdas Pophale) SiO2 
 PCOD8165066
Probable space group: I 21 21 21
;
_chemical_formula_sum "Si O2"
_cell_formula_units_Z 64
_cell_length_a 11.844568
_cell_length_b 15.101501
_cell_length_c 19.517871
_cell_angle_alpha 90.000000
_cell_angle_beta 90.000000
_cell_angle_gamma 90.000000
_cell_volume 3491.176331
_symmetry_space_group_name_H-M "I 21 21 21"
_symmetry_group_IT_number 24
_symmetry_cell_setting 'orthorhombic'
loop_
_space_group_symop_operation_xyz
x,y,z
-x,1/2-y,z
x,-y,1/2-z
1/2-x,y,-z
1/2+x,1/2+y,1/2+z
1/2-x,-y,1/2+z
1/2+x,1/2-y,-z
-x,1/2+y,1/2-z
loop_
_atom_site_type_symbol
_atom_site_label
_atom_site_fract_x
_atom_site_fract_y
_atom_site_fract_z
Si Si1 0.112326 0.000000 0.829162
Si Si2 0.318655 0.000000 0.929829
Si Si3 0.998462 0.854230 0.448355
Si Si4 0.466466 0.651578 0.108283
Si Si5 0.261368 0.398977 0.925086
Si Si6 0.761368 0.898977 0.074914
Si Si7 0.498462 0.354230 0.551646
Si Si8 0.533535 0.151578 0.108284
O O1 0.039216 0.086584 0.845498
O O2 0.143291 0.000000 0.750000
O O3 0.230952 0.000001 0.868125
O O4 0.039217 0.913416 0.845499
O O5 0.392818 0.909796 0.923588
O O6 0.392817 0.090204 0.923589
O O7 0.250000 0.999999 0.000000
O O8 0.000000 0.750000 0.433472
O O9 0.891676 0.888515 0.403214
O O10 0.986360 0.874226 0.528972
O O11 0.500000 0.750000 0.127087
O O12 0.331614 0.645448 0.124836
O O13 0.486361 0.625774 0.028971
O O14 0.224264 0.500000 0.929483
O O15 0.168387 0.354551 0.875164
O O16 0.250000 0.353135 0.000000
O O17 0.891676 0.888516 0.096786
O O18 0.750000 0.853136 0.000000
O O19 0.500000 0.250000 0.566530
O O20 0.500000 0.250000 0.127088
#
# Coordination Sequence:
#
# PCOD8165066 Si02
#       8
#     8   8   8   8   8   8   8   8
#     4  12  26  41  57  81 121 165 200 243 293 350
#     4  12  22  37  61  86 121 157 201 247 294 352
#     4  10  20  32  57  93 119 147 185 245 302 345
#     4  10  20  35  58  87 118 148 190 240 297 354
#     4   9  16  29  51  80 116 144 177 228 287 346
#     4   9  16  29  51  80 116 144 177 228 287 346
#     4  10  20  32  57  93 119 147 185 245 302 345
#     4  10  20  35  58  87 118 148 190 240 297 354
#
# _framework density 18.33193
#
# number of rings (size 3 to 8) (size 9 to 14) (size 15 to 20)
#    0.000    1.750    5.000    0.000    3.500    1.500 
#    0.000    0.000    0.000    3.750    0.000    0.000 
#    0.000    0.000    0.000    0.000    0.000    0.000 
#
# Total GULP energy -396562.760940 kJ/mol
# GULP energy per Si atom -12392.586279 kJ/mol
# Density = 1.829021 g / cm^3
# Si number density = 18.331930 Si / 1000 Ang^3
#
#
#
# Elastic Constant Matrix: (Units=GPa)
#
#
# Indices 1 2 3 4 5 6 
#
# 1 173.6441 69.4526 52.9314 0.0000 0.0000 0.0000
# 2 69.4526 131.3958 35.5551 0.0000 0.0000 0.0000
# 3 52.9314 35.5551 69.6287 0.0000 0.0000 0.0000
# 4 0.0000 0.0000 0.0000 12.4501 0.0000 0.0000
# 5 0.0000 0.0000 0.0000 0.0000 16.0237 0.0000
# 6 0.0000 0.0000 0.0000 0.0000 0.0000 31.3379
#
#
#
# Elastic Compliance Matrix: (Units=1/GPa)
#
#
# Indices 1 2 3 4 5 6 
#
# 1 0.008510 -0.003188 -0.004841 0.000000 0.000000 0.000000
# 2 -0.003188 0.010025 -0.002696 0.000000 0.000000 0.000000
# 3 -0.004841 -0.002696 0.019419 0.000000 0.000000 0.000000
# 4 0.000000 0.000000 0.000000 0.080321 0.000000 0.000000
# 5 0.000000 0.000000 0.000000 0.000000 0.062407 0.000000
# 6 0.000000 0.000000 0.000000 0.000000 0.000000 0.031910
#
#
# Mechanical properties :
#
#
# Convention : Reuss Voigt Hill
#
# Bulk Modulus (GPa) = 60.59215 76.72743 68.65979
# Shear Modulus (GPa) = 20.87308 26.41098 23.64203
#
# Velocity S-wave (km/s) = 3.37800 3.79979 3.59509
# Velocity P-wave (km/s) = 6.95263 7.82282 7.40053
#
# Compressibility (1/GPa) = 0.01650379
#
# Stress axis : x y z
#
# Youngs Moduli (GPa) = 117.51243 99.74904 51.49693
#
# Poissons Ratio (x) = 0.31800 0.24930
# Poissons Ratio (y) = 0.37464 0.13882
# Poissons Ratio (z) = 0.56889 0.26889
#
# Static dielectric constant tensor:
#      x y z
#    x 3.786410 0.000000 0.000000 
#    y 0.000000 3.371180 0.000000 
#    z 0.000000 0.000000 2.775580 
# 
# 
# High freq. dielectric constant tensor:
#      x y z
#    x 1.736690 0.000000 0.000000 
#    y 0.000000 1.722510 0.000000 
#    z 0.000000 0.000000 1.631370 
# 
# From -- ./inp_files/30375.got.cif
#   From: 2010.03.12/outbox.cif.g09.slc.cpg/sg24_16_cif.got.tgz:30375.got - 2010.04.14 03:06:53.
