data_PCOD8165986
_publ_section_title
;
Structure prediction by ZEFSAII (Michael W. Deem and Ramdas Pophale) SiO2 
 PCOD8165986
Probable space group: I 21 21 21
;
_chemical_formula_sum "Si O2"
_cell_formula_units_Z 32
_cell_length_a 5.413421
_cell_length_b 17.958584
_cell_length_c 13.463639
_cell_angle_alpha 90.000000
_cell_angle_beta 90.000000
_cell_angle_gamma 90.000000
_cell_volume 1308.899652
_symmetry_space_group_name_H-M "I 21 21 21"
_symmetry_group_IT_number 24
_symmetry_cell_setting 'orthorhombic'
loop_
_space_group_symop_operation_xyz
x,y,z
-x,1/2-y,z
x,-y,1/2-z
1/2-x,y,-z
1/2+x,1/2+y,1/2+z
1/2-x,-y,1/2+z
1/2+x,1/2-y,-z
-x,1/2+y,1/2-z
loop_
_atom_site_type_symbol
_atom_site_label
_atom_site_fract_x
_atom_site_fract_y
_atom_site_fract_z
Si Si1 0.014475 0.834029 0.295609
Si Si2 0.492422 0.038713 0.940076
Si Si3 0.639285 0.675173 0.107515
Si Si4 0.803905 0.063741 0.685330
O O1 0.105423 0.886098 0.385731
O O2 0.169149 0.838532 0.194862
O O3 0.000000 0.750000 0.336099
O O4 0.751985 0.868667 0.261975
O O5 0.556764 0.973425 0.861335
O O6 0.250000 0.011490 0.000000
O O7 0.750000 0.053627 0.000000
O O8 0.500000 0.750000 0.137434
O O9 0.469773 0.600726 0.099464
O O10 0.750000 0.688501 0.000000
O O11 0.945571 0.000000 0.750000
#
# Coordination Sequence:
#
# PCOD8165986 Si02
#       4
#     8   8   8   8
#     4  11  25  48  75 107 150 202 252 318 377 455
#     4  11  29  49  77 115 154 202 259 313 382 453
#     4  12  27  45  75 112 152 202 258 314 387 458
#     4  10  26  48  71 106 151 198 249 315 384 449
#
# _framework density 24.448015000000002
#
# number of rings (size 3 to 8) (size 9 to 14) (size 15 to 20)
#    0.000    1.000    2.500    0.750   14.000    2.000 
#    0.000    0.000    0.000    0.000    0.000    0.000 
#    0.000    0.000    0.000    0.000    0.000    0.000 
#
# Total GULP energy -198265.731326 kJ/mol
# GULP energy per Si atom -12391.608208 kJ/mol
# Density = 2.439237 g / cm^3
# Si number density = 24.448015 Si / 1000 Ang^3
#
#
#
# Elastic Constant Matrix: (Units=GPa)
#
#
# Indices 1 2 3 4 5 6 
#
# 1 68.8790 32.6733 14.9967 0.0000 0.0000 0.0000
# 2 32.6733 176.7433 23.2284 0.0000 0.0000 0.0000
# 3 14.9967 23.2284 76.7046 0.0000 0.0000 0.0000
# 4 0.0000 0.0000 0.0000 36.9782 0.0000 0.0000
# 5 0.0000 0.0000 0.0000 0.0000 38.9793 0.0000
# 6 0.0000 0.0000 0.0000 0.0000 0.0000 30.6078
#
#
#
# Elastic Compliance Matrix: (Units=1/GPa)
#
#
# Indices 1 2 3 4 5 6 
#
# 1 0.016318 -0.002705 -0.002371 0.000000 0.000000 0.000000
# 2 -0.002705 0.006341 -0.001391 0.000000 0.000000 0.000000
# 3 -0.002371 -0.001391 0.013922 0.000000 0.000000 0.000000
# 4 0.000000 0.000000 0.000000 0.027043 0.000000 0.000000
# 5 0.000000 0.000000 0.000000 0.000000 0.025655 0.000000
# 6 0.000000 0.000000 0.000000 0.000000 0.000000 0.032671
#
#
# Mechanical properties :
#
#
# Convention : Reuss Voigt Hill
#
# Bulk Modulus (GPa) = 42.29129 51.56930 46.93029
# Shear Modulus (GPa) = 35.02235 38.07497 36.54866
#
# Velocity S-wave (km/s) = 3.78898 3.95065 3.87066
# Velocity P-wave (km/s) = 6.03968 6.47684 6.26208
#
# Compressibility (1/GPa) = 0.02364553
#
# Stress axis : x y z
#
# Youngs Moduli (GPa) = 61.28371 157.70849 71.82899
#
# Poissons Ratio (x) = 0.42658 0.17032
# Poissons Ratio (y) = 0.16577 0.09994
# Poissons Ratio (z) = 0.14531 0.21943
#
# Static dielectric constant tensor:
#      x y z
#    x 4.279090 0.000000 0.000000 
#    y 0.000000 5.226400 0.000000 
#    z 0.000000 0.000000 4.451030 
# 
# 
# High freq. dielectric constant tensor:
#      x y z
#    x 1.952830 0.000000 0.000000 
#    y 0.000000 1.996730 0.000000 
#    z 0.000000 0.000000 1.972580 
# 
# From -- ./inp_files/3065.got.cif
#   From: 2010.03.12/outbox.cif.g09.slc.cpg/sg24_2_cif.got.tgz:3065.got - 2010.04.14 03:06:53.
