data_PCOD8165685
_publ_section_title
;
Structure prediction by ZEFSAII (Michael W. Deem and Ramdas Pophale) SiO2 
 PCOD8165685
Probable space group: I 21 21 21
;
_chemical_formula_sum "Si O2"
_cell_formula_units_Z 56
_cell_length_a 12.459518
_cell_length_b 17.268968
_cell_length_c 13.083337
_cell_angle_alpha 90.000000
_cell_angle_beta 90.000000
_cell_angle_gamma 90.000000
_cell_volume 2815.050270
_symmetry_space_group_name_H-M "I 21 21 21"
_symmetry_group_IT_number 24
_symmetry_cell_setting 'orthorhombic'
loop_
_space_group_symop_operation_xyz
x,y,z
-x,1/2-y,z
x,-y,1/2-z
1/2-x,y,-z
1/2+x,1/2+y,1/2+z
1/2-x,-y,1/2+z
1/2+x,1/2-y,-z
-x,1/2+y,1/2-z
loop_
_atom_site_type_symbol
_atom_site_label
_atom_site_fract_x
_atom_site_fract_y
_atom_site_fract_z
Si Si1 0.807182 0.153636 0.107006
Si Si2 0.453044 0.836731 0.147786
Si Si3 0.986646 0.925341 0.493188
Si Si4 0.842874 0.681480 0.420620
Si Si5 0.368255 0.927369 0.962096
Si Si6 0.244599 0.909903 0.237689
Si Si7 0.118900 0.581070 0.712785
O O1 0.864079 0.235640 0.134959
O O2 0.722040 0.135364 0.195839
O O3 0.750000 0.164621 0.000000
O O4 0.891061 0.083144 0.090180
O O5 0.500000 0.750000 0.150735
O O6 0.345863 0.853501 0.214501
O O7 0.547202 0.887974 0.194775
O O8 0.423520 0.860677 0.031361
O O9 0.053914 0.846224 0.483549
O O10 0.948802 0.929762 0.609635
O O11 0.054705 0.999515 0.463813
O O12 0.750000 0.693818 0.500000
O O13 0.810215 0.614771 0.341942
O O14 0.349429 0.898458 0.846795
O O15 0.250000 0.952471 0.000000
O O16 0.282043 0.000000 0.250000
O O17 0.165661 0.500000 0.750000
#
# Coordination Sequence:
#
# PCOD8165685 Si02
#       7
#     8   8   8   8   8   8   8
#     4   9  22  38  56  86 129 160 202 259 319 380
#     4  11  23  39  64  93 125 161 211 264 317 374
#     4  11  20  37  62  88 126 163 205 262 324 383
#     4  11  21  36  61  95 127 159 199 263 336 379
#     4  10  22  39  63  92 126 164 210 261 317 384
#     4  11  22  37  64  97 127 162 207 268 322 387
#     4  11  21  38  64  92 120 165 219 263 307 379
#
# _framework density 19.893073000000001
#
# number of rings (size 3 to 8) (size 9 to 14) (size 15 to 20)
#    0.000    1.429    2.857    3.000    4.000    2.286 
#    2.571    1.429    9.429    0.000    0.000    0.000 
#    0.000    0.000    0.000    0.000    0.000    0.000 
#
# Total GULP energy -347027.077129 kJ/mol
# GULP energy per Si atom -12393.824183 kJ/mol
# Density = 1.984780 g / cm^3
# Si number density = 19.893073 Si / 1000 Ang^3
#
#
#
# Elastic Constant Matrix: (Units=GPa)
#
#
# Indices 1 2 3 4 5 6 
#
# 1 84.0410 40.2305 30.6475 -0.0017 0.0000 0.0000
# 2 40.2305 116.2764 35.4981 0.0034 0.0000 0.0000
# 3 30.6475 35.4981 73.2685 0.0225 0.0001 0.0001
# 4 -0.0017 0.0034 0.0225 -587.4827 -0.0039 -0.0021
# 5 0.0000 0.0000 0.0001 -0.0039 30.8832 0.0000
# 6 0.0000 0.0000 0.0001 -0.0021 0.0000 60.9964
#
#
#
# Elastic Compliance Matrix: (Units=1/GPa)
#
#
# Indices 1 2 3 4 5 6 
#
# 1 0.015451 -0.003958 -0.004545 0.000000 0.000000 0.000000
# 2 -0.003958 0.011107 -0.003726 0.000000 0.000000 0.000000
# 3 -0.004545 -0.003726 0.017355 0.000001 0.000000 0.000000
# 4 0.000000 0.000000 0.000001 -0.001702 0.000000 0.000000
# 5 0.000000 0.000000 0.000000 0.000000 0.032380 0.000000
# 6 0.000000 0.000000 0.000000 0.000000 0.000000 0.016394
#
#
# Mechanical properties :
#
#
# Convention : Reuss Voigt Hill
#
# Bulk Modulus (GPa) = 51.40168 54.03758 52.71963
# Shear Modulus (GPa) = 41.00744 -87.97330 -23.48293
#
# Velocity S-wave (km/s) = 4.54518 -6.65726 -3.43951
# Velocity P-wave (km/s) = 7.31027 5.64527 3.28412
#
# Compressibility (1/GPa) = 0.01945462
#
# Stress axis : x y z
#
# Youngs Moduli (GPa) = 64.71902 90.03210 57.62121
#
# Poissons Ratio (x) = 0.35638 0.26191
# Poissons Ratio (y) = 0.25618 0.21467
# Poissons Ratio (z) = 0.29417 0.33542
#
# Static dielectric constant tensor:
#      x y z
#    x 3.856810 0.000000 0.000000 
#    y 0.000000 3.812220 0.000000 
#    z 0.000000 0.000000 3.698690 
# 
# 
# High freq. dielectric constant tensor:
#      x y z
#    x 1.776650 0.000000 0.000000 
#    y 0.000000 1.776790 0.000000 
#    z 0.000000 0.000000 1.765880 
# 
# From -- ./inp_files/25810.got.cif
#   From: 2010.03.12/outbox.cif.g09.slc.cpg/sg24_13_cif.got.tgz:25810.got - 2010.04.14 03:06:53.
