data_PCOD8165837
_publ_section_title
;
Structure prediction by ZEFSAII (Michael W. Deem and Ramdas Pophale) SiO2 
 PCOD8165837
Probable space group: I 21 21 21
;
_chemical_formula_sum "Si O2"
_cell_formula_units_Z 56
_cell_length_a 9.376682
_cell_length_b 14.451825
_cell_length_c 20.651867
_cell_angle_alpha 90.000000
_cell_angle_beta 90.000000
_cell_angle_gamma 90.000000
_cell_volume 2798.537953
_symmetry_space_group_name_H-M "I 21 21 21"
_symmetry_group_IT_number 24
_symmetry_cell_setting 'orthorhombic'
loop_
_space_group_symop_operation_xyz
x,y,z
-x,1/2-y,z
x,-y,1/2-z
1/2-x,y,-z
1/2+x,1/2+y,1/2+z
1/2-x,-y,1/2+z
1/2+x,1/2-y,-z
-x,1/2+y,1/2-z
loop_
_atom_site_type_symbol
_atom_site_label
_atom_site_fract_x
_atom_site_fract_y
_atom_site_fract_z
Si Si1 0.770805 0.889507 0.402714
Si Si2 0.585941 0.035685 0.677485
Si Si3 0.776829 0.433469 0.359970
Si Si4 0.557434 0.500000 0.250000
Si Si5 0.475751 0.352253 0.009633
Si Si6 0.882711 0.818926 0.711801
Si Si7 0.250000 0.021835 0.000000
Si Si8 0.343266 0.261560 0.691073
O O1 0.891633 0.836249 0.442762
O O2 0.625702 0.909604 0.442142
O O3 0.738468 0.826169 0.341733
O O4 0.827595 0.986470 0.378558
O O5 0.418686 0.016835 0.666664
O O6 0.638283 0.138296 0.659453
O O7 0.627384 0.000000 0.750000
O O8 0.651216 0.468628 0.312143
O O9 0.745272 0.459428 0.434885
O O10 0.807682 0.322679 0.357984
O O11 0.452547 0.416419 0.231164
O O12 0.500000 0.250000 0.038946
O O13 0.616235 0.410605 0.998402
O O14 0.799104 0.764253 0.767020
O O15 0.000000 0.750000 0.684257
O O16 0.500000 0.250000 0.726420
#
# Coordination Sequence:
#
# PCOD8165837 Si02
#       8
#     8   8   8   4   8   8   4   8
#     4  11  23  42  66  97 131 176 222 278 350 407
#     4  11  20  42  72  99 131 174 227 280 345 413
#     4  11  24  43  68 101 136 180 228 287 347 410
#     4  12  24  40  68 100 142 172 220 294 356 404
#     4  11  25  45  66  94 135 176 229 283 338 424
#     4  12  23  39  64 101 135 172 215 277 350 408
#     4  12  24  46  70  94 136 182 228 282 352 420
#     4  10  23  42  66  94 136 172 228 276 328 413
#
# _framework density 20.010448
#
# number of rings (size 3 to 8) (size 9 to 14) (size 15 to 20)
#    0.000    0.857    5.000    3.000    0.000    1.714 
#    0.000    1.429    9.429    0.000    0.000    0.000 
#    0.000    0.000    0.000    0.000    0.000    0.000 
#
# Total GULP energy -346912.732337 kJ/mol
# GULP energy per Si atom -12389.740441 kJ/mol
# Density = 1.996490 g / cm^3
# Si number density = 20.010448 Si / 1000 Ang^3
#
#
#
# Elastic Constant Matrix: (Units=GPa)
#
#
# Indices 1 2 3 4 5 6 
#
# 1 109.2446 47.4279 39.9350 0.0000 0.0000 0.0000
# 2 47.4279 122.5318 44.8820 0.0000 0.0000 0.0000
# 3 39.9350 44.8820 107.5712 0.0000 0.0000 0.0000
# 4 0.0000 0.0000 0.0000 14.5884 0.0000 0.0000
# 5 0.0000 0.0000 0.0000 0.0000 29.4565 0.0000
# 6 0.0000 0.0000 0.0000 0.0000 0.0000 27.9564
#
#
#
# Elastic Compliance Matrix: (Units=1/GPa)
#
#
# Indices 1 2 3 4 5 6 
#
# 1 0.011723 -0.003475 -0.002902 0.000000 0.000000 0.000000
# 2 -0.003475 0.010663 -0.003159 0.000000 0.000000 0.000000
# 3 -0.002902 -0.003159 0.011692 0.000000 0.000000 0.000000
# 4 0.000000 0.000000 0.000000 0.068547 0.000000 0.000000
# 5 0.000000 0.000000 0.000000 0.000000 0.033948 0.000000
# 6 0.000000 0.000000 0.000000 0.000000 0.000000 0.035770
#
#
# Mechanical properties :
#
#
# Convention : Reuss Voigt Hill
#
# Bulk Modulus (GPa) = 66.64028 67.09304 66.86666
# Shear Modulus (GPa) = 25.45589 28.20711 26.83150
#
# Velocity S-wave (km/s) = 3.57056 3.75856 3.66577
# Velocity P-wave (km/s) = 7.09744 7.24138 7.16977
#
# Compressibility (1/GPa) = 0.01500594
#
# Stress axis : x y z
#
# Youngs Moduli (GPa) = 85.30068 93.78078 85.53030
#
# Poissons Ratio (x) = 0.32584 0.24825
# Poissons Ratio (y) = 0.29638 0.27020
# Poissons Ratio (z) = 0.24758 0.29626
#
# Static dielectric constant tensor:
#      x y z
#    x 4.012720 0.000000 0.000000 
#    y 0.000000 3.971380 0.000000 
#    z 0.000000 0.000000 3.654750 
# 
# 
# High freq. dielectric constant tensor:
#      x y z
#    x 1.808910 0.000000 0.000000 
#    y 0.000000 1.784690 0.000000 
#    z 0.000000 0.000000 1.764290 
# 
# From -- ./inp_files/32863.got.cif
#   From: 2010.03.12/outbox.cif.g09.slc.cpg/sg24_17_cif.got.tgz:32863.got - 2010.04.14 03:06:53.
