data_PCOD8165192
_publ_section_title
;
Structure prediction by ZEFSAII (Michael W. Deem and Ramdas Pophale) SiO2 
 PCOD8165192
Probable space group: I 21 21 21
;
_chemical_formula_sum "Si O2"
_cell_formula_units_Z 56
_cell_length_a 8.865355
_cell_length_b 23.771024
_cell_length_c 11.846914
_cell_angle_alpha 90.000000
_cell_angle_beta 90.000000
_cell_angle_gamma 90.000000
_cell_volume 2496.601673
_symmetry_space_group_name_H-M "I 21 21 21"
_symmetry_group_IT_number 24
_symmetry_cell_setting 'orthorhombic'
loop_
_space_group_symop_operation_xyz
x,y,z
-x,1/2-y,z
x,-y,1/2-z
1/2-x,y,-z
1/2+x,1/2+y,1/2+z
1/2-x,-y,1/2+z
1/2+x,1/2-y,-z
-x,1/2+y,1/2-z
loop_
_atom_site_type_symbol
_atom_site_label
_atom_site_fract_x
_atom_site_fract_y
_atom_site_fract_z
Si Si1 0.071089 0.533309 0.998995
Si Si2 0.340827 0.110973 0.614646
Si Si3 0.926931 0.806342 0.517976
Si Si4 0.071803 0.079359 0.978057
Si Si5 0.550767 0.583447 0.216126
Si Si6 0.165128 0.764227 0.115977
Si Si7 0.410039 0.301184 0.278941
O O1 0.013189 0.472036 0.041079
O O2 0.018820 0.537261 0.867969
O O3 0.250000 0.538919 0.000000
O O4 0.998626 0.579326 0.086313
O O5 0.250000 0.114563 0.500000
O O6 0.232859 0.079068 0.703340
O O7 0.349437 0.173267 0.669082
O O8 0.750000 0.809405 0.500000
O O9 0.957737 0.804601 0.649833
O O10 0.000000 0.750000 0.461650
O O11 0.009751 0.861999 0.469019
O O12 0.019793 0.074484 0.847464
O O13 0.250000 0.075251 0.000000
O O14 0.469405 0.640599 0.167831
O O15 0.234926 0.716428 0.200990
O O16 0.000000 0.750000 0.082050
O O17 0.250000 0.762177 0.000000
O O18 0.500000 0.250000 0.337900
#
# Coordination Sequence:
#
# PCOD8165192 Si02
#       7
#     8   8   8   8   8   8   8
#     4  11  24  40  64  93 130 164 212 267 326 394
#     4   9  20  38  58  88 122 163 208 256 305 385
#     4  10  22  41  65  92 123 158 205 260 323 376
#     4  11  23  44  68  91 122 171 215 271 324 386
#     4  10  21  40  64  88 123 168 216 259 324 380
#     4  11  23  33  56  89 129 168 206 247 313 381
#     4  10  20  37  58  85 123 163 205 254 304 378
#
# _framework density 22.430489999999999
#
# number of rings (size 3 to 8) (size 9 to 14) (size 15 to 20)
#    0.000    1.714    1.429    3.000    6.000    0.571 
#    2.571    2.857    0.000    0.000    0.000    0.000 
#    0.000    0.000    0.000    0.000    0.000    0.000 
#
# Total GULP energy -346876.600261 kJ/mol
# GULP energy per Si atom -12388.450009 kJ/mol
# Density = 2.237944 g / cm^3
# Si number density = 22.430490 Si / 1000 Ang^3
#
#
#
# Elastic Constant Matrix: (Units=GPa)
#
#
# Indices 1 2 3 4 5 6 
#
# 1 180.9356 61.5366 -2.2126 0.0001 0.0001 0.0003
# 2 61.5366 149.5140 5.8128 0.0001 -0.0001 0.0004
# 3 -2.2126 5.8128 16.1111 0.0012 -0.0004 0.0034
# 4 0.0001 0.0001 0.0012 14.0477 -0.0001 0.0010
# 5 0.0001 -0.0001 -0.0004 -0.0001 100.9984 0.0012
# 6 0.0003 0.0004 0.0034 0.0010 0.0012 32.8521
#
#
#
# Elastic Compliance Matrix: (Units=1/GPa)
#
#
# Indices 1 2 3 4 5 6 
#
# 1 0.006482 -0.002741 0.001879 0.000000 0.000000 0.000000
# 2 -0.002741 0.007942 -0.003242 0.000000 0.000000 0.000000
# 3 0.001879 -0.003242 0.063497 -0.000005 0.000000 -0.000007
# 4 0.000000 0.000000 -0.000005 0.071186 0.000000 -0.000002
# 5 0.000000 0.000000 0.000000 0.000000 0.009901 0.000000
# 6 0.000000 0.000000 -0.000007 -0.000002 0.000000 0.030439
#
#
# Mechanical properties :
#
#
# Convention : Reuss Voigt Hill
#
# Bulk Modulus (GPa) = 14.34442 52.98160 33.66301
# Shear Modulus (GPa) = 22.63538 48.34125 35.48832
#
# Velocity S-wave (km/s) = 3.18013 4.64740 3.98194
# Velocity P-wave (km/s) = 4.46019 7.24358 6.01509
#
# Compressibility (1/GPa) = 0.06971351
#
# Stress axis : x y z
#
# Youngs Moduli (GPa) = 154.27358 125.90538 15.74885
#
# Poissons Ratio (x) = 0.34509 -0.02959
# Poissons Ratio (y) = 0.42285 0.05106
# Poissons Ratio (z) = -0.28989 0.40819
#
# Static dielectric constant tensor:
#      x y z
#    x 3.973990 0.000000 0.000000 
#    y 0.000000 3.647940 -0.000070 
#    z 0.000000 -0.000070 5.978780 
# 
# 
# High freq. dielectric constant tensor:
#      x y z
#    x 1.882480 0.000000 0.000000 
#    y 0.000000 1.900440 0.000000 
#    z 0.000000 0.000000 1.849810 
# 
# From -- ./inp_files/25062.got.cif
#   From: 2010.03.12/outbox.cif.g09.slc.cpg/sg24_13_cif.got.tgz:25062.got - 2010.04.14 03:06:53.
