data_PCOD8165817
_publ_section_title
;
Structure prediction by ZEFSAII (Michael W. Deem and Ramdas Pophale) SiO2 
 PCOD8165817
Probable space group: I 21 21 21
;
_chemical_formula_sum "Si O2"
_cell_formula_units_Z 32
_cell_length_a 28.777264
_cell_length_b 8.982562
_cell_length_c 5.514716
_cell_angle_alpha 90.000000
_cell_angle_beta 90.000000
_cell_angle_gamma 90.000000
_cell_volume 1425.518561
_symmetry_space_group_name_H-M "I 21 21 21"
_symmetry_group_IT_number 24
_symmetry_cell_setting 'orthorhombic'
loop_
_space_group_symop_operation_xyz
x,y,z
-x,1/2-y,z
x,-y,1/2-z
1/2-x,y,-z
1/2+x,1/2+y,1/2+z
1/2-x,-y,1/2+z
1/2+x,1/2-y,-z
-x,1/2+y,1/2-z
loop_
_atom_site_type_symbol
_atom_site_label
_atom_site_fract_x
_atom_site_fract_y
_atom_site_fract_z
Si Si1 0.773917 0.823556 0.249062
Si Si2 0.099174 0.500000 0.750000
Si Si3 0.131392 0.753983 0.431419
Si Si4 0.053700 0.746084 0.053709
Si Si5 0.599841 0.500000 0.250000
O O1 0.750000 0.766072 0.500000
O O2 0.826254 0.758235 0.242707
O O3 0.775015 0.000000 0.250000
O O4 0.750000 0.764929 0.000000
O O5 0.133872 0.611529 0.609712
O O6 0.065515 0.409605 0.573055
O O7 0.081697 0.754118 0.302619
O O8 0.134465 0.909709 0.574058
O O9 0.000000 0.750000 0.123124
O O10 0.066255 0.885766 0.886728
#
# Coordination Sequence:
#
# PCOD8165817 Si02
#       5
#     8   4   8   8   4
#     4  10  23  40  71 106 136 172 230 294 351 405
#     4  10  23  38  66  98 130 172 232 278 347 400
#     4  11  24  42  68  97 136 177 224 285 343 411
#     4  11  23  41  65  95 133 178 227 281 342 411
#     4  10  25  42  66  92 140 180 224 272 351 410
#
# _framework density 22.447973000000001
#
# number of rings (size 3 to 8) (size 9 to 14) (size 15 to 20)
#    0.000    1.500    0.000    3.750   12.250    8.000 
#    0.000    0.000    5.500    0.000    0.000    0.000 
#    0.000    0.000    0.000    0.000    0.000    0.000 
#
# Total GULP energy -198457.454269 kJ/mol
# GULP energy per Si atom -12403.590892 kJ/mol
# Density = 2.239688 g / cm^3
# Si number density = 22.447973 Si / 1000 Ang^3
#
#
#
# Elastic Constant Matrix: (Units=GPa)
#
#
# Indices 1 2 3 4 5 6 
#
# 1 146.5202 27.3686 59.9202 0.0021 0.0004 -0.0004
# 2 27.3686 107.3694 39.6600 0.0040 0.0012 -0.0005
# 3 59.9202 39.6600 140.3890 0.0079 0.0015 -0.0010
# 4 0.0021 0.0040 0.0079 12.7483 0.0010 -0.0006
# 5 0.0004 0.0012 0.0015 0.0010 40.7150 -0.0001
# 6 -0.0004 -0.0005 -0.0010 -0.0006 -0.0001 15.3573
#
#
#
# Elastic Compliance Matrix: (Units=1/GPa)
#
#
# Indices 1 2 3 4 5 6 
#
# 1 0.008346 -0.000906 -0.003306 0.000001 0.000000 0.000000
# 2 -0.000906 0.010497 -0.002579 -0.000002 0.000000 0.000000
# 3 -0.003306 -0.002579 0.009263 -0.000004 0.000000 0.000000
# 4 0.000001 -0.000002 -0.000004 0.078442 -0.000002 0.000003
# 5 0.000000 0.000000 0.000000 -0.000002 0.024561 0.000000
# 6 0.000000 0.000000 0.000000 0.000003 0.000000 0.065116
#
#
# Mechanical properties :
#
#
# Convention : Reuss Voigt Hill
#
# Bulk Modulus (GPa) = 68.85243 72.01957 70.43600
# Shear Modulus (GPa) = 23.29392 31.58612 27.44002
#
# Velocity S-wave (km/s) = 3.22481 3.75518 3.50005
# Velocity P-wave (km/s) = 6.67865 7.13823 6.91226
#
# Compressibility (1/GPa) = 0.01452382
#
# Stress axis : x y z
#
# Youngs Moduli (GPa) = 119.81168 95.26402 107.95931
#
# Poissons Ratio (x) = 0.08633 0.35695
# Poissons Ratio (y) = 0.10857 0.27839
# Poissons Ratio (z) = 0.39614 0.24565
#
# Static dielectric constant tensor:
#      x y z
#    x 3.786200 0.000000 0.000000 
#    y 0.000000 4.117130 0.000000 
#    z 0.000000 0.000000 4.281980 
# 
# 
# High freq. dielectric constant tensor:
#      x y z
#    x 1.873300 0.000000 0.000000 
#    y 0.000000 1.883520 0.000000 
#    z 0.000000 0.000000 1.896740 
# 
# From -- ./inp_files/1175.got.cif
#   From: 2010.03.12/outbox.cif.g09.slc.cpg/sg24_1_cif.got.tgz:1175.got - 2010.04.14 03:06:53.
