data_PCOD8165304
_publ_section_title
;
Structure prediction by ZEFSAII (Michael W. Deem and Ramdas Pophale) SiO2 
 PCOD8165304
Probable space group: I 21 21 21
;
_chemical_formula_sum "Si O2"
_cell_formula_units_Z 40
_cell_length_a 13.867839
_cell_length_b 13.781440
_cell_length_c 8.317725
_cell_angle_alpha 90.000000
_cell_angle_beta 90.000000
_cell_angle_gamma 90.000000
_cell_volume 1589.673547
_symmetry_space_group_name_H-M "I 21 21 21"
_symmetry_group_IT_number 24
_symmetry_cell_setting 'orthorhombic'
loop_
_space_group_symop_operation_xyz
x,y,z
-x,1/2-y,z
x,-y,1/2-z
1/2-x,y,-z
1/2+x,1/2+y,1/2+z
1/2-x,-y,1/2+z
1/2+x,1/2-y,-z
-x,1/2+y,1/2-z
loop_
_atom_site_type_symbol
_atom_site_label
_atom_site_fract_x
_atom_site_fract_y
_atom_site_fract_z
Si Si1 0.855781 0.005946 0.940375
Si Si2 0.202729 0.811046 0.150486
Si Si3 0.833547 0.600038 0.616748
Si Si4 0.395249 0.720631 0.561472
Si Si5 0.544815 0.544566 0.927964
O O1 0.860211 0.000000 0.750000
O O2 0.750000 0.977193 0.000000
O O3 0.933558 0.933001 0.023273
O O4 0.887138 0.111749 0.002862
O O5 0.281956 0.894903 0.206921
O O6 0.182459 0.737609 0.296138
O O7 0.104273 0.857001 0.083937
O O8 0.250000 0.753998 0.000000
O O9 0.750000 0.566634 0.500000
O O10 0.872333 0.708562 0.586276
O O11 0.918491 0.523392 0.578195
O O12 0.500000 0.750000 0.629639
O O13 0.550830 0.500000 0.750000
#
# Coordination Sequence:
#
# PCOD8165304 Si02
#       5
#     8   8   8   8   8
#     4  12  28  50  77 105 146 205 263 312 374 455
#     4  11  25  39  71 117 153 195 244 312 383 448
#     4  10  20  39  67 105 148 195 234 298 379 437
#     4  11  22  48  75 102 150 201 250 312 384 439
#     4  12  22  41  72 114 153 195 244 306 378 456
#
# _framework density 25.162400000000002
#
# number of rings (size 3 to 8) (size 9 to 14) (size 15 to 20)
#    0.000    0.800    6.000    3.000    2.800    0.000 
#    0.000   13.000    0.000    0.000    0.000    0.000 
#    0.000    0.000    0.000    0.000    0.000    0.000 
#
# Total GULP energy -247839.292933 kJ/mol
# GULP energy per Si atom -12391.964647 kJ/mol
# Density = 2.510513 g / cm^3
# Si number density = 25.162400 Si / 1000 Ang^3
#
#
#
# Elastic Constant Matrix: (Units=GPa)
#
#
# Indices 1 2 3 4 5 6 
#
# 1 149.5633 23.3094 39.8459 0.0000 0.0000 0.0000
# 2 23.3094 50.6924 36.1620 0.0000 0.0000 0.0000
# 3 39.8459 36.1620 117.5945 0.0000 0.0000 0.0000
# 4 0.0000 0.0000 0.0000 16.0036 0.0000 0.0000
# 5 0.0000 0.0000 0.0000 0.0000 33.6138 0.0000
# 6 0.0000 0.0000 0.0000 0.0000 0.0000 28.1422
#
#
#
# Elastic Compliance Matrix: (Units=1/GPa)
#
#
# Indices 1 2 3 4 5 6 
#
# 1 0.007520 -0.002101 -0.001902 0.000000 0.000000 0.000000
# 2 -0.002101 0.025857 -0.007240 0.000000 0.000000 0.000000
# 3 -0.001902 -0.007240 0.011375 0.000000 0.000000 0.000000
# 4 0.000000 0.000000 0.000000 0.062486 0.000000 0.000000
# 5 0.000000 0.000000 0.000000 0.000000 0.029750 0.000000
# 6 0.000000 0.000000 0.000000 0.000000 0.000000 0.035534
#
#
# Mechanical properties :
#
#
# Convention : Reuss Voigt Hill
#
# Bulk Modulus (GPa) = 44.91004 57.38721 51.14862
# Shear Modulus (GPa) = 24.69998 30.12080 27.41039
#
# Velocity S-wave (km/s) = 3.13648 3.46360 3.30409
# Velocity P-wave (km/s) = 5.56808 6.23311 5.90996
#
# Compressibility (1/GPa) = 0.02226674
#
# Stress axis : x y z
#
# Youngs Moduli (GPa) = 132.97280 38.67369 87.91539
#
# Poissons Ratio (x) = 0.08126 0.16722
# Poissons Ratio (y) = 0.27939 0.63647
# Poissons Ratio (z) = 0.25292 0.27998
#
# Static dielectric constant tensor:
#      x y z
#    x 5.307270 0.000000 0.000000 
#    y 0.000000 4.108980 0.000000 
#    z 0.000000 0.000000 4.882160 
# 
# 
# High freq. dielectric constant tensor:
#      x y z
#    x 2.026860 0.000000 0.000000 
#    y 0.000000 1.966510 0.000000 
#    z 0.000000 0.000000 2.007790 
# 
# From -- ./inp_files/12338.got.cif
#   From: 2010.03.12/outbox.cif.g09.slc.cpg/sg24_7_cif.got.tgz:12338.got - 2010.04.14 03:06:53.
