data_PCOD8165774
_publ_section_title
;
Structure prediction by ZEFSAII (Michael W. Deem and Ramdas Pophale) SiO2 
 PCOD8165774
Probable space group: I 21 21 21
;
_chemical_formula_sum "Si O2"
_cell_formula_units_Z 56
_cell_length_a 20.862376
_cell_length_b 14.651570
_cell_length_c 8.189502
_cell_angle_alpha 90.000000
_cell_angle_beta 90.000000
_cell_angle_gamma 90.000000
_cell_volume 2503.256924
_symmetry_space_group_name_H-M "I 21 21 21"
_symmetry_group_IT_number 24
_symmetry_cell_setting 'orthorhombic'
loop_
_space_group_symop_operation_xyz
x,y,z
-x,1/2-y,z
x,-y,1/2-z
1/2-x,y,-z
1/2+x,1/2+y,1/2+z
1/2-x,-y,1/2+z
1/2+x,1/2-y,-z
-x,1/2+y,1/2-z
loop_
_atom_site_type_symbol
_atom_site_label
_atom_site_fract_x
_atom_site_fract_y
_atom_site_fract_z
Si Si1 0.568388 0.744943 0.125447
Si Si2 0.323949 0.159011 0.992351
Si Si3 0.731243 0.910884 0.816264
Si Si4 0.873078 0.759959 0.203699
Si Si5 0.855318 0.146167 0.856623
Si Si6 0.558719 0.418147 0.128965
Si Si7 0.555061 0.086318 0.871643
O O1 0.500000 0.750000 0.036502
O O2 0.593182 0.838692 0.209833
O O3 0.556254 0.673678 0.268575
O O4 0.616536 0.719990 0.978307
O O5 0.353835 0.173071 0.811952
O O6 0.250000 0.127488 0.000000
O O7 0.332027 0.254326 0.086536
O O8 0.367270 0.077198 0.067408
O O9 0.689249 0.822620 0.791991
O O10 0.794408 0.907866 0.705036
O O11 0.692974 0.000000 0.750000
O O12 0.750000 0.923465 0.000000
O O13 0.934437 0.819669 0.267686
O O14 0.886832 0.084045 0.997441
O O15 0.541151 0.500000 0.250000
O O16 0.511451 0.412421 0.972762
O O17 0.556024 0.000000 0.750000
#
# Coordination Sequence:
#
# PCOD8165774 Si02
#       7
#     8   8   8   8   8   8   8
#     4  11  23  44  71  98 135 183 233 286 348 420
#     4  10  22  44  74  95 132 175 230 294 335 410
#     4  12  26  40  63 103 150 189 227 279 341 417
#     4  11  25  41  69 105 134 186 238 276 342 426
#     4  10  22  43  67  97 137 189 229 270 346 415
#     4  11  27  48  68  98 136 179 227 297 363 409
#     4  11  26  42  66 100 145 181 228 288 350 421
#
# _framework density 22.370857000000001
#
# number of rings (size 3 to 8) (size 9 to 14) (size 15 to 20)
#    0.000    1.143    4.286    0.429   10.000    0.571 
#    0.000    2.143    0.000    0.000    0.000    0.000 
#    0.000    0.000    0.000    0.000    0.000    0.000 
#
# Total GULP energy -346978.587314 kJ/mol
# GULP energy per Si atom -12392.092404 kJ/mol
# Density = 2.231994 g / cm^3
# Si number density = 22.370857 Si / 1000 Ang^3
#
#
#
# Elastic Constant Matrix: (Units=GPa)
#
#
# Indices 1 2 3 4 5 6 
#
# 1 139.6578 22.9735 50.3312 0.0000 0.0000 0.0000
# 2 22.9735 41.3718 26.0181 0.0000 0.0000 0.0000
# 3 50.3312 26.0181 134.4595 0.0000 0.0000 0.0000
# 4 0.0000 0.0000 0.0000 81.9331 0.0000 0.0000
# 5 0.0000 0.0000 0.0000 0.0000-2449.6573 0.0000
# 6 0.0000 0.0000 0.0000 0.0000 0.0000 26.0386
#
#
#
# Elastic Compliance Matrix: (Units=1/GPa)
#
#
# Indices 1 2 3 4 5 6 
#
# 1 0.008621 -0.003140 -0.002619 0.000000 0.000000 0.000000
# 2 -0.003140 0.028664 -0.004371 0.000000 0.000000 0.000000
# 3 -0.002619 -0.004371 0.009264 0.000000 0.000000 0.000000
# 4 0.000000 0.000000 0.000000 0.012205 0.000000 0.000000
# 5 0.000000 0.000000 0.000000 0.000000 -0.000408 0.000000
# 6 0.000000 0.000000 0.000000 0.000000 0.000000 0.038405
#
#
# Mechanical properties :
#
#
# Convention : Reuss Voigt Hill
#
# Bulk Modulus (GPa) = 38.04134 57.12610 47.58372
# Shear Modulus (GPa) = 39.75433 -453.92605 -207.08586
#
# Velocity S-wave (km/s) = 4.22009 -14.26009 -9.63174
# Velocity P-wave (km/s) = 6.38650 15.66978 10.11817
#
# Compressibility (1/GPa) = 0.02628719
#
# Stress axis : x y z
#
# Youngs Moduli (GPa) = 115.99763 34.88752 107.95036
#
# Poissons Ratio (x) = 0.10954 0.28277
# Poissons Ratio (y) = 0.36421 0.47187
# Poissons Ratio (z) = 0.30385 0.15250
#
# Static dielectric constant tensor:
#      x y z
#    x 3.756660 0.000000 0.000000 
#    y 0.000000 4.292780 0.000000 
#    z 0.000000 0.000000 4.331170 
# 
# 
# High freq. dielectric constant tensor:
#      x y z
#    x 1.892230 0.000000 0.000000 
#    y 0.000000 1.841350 0.000000 
#    z 0.000000 0.000000 1.902700 
# 
# From -- ./inp_files/15242.got.cif
#   From: 2010.03.12/outbox.cif.g09.slc.cpg/sg24_8_cif.got.tgz:15242.got - 2010.04.14 03:06:53.
