data_PCOD8165953
_publ_section_title
;
Structure prediction by ZEFSAII (Michael W. Deem and Ramdas Pophale) SiO2 
 PCOD8165953
Probable space group: I 21 21 21
;
_chemical_formula_sum "Si O2"
_cell_formula_units_Z 32
_cell_length_a 8.493419
_cell_length_b 5.569726
_cell_length_c 29.308446
_cell_angle_alpha 90.000000
_cell_angle_beta 90.000000
_cell_angle_gamma 90.000000
_cell_volume 1386.465834
_symmetry_space_group_name_H-M "I 21 21 21"
_symmetry_group_IT_number 24
_symmetry_cell_setting 'orthorhombic'
loop_
_space_group_symop_operation_xyz
x,y,z
-x,1/2-y,z
x,-y,1/2-z
1/2-x,y,-z
1/2+x,1/2+y,1/2+z
1/2-x,-y,1/2+z
1/2+x,1/2-y,-z
-x,1/2+y,1/2-z
loop_
_atom_site_type_symbol
_atom_site_label
_atom_site_fract_x
_atom_site_fract_y
_atom_site_fract_z
Si Si1 0.401454 0.500000 0.250000
Si Si2 0.750000 0.067106 0.500000
Si Si3 0.500000 0.250000 0.887364
Si Si4 0.334593 0.628301 0.830652
Si Si5 0.500000 0.750000 0.457094
Si Si6 0.250714 0.085772 0.583685
O O1 0.500000 0.750000 0.259986
O O2 0.286123 0.568128 0.208988
O O3 0.723218 0.218607 0.545145
O O4 0.601824 0.900283 0.492155
O O5 0.372832 0.380528 0.855585
O O6 0.592609 0.427941 0.920368
O O7 0.500000 0.750000 0.813634
O O8 0.242427 0.800641 0.865946
O O9 0.594887 0.570891 0.424064
#
# Coordination Sequence:
#
# PCOD8165953 Si02
#       6
#     4   4   4   8   4   8
#     4  12  32  52  82 126 166 204 264 342 406 482
#     4  12  28  46  68 106 148 196 252 308 380 460
#     4  10  24  47  78 106 146 194 258 310 378 463
#     4  10  26  50  81 110 153 205 261 314 396 481
#     4  12  28  45  70 100 154 196 252 312 382 457
#     4  11  26  47  72 110 142 200 250 315 374 465
#
# _framework density 23.080268
#
# number of rings (size 3 to 8) (size 9 to 14) (size 15 to 20)
#    0.000    1.000    0.000    3.000    8.750   23.000 
#    2.250    0.000    0.000    0.000    0.000    0.000 
#    0.000    0.000    0.000    0.000    0.000    0.000 
#
# Total GULP energy -198367.253537 kJ/mol
# GULP energy per Si atom -12397.953346 kJ/mol
# Density = 2.302774 g / cm^3
# Si number density = 23.080268 Si / 1000 Ang^3
#
#
#
# Elastic Constant Matrix: (Units=GPa)
#
#
# Indices 1 2 3 4 5 6 
#
# 1 164.0222 98.6903 118.3676 0.0000 0.0000 0.0000
# 2 98.6903 173.8458 80.1404 -0.0001 0.0000 0.0000
# 3 118.3676 80.1404 130.4903 0.0000 0.0000 0.0000
# 4 0.0000 -0.0001 0.0000 48.3157 0.0000 0.0000
# 5 0.0000 0.0000 0.0000 0.0000 59.0289 0.0000
# 6 0.0000 0.0000 0.0000 0.0000 0.0000 42.5628
#
#
#
# Elastic Compliance Matrix: (Units=1/GPa)
#
#
# Indices 1 2 3 4 5 6 
#
# 1 0.019520 -0.004072 -0.015206 0.000000 0.000000 0.000000
# 2 -0.004072 0.008873 -0.001756 0.000000 0.000000 0.000000
# 3 -0.015206 -0.001756 0.022535 0.000000 0.000000 0.000000
# 4 0.000000 0.000000 0.000000 0.020697 0.000000 0.000000
# 5 0.000000 0.000000 0.000000 0.000000 0.016941 0.000000
# 6 0.000000 0.000000 0.000000 0.000000 0.000000 0.023495
#
#
# Mechanical properties :
#
#
# Convention : Reuss Voigt Hill
#
# Bulk Modulus (GPa) = 112.85375 118.08387 115.46881
# Shear Modulus (GPa) = 31.83031 41.39216 36.61124
#
# Velocity S-wave (km/s) = 3.71767 4.23945 3.98710
# Velocity P-wave (km/s) = 8.21160 8.67394 8.44594
#
# Compressibility (1/GPa) = 0.00886103
#
# Stress axis : x y z
#
# Youngs Moduli (GPa) = 51.22902 112.69967 44.37453
#
# Poissons Ratio (x) = 0.45886 0.67477
# Poissons Ratio (y) = 0.20858 0.07793
# Poissons Ratio (z) = 0.77900 0.19791
#
# Static dielectric constant tensor:
#      x y z
#    x 4.344320 0.000000 0.000000 
#    y 0.000000 4.337780 0.000000 
#    z 0.000000 0.000000 4.006980 
# 
# 
# High freq. dielectric constant tensor:
#      x y z
#    x 1.925390 0.000000 0.000000 
#    y 0.000000 1.941210 0.000000 
#    z 0.000000 0.000000 1.907110 
# 
# From -- ./inp_files/1230.got.cif
#   From: 2010.03.12/outbox.cif.g09.slc.cpg/sg24_1_cif.got.tgz:1230.got - 2010.04.14 03:06:53.
