data_PCOD8165770
_publ_section_title
;
Structure prediction by ZEFSAII (Michael W. Deem and Ramdas Pophale) SiO2 
 PCOD8165770
Probable space group: I 21 21 21
;
_chemical_formula_sum "Si O2"
_cell_formula_units_Z 36
_cell_length_a 9.758942
_cell_length_b 9.191600
_cell_length_c 18.936628
_cell_angle_alpha 90.000000
_cell_angle_beta 90.000000
_cell_angle_gamma 90.000000
_cell_volume 1698.621048
_symmetry_space_group_name_H-M "I 21 21 21"
_symmetry_group_IT_number 24
_symmetry_cell_setting 'orthorhombic'
loop_
_space_group_symop_operation_xyz
x,y,z
-x,1/2-y,z
x,-y,1/2-z
1/2-x,y,-z
1/2+x,1/2+y,1/2+z
1/2-x,-y,1/2+z
1/2+x,1/2-y,-z
-x,1/2+y,1/2-z
loop_
_atom_site_type_symbol
_atom_site_label
_atom_site_fract_x
_atom_site_fract_y
_atom_site_fract_z
Si Si1 0.656072 0.000000 0.750000
Si Si2 0.588883 0.608577 0.011997
Si Si3 0.675122 0.460730 0.145057
Si Si4 0.353366 0.772096 0.229678
Si Si5 0.473247 0.911159 0.614637
O O1 0.756241 0.133284 0.733073
O O2 0.562296 0.040588 0.817194
O O3 0.500000 0.750000 0.030750
O O4 0.582106 0.493272 0.076514
O O5 0.750000 0.648250 0.000000
O O6 0.513483 0.534059 0.945472
O O7 0.723994 0.611347 0.181563
O O8 0.599053 0.347412 0.196337
O O9 0.816351 0.383010 0.130944
O O10 0.500000 0.750000 0.191376
O O11 0.500000 0.750000 0.585419
#
# Coordination Sequence:
#
# PCOD8165770 Si02
#       5
#     4   8   8   8   8
#     4  12  24  38  72 104 128 172 232 278 334 406
#     4  10  24  44  68  95 135 178 222 277 335 409
#     4  10  22  43  64  90 137 174 210 277 337 390
#     4  11  23  40  66  97 133 175 219 275 336 400
#     4  11  24  42  65  99 130 169 222 281 337 389
#
# _framework density 21.193660000000001
#
# number of rings (size 3 to 8) (size 9 to 14) (size 15 to 20)
#    0.000    1.333    2.222    3.333    6.222    0.889 
#    0.000    3.333    0.000    0.000    0.000    0.000 
#    0.000    0.000    0.000    0.000    0.000    0.000 
#
# Total GULP energy -222986.757307 kJ/mol
# GULP energy per Si atom -12388.153184 kJ/mol
# Density = 2.114542 g / cm^3
# Si number density = 21.193660 Si / 1000 Ang^3
#
#
#
# Elastic Constant Matrix: (Units=GPa)
#
#
# Indices 1 2 3 4 5 6 
#
# 1 82.4178 47.1133 30.5640 0.0000 0.0000 0.0000
# 2 47.1133 113.0496 26.4521 0.0000 0.0000 0.0000
# 3 30.5640 26.4521 89.5058 0.0000 0.0000 0.0000
# 4 0.0000 0.0000 0.0000 3.6403 0.0000 0.0000
# 5 0.0000 0.0000 0.0000 0.0000 13.6849 0.0000
# 6 0.0000 0.0000 0.0000 0.0000 0.0000 38.3191
#
#
#
# Elastic Compliance Matrix: (Units=1/GPa)
#
#
# Indices 1 2 3 4 5 6 
#
# 1 0.017182 -0.006218 -0.004030 0.000000 0.000000 0.000000
# 2 -0.006218 0.011753 -0.001350 0.000000 0.000000 0.000000
# 3 -0.004030 -0.001350 0.012948 0.000000 0.000000 0.000000
# 4 0.000000 0.000000 0.000000 0.274699 0.000000 0.000000
# 5 0.000000 0.000000 0.000000 0.000000 0.073073 0.000000
# 6 0.000000 0.000000 0.000000 0.000000 0.000000 0.026097
#
#
# Mechanical properties :
#
#
# Convention : Reuss Voigt Hill
#
# Bulk Modulus (GPa) = 53.51248 54.80354 54.15801
# Shear Modulus (GPa) = 11.23153 23.18511 17.20832
#
# Velocity S-wave (km/s) = 2.30456 3.31110 2.85258
# Velocity P-wave (km/s) = 5.69082 6.36651 6.03812
#
# Compressibility (1/GPa) = 0.01868723
#
# Stress axis : x y z
#
# Youngs Moduli (GPa) = 58.20065 85.08605 77.23490
#
# Poissons Ratio (x) = 0.52904 0.31123
# Poissons Ratio (y) = 0.36187 0.10428
# Poissons Ratio (z) = 0.23453 0.11488
#
# Static dielectric constant tensor:
#      x y z
#    x 3.730850 0.000000 0.000000 
#    y 0.000000 3.957150 0.000000 
#    z 0.000000 0.000000 4.090620 
# 
# 
# High freq. dielectric constant tensor:
#      x y z
#    x 1.829900 0.000000 0.000000 
#    y 0.000000 1.843120 0.000000 
#    z 0.000000 0.000000 1.835370 
# 
# From -- ./inp_files/9054.got.cif
#   From: 2010.03.12/outbox.cif.g09.slc.cpg/sg24_5_cif.got.tgz:9054.got - 2010.04.14 03:06:53.
