data_PCOD8165713
_publ_section_title
;
Structure prediction by ZEFSAII (Michael W. Deem and Ramdas Pophale) SiO2 
 PCOD8165713
Probable space group: I 21 21 21
;
_chemical_formula_sum "Si O2"
_cell_formula_units_Z 56
_cell_length_a 12.221333
_cell_length_b 14.483712
_cell_length_c 12.810140
_cell_angle_alpha 90.000000
_cell_angle_beta 90.000000
_cell_angle_gamma 90.000000
_cell_volume 2267.526307
_symmetry_space_group_name_H-M "I 21 21 21"
_symmetry_group_IT_number 24
_symmetry_cell_setting 'orthorhombic'
loop_
_space_group_symop_operation_xyz
x,y,z
-x,1/2-y,z
x,-y,1/2-z
1/2-x,y,-z
1/2+x,1/2+y,1/2+z
1/2-x,-y,1/2+z
1/2+x,1/2-y,-z
-x,1/2+y,1/2-z
loop_
_atom_site_type_symbol
_atom_site_label
_atom_site_fract_x
_atom_site_fract_y
_atom_site_fract_z
Si Si1 0.096133 0.649926 0.476147
Si Si2 0.486848 0.356953 0.663489
Si Si3 0.633803 0.445895 0.507529
Si Si4 0.230608 0.398861 0.225632
Si Si5 0.482113 0.942774 0.345894
Si Si6 0.833633 0.270537 0.847420
Si Si7 0.884147 0.381754 0.144170
O O1 0.182473 0.610097 0.392633
O O2 0.138573 0.743150 0.532803
O O3 0.078067 0.574645 0.569413
O O4 0.980500 0.668149 0.420648
O O5 0.500000 0.250000 0.682112
O O6 0.531086 0.385114 0.548524
O O7 0.361236 0.383968 0.684628
O O8 0.566318 0.410187 0.743872
O O9 0.750000 0.389980 0.500000
O O10 0.607830 0.488693 0.395146
O O11 0.660388 0.528878 0.586834
O O12 0.279329 0.500000 0.250000
O O13 0.328955 0.321513 0.228857
O O14 0.424489 0.845198 0.311625
O O15 0.532066 0.000000 0.250000
O O16 0.710975 0.307861 0.840817
#
# Coordination Sequence:
#
# PCOD8165713 Si02
#       7
#     8   8   8   8   8   8   8
#     4  10  25  40  67 100 141 182 230 286 353 419
#     4  11  22  41  66  98 140 185 227 290 353 423
#     4  11  23  37  68  98 136 178 232 295 361 405
#     4  11  24  42  67 103 142 179 227 289 360 423
#     4  11  26  43  64 100 142 181 233 288 357 418
#     4  12  24  39  71 105 136 180 235 289 352 419
#     4  10  22  40  65 103 141 171 227 297 357 411
#
# _framework density 24.696515999999999
#
# number of rings (size 3 to 8) (size 9 to 14) (size 15 to 20)
#    0.000    1.143    2.857    3.857   12.000    0.571 
#    0.000    1.429    0.000    6.857    0.000    0.000 
#    0.000    0.000    0.000    0.000    0.000    0.000 
#
# Total GULP energy -347028.392972 kJ/mol
# GULP energy per Si atom -12393.871178 kJ/mol
# Density = 2.464031 g / cm^3
# Si number density = 24.696516 Si / 1000 Ang^3
#
#
#
# Elastic Constant Matrix: (Units=GPa)
#
#
# Indices 1 2 3 4 5 6 
#
# 1 106.9756 23.9875 18.1507 0.0000 0.0000 0.0000
# 2 23.9875 97.4500 39.5852 0.0000 0.0000 0.0000
# 3 18.1507 39.5852 63.1491 0.0001 0.0000 0.0000
# 4 0.0000 0.0000 0.0001 42.2955 0.0000 0.0000
# 5 0.0000 0.0000 0.0000 0.0000 13.0498 0.0000
# 6 0.0000 0.0000 0.0000 0.0000 0.0000 28.7506
#
#
#
# Elastic Compliance Matrix: (Units=1/GPa)
#
#
# Indices 1 2 3 4 5 6 
#
# 1 0.010043 -0.001744 -0.001794 0.000000 0.000000 0.000000
# 2 -0.001744 0.014070 -0.008319 0.000000 0.000000 0.000000
# 3 -0.001794 -0.008319 0.021566 0.000000 0.000000 0.000000
# 4 0.000000 0.000000 0.000000 0.023643 0.000000 0.000000
# 5 0.000000 0.000000 0.000000 0.000000 0.076630 0.000000
# 6 0.000000 0.000000 0.000000 0.000000 0.000000 0.034782
#
#
# Mechanical properties :
#
#
# Convention : Reuss Voigt Hill
#
# Bulk Modulus (GPa) = 45.52281 47.89126 46.70704
# Shear Modulus (GPa) = 23.61077 29.20928 26.41002
#
# Velocity S-wave (km/s) = 3.09534 3.44281 3.27369
# Velocity P-wave (km/s) = 5.58997 5.93616 5.76566
#
# Compressibility (1/GPa) = 0.02196701
#
# Stress axis : x y z
#
# Youngs Moduli (GPa) = 99.56962 71.07337 46.37000
#
# Poissons Ratio (x) = 0.12392 0.08318
# Poissons Ratio (y) = 0.17360 0.38574
# Poissons Ratio (z) = 0.17860 0.59124
#
# Static dielectric constant tensor:
#      x y z
#    x 4.606520 0.000000 0.000000 
#    y 0.000000 4.420330 0.000000 
#    z 0.000000 0.000000 4.466960 
# 
# 
# High freq. dielectric constant tensor:
#      x y z
#    x 1.996750 0.000000 0.000000 
#    y 0.000000 1.976530 0.000000 
#    z 0.000000 0.000000 1.951970 
# 
# From -- ./inp_files/20862.got.cif
#   From: 2010.03.12/outbox.cif.g09.slc.cpg/sg24_11_cif.got.tgz:20862.got - 2010.04.14 03:06:53.
