data_PCOD8165820
_publ_section_title
;
Structure prediction by ZEFSAII (Michael W. Deem and Ramdas Pophale) SiO2 
 PCOD8165820
Probable space group: I 21 21 21
;
_chemical_formula_sum "Si O2"
_cell_formula_units_Z 48
_cell_length_a 12.722266
_cell_length_b 9.462548
_cell_length_c 18.234713
_cell_angle_alpha 90.000000
_cell_angle_beta 90.000000
_cell_angle_gamma 90.000000
_cell_volume 2195.186885
_symmetry_space_group_name_H-M "I 21 21 21"
_symmetry_group_IT_number 24
_symmetry_cell_setting 'orthorhombic'
loop_
_space_group_symop_operation_xyz
x,y,z
-x,1/2-y,z
x,-y,1/2-z
1/2-x,y,-z
1/2+x,1/2+y,1/2+z
1/2-x,-y,1/2+z
1/2+x,1/2-y,-z
-x,1/2+y,1/2-z
loop_
_atom_site_type_symbol
_atom_site_label
_atom_site_fract_x
_atom_site_fract_y
_atom_site_fract_z
Si Si1 0.948631 0.597257 0.821236
Si Si2 0.572169 0.472857 0.904318
Si Si3 0.276222 0.816370 0.824388
Si Si4 0.432919 0.888717 0.435168
Si Si5 0.767060 0.279241 0.155024
Si Si6 0.145884 0.509713 0.167091
O O1 0.951860 0.500000 0.750000
O O2 0.833559 0.627565 0.855243
O O3 0.999942 0.498619 0.884537
O O4 0.000000 0.750000 0.805535
O O5 0.629495 0.599010 0.861404
O O6 0.619471 0.324826 0.876411
O O7 0.448936 0.488261 0.889208
O O8 0.593056 0.475028 0.991195
O O9 0.264032 0.839401 0.737252
O O10 0.293781 0.654738 0.846447
O O11 0.500000 0.750000 0.453740
O O12 0.327405 0.841615 0.392621
O O13 0.765250 0.109468 0.154289
O O14 0.100635 0.500000 0.250000
#
# Coordination Sequence:
#
# PCOD8165820 Si02
#       6
#     8   8   8   8   8   8
#     4  12  26  45  71  99 136 185 232 290 346 418
#     4  12  23  43  67  99 144 186 228 278 351 414
#     4  11  23  42  70 103 137 176 228 291 351 405
#     4  12  27  45  69 100 140 192 236 288 345 420
#     4  11  22  42  69 101 136 180 234 286 345 408
#     4  10  23  39  70 105 136 179 231 292 341 415
#
# _framework density 21.866021
#
# number of rings (size 3 to 8) (size 9 to 14) (size 15 to 20)
#    0.000    0.667    3.333    4.500    2.333    4.667 
#    0.000    0.000    3.667    0.000    0.000    0.000 
#    0.000    0.000    0.000    0.000    0.000    0.000 
#
# Total GULP energy -297515.953586 kJ/mol
# GULP energy per Si atom -12396.498066 kJ/mol
# Density = 2.181625 g / cm^3
# Si number density = 21.866021 Si / 1000 Ang^3
#
#
#
# Elastic Constant Matrix: (Units=GPa)
#
#
# Indices 1 2 3 4 5 6 
#
# 1 64.9989 26.3730 33.1543 0.0000 0.0000 0.0000
# 2 26.3730 135.3593 64.4293 0.0000 0.0000 0.0000
# 3 33.1543 64.4293 128.5867 0.0000 0.0000 0.0000
# 4 0.0000 0.0000 0.0000 15.7404 0.0000 0.0000
# 5 0.0000 0.0000 0.0000 0.0000 28.8102 0.0000
# 6 0.0000 0.0000 0.0000 0.0000 0.0000 31.9723
#
#
#
# Elastic Compliance Matrix: (Units=1/GPa)
#
#
# Indices 1 2 3 4 5 6 
#
# 1 0.018010 -0.001705 -0.003789 0.000000 0.000000 0.000000
# 2 -0.001705 0.009863 -0.004502 0.000000 0.000000 0.000000
# 3 -0.003789 -0.004502 0.011010 0.000000 0.000000 0.000000
# 4 0.000000 0.000000 0.000000 0.063531 0.000000 0.000000
# 5 0.000000 0.000000 0.000000 0.000000 0.034710 0.000000
# 6 0.000000 0.000000 0.000000 0.000000 0.000000 0.031277
#
#
# Mechanical properties :
#
#
# Convention : Reuss Voigt Hill
#
# Bulk Modulus (GPa) = 52.94101 64.09533 58.51817
# Shear Modulus (GPa) = 25.68190 28.97045 27.32617
#
# Velocity S-wave (km/s) = 3.43083 3.64388 3.53896
# Velocity P-wave (km/s) = 6.32125 6.86150 6.59691
#
# Compressibility (1/GPa) = 0.01888895
#
# Stress axis : x y z
#
# Youngs Moduli (GPa) = 55.52623 101.38878 90.82922
#
# Poissons Ratio (x) = 0.17291 0.34415
# Poissons Ratio (y) = 0.09469 0.40893
# Poissons Ratio (z) = 0.21039 0.45648
#
# Static dielectric constant tensor:
#      x y z
#    x 3.778510 0.000000 0.000000 
#    y 0.000000 4.357450 0.000000 
#    z 0.000000 0.000000 3.908390 
# 
# 
# High freq. dielectric constant tensor:
#      x y z
#    x 1.846760 0.000000 0.000000 
#    y 0.000000 1.885260 0.000000 
#    z 0.000000 0.000000 1.855890 
# 
# From -- ./inp_files/30718.got.cif
#   From: 2010.03.12/outbox.cif.g09.slc.cpg/sg24_16_cif.got.tgz:30718.got - 2010.04.14 03:06:53.
