data_PCOD8165438
_publ_section_title
;
Structure prediction by ZEFSAII (Michael W. Deem and Ramdas Pophale) SiO2 
 PCOD8165438
Probable space group: I 21 21 21
;
_chemical_formula_sum "Si O2"
_cell_formula_units_Z 40
_cell_length_a 20.900492
_cell_length_b 10.008112
_cell_length_c 9.326460
_cell_angle_alpha 90.000000
_cell_angle_beta 90.000000
_cell_angle_gamma 90.000000
_cell_volume 1950.857279
_symmetry_space_group_name_H-M "I 21 21 21"
_symmetry_group_IT_number 24
_symmetry_cell_setting 'orthorhombic'
loop_
_space_group_symop_operation_xyz
x,y,z
-x,1/2-y,z
x,-y,1/2-z
1/2-x,y,-z
1/2+x,1/2+y,1/2+z
1/2-x,-y,1/2+z
1/2+x,1/2-y,-z
-x,1/2+y,1/2-z
loop_
_atom_site_type_symbol
_atom_site_label
_atom_site_fract_x
_atom_site_fract_y
_atom_site_fract_z
Si Si1 0.616866 0.231505 0.062286
Si Si2 0.700102 0.500000 0.750000
Si Si3 0.426917 0.720666 0.133200
Si Si4 0.750000 0.684907 0.500000
Si Si5 0.595203 0.470544 0.531903
Si Si6 0.550093 0.997925 0.590441
O O1 0.608791 0.176391 0.222915
O O2 0.690493 0.213996 0.015252
O O3 0.603729 0.388167 0.044796
O O4 0.566812 0.149258 0.966341
O O5 0.743132 0.595447 0.646981
O O6 0.649809 0.426308 0.644769
O O7 0.500000 0.750000 0.172294
O O8 0.395868 0.859468 0.088010
O O9 0.417099 0.608467 0.011401
O O10 0.524996 0.468323 0.601796
O O11 0.579016 0.000000 0.750000
#
# Coordination Sequence:
#
# PCOD8165438 Si02
#       6
#     8   4   8   4   8   8
#     4  11  23  41  62  89 130 169 215 268 316 390
#     4  10  22  40  62  96 126 168 210 276 308 382
#     4  10  22  38  64  97 127 163 208 263 333 388
#     4  10  26  40  64  90 132 172 228 254 328 376
#     4  10  21  37  69  96 122 160 217 273 332 372
#     4  11  23  38  62  95 132 166 207 265 334 394
#
# _framework density 20.503806000000001
#
# number of rings (size 3 to 8) (size 9 to 14) (size 15 to 20)
#    0.000    1.600    1.000    3.000   11.200    4.800 
#    0.000    2.000    0.000    0.000    0.000    0.000 
#    0.000    0.000    0.000    0.000    0.000    0.000 
#
# Total GULP energy -247848.732048 kJ/mol
# GULP energy per Si atom -12392.436602 kJ/mol
# Density = 2.045714 g / cm^3
# Si number density = 20.503806 Si / 1000 Ang^3
#
#
#
# Elastic Constant Matrix: (Units=GPa)
#
#
# Indices 1 2 3 4 5 6 
#
# 1 57.5098 16.6530 26.6736 0.0000 0.0000 0.0000
# 2 16.6530 78.8195 36.4311 0.0000 0.0000 0.0000
# 3 26.6736 36.4311 151.6521 0.0000 0.0000 0.0000
# 4 0.0000 0.0000 0.0000 19.4906 0.0000 0.0000
# 5 0.0000 0.0000 0.0000 0.0000 22.9251 0.0000
# 6 0.0000 0.0000 0.0000 0.0000 0.0000 11.0462
#
#
#
# Elastic Compliance Matrix: (Units=1/GPa)
#
#
# Indices 1 2 3 4 5 6 
#
# 1 0.019486 -0.002849 -0.002743 0.000000 0.000000 0.000000
# 2 -0.002849 0.014689 -0.003027 0.000000 0.000000 0.000000
# 3 -0.002743 -0.003027 0.007804 0.000000 0.000000 0.000000
# 4 0.000000 0.000000 0.000000 0.051307 0.000000 0.000000
# 5 0.000000 0.000000 0.000000 0.000000 0.043620 0.000000
# 6 0.000000 0.000000 0.000000 0.000000 0.000000 0.090529
#
#
# Mechanical properties :
#
#
# Convention : Reuss Voigt Hill
#
# Bulk Modulus (GPa) = 40.42214 49.72188 45.07201
# Shear Modulus (GPa) = 19.76920 24.57396 22.17158
#
# Velocity S-wave (km/s) = 3.10848 3.46570 3.29194
# Velocity P-wave (km/s) = 5.71321 6.34961 6.03980
#
# Compressibility (1/GPa) = 0.02473892
#
# Stress axis : x y z
#
# Youngs Moduli (GPa) = 51.32020 68.08042 128.14353
#
# Poissons Ratio (x) = 0.19397 0.35147
# Poissons Ratio (y) = 0.14622 0.38795
# Poissons Ratio (z) = 0.14076 0.20611
#
# Static dielectric constant tensor:
#      x y z
#    x 3.884880 0.000000 0.000000 
#    y 0.000000 3.594260 0.000000 
#    z 0.000000 0.000000 3.906170 
# 
# 
# High freq. dielectric constant tensor:
#      x y z
#    x 1.790330 0.000000 0.000000 
#    y 0.000000 1.784490 0.000000 
#    z 0.000000 0.000000 1.818190 
# 
# From -- ./inp_files/15652.got.cif
#   From: 2010.03.12/outbox.cif.g09.slc.cpg/sg24_8_cif.got.tgz:15652.got - 2010.04.14 03:06:53.
