data_PCOD8165410
_publ_section_title
;
Structure prediction by ZEFSAII (Michael W. Deem and Ramdas Pophale) SiO2 
 PCOD8165410
Probable space group: I 21 21 21
;
_chemical_formula_sum "Si O2"
_cell_formula_units_Z 32
_cell_length_a 8.412133
_cell_length_b 26.070768
_cell_length_c 7.584116
_cell_angle_alpha 90.000000
_cell_angle_beta 90.000000
_cell_angle_gamma 90.000000
_cell_volume 1663.278303
_symmetry_space_group_name_H-M "I 21 21 21"
_symmetry_group_IT_number 24
_symmetry_cell_setting 'orthorhombic'
loop_
_space_group_symop_operation_xyz
x,y,z
-x,1/2-y,z
x,-y,1/2-z
1/2-x,y,-z
1/2+x,1/2+y,1/2+z
1/2-x,-y,1/2+z
1/2+x,1/2-y,-z
-x,1/2+y,1/2-z
loop_
_atom_site_type_symbol
_atom_site_label
_atom_site_fract_x
_atom_site_fract_y
_atom_site_fract_z
Si Si1 0.072418 0.865109 0.947104
Si Si2 0.546283 0.193291 0.137571
Si Si3 0.165131 0.444761 0.679355
Si Si4 0.867803 0.146055 0.208205
O O1 0.071933 0.821107 0.797641
O O2 0.998513 0.915047 0.855293
O O3 0.250000 0.878637 0.000000
O O4 0.971616 0.847136 0.116628
O O5 0.500000 0.250000 0.075517
O O6 0.727848 0.189022 0.209143
O O7 0.526426 0.155394 0.967348
O O8 0.118873 0.500000 0.750000
O O9 0.250000 0.456603 0.500000
O O10 0.284159 0.410221 0.799914
#
# Coordination Sequence:
#
# PCOD8165410 Si02
#       4
#     8   8   8   8
#     4  10  22  38  55  85 126 152 190 247 292 352
#     4  10  21  36  61  85 114 160 199 242 289 338
#     4   9  19  36  64  85 108 155 200 241 299 348
#     4   9  21  40  57  87 118 146 205 246 282 362
#
# _framework density 19.239114000000001
#
# number of rings (size 3 to 8) (size 9 to 14) (size 15 to 20)
#    0.000    2.500    0.000    2.250    7.000    8.000 
#    0.000    5.000    0.000    0.000    0.000    0.000 
#    0.000    0.000    0.000    0.000    0.000    0.000 
#
# Total GULP energy -198286.107920 kJ/mol
# GULP energy per Si atom -12392.881745 kJ/mol
# Density = 1.919532 g / cm^3
# Si number density = 19.239114 Si / 1000 Ang^3
#
#
#
# Elastic Constant Matrix: (Units=GPa)
#
#
# Indices 1 2 3 4 5 6 
#
# 1 78.3449 45.5337 43.1354 -0.0008 0.0014 0.0076
# 2 45.5337 119.5008 70.8436 -0.0002 0.0006 0.0007
# 3 43.1354 70.8436 139.2526 -0.0022 -0.0002 0.0334
# 4 -0.0008 -0.0002 -0.0022 32.6998 0.0007 0.0003
# 5 0.0014 0.0006 -0.0002 0.0007 20.2861 -0.0034
# 6 0.0076 0.0007 0.0334 0.0003 -0.0034 27.8679
#
#
#
# Elastic Compliance Matrix: (Units=1/GPa)
#
#
# Indices 1 2 3 4 5 6 
#
# 1 0.017148 -0.004847 -0.002846 0.000000 -0.000001 -0.000001
# 2 -0.004847 0.013352 -0.005291 0.000000 0.000000 0.000007
# 3 -0.002846 -0.005291 0.010755 0.000001 0.000000 -0.000012
# 4 0.000000 0.000000 0.000001 0.030581 -0.000001 0.000000
# 5 -0.000001 0.000000 0.000000 -0.000001 0.049295 0.000006
# 6 -0.000001 0.000007 -0.000012 0.000000 0.000006 0.035884
#
#
# Mechanical properties :
#
#
# Convention : Reuss Voigt Hill
#
# Bulk Modulus (GPa) = 65.41807 72.90264 69.16035
# Shear Modulus (GPa) = 26.58477 28.00978 27.29728
#
# Velocity S-wave (km/s) = 3.72130 3.81973 3.77084
# Velocity P-wave (km/s) = 7.24849 7.57819 7.41517
#
# Compressibility (1/GPa) = 0.01528630
#
# Stress axis : x y z
#
# Youngs Moduli (GPa) = 58.31596 74.89688 92.98260
#
# Poissons Ratio (x) = 0.36300 0.26464
# Poissons Ratio (y) = 0.28264 0.49199
# Poissons Ratio (z) = 0.16597 0.39630
#
# Static dielectric constant tensor:
#      x y z
#    x 3.198120 0.000010 -0.000020 
#    y 0.000010 3.687770 -0.000130 
#    z -0.000020 -0.000130 3.787900 
# 
# 
# High freq. dielectric constant tensor:
#      x y z
#    x 1.726340 0.000000 0.000000 
#    y 0.000000 1.733390 0.000000 
#    z 0.000000 0.000000 1.769830 
# 
# From -- ./inp_files/9166.got.cif
#   From: 2010.03.12/outbox.cif.g09.slc.cpg/sg24_5_cif.got.tgz:9166.got - 2010.04.14 03:06:53.
