data_PCOD8165767
_publ_section_title
;
Structure prediction by ZEFSAII (Michael W. Deem and Ramdas Pophale) SiO2 
 PCOD8165767
Probable space group: I 21 21 21
;
_chemical_formula_sum "Si O2"
_cell_formula_units_Z 48
_cell_length_a 24.116547
_cell_length_b 7.585063
_cell_length_c 13.071840
_cell_angle_alpha 90.000000
_cell_angle_beta 90.000000
_cell_angle_gamma 90.000000
_cell_volume 2391.173238
_symmetry_space_group_name_H-M "I 21 21 21"
_symmetry_group_IT_number 24
_symmetry_cell_setting 'orthorhombic'
loop_
_space_group_symop_operation_xyz
x,y,z
-x,1/2-y,z
x,-y,1/2-z
1/2-x,y,-z
1/2+x,1/2+y,1/2+z
1/2-x,-y,1/2+z
1/2+x,1/2-y,-z
-x,1/2+y,1/2-z
loop_
_atom_site_type_symbol
_atom_site_label
_atom_site_fract_x
_atom_site_fract_y
_atom_site_fract_z
Si Si1 0.299112 0.698396 0.223370
Si Si2 0.678316 0.320514 0.701899
Si Si3 0.606202 0.000000 0.750000
Si Si4 0.500000 0.250000 0.057485
Si Si5 0.461536 0.411510 0.555029
Si Si6 0.895063 0.616565 0.656604
Si Si7 0.137240 0.796459 0.972943
O O1 0.284257 0.500000 0.250000
O O2 0.243093 0.810114 0.227766
O O3 0.341482 0.774523 0.307297
O O4 0.322608 0.706841 0.109027
O O5 0.654913 0.500000 0.750000
O O6 0.668293 0.309703 0.580775
O O7 0.645014 0.169292 0.760157
O O8 0.567684 0.996966 0.848311
O O9 0.444419 0.247727 0.125677
O O10 0.497791 0.431716 0.993910
O O11 0.500000 0.250000 0.591373
O O12 0.416505 0.329927 0.477327
O O13 0.917827 0.500000 0.750000
O O14 0.878593 0.493849 0.561201
#
# Coordination Sequence:
#
# PCOD8165767 Si02
#       7
#     8   8   4   4   8   8   8
#     4  11  22  42  65  98 132 170 219 270 326 392
#     4  11  23  43  69  95 135 171 216 270 326 387
#     4  10  26  42  64 100 128 174 218 264 328 382
#     4  12  24  40  68  94 126 176 216 264 332 382
#     4  11  24  42  65  95 133 168 218 269 319 389
#     4  10  23  40  64  95 131 170 218 263 327 384
#     4  10  22  43  63  94 134 168 217 271 319 389
#
# _framework density 20.073827999999999
#
# number of rings (size 3 to 8) (size 9 to 14) (size 15 to 20)
#    0.000    1.333    2.500    3.000    3.500    3.333 
#    1.500    0.000    0.000    0.000    0.000    0.000 
#    0.000    0.000    0.000    0.000    0.000    0.000 
#
# Total GULP energy -297681.864773 kJ/mol
# GULP energy per Si atom -12403.411032 kJ/mol
# Density = 2.002814 g / cm^3
# Si number density = 20.073828 Si / 1000 Ang^3
#
#
#
# Elastic Constant Matrix: (Units=GPa)
#
#
# Indices 1 2 3 4 5 6 
#
# 1 124.8780 49.8379 50.3322 0.0000 0.0000 0.0000
# 2 49.8379 134.7291 53.9346 0.0000 0.0000 0.0000
# 3 50.3322 53.9346 88.0981 0.0000 0.0000 0.0000
# 4 0.0000 0.0000 0.0000 34.7386 0.0000 0.0000
# 5 0.0000 0.0000 0.0000 0.0000 30.5696 0.0000
# 6 0.0000 0.0000 0.0000 0.0000 0.0000 22.7606
#
#
#
# Elastic Compliance Matrix: (Units=1/GPa)
#
#
# Indices 1 2 3 4 5 6 
#
# 1 0.010803 -0.002021 -0.004935 0.000000 0.000000 0.000000
# 2 -0.002021 0.010210 -0.005096 0.000000 0.000000 0.000000
# 3 -0.004935 -0.005096 0.017290 0.000000 0.000000 0.000000
# 4 0.000000 0.000000 0.000000 0.028786 0.000000 0.000000
# 5 0.000000 0.000000 0.000000 0.000000 0.032712 0.000000
# 6 0.000000 0.000000 0.000000 0.000000 0.000000 0.043936
#
#
# Mechanical properties :
#
#
# Convention : Reuss Voigt Hill
#
# Bulk Modulus (GPa) = 70.42347 72.87941 71.65144
# Shear Modulus (GPa) = 28.97292 30.52045 29.74669
#
# Velocity S-wave (km/s) = 3.80322 3.90347 3.85368
# Velocity P-wave (km/s) = 7.37865 7.52998 7.45470
#
# Compressibility (1/GPa) = 0.01419981
#
# Stress axis : x y z
#
# Youngs Moduli (GPa) = 92.56389 97.94467 57.83556
#
# Poissons Ratio (x) = 0.19791 0.28542
# Poissons Ratio (y) = 0.18704 0.29474
# Poissons Ratio (z) = 0.45681 0.49914
#
# Static dielectric constant tensor:
#      x y z
#    x 3.727330 0.000000 0.000000 
#    y 0.000000 3.784390 0.000000 
#    z 0.000000 0.000000 3.596830 
# 
# 
# High freq. dielectric constant tensor:
#      x y z
#    x 1.795010 0.000000 0.000000 
#    y 0.000000 1.795630 0.000000 
#    z 0.000000 0.000000 1.780110 
# 
# From -- ./inp_files/22616.got.cif
#   From: 2010.03.12/outbox.cif.g09.slc.cpg/sg24_12_cif.got.tgz:22616.got - 2010.04.14 03:06:53.
