data_PCOD8165932
_publ_section_title
;
Structure prediction by ZEFSAII (Michael W. Deem and Ramdas Pophale) SiO2 
 PCOD8165932
Probable space group: I 21 21 21
;
_chemical_formula_sum "Si O2"
_cell_formula_units_Z 48
_cell_length_a 25.374228
_cell_length_b 11.627485
_cell_length_c 7.491812
_cell_angle_alpha 90.000000
_cell_angle_beta 90.000000
_cell_angle_gamma 90.000000
_cell_volume 2210.372641
_symmetry_space_group_name_H-M "I 21 21 21"
_symmetry_group_IT_number 24
_symmetry_cell_setting 'orthorhombic'
loop_
_space_group_symop_operation_xyz
x,y,z
-x,1/2-y,z
x,-y,1/2-z
1/2-x,y,-z
1/2+x,1/2+y,1/2+z
1/2-x,-y,1/2+z
1/2+x,1/2-y,-z
-x,1/2+y,1/2-z
loop_
_atom_site_type_symbol
_atom_site_label
_atom_site_fract_x
_atom_site_fract_y
_atom_site_fract_z
Si Si1 0.945900 0.930181 0.515448
Si Si2 0.615710 0.352768 0.480735
Si Si3 0.750000 0.349414 0.000000
Si Si4 0.208406 0.274576 0.662122
Si Si5 0.049241 0.326757 0.344618
Si Si6 0.351359 0.500000 0.250000
Si Si7 0.824446 0.500000 0.250000
Si Si8 0.465179 0.000000 0.250000
O O1 0.941587 0.829287 0.369376
O O2 0.889035 0.935260 0.608943
O O3 0.960529 0.047843 0.418574
O O4 0.995416 0.909863 0.649069
O O5 0.664038 0.324076 0.352227
O O6 0.597599 0.228134 0.550241
O O7 0.635588 0.414779 0.656226
O O8 0.571323 0.426295 0.380982
O O9 0.731385 0.257988 0.146849
O O10 0.791132 0.434149 0.097795
O O11 0.250000 0.262306 0.500000
O O12 0.185945 0.404330 0.659868
O O13 0.000000 0.250000 0.391908
#
# Coordination Sequence:
#
# PCOD8165932 Si02
#       8
#     8   8   4   8   8   4   4   4
#     4  10  24  45  68 101 144 185 237 287 357 431
#     4  12  25  45  70 102 142 180 236 295 356 425
#     4  12  26  50  76 100 142 186 232 306 364 416
#     4  12  27  50  71 106 141 190 241 300 363 426
#     4  11  23  43  69 100 142 185 230 292 348 426
#     4  11  26  46  72 101 141 188 240 295 352 434
#     4  12  26  45  74 105 133 184 241 294 360 430
#     4  11  24  43  70 104 140 186 233 289 362 436
#
# _framework density 21.715796000000001
#
# number of rings (size 3 to 8) (size 9 to 14) (size 15 to 20)
#    0.000    0.667    5.000    2.000    5.833    1.333 
#    0.000    0.000    0.000    0.000    0.000    0.000 
#    0.000    0.000    0.000    0.000    0.000    0.000 
#
# Total GULP energy -297511.099176 kJ/mol
# GULP energy per Si atom -12396.295799 kJ/mol
# Density = 2.166637 g / cm^3
# Si number density = 21.715796 Si / 1000 Ang^3
#
#
#
# Elastic Constant Matrix: (Units=GPa)
#
#
# Indices 1 2 3 4 5 6 
#
# 1 110.5057 33.0186 56.7206 0.0000 0.0000 0.0000
# 2 33.0186 64.8275 25.6931 0.0000 0.0000 0.0000
# 3 56.7206 25.6931 133.7136 0.0000 0.0000 0.0000
# 4 0.0000 0.0000 0.0000 46.7252 0.0000 0.0000
# 5 0.0000 0.0000 0.0000 0.0000 36.8792 0.0000
# 6 0.0000 0.0000 0.0000 0.0000 0.0000 -14.9343
#
#
#
# Elastic Compliance Matrix: (Units=1/GPa)
#
#
# Indices 1 2 3 4 5 6 
#
# 1 0.012775 -0.004718 -0.004513 0.000000 0.000000 0.000000
# 2 -0.004718 0.018440 -0.001542 0.000000 0.000000 0.000000
# 3 -0.004513 -0.001542 0.009689 0.000000 0.000000 0.000000
# 4 0.000000 0.000000 0.000000 0.021402 0.000000 0.000000
# 5 0.000000 0.000000 0.000000 0.000000 0.027116 0.000000
# 6 0.000000 0.000000 0.000000 0.000000 0.000000 -0.066960
#
#
# Mechanical properties :
#
#
# Convention : Reuss Voigt Hill
#
# Bulk Modulus (GPa) = 51.65581 59.99016 55.82299
# Shear Modulus (GPa) = 99.08811 26.64166 62.86488
#
# Velocity S-wave (km/s) = 6.76229 3.50642 5.38626
# Velocity P-wave (km/s) = 9.20925 6.63916 8.02772
#
# Compressibility (1/GPa) = 0.01935890
#
# Stress axis : x y z
#
# Youngs Moduli (GPa) = 78.27551 54.23055 103.20850
#
# Poissons Ratio (x) = 0.25588 0.46574
# Poissons Ratio (y) = 0.36934 0.15911
# Poissons Ratio (z) = 0.35323 0.08361
#
# Static dielectric constant tensor:
#      x y z
#    x 4.061620 0.000000 0.000000 
#    y 0.000000 3.959200 0.000000 
#    z 0.000000 0.000000 4.256000 
# 
# 
# High freq. dielectric constant tensor:
#      x y z
#    x 1.861990 0.000000 0.000000 
#    y 0.000000 1.850830 0.000000 
#    z 0.000000 0.000000 1.870850 
# 
# From -- ./inp_files/15894.got.cif
#   From: 2010.03.12/outbox.cif.g09.slc.cpg/sg24_8_cif.got.tgz:15894.got - 2010.04.14 03:06:53.
