data_PCOD8165615
_publ_section_title
;
Structure prediction by ZEFSAII (Michael W. Deem and Ramdas Pophale) SiO2 
 PCOD8165615
Probable space group: I 21 21 21
;
_chemical_formula_sum "Si O2"
_cell_formula_units_Z 60
_cell_length_a 16.507637
_cell_length_b 8.091171
_cell_length_c 21.213799
_cell_angle_alpha 90.000000
_cell_angle_beta 90.000000
_cell_angle_gamma 90.000000
_cell_volume 2833.444691
_symmetry_space_group_name_H-M "I 21 21 21"
_symmetry_group_IT_number 24
_symmetry_cell_setting 'orthorhombic'
loop_
_space_group_symop_operation_xyz
x,y,z
-x,1/2-y,z
x,-y,1/2-z
1/2-x,y,-z
1/2+x,1/2+y,1/2+z
1/2-x,-y,1/2+z
1/2+x,1/2-y,-z
-x,1/2+y,1/2-z
loop_
_atom_site_type_symbol
_atom_site_label
_atom_site_fract_x
_atom_site_fract_y
_atom_site_fract_z
Si Si1 0.710223 0.928096 0.063118
Si Si2 0.159182 0.605682 0.367201
Si Si3 0.977528 0.058185 0.557139
Si Si4 0.496517 0.946499 0.920457
Si Si5 0.960758 0.573629 0.814851
Si Si6 0.288013 0.800125 0.182185
Si Si7 0.133439 0.969142 0.318269
Si Si8 0.260644 0.500000 0.750000
O O1 0.617944 0.981239 0.051768
O O2 0.710839 0.784392 0.114261
O O3 0.766368 0.086304 0.083050
O O4 0.750000 0.852701 0.000000
O O5 0.075176 0.542358 0.395212
O O6 0.157894 0.782844 0.333869
O O7 0.181242 0.485184 0.310115
O O8 0.017719 0.988271 0.492304
O O9 0.000000 0.250000 0.560244
O O10 0.012109 0.972799 0.621447
O O11 0.500000 0.750000 0.921072
O O12 0.422000 0.985232 0.876499
O O13 0.996066 0.500000 0.750000
O O14 0.864291 0.579969 0.811632
O O15 0.000000 0.750000 0.822348
O O16 0.293654 0.665597 0.240001
O O17 0.210721 0.915067 0.187191
O O18 0.089047 0.000000 0.250000
#
# Coordination Sequence:
#
# PCOD8165615 Si02
#       8
#     8   8   8   8   8   8   8   4
#     4  11  21  42  74  96 130 176 234 280 338 406
#     4  11  24  42  67  98 137 181 224 276 347 403
#     4  10  21  44  67 100 131 170 229 285 334 409
#     4  11  24  42  73  98 134 178 232 280 339 408
#     4  11  24  42  67  98 135 174 225 281 344 404
#     4  11  23  42  67  98 135 178 229 279 341 410
#     4  12  26  44  65 101 146 179 221 284 341 419
#     4  10  22  38  68  94 126 180 228 274 332 398
#
# _framework density 21.175639
#
# number of rings (size 3 to 8) (size 9 to 14) (size 15 to 20)
#    0.000    1.067    5.333    2.400    3.733    0.000 
#    0.000    3.333    0.000    0.000    0.000    0.000 
#    0.000    0.000    0.000    0.000    0.000    0.000 
#
# Total GULP energy -371661.393208 kJ/mol
# GULP energy per Si atom -12388.713107 kJ/mol
# Density = 2.112744 g / cm^3
# Si number density = 21.175639 Si / 1000 Ang^3
#
#
#
# Elastic Constant Matrix: (Units=GPa)
#
#
# Indices 1 2 3 4 5 6 
#
# 1 122.5031 18.0299 48.0004 0.0000 0.0000 0.0000
# 2 18.0299 60.0681 14.3119 0.0000 0.0000 0.0000
# 3 48.0004 14.3119 174.1668 0.0000 0.0000 0.0000
# 4 0.0000 0.0000 0.0000 23.6517 0.0000 0.0000
# 5 0.0000 0.0000 0.0000 0.0000 43.1336 0.0000
# 6 0.0000 0.0000 0.0000 0.0000 0.0000 32.3158
#
#
#
# Elastic Compliance Matrix: (Units=1/GPa)
#
#
# Indices 1 2 3 4 5 6 
#
# 1 0.009442 -0.002258 -0.002417 0.000000 0.000000 0.000000
# 2 -0.002258 0.017520 -0.000817 0.000000 0.000000 0.000000
# 3 -0.002417 -0.000817 0.006475 0.000000 0.000000 0.000000
# 4 0.000000 0.000000 0.000000 0.042280 0.000000 0.000000
# 5 0.000000 0.000000 0.000000 0.000000 0.023184 0.000000
# 6 0.000000 0.000000 0.000000 0.000000 0.000000 0.030945
#
#
# Mechanical properties :
#
#
# Convention : Reuss Voigt Hill
#
# Bulk Modulus (GPa) = 44.53799 57.49139 51.01469
# Shear Modulus (GPa) = 33.71194 38.24661 35.97927
#
# Velocity S-wave (km/s) = 3.99433 4.25451 4.12647
# Velocity P-wave (km/s) = 6.50778 7.16541 6.84450
#
# Compressibility (1/GPa) = 0.02245274
#
# Stress axis : x y z
#
# Youngs Moduli (GPa) = 105.90524 57.07639 154.44402
#
# Poissons Ratio (x) = 0.12890 0.37325
# Poissons Ratio (y) = 0.23918 0.12623
# Poissons Ratio (z) = 0.25595 0.04665
#
# Static dielectric constant tensor:
#      x y z
#    x 3.959860 0.000000 0.000000 
#    y 0.000000 3.619290 0.000000 
#    z 0.000000 0.000000 4.582770 
# 
# 
# High freq. dielectric constant tensor:
#      x y z
#    x 1.829640 0.000000 0.000000 
#    y 0.000000 1.802240 0.000000 
#    z 0.000000 0.000000 1.862890 
# 
# From -- ./inp_files/35817.got.cif
#   From: 2010.03.12/outbox.cif.g09.slc.cpg/sg24_18_cif.got.tgz:35817.got - 2010.04.14 03:06:53.
