data_PCOD8165174
_publ_section_title
;
Structure prediction by ZEFSAII (Michael W. Deem and Ramdas Pophale) SiO2 
 PCOD8165174
Probable space group: I 21 21 21
;
_chemical_formula_sum "Si O2"
_cell_formula_units_Z 28
_cell_length_a 19.107854
_cell_length_b 5.039404
_cell_length_c 13.371337
_cell_angle_alpha 90.000000
_cell_angle_beta 90.000000
_cell_angle_gamma 90.000000
_cell_volume 1287.555402
_symmetry_space_group_name_H-M "I 21 21 21"
_symmetry_group_IT_number 24
_symmetry_cell_setting 'orthorhombic'
loop_
_space_group_symop_operation_xyz
x,y,z
-x,1/2-y,z
x,-y,1/2-z
1/2-x,y,-z
1/2+x,1/2+y,1/2+z
1/2-x,-y,1/2+z
1/2+x,1/2-y,-z
-x,1/2+y,1/2-z
loop_
_atom_site_type_symbol
_atom_site_label
_atom_site_fract_x
_atom_site_fract_y
_atom_site_fract_z
Si Si1 0.500000 0.750000 0.638462
Si Si2 0.827702 0.461033 0.460759
Si Si3 0.120874 0.000000 0.250000
Si Si4 0.411350 0.529883 0.484677
Si Si5 0.500000 0.250000 0.187411
O O1 0.432365 0.781223 0.707424
O O2 0.477715 0.512992 0.561765
O O3 0.750000 0.428592 0.500000
O O4 0.831209 0.392245 0.341242
O O5 0.854076 0.759063 0.476493
O O6 0.876414 0.258262 0.522431
O O7 0.436894 0.622863 0.376291
O O8 0.530305 0.500000 0.250000
#
# Coordination Sequence:
#
# PCOD8165174 Si02
#       5
#     4   8   4   8   4
#     4   9  18  34  65  92 116 146 205 278 329 362
#     4  11  23  41  60  89 132 172 212 257 317 397
#     4  10  20  36  64  96 122 162 212 262 334 384
#     4  10  22  40  63  90 125 162 210 277 325 368
#     4  11  22  40  65  96 126 166 223 272 331 392
#
# _framework density 21.746634
#
# number of rings (size 3 to 8) (size 9 to 14) (size 15 to 20)
#    0.000    1.714    0.000    4.286    0.000   11.429 
#    7.714    0.000    0.000    0.000    0.000    0.000 
#    0.000    0.000    0.000    0.000    0.000    0.000 
#
# Total GULP energy -173465.558108 kJ/mol
# GULP energy per Si atom -12390.397008 kJ/mol
# Density = 2.169714 g / cm^3
# Si number density = 21.746634 Si / 1000 Ang^3
#
#
#
# Elastic Constant Matrix: (Units=GPa)
#
#
# Indices 1 2 3 4 5 6 
#
# 1 116.6644 15.9643 59.6911 0.0000 0.0000 0.0000
# 2 15.9643 78.1588 22.6967 0.0000 0.0000 0.0000
# 3 59.6911 22.6967 146.5455 0.0000 0.0000 0.0000
# 4 0.0000 0.0000 0.0000 28.8930 0.0000 0.0000
# 5 0.0000 0.0000 0.0000 0.0000 41.4132 0.0000
# 6 0.0000 0.0000 0.0000 0.0000 0.0000 31.7982
#
#
#
# Elastic Compliance Matrix: (Units=1/GPa)
#
#
# Indices 1 2 3 4 5 6 
#
# 1 0.010900 -0.000981 -0.004288 0.000000 0.000000 0.000000
# 2 -0.000981 0.013485 -0.001689 0.000000 0.000000 0.000000
# 3 -0.004288 -0.001689 0.008832 0.000000 0.000000 0.000000
# 4 0.000000 0.000000 0.000000 0.034610 0.000000 0.000000
# 5 0.000000 0.000000 0.000000 0.000000 0.024147 0.000000
# 6 0.000000 0.000000 0.000000 0.000000 0.000000 0.031448
#
#
# Mechanical properties :
#
#
# Convention : Reuss Voigt Hill
#
# Bulk Modulus (GPa) = 51.81019 59.78588 55.79803
# Shear Modulus (GPa) = 34.77733 36.62199 35.69966
#
# Velocity S-wave (km/s) = 4.00334 4.10815 4.05608
# Velocity P-wave (km/s) = 6.72646 7.07490 6.90288
#
# Compressibility (1/GPa) = 0.01930122
#
# Stress axis : x y z
#
# Youngs Moduli (GPa) = 91.74603 74.15468 113.22640
#
# Poissons Ratio (x) = 0.07276 0.48548
# Poissons Ratio (y) = 0.09002 0.19123
# Poissons Ratio (z) = 0.39338 0.12524
#
# Static dielectric constant tensor:
#      x y z
#    x 3.814590 0.000000 0.000000 
#    y 0.000000 3.760510 0.000000 
#    z 0.000000 0.000000 4.396080 
# 
# 
# High freq. dielectric constant tensor:
#      x y z
#    x 1.830060 0.000000 0.000000 
#    y 0.000000 1.851240 0.000000 
#    z 0.000000 0.000000 1.866870 
# 
# From -- ./inp_files/1918.got.cif
#   From: 2010.03.12/outbox.cif.g09.slc.cpg/sg24_1_cif.got.tgz:1918.got - 2010.04.14 03:06:53.
