data_PCOD8165717
_publ_section_title
;
Structure prediction by ZEFSAII (Michael W. Deem and Ramdas Pophale) SiO2 
 PCOD8165717
Probable space group: I 21 21 21
;
_chemical_formula_sum "Si O2"
_cell_formula_units_Z 40
_cell_length_a 17.183386
_cell_length_b 10.335636
_cell_length_c 11.370079
_cell_angle_alpha 90.000000
_cell_angle_beta 90.000000
_cell_angle_gamma 90.000000
_cell_volume 2019.339935
_symmetry_space_group_name_H-M "I 21 21 21"
_symmetry_group_IT_number 24
_symmetry_cell_setting 'orthorhombic'
loop_
_space_group_symop_operation_xyz
x,y,z
-x,1/2-y,z
x,-y,1/2-z
1/2-x,y,-z
1/2+x,1/2+y,1/2+z
1/2-x,-y,1/2+z
1/2+x,1/2-y,-z
-x,1/2+y,1/2-z
loop_
_atom_site_type_symbol
_atom_site_label
_atom_site_fract_x
_atom_site_fract_y
_atom_site_fract_z
Si Si1 0.478177 0.109495 0.094021
Si Si2 0.845474 0.500000 0.750000
Si Si3 0.000000 0.250000 0.131569
Si Si4 0.776141 0.261531 0.630640
Si Si5 0.565635 0.144422 0.432857
Si Si6 0.880276 0.859840 0.197815
O O1 0.500000 0.250000 0.152813
O O2 0.396352 0.062219 0.145170
O O3 0.540520 0.995560 0.118145
O O4 0.476336 0.128386 0.952210
O O5 0.788002 0.394555 0.697880
O O6 0.924970 0.233014 0.212635
O O7 0.750000 0.296717 0.500000
O O8 0.855075 0.178634 0.633908
O O9 0.709551 0.180524 0.695202
O O10 0.500000 0.250000 0.401918
O O11 0.578871 0.143572 0.571863
O O12 0.885891 0.000000 0.250000
#
# Coordination Sequence:
#
# PCOD8165717 Si02
#       6
#     8   4   4   8   8   8
#     4  10  24  39  65  98 125 162 216 265 311 377
#     4  12  24  44  64  90 132 170 210 264 328 368
#     4  10  22  40  66 100 122 160 218 268 312 374
#     4  10  26  41  61  97 128 171 212 261 315 384
#     4  11  20  41  69  92 130 168 216 261 308 384
#     4  11  21  42  66  95 128 171 209 259 325 376
#
# _framework density 19.808453
#
# number of rings (size 3 to 8) (size 9 to 14) (size 15 to 20)
#    0.600    0.800    5.000    0.000    2.800    3.200 
#    1.800    0.000    0.000    0.000    0.000    0.000 
#    0.000    0.000    0.000    0.000    0.000    0.000 
#
# Total GULP energy -247947.657246 kJ/mol
# GULP energy per Si atom -12397.382862 kJ/mol
# Density = 1.976337 g / cm^3
# Si number density = 19.808453 Si / 1000 Ang^3
#
#
#
# Elastic Constant Matrix: (Units=GPa)
#
#
# Indices 1 2 3 4 5 6 
#
# 1 125.2170 42.1192 32.5084 0.0000 0.0000 0.0000
# 2 42.1192 120.8865 12.3705 0.0000 0.0000 0.0000
# 3 32.5084 12.3705 54.1071 0.0000 0.0000 0.0000
# 4 0.0000 0.0000 0.0000 8.0198 0.0000 0.0000
# 5 0.0000 0.0000 0.0000 0.0000 24.5299 0.0000
# 6 0.0000 0.0000 0.0000 0.0000 0.0000 35.6719
#
#
#
# Elastic Compliance Matrix: (Units=1/GPa)
#
#
# Indices 1 2 3 4 5 6 
#
# 1 0.010472 -0.003077 -0.005588 0.000000 0.000000 0.000000
# 2 -0.003077 0.009374 -0.000295 0.000000 0.000000 0.000000
# 3 -0.005588 -0.000295 0.021907 0.000000 0.000000 0.000000
# 4 0.000000 0.000000 0.000000 0.124691 0.000000 0.000000
# 5 0.000000 0.000000 0.000000 0.000000 0.040767 0.000000
# 6 0.000000 0.000000 0.000000 0.000000 0.000000 0.028033
#
#
# Mechanical properties :
#
#
# Convention : Reuss Voigt Hill
#
# Bulk Modulus (GPa) = 41.95753 52.68965 47.32359
# Shear Modulus (GPa) = 19.14916 27.85848 23.50382
#
# Velocity S-wave (km/s) = 3.11258 3.75426 3.44838
# Velocity P-wave (km/s) = 5.84338 6.74166 6.30853
#
# Compressibility (1/GPa) = 0.02383363
#
# Stress axis : x y z
#
# Youngs Moduli (GPa) = 95.49402 106.67370 45.64806
#
# Poissons Ratio (x) = 0.32821 0.25509
# Poissons Ratio (y) = 0.29381 0.01345
# Poissons Ratio (z) = 0.53364 0.03144
#
# Static dielectric constant tensor:
#      x y z
#    x 3.679760 0.000000 0.000000 
#    y 0.000000 3.643900 0.000000 
#    z 0.000000 0.000000 3.491910 
# 
# 
# High freq. dielectric constant tensor:
#      x y z
#    x 1.769270 0.000000 0.000000 
#    y 0.000000 1.778280 0.000000 
#    z 0.000000 0.000000 1.781900 
# 
# From -- ./inp_files/18274.got.cif
#   From: 2010.03.12/outbox.cif.g09.slc.cpg/sg24_10_cif.got.tgz:18274.got - 2010.04.14 03:06:53.
