data_PCOD8165189
_publ_section_title
;
Structure prediction by ZEFSAII (Michael W. Deem and Ramdas Pophale) SiO2 
 PCOD8165189
Probable space group: I 21 21 21
;
_chemical_formula_sum "Si O2"
_cell_formula_units_Z 64
_cell_length_a 12.347674
_cell_length_b 24.715203
_cell_length_c 11.443897
_cell_angle_alpha 90.000000
_cell_angle_beta 90.000000
_cell_angle_gamma 90.000000
_cell_volume 3492.394351
_symmetry_space_group_name_H-M "I 21 21 21"
_symmetry_group_IT_number 24
_symmetry_cell_setting 'orthorhombic'
loop_
_space_group_symop_operation_xyz
x,y,z
-x,1/2-y,z
x,-y,1/2-z
1/2-x,y,-z
1/2+x,1/2+y,1/2+z
1/2-x,-y,1/2+z
1/2+x,1/2-y,-z
-x,1/2+y,1/2-z
loop_
_atom_site_type_symbol
_atom_site_label
_atom_site_fract_x
_atom_site_fract_y
_atom_site_fract_z
Si Si1 0.163357 0.867204 0.347925
Si Si2 0.901015 0.598288 0.586917
Si Si3 0.292108 0.306733 0.376825
Si Si4 0.405426 0.028333 0.414202
Si Si5 0.985897 0.124097 0.687633
Si Si6 0.369789 0.802423 0.023292
Si Si7 0.384986 0.236910 0.726973
Si Si8 0.665610 0.548016 0.832156
O O1 0.080509 0.878044 0.455966
O O2 0.276411 0.893931 0.381706
O O3 0.174477 0.803964 0.316738
O O4 0.126252 0.896792 0.229308
O O5 0.929673 0.535058 0.595288
O O6 0.975038 0.631153 0.678662
O O7 0.250000 0.330354 0.500000
O O8 0.363593 0.353365 0.316459
O O9 0.362715 0.253047 0.402358
O O10 0.192404 0.289169 0.292349
O O11 0.503394 0.061274 0.351782
O O12 0.294904 0.044790 0.349151
O O13 0.399591 0.045100 0.548395
O O14 0.060550 0.155962 0.596113
O O15 0.250000 0.827159 0.000000
O O16 0.418882 0.790422 0.896435
O O17 0.500000 0.250000 0.787300
O O18 0.625706 0.500000 0.750000
#
# Coordination Sequence:
#
# PCOD8165189 Si02
#       8
#     8   8   8   8   8   8   8   8
#     4  11  20  34  52  77 117 156 179 232 292 330
#     4  11  21  34  48  78 121 150 186 227 281 343
#     4   9  20  35  54  80 112 140 182 249 303 340
#     4  11  21  29  51  81 114 150 189 231 286 345
#     4  12  20  31  53  83 111 152 188 232 289 356
#     4   9  18  31  50  79 111 138 177 228 277 333
#     4  10  20  37  57  78 103 140 188 237 294 361
#     4  11  17  30  48  76 116 149 185 233 280 342
#
# _framework density 18.325538000000002
#
# number of rings (size 3 to 8) (size 9 to 14) (size 15 to 20)
#    0.000    1.750    3.750    5.250    1.750    0.000 
#    0.000    3.750    0.000    0.000    6.500    0.000 
#    0.000    0.000    0.000    0.000    0.000    0.000 
#
# Total GULP energy -396655.257880 kJ/mol
# GULP energy per Si atom -12395.476809 kJ/mol
# Density = 1.828383 g / cm^3
# Si number density = 18.325538 Si / 1000 Ang^3
#
#
#
# Elastic Constant Matrix: (Units=GPa)
#
#
# Indices 1 2 3 4 5 6 
#
# 1 67.4267 47.5976 34.5122 0.0000 0.0000 0.0000
# 2 47.5976 64.9095 32.8372 -0.0004 0.0000 0.0000
# 3 34.5122 32.8372 106.5097 0.0000 0.0000 0.0000
# 4 0.0000 -0.0004 0.0000 16.4589 0.0000 0.0000
# 5 0.0000 0.0000 0.0000 0.0000 20.2751 0.0000
# 6 0.0000 0.0000 0.0000 0.0000 0.0000 26.2575
#
#
#
# Elastic Compliance Matrix: (Units=1/GPa)
#
#
# Indices 1 2 3 4 5 6 
#
# 1 0.031936 -0.021543 -0.003706 -0.000001 0.000000 0.000000
# 2 -0.021543 0.032786 -0.003127 0.000001 0.000000 0.000000
# 3 -0.003706 -0.003127 0.011554 0.000000 0.000000 0.000000
# 4 -0.000001 0.000001 0.000000 0.060757 0.000000 0.000000
# 5 0.000000 0.000000 0.000000 0.000000 0.049322 0.000000
# 6 0.000000 0.000000 0.000000 0.000000 0.000000 0.038084
#
#
# Mechanical properties :
#
#
# Convention : Reuss Voigt Hill
#
# Bulk Modulus (GPa) = 51.22502 52.08221 51.65362
# Shear Modulus (GPa) = 17.37927 20.85822 19.11874
#
# Velocity S-wave (km/s) = 3.08289 3.37739 3.23350
# Velocity P-wave (km/s) = 6.37854 6.60994 6.49527
#
# Compressibility (1/GPa) = 0.01952171
#
# Stress axis : x y z
#
# Youngs Moduli (GPa) = 31.31299 30.50123 86.55091
#
# Poissons Ratio (x) = 0.65709 0.32078
# Poissons Ratio (y) = 0.67458 0.27067
# Poissons Ratio (z) = 0.11605 0.09539
#
# Static dielectric constant tensor:
#      x y z
#    x 3.021650 0.000000 0.000000 
#    y 0.000000 3.389190 0.000000 
#    z 0.000000 0.000000 3.699940 
# 
# 
# High freq. dielectric constant tensor:
#      x y z
#    x 1.654080 0.000000 0.000000 
#    y 0.000000 1.704320 0.000000 
#    z 0.000000 0.000000 1.718590 
# 
# From -- ./inp_files/20201.got.cif
#   From: 2010.03.12/outbox.cif.g09.slc.cpg/sg24_11_cif.got.tgz:20201.got - 2010.04.14 03:06:53.
