data_PCOD8165313
_publ_section_title
;
Structure prediction by ZEFSAII (Michael W. Deem and Ramdas Pophale) SiO2 
 PCOD8165313
Probable space group: I 21 21 21
;
_chemical_formula_sum "Si O2"
_cell_formula_units_Z 48
_cell_length_a 15.144920
_cell_length_b 9.051136
_cell_length_c 16.827891
_cell_angle_alpha 90.000000
_cell_angle_beta 90.000000
_cell_angle_gamma 90.000000
_cell_volume 2306.745937
_symmetry_space_group_name_H-M "I 21 21 21"
_symmetry_group_IT_number 24
_symmetry_cell_setting 'orthorhombic'
loop_
_space_group_symop_operation_xyz
x,y,z
-x,1/2-y,z
x,-y,1/2-z
1/2-x,y,-z
1/2+x,1/2+y,1/2+z
1/2-x,-y,1/2+z
1/2+x,1/2-y,-z
-x,1/2+y,1/2-z
loop_
_atom_site_type_symbol
_atom_site_label
_atom_site_fract_x
_atom_site_fract_y
_atom_site_fract_z
Si Si1 0.280629 0.312352 0.616772
Si Si2 0.078389 0.657890 0.245911
Si Si3 0.639659 0.745729 0.584103
Si Si4 0.363032 0.536624 0.019152
Si Si5 0.223866 0.000857 0.911887
Si Si6 0.039377 0.899680 0.552631
O O1 0.330922 0.357704 0.696693
O O2 0.349479 0.326895 0.542505
O O3 0.199411 0.425158 0.595574
O O4 0.250082 0.145039 0.637047
O O5 0.033531 0.500000 0.250000
O O6 0.094597 0.710701 0.334816
O O7 0.000000 0.750000 0.204079
O O8 0.726188 0.652634 0.609103
O O9 0.572341 0.639933 0.536277
O O10 0.664471 0.884726 0.527178
O O11 0.463814 0.525129 0.047817
O O12 0.120214 0.033489 0.897291
O O13 0.250000 0.954335 0.000000
O O14 0.000000 0.750000 0.593145
#
# Coordination Sequence:
#
# PCOD8165313 Si02
#       6
#     8   8   8   8   8   8
#     4  11  24  38  57  91 131 165 204 268 326 371
#     4  12  27  41  62  96 134 175 208 257 333 403
#     4  10  22  40  65  89 130 169 210 255 322 403
#     4  10  20  40  60  89 125 161 216 261 310 375
#     4  10  21  37  58  93 123 161 213 259 319 373
#     4   9  20  34  65  94 116 159 215 266 304 368
#
# _framework density 20.808534000000002
#
# number of rings (size 3 to 8) (size 9 to 14) (size 15 to 20)
#    0.000    1.667    3.333    1.500   14.000    2.000 
#    0.000    0.000    0.000    0.000   17.333    0.000 
#    0.000    0.000    0.000    0.000    0.000    0.000 
#
# Total GULP energy -297322.143310 kJ/mol
# GULP energy per Si atom -12388.422638 kJ/mol
# Density = 2.076117 g / cm^3
# Si number density = 20.808534 Si / 1000 Ang^3
#
#
#
# Elastic Constant Matrix: (Units=GPa)
#
#
# Indices 1 2 3 4 5 6 
#
# 1 140.1114 72.7912 22.2740 0.0000 0.0000 0.0000
# 2 72.7912 128.3196 22.0168 0.0000 0.0000 0.0000
# 3 22.2740 22.0168 56.2679 0.0000 0.0000 0.0000
# 4 0.0000 0.0000 0.0000 20.5380 0.0000 0.0000
# 5 0.0000 0.0000 0.0000 0.0000 38.6105 0.0000
# 6 0.0000 0.0000 0.0000 0.0000 0.0000 50.1201
#
#
#
# Elastic Compliance Matrix: (Units=1/GPa)
#
#
# Indices 1 2 3 4 5 6 
#
# 1 0.010310 -0.005519 -0.001922 0.000000 0.000000 0.000000
# 2 -0.005519 0.011308 -0.002240 0.000000 0.000000 0.000000
# 3 -0.001922 -0.002240 0.019409 0.000000 0.000000 0.000000
# 4 0.000000 0.000000 0.000000 0.048690 0.000000 0.000000
# 5 0.000000 0.000000 0.000000 0.000000 0.025900 0.000000
# 6 0.000000 0.000000 0.000000 0.000000 0.000000 0.019952
#
#
# Mechanical properties :
#
#
# Convention : Reuss Voigt Hill
#
# Bulk Modulus (GPa) = 46.15509 62.09588 54.12548
# Shear Modulus (GPa) = 30.83529 35.69487 33.26508
#
# Velocity S-wave (km/s) = 3.85367 4.14623 4.00262
# Velocity P-wave (km/s) = 6.48305 7.26828 6.88687
#
# Compressibility (1/GPa) = 0.02166608
#
# Stress axis : x y z
#
# Youngs Moduli (GPa) = 96.99561 88.43378 51.52146
#
# Poissons Ratio (x) = 0.48803 0.09901
# Poissons Ratio (y) = 0.53528 0.11541
# Poissons Ratio (z) = 0.18641 0.19810
#
# Static dielectric constant tensor:
#      x y z
#    x 4.030790 0.000000 0.000000 
#    y 0.000000 4.131460 0.000000 
#    z 0.000000 0.000000 3.265930 
# 
# 
# High freq. dielectric constant tensor:
#      x y z
#    x 1.824130 0.000000 0.000000 
#    y 0.000000 1.826380 0.000000 
#    z 0.000000 0.000000 1.756800 
# 
# From -- ./inp_files/30726.got.cif
#   From: 2010.03.12/outbox.cif.g09.slc.cpg/sg24_16_cif.got.tgz:30726.got - 2010.04.14 03:06:53.
