data_PCOD8165611
_publ_section_title
;
Structure prediction by ZEFSAII (Michael W. Deem and Ramdas Pophale) SiO2 
 PCOD8165611
Probable space group: I 21 21 21
;
_chemical_formula_sum "Si O2"
_cell_formula_units_Z 32
_cell_length_a 7.100743
_cell_length_b 20.200142
_cell_length_c 9.816821
_cell_angle_alpha 90.000000
_cell_angle_beta 90.000000
_cell_angle_gamma 90.000000
_cell_volume 1408.085703
_symmetry_space_group_name_H-M "I 21 21 21"
_symmetry_group_IT_number 24
_symmetry_cell_setting 'orthorhombic'
loop_
_space_group_symop_operation_xyz
x,y,z
-x,1/2-y,z
x,-y,1/2-z
1/2-x,y,-z
1/2+x,1/2+y,1/2+z
1/2-x,-y,1/2+z
1/2+x,1/2-y,-z
-x,1/2+y,1/2-z
loop_
_atom_site_type_symbol
_atom_site_label
_atom_site_fract_x
_atom_site_fract_y
_atom_site_fract_z
Si Si1 0.000000 0.750000 0.181685
Si Si2 0.750000 0.086241 0.000000
Si Si3 0.087633 0.998170 0.408566
Si Si4 0.972141 0.138880 0.516289
Si Si5 0.121963 0.691854 0.702942
O O1 0.927130 0.690632 0.085148
O O2 0.169835 0.721005 0.270826
O O3 0.868599 0.130433 0.897379
O O4 0.607016 0.041597 0.913797
O O5 0.250000 0.962914 0.500000
O O6 0.063563 0.068933 0.481846
O O7 0.148629 0.000000 0.250000
O O8 0.750000 0.134965 0.500000
O O9 0.000064 0.165112 0.669350
O O10 0.000000 0.750000 0.633856
#
# Coordination Sequence:
#
# PCOD8165611 Si02
#       5
#     4   4   8   8   8
#     4  10  22  42  70 110 142 180 246 306 362 438
#     4  12  30  50  72 106 162 192 250 312 378 452
#     4  12  29  48  77 113 149 203 250 309 379 452
#     4  10  21  43  75 102 145 187 250 303 363 439
#     4  11  26  44  74 106 144 197 240 307 375 441
#
# _framework density 22.725888000000001
#
# number of rings (size 3 to 8) (size 9 to 14) (size 15 to 20)
#    0.000    1.000    2.500    3.000    8.750    2.000 
#    0.000    0.000    0.000    0.000    0.000    0.000 
#    0.000    0.000    0.000    0.000    0.000    0.000 
#
# Total GULP energy -198387.599408 kJ/mol
# GULP energy per Si atom -12399.224963 kJ/mol
# Density = 2.267416 g / cm^3
# Si number density = 22.725888 Si / 1000 Ang^3
#
#
#
# Elastic Constant Matrix: (Units=GPa)
#
#
# Indices 1 2 3 4 5 6 
#
# 1 69.0899 27.6277 42.5686 -0.0003 0.0000 -0.0003
# 2 27.6277 121.5246 26.6632 -0.0001 0.0001 0.0001
# 3 42.5686 26.6632 104.2468 -0.0031 -0.0004 -0.0018
# 4 -0.0003 -0.0001 -0.0031 37.5463 -0.0003 -0.0010
# 5 0.0000 0.0001 -0.0004 -0.0003 30.8507 -0.0003
# 6 -0.0003 0.0001 -0.0018 -0.0010 -0.0003 18.1536
#
#
#
# Elastic Compliance Matrix: (Units=1/GPa)
#
#
# Indices 1 2 3 4 5 6 
#
# 1 0.020299 -0.002962 -0.007531 0.000000 0.000000 0.000000
# 2 -0.002962 0.009150 -0.001131 0.000000 0.000000 0.000000
# 3 -0.007531 -0.001131 0.012957 0.000001 0.000000 0.000001
# 4 0.000000 0.000000 0.000001 0.026634 0.000000 0.000001
# 5 0.000000 0.000000 0.000000 0.000000 0.032414 0.000001
# 6 0.000000 0.000000 0.000001 0.000001 0.000001 0.055085
#
#
# Mechanical properties :
#
#
# Convention : Reuss Voigt Hill
#
# Bulk Modulus (GPa) = 52.19845 54.28669 53.24257
# Shear Modulus (GPa) = 26.85660 30.51024 28.68342
#
# Velocity S-wave (km/s) = 3.44141 3.66803 3.55653
# Velocity P-wave (km/s) = 6.22974 6.47138 6.35171
#
# Compressibility (1/GPa) = 0.01915766
#
# Stress axis : x y z
#
# Youngs Moduli (GPa) = 49.26425 109.28548 77.17754
#
# Poissons Ratio (x) = 0.32374 0.58124
# Poissons Ratio (y) = 0.14594 0.08727
# Poissons Ratio (z) = 0.37102 0.12357
#
# Static dielectric constant tensor:
#      x y z
#    x 3.626340 0.000000 0.000010 
#    y 0.000000 4.213660 0.000000 
#    z 0.000010 0.000000 4.135490 
# 
# 
# High freq. dielectric constant tensor:
#      x y z
#    x 1.903920 0.000000 0.000000 
#    y 0.000000 1.905770 0.000000 
#    z 0.000000 0.000000 1.888800 
# 
# From -- ./inp_files/9010.got.cif
#   From: 2010.03.12/outbox.cif.g09.slc.cpg/sg24_5_cif.got.tgz:9010.got - 2010.04.14 03:06:53.
