data_PCOD8165847
_publ_section_title
;
Structure prediction by ZEFSAII (Michael W. Deem and Ramdas Pophale) SiO2 
 PCOD8165847
Probable space group: I 21 21 21
;
_chemical_formula_sum "Si O2"
_cell_formula_units_Z 48
_cell_length_a 8.461511
_cell_length_b 8.913236
_cell_length_c 29.116956
_cell_angle_alpha 90.000000
_cell_angle_beta 90.000000
_cell_angle_gamma 90.000000
_cell_volume 2195.984646
_symmetry_space_group_name_H-M "I 21 21 21"
_symmetry_group_IT_number 24
_symmetry_cell_setting 'orthorhombic'
loop_
_space_group_symop_operation_xyz
x,y,z
-x,1/2-y,z
x,-y,1/2-z
1/2-x,y,-z
1/2+x,1/2+y,1/2+z
1/2-x,-y,1/2+z
1/2+x,1/2-y,-z
-x,1/2+y,1/2-z
loop_
_atom_site_type_symbol
_atom_site_label
_atom_site_fract_x
_atom_site_fract_y
_atom_site_fract_z
Si Si1 0.283924 0.604169 0.383688
Si Si2 0.703173 0.583244 0.797069
Si Si3 0.850097 0.560311 0.615842
Si Si4 0.836746 0.070070 0.297967
Si Si5 0.110050 0.881955 0.969773
Si Si6 0.600381 0.894970 0.529287
O O1 0.465719 0.578558 0.395175
O O2 0.256072 0.783282 0.380570
O O3 0.253596 0.522308 0.336234
O O4 0.169338 0.535981 0.422978
O O5 0.753375 0.500000 0.750000
O O6 0.817378 0.527351 0.837258
O O7 0.521481 0.549877 0.808633
O O8 0.725005 0.760913 0.794329
O O9 0.796005 0.466475 0.571294
O O10 0.789304 0.000000 0.250000
O O11 0.000000 0.750000 0.949552
O O12 0.250000 0.809584 0.000000
O O13 0.003317 0.987056 0.001698
O O14 0.500000 0.750000 0.541526
O O15 0.750000 0.839693 0.500000
#
# Coordination Sequence:
#
# PCOD8165847 Si02
#       6
#     8   8   8   8   8   8
#     4  11  25  42  68  99 132 182 225 282 335 408
#     4  10  23  43  70 101 135 178 222 280 346 409
#     4  11  25  45  65  98 137 175 230 278 341 405
#     4  10  23  43  68 102 136 172 228 280 337 413
#     4  12  28  46  67  98 137 183 230 288 346 413
#     4  12  24  44  70 100 136 181 231 282 344 409
#
# _framework density 21.858077000000002
#
# number of rings (size 3 to 8) (size 9 to 14) (size 15 to 20)
#    0.000    1.000    1.667    4.000    7.000    2.000 
#    0.000    0.000    0.000    0.000    0.000    0.000 
#    0.000    0.000    0.000    0.000    0.000    0.000 
#
# Total GULP energy -297641.954802 kJ/mol
# GULP energy per Si atom -12401.748117 kJ/mol
# Density = 2.180833 g / cm^3
# Si number density = 21.858077 Si / 1000 Ang^3
#
#
#
# Elastic Constant Matrix: (Units=GPa)
#
#
# Indices 1 2 3 4 5 6 
#
# 1 57.1737 18.9111 33.7838 0.0000 0.0000 0.0000
# 2 18.9111 115.8431 56.6174 0.0000 0.0000 0.0000
# 3 33.7838 56.6174 151.7574 0.0000 0.0000 0.0000
# 4 0.0000 0.0000 0.0000 39.3319 0.0000 0.0000
# 5 0.0000 0.0000 0.0000 0.0000 42.8589 0.0000
# 6 0.0000 0.0000 0.0000 0.0000 0.0000 27.8257
#
#
#
# Elastic Compliance Matrix: (Units=1/GPa)
#
#
# Indices 1 2 3 4 5 6 
#
# 1 0.020312 -0.001352 -0.004017 0.000000 0.000000 0.000000
# 2 -0.001352 0.010647 -0.003671 0.000000 0.000000 0.000000
# 3 -0.004017 -0.003671 0.008853 0.000000 0.000000 0.000000
# 4 0.000000 0.000000 0.000000 0.025425 0.000000 0.000000
# 5 0.000000 0.000000 0.000000 0.000000 0.023332 0.000000
# 6 0.000000 0.000000 0.000000 0.000000 0.000000 0.035938
#
#
# Mechanical properties :
#
#
# Convention : Reuss Voigt Hill
#
# Bulk Modulus (GPa) = 46.01773 60.37766 53.19769
# Shear Modulus (GPa) = 33.37052 36.36743 34.86897
#
# Velocity S-wave (km/s) = 3.91153 4.08339 3.99838
# Velocity P-wave (km/s) = 6.44195 7.06503 6.76067
#
# Compressibility (1/GPa) = 0.02173076
#
# Stress axis : x y z
#
# Youngs Moduli (GPa) = 49.23285 93.91924 112.95080
#
# Poissons Ratio (x) = 0.12702 0.45374
# Poissons Ratio (y) = 0.06659 0.41467
# Poissons Ratio (z) = 0.19778 0.34480
#
# Static dielectric constant tensor:
#      x y z
#    x 4.005990 0.000000 0.000000 
#    y 0.000000 4.148670 0.000000 
#    z 0.000000 0.000000 4.008210 
# 
# 
# High freq. dielectric constant tensor:
#      x y z
#    x 1.861730 0.000000 0.000000 
#    y 0.000000 1.862360 0.000000 
#    z 0.000000 0.000000 1.870160 
# 
# From -- ./inp_files/9740.got.cif
#   From: 2010.03.12/outbox.cif.g09.slc.cpg/sg24_5_cif.got.tgz:9740.got - 2010.04.14 03:06:53.
