data_PCOD8165372
_publ_section_title
;
Structure prediction by ZEFSAII (Michael W. Deem and Ramdas Pophale) SiO2 
 PCOD8165372
Probable space group: I 21 21 21
;
_chemical_formula_sum "Si O2"
_cell_formula_units_Z 60
_cell_length_a 18.339423
_cell_length_b 16.226534
_cell_length_c 8.691773
_cell_angle_alpha 90.000000
_cell_angle_beta 90.000000
_cell_angle_gamma 90.000000
_cell_volume 2586.543622
_symmetry_space_group_name_H-M "I 21 21 21"
_symmetry_group_IT_number 24
_symmetry_cell_setting 'orthorhombic'
loop_
_space_group_symop_operation_xyz
x,y,z
-x,1/2-y,z
x,-y,1/2-z
1/2-x,y,-z
1/2+x,1/2+y,1/2+z
1/2-x,-y,1/2+z
1/2+x,1/2-y,-z
-x,1/2+y,1/2-z
loop_
_atom_site_type_symbol
_atom_site_label
_atom_site_fract_x
_atom_site_fract_y
_atom_site_fract_z
Si Si1 0.690468 0.309891 0.662032
Si Si2 0.137498 0.500000 0.250000
Si Si3 0.244350 0.627668 0.165734
Si Si4 0.900788 0.167735 0.717145
Si Si5 0.529285 0.928595 0.967717
Si Si6 0.151992 0.152767 0.678909
Si Si7 0.031176 0.078745 0.875183
Si Si8 0.045416 0.833654 0.308065
O O1 0.714843 0.217740 0.624190
O O2 0.763126 0.354663 0.731091
O O3 0.656778 0.351958 0.507531
O O4 0.629391 0.308418 0.790704
O O5 0.187295 0.580583 0.274391
O O6 0.086805 0.493427 0.399465
O O7 0.322297 0.626258 0.250689
O O8 0.250000 0.581645 0.000000
O O9 0.927632 0.147508 0.543766
O O10 0.891136 0.265162 0.732385
O O11 0.960893 0.133221 0.832270
O O12 0.479655 0.889469 0.835544
O O13 0.487080 0.979667 0.104574
O O14 0.101718 0.084440 0.761481
O O15 0.048661 0.108495 0.045489
O O16 0.000000 0.750000 0.328159
#
# Coordination Sequence:
#
# PCOD8165372 Si02
#       8
#     8   4   8   8   8   8   8   8
#     4  10  21  41  72  95 128 177 234 279 337 405
#     4  12  22  38  64  98 140 182 218 262 330 406
#     4  11  21  39  66  97 136 177 229 266 327 417
#     4  11  22  41  66  95 134 182 224 275 330 405
#     4  12  25  45  65  96 141 184 228 270 338 413
#     4  10  20  43  68 101 128 173 232 286 333 407
#     4  12  26  41  65 102 142 172 228 289 341 390
#     4  12  24  41  68 100 136 185 228 281 337 404
#
# _framework density 23.19698
#
# number of rings (size 3 to 8) (size 9 to 14) (size 15 to 20)
#    0.000    0.800    5.333    4.000    1.867    0.533 
#    0.000    0.000    0.000   12.800    0.000    0.000 
#    0.000    0.000    0.000    0.000    0.000    0.000 
#
# Total GULP energy -371832.332076 kJ/mol
# GULP energy per Si atom -12394.411069 kJ/mol
# Density = 2.314418 g / cm^3
# Si number density = 23.196980 Si / 1000 Ang^3
#
#
#
# Elastic Constant Matrix: (Units=GPa)
#
#
# Indices 1 2 3 4 5 6 
#
# 1 166.5826 38.5317 47.3714 0.0000 0.0000 0.0000
# 2 38.5317 60.5750 15.6600 0.0000 0.0000 0.0000
# 3 47.3714 15.6600 56.2450 0.0000 0.0000 0.0000
# 4 0.0000 0.0000 0.0000 20.3057 0.0000 0.0000
# 5 0.0000 0.0000 0.0000 0.0000 40.1322 0.0000
# 6 0.0000 0.0000 0.0000 0.0000 0.0000 37.8098
#
#
#
# Elastic Compliance Matrix: (Units=1/GPa)
#
#
# Indices 1 2 3 4 5 6 
#
# 1 0.008676 -0.003911 -0.006218 0.000000 0.000000 0.000000
# 2 -0.003911 0.019552 -0.002150 0.000000 0.000000 0.000000
# 3 -0.006218 -0.002150 0.023615 0.000000 0.000000 0.000000
# 4 0.000000 0.000000 0.000000 0.049247 0.000000 0.000000
# 5 0.000000 0.000000 0.000000 0.000000 0.024918 0.000000
# 6 0.000000 0.000000 0.000000 0.000000 0.000000 0.026448
#
#
# Mechanical properties :
#
#
# Convention : Reuss Voigt Hill
#
# Bulk Modulus (GPa) = 36.65012 54.05873 45.35443
# Shear Modulus (GPa) = 26.86590 31.77216 29.31903
#
# Velocity S-wave (km/s) = 3.40687 3.70492 3.55902
# Velocity P-wave (km/s) = 5.59549 6.45420 6.04012
#
# Compressibility (1/GPa) = 0.02728504
#
# Stress axis : x y z
#
# Youngs Moduli (GPa) = 115.26019 51.14533 42.34580
#
# Poissons Ratio (x) = 0.20004 0.26332
# Poissons Ratio (y) = 0.45081 0.09103
# Poissons Ratio (z) = 0.71672 0.10994
#
# Static dielectric constant tensor:
#      x y z
#    x 4.614440 0.000000 0.000000 
#    y 0.000000 4.027910 0.000000 
#    z 0.000000 0.000000 4.014590 
# 
# 
# High freq. dielectric constant tensor:
#      x y z
#    x 1.940350 0.000000 0.000000 
#    y 0.000000 1.903130 0.000000 
#    z 0.000000 0.000000 1.908910 
# 
# From -- ./inp_files/14463.got.cif
#   From: 2010.03.12/outbox.cif.g09.slc.cpg/sg24_8_cif.got.tgz:14463.got - 2010.04.14 03:06:53.
