data_PCOD8165828
_publ_section_title
;
Structure prediction by ZEFSAII (Michael W. Deem and Ramdas Pophale) SiO2 
 PCOD8165828
Probable space group: I 21 21 21
;
_chemical_formula_sum "Si O2"
_cell_formula_units_Z 64
_cell_length_a 13.615446
_cell_length_b 24.218897
_cell_length_c 8.996007
_cell_angle_alpha 90.000000
_cell_angle_beta 90.000000
_cell_angle_gamma 90.000000
_cell_volume 2966.443062
_symmetry_space_group_name_H-M "I 21 21 21"
_symmetry_group_IT_number 24
_symmetry_cell_setting 'orthorhombic'
loop_
_space_group_symop_operation_xyz
x,y,z
-x,1/2-y,z
x,-y,1/2-z
1/2-x,y,-z
1/2+x,1/2+y,1/2+z
1/2-x,-y,1/2+z
1/2+x,1/2-y,-z
-x,1/2+y,1/2-z
loop_
_atom_site_type_symbol
_atom_site_label
_atom_site_fract_x
_atom_site_fract_y
_atom_site_fract_z
Si Si1 0.971094 0.398369 0.262902
Si Si2 0.739487 0.785371 0.672240
Si Si3 0.580658 0.706088 0.584230
Si Si4 0.857644 0.583400 0.965179
Si Si5 0.869466 0.537936 0.488025
Si Si6 0.580226 0.364078 0.180238
Si Si7 0.837491 0.129398 0.400423
Si Si8 0.074271 0.702357 0.843761
O O1 0.977058 0.342829 0.166461
O O2 0.906688 0.381404 0.405178
O O3 0.914183 0.448195 0.176992
O O4 0.080638 0.412494 0.329951
O O5 0.750000 0.801547 0.500000
O O6 0.663861 0.734026 0.686071
O O7 0.706892 0.840012 0.758372
O O8 0.841613 0.767094 0.747556
O O9 0.500000 0.750000 0.533360
O O10 0.628410 0.681037 0.432145
O O11 0.852765 0.622397 0.821740
O O12 0.750000 0.564969 0.000000
O O13 0.907124 0.522328 0.958547
O O14 0.750000 0.547500 0.500000
O O15 0.929619 0.578197 0.595397
O O16 0.474042 0.344382 0.238160
O O17 0.750000 0.100322 0.500000
O O18 0.887670 0.175023 0.505396
O O19 0.000000 0.750000 0.892693
#
# Coordination Sequence:
#
# PCOD8165828 Si02
#       8
#     8   8   8   8   8   8   8   8
#     4  11  22  40  69  94 128 177 220 267 330 392
#     4  11  23  39  62  85 121 175 216 268 318 373
#     4  11  23  40  61  90 133 170 223 264 309 384
#     4  11  23  41  63  98 132 166 212 263 335 411
#     4  10  23  41  66  96 134 170 213 268 333 407
#     4  11  22  38  61  90 128 172 207 266 313 390
#     4  10  23  42  61  90 123 172 222 273 325 390
#     4  11  24  39  58  90 129 167 218 261 325 388
#
# _framework density 21.574659
#
# number of rings (size 3 to 8) (size 9 to 14) (size 15 to 20)
#    0.000    1.250    2.500    3.375    3.500    8.000 
#    0.000    0.625    0.000    0.000   13.000    0.000 
#    0.000    0.000    0.000    0.000    0.000    0.000 
#
# Total GULP energy -396456.514204 kJ/mol
# GULP energy per Si atom -12389.266069 kJ/mol
# Density = 2.152555 g / cm^3
# Si number density = 21.574659 Si / 1000 Ang^3
#
#
#
# Elastic Constant Matrix: (Units=GPa)
#
#
# Indices 1 2 3 4 5 6 
#
# 1 111.5764 30.2992 28.4489 0.0043 0.0009 0.0049
# 2 30.2992 78.2890 26.8064 -0.0107 0.0008 0.0011
# 3 28.4489 26.8064 93.2165 0.0048 0.0061 0.0222
# 4 0.0043 -0.0107 0.0048 121.7363 -0.0089 -0.0366
# 5 0.0009 0.0008 0.0061 -0.0089 44.6090 -0.0034
# 6 0.0049 0.0011 0.0222 -0.0366 -0.0034 42.9187
#
#
#
# Elastic Compliance Matrix: (Units=1/GPa)
#
#
# Indices 1 2 3 4 5 6 
#
# 1 0.010421 -0.003266 -0.002241 -0.000001 0.000000 0.000000
# 2 -0.003266 0.015192 -0.003372 0.000002 0.000000 0.000002
# 3 -0.002241 -0.003372 0.012381 -0.000001 -0.000002 -0.000006
# 4 -0.000001 0.000002 -0.000001 0.008214 0.000002 0.000007
# 5 0.000000 0.000000 -0.000002 0.000002 0.022417 0.000002
# 6 0.000000 0.000002 -0.000006 0.000007 0.000002 0.023300
#
#
# Mechanical properties :
#
#
# Convention : Reuss Voigt Hill
#
# Bulk Modulus (GPa) = 49.41679 50.46565 49.94122
# Shear Modulus (GPa) = 42.94492 55.02129 48.98310
#
# Velocity S-wave (km/s) = 4.46637 5.05550 4.77004
# Velocity P-wave (km/s) = 7.03937 7.58416 7.31683
#
# Compressibility (1/GPa) = 0.02023604
#
# Stress axis : x y z
#
# Youngs Moduli (GPa) = 95.96273 65.82572 80.76620
#
# Poissons Ratio (x) = 0.21496 0.18102
# Poissons Ratio (y) = 0.31338 0.27235
# Poissons Ratio (z) = 0.21507 0.22197
#
# Static dielectric constant tensor:
#      x y z
#    x 3.624190 0.000040 -0.000040 
#    y 0.000040 3.679480 -0.000010 
#    z -0.000040 -0.000010 4.154130 
# 
# 
# High freq. dielectric constant tensor:
#      x y z
#    x 1.839230 0.000000 0.000000 
#    y 0.000000 1.823160 0.000000 
#    z 0.000000 0.000000 1.867840 
# 
# From -- ./inp_files/13372.got.cif
#   From: 2010.03.12/outbox.cif.g09.slc.cpg/sg24_7_cif.got.tgz:13372.got - 2010.04.14 03:06:53.
