data_PCOD8165040
_publ_section_title
;
Structure prediction by ZEFSAII (Michael W. Deem and Ramdas Pophale) SiO2 
 PCOD8165040
Probable space group: I 21 21 21
;
_chemical_formula_sum "Si O2"
_cell_formula_units_Z 48
_cell_length_a 8.367415
_cell_length_b 18.081221
_cell_length_c 14.907081
_cell_angle_alpha 90.000000
_cell_angle_beta 90.000000
_cell_angle_gamma 90.000000
_cell_volume 2255.338196
_symmetry_space_group_name_H-M "I 21 21 21"
_symmetry_group_IT_number 24
_symmetry_cell_setting 'orthorhombic'
loop_
_space_group_symop_operation_xyz
x,y,z
-x,1/2-y,z
x,-y,1/2-z
1/2-x,y,-z
1/2+x,1/2+y,1/2+z
1/2-x,-y,1/2+z
1/2+x,1/2-y,-z
-x,1/2+y,1/2-z
loop_
_atom_site_type_symbol
_atom_site_label
_atom_site_fract_x
_atom_site_fract_y
_atom_site_fract_z
Si Si1 0.620618 0.313099 0.731218
Si Si2 0.378175 0.183691 0.927898
Si Si3 0.636327 0.310802 0.413907
Si Si4 0.098632 0.444316 0.327793
Si Si5 0.426072 0.453005 0.992790
Si Si6 0.035181 0.455357 0.663115
O O1 0.500000 0.250000 0.756255
O O2 0.693732 0.335214 0.828721
O O3 0.755834 0.279476 0.666652
O O4 0.520895 0.376102 0.680127
O O5 0.500000 0.250000 0.922788
O O6 0.453543 0.108344 0.961718
O O7 0.250000 0.209648 0.000000
O O8 0.500000 0.250000 0.437564
O O9 0.750000 0.324709 0.500000
O O10 0.570178 0.387266 0.372464
O O11 0.048639 0.500000 0.250000
O O12 0.071264 0.477735 0.425592
O O13 0.286308 0.423686 0.317994
O O14 0.250000 0.417724 0.000000
O O15 0.474966 0.481326 0.089458
O O16 0.968020 0.500000 0.750000
#
# Coordination Sequence:
#
# PCOD8165040 Si02
#       6
#     8   8   8   8   8   8
#     4  11  24  42  67  97 130 174 223 274 339 397
#     4  11  25  42  62  92 128 172 217 268 329 401
#     4  12  27  47  70 102 136 184 231 290 342 405
#     4  10  19  40  68  97 132 177 218 268 329 411
#     4  10  21  40  66  94 129 173 214 264 330 395
#     4  10  24  42  67 103 138 173 225 278 340 405
#
# _framework density 21.282838000000002
#
# number of rings (size 3 to 8) (size 9 to 14) (size 15 to 20)
#    0.000    1.333    1.667    3.000    2.333    5.333 
#    0.000    0.000    0.000    0.000    0.000    0.000 
#    0.000    0.000    0.000    0.000    0.000    0.000 
#
# Total GULP energy -297481.710781 kJ/mol
# GULP energy per Si atom -12395.071283 kJ/mol
# Density = 2.123440 g / cm^3
# Si number density = 21.282838 Si / 1000 Ang^3
#
#
#
# Elastic Constant Matrix: (Units=GPa)
#
#
# Indices 1 2 3 4 5 6 
#
# 1 84.4421 34.7641 56.2165 0.0000 0.0000 0.0000
# 2 34.7641 80.1784 39.2389 0.0000 0.0000 0.0000
# 3 56.2165 39.2389 176.0128 0.0000 0.0001 0.0000
# 4 0.0000 0.0000 0.0000 -184.7060 -0.0001 0.0000
# 5 0.0000 0.0000 0.0001 -0.0001 57.0198 0.0000
# 6 0.0000 0.0000 0.0000 0.0000 0.0000 17.7606
#
#
#
# Elastic Compliance Matrix: (Units=1/GPa)
#
#
# Indices 1 2 3 4 5 6 
#
# 1 0.016788 -0.005225 -0.004197 0.000000 0.000000 0.000000
# 2 -0.005225 0.015626 -0.001815 0.000000 0.000000 0.000000
# 3 -0.004197 -0.001815 0.007426 0.000000 0.000000 0.000000
# 4 0.000000 0.000000 0.000000 -0.005414 0.000000 0.000000
# 5 0.000000 0.000000 0.000000 0.000000 0.017538 0.000000
# 6 0.000000 0.000000 0.000000 0.000000 0.000000 0.056305
#
#
# Mechanical properties :
#
#
# Convention : Reuss Voigt Hill
#
# Bulk Modulus (GPa) = 57.58170 66.78582 62.18376
# Shear Modulus (GPa) = 36.62201 -7.95754 14.33223
#
# Velocity S-wave (km/s) = 4.15267 -1.93573 2.59784
# Velocity P-wave (km/s) = 7.07863 5.14317 6.18705
#
# Compressibility (1/GPa) = 0.01736663
#
# Stress axis : x y z
#
# Youngs Moduli (GPa) = 59.56795 63.99708 134.65426
#
# Poissons Ratio (x) = 0.33438 0.56514
# Poissons Ratio (y) = 0.31123 0.24436
# Poissons Ratio (z) = 0.25000 0.11614
#
# Static dielectric constant tensor:
#      x y z
#    x 4.168170 0.000000 0.000000 
#    y 0.000000 3.569170 0.000000 
#    z 0.000000 0.000000 4.468750 
# 
# 
# High freq. dielectric constant tensor:
#      x y z
#    x 1.828720 0.000000 0.000000 
#    y 0.000000 1.830650 0.000000 
#    z 0.000000 0.000000 1.862820 
# 
# From -- ./inp_files/24793.got.cif
#   From: 2010.03.12/outbox.cif.g09.slc.cpg/sg24_13_cif.got.tgz:24793.got - 2010.04.14 03:06:53.
