data_PCOD8165395
_publ_section_title
;
Structure prediction by ZEFSAII (Michael W. Deem and Ramdas Pophale) SiO2 
 PCOD8165395
Probable space group: I 21 21 21
;
_chemical_formula_sum "Si O2"
_cell_formula_units_Z 48
_cell_length_a 7.341484
_cell_length_b 15.603824
_cell_length_c 22.170306
_cell_angle_alpha 90.000000
_cell_angle_beta 90.000000
_cell_angle_gamma 90.000000
_cell_volume 2539.724375
_symmetry_space_group_name_H-M "I 21 21 21"
_symmetry_group_IT_number 24
_symmetry_cell_setting 'orthorhombic'
loop_
_space_group_symop_operation_xyz
x,y,z
-x,1/2-y,z
x,-y,1/2-z
1/2-x,y,-z
1/2+x,1/2+y,1/2+z
1/2-x,-y,1/2+z
1/2+x,1/2-y,-z
-x,1/2+y,1/2-z
loop_
_atom_site_type_symbol
_atom_site_label
_atom_site_fract_x
_atom_site_fract_y
_atom_site_fract_z
Si Si1 0.052123 0.155136 0.478427
Si Si2 0.250000 0.526925 0.000000
Si Si3 0.426956 0.102357 0.656068
Si Si4 0.650422 0.810126 0.298449
Si Si5 0.000000 0.750000 0.244007
Si Si6 0.027315 0.073425 0.702144
Si Si7 0.229946 0.523341 0.368108
O O1 0.250000 0.129587 0.500000
O O2 0.035399 0.148933 0.406777
O O3 0.000000 0.250000 0.500309
O O4 0.922368 0.087615 0.511079
O O5 0.226344 0.468210 0.059310
O O6 0.514300 0.162710 0.706424
O O7 0.212333 0.093297 0.666695
O O8 0.533780 0.010866 0.656669
O O9 0.500000 0.750000 0.331646
O O10 0.818956 0.747796 0.284199
O O11 0.555090 0.845186 0.237331
O O12 0.724537 0.884006 0.341915
O O13 0.070422 0.000000 0.750000
O O14 0.881966 0.044507 0.652296
#
# Coordination Sequence:
#
# PCOD8165395 Si02
#       7
#     8   4   8   8   4   8   8
#     4  11  21  35  53  82 118 156 197 237 286 352
#     4  10  22  42  60  82 116 160 200 250 292 346
#     4  11  22  35  55  86 121 156 194 239 302 358
#     4  11  23  39  60  90 122 157 200 248 306 355
#     4  12  22  34  56  88 124 154 194 248 296 362
#     4  10  21  35  57  87 119 155 191 242 297 362
#     4  10  23  40  62  86 119 159 201 246 299 360
#
# _framework density 18.899688000000001
#
# number of rings (size 3 to 8) (size 9 to 14) (size 15 to 20)
#    0.000    1.333    5.000    1.000    2.333    0.000 
#    3.000    0.000    1.833    0.000    0.000    0.000 
#    0.000    0.000    0.000    0.000    0.000    0.000 
#
# Total GULP energy -297639.929074 kJ/mol
# GULP energy per Si atom -12401.663711 kJ/mol
# Density = 1.885667 g / cm^3
# Si number density = 18.899688 Si / 1000 Ang^3
#
#
#
# Elastic Constant Matrix: (Units=GPa)
#
#
# Indices 1 2 3 4 5 6 
#
# 1 132.9021 39.8048 27.3105 0.0000 0.0000 0.0000
# 2 39.8048 90.6230 35.7352 0.0000 0.0000 0.0000
# 3 27.3105 35.7352 75.7215 0.0000 0.0000 0.0000
# 4 0.0000 0.0000 0.0000 10.8341 0.0000 0.0000
# 5 0.0000 0.0000 0.0000 0.0000 27.2682 0.0000
# 6 0.0000 0.0000 0.0000 0.0000 0.0000 27.9842
#
#
#
# Elastic Compliance Matrix: (Units=1/GPa)
#
#
# Indices 1 2 3 4 5 6 
#
# 1 0.008832 -0.003223 -0.001664 0.000000 0.000000 0.000000
# 2 -0.003223 0.014734 -0.005791 0.000000 0.000000 0.000000
# 3 -0.001664 -0.005791 0.016539 0.000000 0.000000 0.000000
# 4 0.000000 0.000000 0.000000 0.092301 0.000000 0.000000
# 5 0.000000 0.000000 0.000000 0.000000 0.036673 0.000000
# 6 0.000000 0.000000 0.000000 0.000000 0.000000 0.035735
#
#
# Mechanical properties :
#
#
# Convention : Reuss Voigt Hill
#
# Bulk Modulus (GPa) = 53.33715 56.10528 54.72122
# Shear Modulus (GPa) = 21.51284 26.31037 23.91160
#
# Velocity S-wave (km/s) = 3.37748 3.73514 3.56080
# Velocity P-wave (km/s) = 6.59487 6.95356 6.77659
#
# Compressibility (1/GPa) = 0.01874866
#
# Stress axis : x y z
#
# Youngs Moduli (GPa) = 113.22968 67.87093 60.46144
#
# Poissons Ratio (x) = 0.21874 0.10063
# Poissons Ratio (y) = 0.36492 0.35013
# Poissons Ratio (z) = 0.18845 0.39304
#
# Static dielectric constant tensor:
#      x y z
#    x 3.674030 0.000000 0.000000 
#    y 0.000000 3.266410 0.000000 
#    z 0.000000 0.000000 3.321420 
# 
# 
# High freq. dielectric constant tensor:
#      x y z
#    x 1.755890 0.000000 0.000000 
#    y 0.000000 1.718550 0.000000 
#    z 0.000000 0.000000 1.717250 
# 
# From -- ./inp_files/31536.got.cif
#   From: 2010.03.12/outbox.cif.g09.slc.cpg/sg24_16_cif.got.tgz:31536.got - 2010.04.14 03:06:53.
