data_PCOD8165605
_publ_section_title
;
Structure prediction by ZEFSAII (Michael W. Deem and Ramdas Pophale) SiO2 
 PCOD8165605
Probable space group: I 21 21 21
;
_chemical_formula_sum "Si O2"
_cell_formula_units_Z 52
_cell_length_a 8.459023
_cell_length_b 17.474359
_cell_length_c 16.630874
_cell_angle_alpha 90.000000
_cell_angle_beta 90.000000
_cell_angle_gamma 90.000000
_cell_volume 2458.309349
_symmetry_space_group_name_H-M "I 21 21 21"
_symmetry_group_IT_number 24
_symmetry_cell_setting 'orthorhombic'
loop_
_space_group_symop_operation_xyz
x,y,z
-x,1/2-y,z
x,-y,1/2-z
1/2-x,y,-z
1/2+x,1/2+y,1/2+z
1/2-x,-y,1/2+z
1/2+x,1/2-y,-z
-x,1/2+y,1/2-z
loop_
_atom_site_type_symbol
_atom_site_label
_atom_site_fract_x
_atom_site_fract_y
_atom_site_fract_z
Si Si1 0.361743 0.808898 0.567336
Si Si2 0.000137 0.035612 0.988915
Si Si3 0.661509 0.110394 0.738612
Si Si4 0.184752 0.766049 0.720935
Si Si5 0.764741 0.993950 0.378250
Si Si6 0.750000 0.583935 0.000000
Si Si7 0.611174 0.677129 0.855085
O O1 0.500000 0.750000 0.587260
O O2 0.250000 0.770722 0.500000
O O3 0.426399 0.888724 0.529969
O O4 0.255784 0.818361 0.648131
O O5 0.891817 0.051109 0.909712
O O6 0.127708 0.974384 0.958077
O O7 0.887811 0.990562 0.050649
O O8 0.729452 0.185342 0.779188
O O9 0.639776 0.055354 0.813879
O O10 0.488068 0.120866 0.701554
O O11 0.774389 0.074369 0.667948
O O12 0.227352 0.803593 0.806831
O O13 0.000000 0.750000 0.710201
O O14 0.662638 0.637573 0.936857
O O15 0.500000 0.750000 0.875489
#
# Coordination Sequence:
#
# PCOD8165605 Si02
#       7
#     8   8   8   8   8   4   8
#     4  12  26  43  67 100 139 186 229 285 348 416
#     4  11  24  42  65 102 136 177 225 287 343 416
#     4  10  21  43  68  95 129 180 221 279 346 418
#     4  11  25  42  68  98 133 174 235 287 344 422
#     4  10  22  40  70  93 133 175 225 275 349 415
#     4  12  24  44  68 100 142 176 230 292 350 416
#     4  10  23  46  67  97 132 179 227 285 358 419
#
# _framework density 21.152749
#
# number of rings (size 3 to 8) (size 9 to 14) (size 15 to 20)
#    0.000    1.231    2.308    3.692    8.615    0.615 
#    2.769    0.000    0.000    0.000    0.000    0.000 
#    0.000    0.000    0.000    0.000    0.000    0.000 
#
# Total GULP energy -322160.582064 kJ/mol
# GULP energy per Si atom -12390.791618 kJ/mol
# Density = 2.110460 g / cm^3
# Si number density = 21.152749 Si / 1000 Ang^3
#
#
#
# Elastic Constant Matrix: (Units=GPa)
#
#
# Indices 1 2 3 4 5 6 
#
# 1 127.1776 37.3076 57.6226 0.0000 0.0000 0.0000
# 2 37.3076 87.9482 44.3935 0.0000 0.0000 0.0000
# 3 57.6226 44.3935 91.6737 0.0000 0.0000 0.0000
# 4 0.0000 0.0000 0.0000 35.0503 0.0000 0.0000
# 5 0.0000 0.0000 0.0000 0.0000 18.7467 0.0000
# 6 0.0000 0.0000 0.0000 0.0000 0.0000 24.6102
#
#
#
# Elastic Compliance Matrix: (Units=1/GPa)
#
#
# Indices 1 2 3 4 5 6 
#
# 1 0.011157 -0.001579 -0.006248 0.000000 0.000000 0.000000
# 2 -0.001579 0.015272 -0.006403 0.000000 0.000000 0.000000
# 3 -0.006248 -0.006403 0.017937 0.000000 0.000000 0.000000
# 4 0.000000 0.000000 0.000000 0.028530 0.000000 0.000000
# 5 0.000000 0.000000 0.000000 0.000000 0.053343 0.000000
# 6 0.000000 0.000000 0.000000 0.000000 0.000000 0.040634
#
#
# Mechanical properties :
#
#
# Convention : Reuss Voigt Hill
#
# Bulk Modulus (GPa) = 62.87347 65.04964 63.96156
# Shear Modulus (GPa) = 24.92079 26.84651 25.88365
#
# Velocity S-wave (km/s) = 3.43612 3.56641 3.50187
# Velocity P-wave (km/s) = 6.74764 6.91217 6.83040
#
# Compressibility (1/GPa) = 0.01590496
#
# Stress axis : x y z
#
# Youngs Moduli (GPa) = 89.62759 65.47822 55.75196
#
# Poissons Ratio (x) = 0.10338 0.34836
# Poissons Ratio (y) = 0.14151 0.35699
# Poissons Ratio (z) = 0.56003 0.41927
#
# Static dielectric constant tensor:
#      x y z
#    x 2.127610 0.000000 0.000000 
#    y 0.000000 4.053780 0.000000 
#    z 0.000000 0.000000 4.015610 
# 
# 
# High freq. dielectric constant tensor:
#      x y z
#    x 1.829080 0.000000 0.000000 
#    y 0.000000 1.824920 0.000000 
#    z 0.000000 0.000000 1.837120 
# 
# From -- ./inp_files/29630.got.cif
#   From: 2010.03.12/outbox.cif.g09.slc.cpg/sg24_15_cif.got.tgz:29630.got - 2010.04.14 03:06:53.
