data_PCOD8165269
_publ_section_title
;
Structure prediction by ZEFSAII (Michael W. Deem and Ramdas Pophale) SiO2 
 PCOD8165269
Probable space group: I 21 21 21
;
_chemical_formula_sum "Si O2"
_cell_formula_units_Z 48
_cell_length_a 9.009131
_cell_length_b 17.914303
_cell_length_c 14.316612
_cell_angle_alpha 90.000000
_cell_angle_beta 90.000000
_cell_angle_gamma 90.000000
_cell_volume 2310.590975
_symmetry_space_group_name_H-M "I 21 21 21"
_symmetry_group_IT_number 24
_symmetry_cell_setting 'orthorhombic'
loop_
_space_group_symop_operation_xyz
x,y,z
-x,1/2-y,z
x,-y,1/2-z
1/2-x,y,-z
1/2+x,1/2+y,1/2+z
1/2-x,-y,1/2+z
1/2+x,1/2-y,-z
-x,1/2+y,1/2-z
loop_
_atom_site_type_symbol
_atom_site_label
_atom_site_fract_x
_atom_site_fract_y
_atom_site_fract_z
Si Si1 0.587185 0.455557 0.980161
Si Si2 0.358846 0.199345 0.915183
Si Si3 0.830534 0.085548 0.903372
Si Si4 0.654708 0.798050 0.905097
Si Si5 0.610928 0.964519 0.846503
Si Si6 0.330756 0.273581 0.229346
O O1 0.590190 0.385960 0.909504
O O2 0.502274 0.521884 0.930760
O O3 0.750000 0.486250 0.000000
O O4 0.504432 0.428909 0.075367
O O5 0.500000 0.250000 0.930150
O O6 0.272985 0.214013 0.820729
O O7 0.250000 0.214809 0.000000
O O8 0.809907 0.145773 0.820921
O O9 0.765241 0.006747 0.868421
O O10 0.750000 0.112109 0.000000
O O11 0.500000 0.750000 0.917204
O O12 0.623627 0.875699 0.850883
O O13 0.773947 0.762906 0.834730
O O14 0.750000 0.807718 0.000000
O O15 0.548949 0.000000 0.750000
O O16 0.500000 0.250000 0.223644
#
# Coordination Sequence:
#
# PCOD8165269 Si02
#       6
#     8   8   8   8   8   8
#     4  10  21  36  61  97 135 163 204 273 353 400
#     4  11  20  33  58  96 140 172 202 257 336 415
#     4  10  20  38  65  95 130 174 213 263 342 416
#     4  12  28  49  71  95 130 182 239 286 337 396
#     4  11  23  45  71  94 126 177 231 281 336 417
#     4  12  23  38  63  96 136 175 224 273 330 409
#
# _framework density 20.773906
#
# number of rings (size 3 to 8) (size 9 to 14) (size 15 to 20)
#    0.000    1.000    1.667    8.500    2.333    0.667 
#    0.000    2.500    0.000    0.000    0.000    0.000 
#    0.000    0.000    0.000    0.000    0.000    0.000 
#
# Total GULP energy -297419.161855 kJ/mol
# GULP energy per Si atom -12392.465077 kJ/mol
# Density = 2.072662 g / cm^3
# Si number density = 20.773906 Si / 1000 Ang^3
#
#
#
# Elastic Constant Matrix: (Units=GPa)
#
#
# Indices 1 2 3 4 5 6 
#
# 1 107.3442 25.9025 12.8453 0.0000 0.0000 0.0000
# 2 25.9025 83.7156 12.7222 0.0000 0.0000 0.0000
# 3 12.8453 12.7222 100.8331 -0.0001 0.0000 0.0000
# 4 0.0000 0.0000 -0.0001 24.7211 0.0000 0.0000
# 5 0.0000 0.0000 0.0000 0.0000 37.3224 0.0000
# 6 0.0000 0.0000 0.0000 0.0000 0.0000 22.1083
#
#
#
# Elastic Compliance Matrix: (Units=1/GPa)
#
#
# Indices 1 2 3 4 5 6 
#
# 1 0.010149 -0.003001 -0.000914 0.000000 0.000000 0.000000
# 2 -0.003001 0.013066 -0.001266 0.000000 0.000000 0.000000
# 3 -0.000914 -0.001266 0.010194 0.000000 0.000000 0.000000
# 4 0.000000 0.000000 0.000000 0.040451 0.000000 0.000000
# 5 0.000000 0.000000 0.000000 0.000000 0.026794 0.000000
# 6 0.000000 0.000000 0.000000 0.000000 0.000000 0.045232
#
#
# Mechanical properties :
#
#
# Convention : Reuss Voigt Hill
#
# Bulk Modulus (GPa) = 43.39228 43.87031 43.63130
# Shear Modulus (GPa) = 30.50048 32.85854 31.67951
#
# Velocity S-wave (km/s) = 3.83588 3.98140 3.90932
# Velocity P-wave (km/s) = 6.36803 6.50379 6.43627
#
# Compressibility (1/GPa) = 0.02304557
#
# Stress axis : x y z
#
# Youngs Moduli (GPa) = 98.52718 76.53277 98.10063
#
# Poissons Ratio (x) = 0.22971 0.08969
# Poissons Ratio (y) = 0.29572 0.12422
# Poissons Ratio (z) = 0.09008 0.09691
#
# Static dielectric constant tensor:
#      x y z
#    x 3.976000 0.000000 0.000000 
#    y 0.000000 3.700550 0.000000 
#    z 0.000000 0.000000 3.859460 
# 
# 
# High freq. dielectric constant tensor:
#      x y z
#    x 1.824870 0.000000 0.000000 
#    y 0.000000 1.804630 0.000000 
#    z 0.000000 0.000000 1.812740 
# 
# From -- ./inp_files/24778.got.cif
#   From: 2010.03.12/outbox.cif.g09.slc.cpg/sg24_13_cif.got.tgz:24778.got - 2010.04.14 03:06:53.
