data_PCOD8165762
_publ_section_title
;
Structure prediction by ZEFSAII (Michael W. Deem and Ramdas Pophale) SiO2 
 PCOD8165762
Probable space group: I 21 21 21
;
_chemical_formula_sum "Si O2"
_cell_formula_units_Z 48
_cell_length_a 30.220763
_cell_length_b 8.530513
_cell_length_c 8.922879
_cell_angle_alpha 90.000000
_cell_angle_beta 90.000000
_cell_angle_gamma 90.000000
_cell_volume 2300.305818
_symmetry_space_group_name_H-M "I 21 21 21"
_symmetry_group_IT_number 24
_symmetry_cell_setting 'orthorhombic'
loop_
_space_group_symop_operation_xyz
x,y,z
-x,1/2-y,z
x,-y,1/2-z
1/2-x,y,-z
1/2+x,1/2+y,1/2+z
1/2-x,-y,1/2+z
1/2+x,1/2-y,-z
-x,1/2+y,1/2-z
loop_
_atom_site_type_symbol
_atom_site_label
_atom_site_fract_x
_atom_site_fract_y
_atom_site_fract_z
Si Si1 0.638767 0.220677 0.636609
Si Si2 0.544640 0.829891 0.316946
Si Si3 0.623532 0.869214 0.544858
Si Si4 0.688806 0.828306 0.294120
Si Si5 0.112335 0.152747 0.649729
Si Si6 0.731631 0.649885 0.836797
O O1 0.620132 0.234897 0.805019
O O2 0.617921 0.361203 0.531745
O O3 0.692096 0.226805 0.640918
O O4 0.623954 0.053330 0.573811
O O5 0.500000 0.750000 0.377997
O O6 0.580137 0.830033 0.449432
O O7 0.563563 0.717244 0.185788
O O8 0.534768 0.000000 0.250000
O O9 0.669193 0.818888 0.462173
O O10 0.648640 0.785642 0.183961
O O11 0.730125 0.714394 0.272521
O O12 0.705423 0.000000 0.250000
O O13 0.123322 0.000000 0.750000
O O14 0.712166 0.500000 0.750000
O O15 0.750000 0.604955 0.000000
#
# Coordination Sequence:
#
# PCOD8165762 Si02
#       6
#     8   8   8   8   8   8
#     4  11  23  42  66  97 135 183 225 287 354 413
#     4  11  22  43  72 104 131 173 229 279 348 439
#     4  10  22  42  70  98 134 177 228 289 360 417
#     4  11  21  41  64  88 127 182 234 283 335 404
#     4  11  21  40  68  94 133 178 222 278 349 414
#     4  12  27  40  59  94 136 179 238 292 339 398
#
# _framework density 20.866789000000001
#
# number of rings (size 3 to 8) (size 9 to 14) (size 15 to 20)
#    0.000    1.000    5.000    2.000    4.667    1.333 
#    0.000    0.833    3.667    0.000    0.000    0.000 
#    0.000    0.000    0.000    0.000    0.000    0.000 
#
# Total GULP energy -297532.459507 kJ/mol
# GULP energy per Si atom -12397.185813 kJ/mol
# Density = 2.081930 g / cm^3
# Si number density = 20.866789 Si / 1000 Ang^3
#
#
#
# Elastic Constant Matrix: (Units=GPa)
#
#
# Indices 1 2 3 4 5 6 
#
# 1 120.4898 27.0379 54.1020 0.0000 0.0000 0.0000
# 2 27.0379 72.6908 49.6741 0.0000 0.0000 0.0000
# 3 54.1020 49.6741 171.4910 0.0000 0.0000 0.0000
# 4 0.0000 0.0000 0.0000 36.8898 0.0000 0.0000
# 5 0.0000 0.0000 0.0000 0.0000 23.6295 0.0000
# 6 0.0000 0.0000 0.0000 0.0000 0.0000 30.7115
#
#
#
# Elastic Compliance Matrix: (Units=1/GPa)
#
#
# Indices 1 2 3 4 5 6 
#
# 1 0.009881 -0.001926 -0.002559 0.000000 0.000000 0.000000
# 2 -0.001926 0.017528 -0.004469 0.000000 0.000000 0.000000
# 3 -0.002559 -0.004469 0.007933 0.000000 0.000000 0.000000
# 4 0.000000 0.000000 0.000000 0.027108 0.000000 0.000000
# 5 0.000000 0.000000 0.000000 0.000000 0.042320 0.000000
# 6 0.000000 0.000000 0.000000 0.000000 0.000000 0.032561
#
#
# Mechanical properties :
#
#
# Convention : Reuss Voigt Hill
#
# Bulk Modulus (GPa) = 57.36645 69.58885 63.47765
# Shear Modulus (GPa) = 31.04608 33.83665 32.44137
#
# Velocity S-wave (km/s) = 3.86141 4.03122 3.94723
# Velocity P-wave (km/s) = 6.88710 7.42221 7.15965
#
# Compressibility (1/GPa) = 0.01743179
#
# Stress axis : x y z
#
# Youngs Moduli (GPa) = 101.20558 57.05295 126.05307
#
# Poissons Ratio (x) = 0.10991 0.32260
# Poissons Ratio (y) = 0.19496 0.56337
# Poissons Ratio (z) = 0.25901 0.25499
#
# Static dielectric constant tensor:
#      x y z
#    x 3.583720 0.000000 0.000000 
#    y 0.000000 3.665940 0.000000 
#    z 0.000000 0.000000 4.119980 
# 
# 
# High freq. dielectric constant tensor:
#      x y z
#    x 1.798490 0.000000 0.000000 
#    y 0.000000 1.813500 0.000000 
#    z 0.000000 0.000000 1.826150 
# 
# From -- ./inp_files/9749.got.cif
#   From: 2010.03.12/outbox.cif.g09.slc.cpg/sg24_5_cif.got.tgz:9749.got - 2010.04.14 03:06:53.
