data_PCOD8165706
_publ_section_title
;
Structure prediction by ZEFSAII (Michael W. Deem and Ramdas Pophale) SiO2 
 PCOD8165706
Probable space group: I 21 21 21
;
_chemical_formula_sum "Si O2"
_cell_formula_units_Z 32
_cell_length_a 10.337673
_cell_length_b 15.898397
_cell_length_c 8.717979
_cell_angle_alpha 90.000000
_cell_angle_beta 90.000000
_cell_angle_gamma 90.000000
_cell_volume 1432.821028
_symmetry_space_group_name_H-M "I 21 21 21"
_symmetry_group_IT_number 24
_symmetry_cell_setting 'orthorhombic'
loop_
_space_group_symop_operation_xyz
x,y,z
-x,1/2-y,z
x,-y,1/2-z
1/2-x,y,-z
1/2+x,1/2+y,1/2+z
1/2-x,-y,1/2+z
1/2+x,1/2-y,-z
-x,1/2+y,1/2-z
loop_
_atom_site_type_symbol
_atom_site_label
_atom_site_fract_x
_atom_site_fract_y
_atom_site_fract_z
Si Si1 0.513635 0.344736 0.347843
Si Si2 0.430847 0.662533 0.815198
Si Si3 0.207838 0.413589 0.824718
Si Si4 0.076882 0.000000 0.250000
Si Si5 0.250000 0.928419 0.000000
O O1 0.500000 0.250000 0.288692
O O2 0.432853 0.355974 0.504361
O O3 0.445491 0.400957 0.213774
O O4 0.662443 0.370571 0.385332
O O5 0.500000 0.750000 0.773969
O O6 0.282790 0.664200 0.757858
O O7 0.496175 0.585228 0.722952
O O8 0.256433 0.500000 0.750000
O O9 0.250000 0.414455 0.000000
O O10 0.161912 0.010174 0.401709
#
# Coordination Sequence:
#
# PCOD8165706 Si02
#       5
#     8   8   8   4   4
#     4  10  24  42  73  98 135 183 241 293 358 430
#     4  10  22  43  68  97 135 183 234 291 360 426
#     4  12  26  43  69 102 140 187 240 298 360 427
#     4  10  22  40  64  92 138 178 232 286 352 422
#     4  10  24  42  66 102 132 188 232 284 356 422
#
# _framework density 22.333563999999999
#
# number of rings (size 3 to 8) (size 9 to 14) (size 15 to 20)
#    0.000    1.500    1.250    2.250   15.750    1.000 
#    2.250    0.000    0.000    0.000    0.000    0.000 
#    0.000    0.000    0.000    0.000    0.000    0.000 
#
# Total GULP energy -198314.809402 kJ/mol
# GULP energy per Si atom -12394.675588 kJ/mol
# Density = 2.228273 g / cm^3
# Si number density = 22.333564 Si / 1000 Ang^3
#
#
#
# Elastic Constant Matrix: (Units=GPa)
#
#
# Indices 1 2 3 4 5 6 
#
# 1 110.5665 39.3682 40.1428 0.0000 0.0001 0.0000
# 2 39.3682 128.9517 38.5748 -0.0008 0.0000 -0.0002
# 3 40.1428 38.5748 88.4830 -0.0023 -0.0002 -0.0006
# 4 0.0000 -0.0008 -0.0023 26.6548 -0.0001 -0.0003
# 5 0.0001 0.0000 -0.0002 -0.0001 52.7300 0.0000
# 6 0.0000 -0.0002 -0.0006 -0.0003 0.0000 27.7545
#
#
#
# Elastic Compliance Matrix: (Units=1/GPa)
#
#
# Indices 1 2 3 4 5 6 
#
# 1 0.011352 -0.002214 -0.004185 0.000000 0.000000 0.000000
# 2 -0.002214 0.009350 -0.003072 0.000000 0.000000 0.000000
# 3 -0.004185 -0.003072 0.014539 0.000001 0.000000 0.000000
# 4 0.000000 0.000000 0.000001 0.037517 0.000000 0.000000
# 5 0.000000 0.000000 0.000000 0.000000 0.018965 0.000000
# 6 0.000000 0.000000 0.000000 0.000000 0.000000 0.036030
#
#
# Mechanical properties :
#
#
# Convention : Reuss Voigt Hill
#
# Bulk Modulus (GPa) = 61.34980 62.68587 62.01783
# Shear Modulus (GPa) = 32.86734 35.42222 34.14478
#
# Velocity S-wave (km/s) = 3.84038 3.98685 3.91430
# Velocity P-wave (km/s) = 6.86980 7.02298 6.94681
#
# Compressibility (1/GPa) = 0.01629997
#
# Stress axis : x y z
#
# Youngs Moduli (GPa) = 88.09015 106.95685 68.77868
#
# Poissons Ratio (x) = 0.23678 0.28784
# Poissons Ratio (y) = 0.19501 0.21127
# Poissons Ratio (z) = 0.36866 0.32854
#
# Static dielectric constant tensor:
#      x y z
#    x 4.302310 0.000000 0.000000 
#    y 0.000000 4.033990 0.000000 
#    z 0.000000 0.000000 3.747830 
# 
# 
# High freq. dielectric constant tensor:
#      x y z
#    x 1.891290 0.000000 0.000000 
#    y 0.000000 1.879220 0.000000 
#    z 0.000000 0.000000 1.859860 
# 
# From -- ./inp_files/10282.got.cif
#   From: 2010.03.12/outbox.cif.g09.slc.cpg/sg24_6_cif.got.tgz:10282.got - 2010.04.14 03:06:53.
