data_PCOD8165761
_publ_section_title
;
Structure prediction by ZEFSAII (Michael W. Deem and Ramdas Pophale) SiO2 
 PCOD8165761
Probable space group: I 21 21 21
;
_chemical_formula_sum "Si O2"
_cell_formula_units_Z 56
_cell_length_a 12.599542
_cell_length_b 14.524553
_cell_length_c 13.479582
_cell_angle_alpha 90.000000
_cell_angle_beta 90.000000
_cell_angle_gamma 90.000000
_cell_volume 2466.800111
_symmetry_space_group_name_H-M "I 21 21 21"
_symmetry_group_IT_number 24
_symmetry_cell_setting 'orthorhombic'
loop_
_space_group_symop_operation_xyz
x,y,z
-x,1/2-y,z
x,-y,1/2-z
1/2-x,y,-z
1/2+x,1/2+y,1/2+z
1/2-x,-y,1/2+z
1/2+x,1/2-y,-z
-x,1/2+y,1/2-z
loop_
_atom_site_type_symbol
_atom_site_label
_atom_site_fract_x
_atom_site_fract_y
_atom_site_fract_z
Si Si1 0.791424 0.027034 0.858425
Si Si2 0.808501 0.844014 0.098683
Si Si3 0.360701 0.098705 0.442500
Si Si4 0.000168 0.573732 0.553122
Si Si5 0.414384 0.826974 0.263151
Si Si6 0.500000 0.750000 0.589247
Si Si7 0.780377 0.221442 0.190460
Si Si8 0.500000 0.250000 0.534698
O O1 0.732685 0.124329 0.863857
O O2 0.885059 0.024349 0.939570
O O3 0.836079 0.000000 0.750000
O O4 0.703319 0.952936 0.889373
O O5 0.761742 0.788346 0.191384
O O6 0.933315 0.822022 0.100164
O O7 0.750000 0.807503 0.000000
O O8 0.250000 0.099293 0.500000
O O9 0.360295 0.109533 0.322713
O O10 0.421776 0.190620 0.469769
O O11 0.415971 0.004031 0.477978
O O12 0.980285 0.607878 0.664484
O O13 0.002282 0.658183 0.476587
O O14 0.500000 0.750000 0.224816
O O15 0.319238 0.787326 0.334424
O O16 0.395186 0.759878 0.658333
#
# Coordination Sequence:
#
# PCOD8165761 Si02
#       8
#     8   8   8   8   8   4   8   4
#     4  10  22  42  70 108 139 185 256 322 363 435
#     4  11  24  41  72 105 140 191 243 308 373 450
#     4  12  28  44  73 110 148 192 248 317 394 449
#     4  12  26  46  73 107 148 201 257 310 376 457
#     4  12  23  47  76 107 145 200 260 321 373 450
#     4  12  29  47  72 108 160 212 244 313 393 468
#     4  11  25  44  71 105 151 193 253 304 390 447
#     4  12  23  43  68 100 140 184 238 301 379 452
#
# _framework density 22.701474999999999
#
# number of rings (size 3 to 8) (size 9 to 14) (size 15 to 20)
#    0.000    0.571    2.857    4.714    8.000    1.143 
#    0.000    0.000    0.000    0.000    0.000    0.000 
#    0.000    0.000    0.000    0.000    0.000    0.000 
#
# Total GULP energy -347095.067481 kJ/mol
# GULP energy per Si atom -12396.252410 kJ/mol
# Density = 2.264981 g / cm^3
# Si number density = 22.701475 Si / 1000 Ang^3
#
#
#
# Elastic Constant Matrix: (Units=GPa)
#
#
# Indices 1 2 3 4 5 6 
#
# 1 145.8379 57.5529 36.9301 0.0000 0.0000 0.0000
# 2 57.5529 117.7448 30.2295 0.0000 0.0000 0.0000
# 3 36.9301 30.2295 90.8124 0.0001 0.0000 0.0000
# 4 0.0000 0.0000 0.0001 23.4262 0.0000 0.0000
# 5 0.0000 0.0000 0.0000 0.0000 28.9381 0.0000
# 6 0.0000 0.0000 0.0000 0.0000 0.0000 50.0898
#
#
#
# Elastic Compliance Matrix: (Units=1/GPa)
#
#
# Indices 1 2 3 4 5 6 
#
# 1 0.008945 -0.003760 -0.002386 0.000000 0.000000 0.000000
# 2 -0.003760 0.010867 -0.002088 0.000000 0.000000 0.000000
# 3 -0.002386 -0.002088 0.012677 0.000000 0.000000 0.000000
# 4 0.000000 0.000000 0.000000 0.042687 0.000000 0.000000
# 5 0.000000 0.000000 0.000000 0.000000 0.034557 0.000000
# 6 0.000000 0.000000 0.000000 0.000000 0.000000 0.019964
#
#
# Mechanical properties :
#
#
# Convention : Reuss Voigt Hill
#
# Bulk Modulus (GPa) = 62.41925 67.09112 64.75518
# Shear Modulus (GPa) = 33.00221 35.80300 34.40260
#
# Velocity S-wave (km/s) = 3.81694 3.97561 3.89708
# Velocity P-wave (km/s) = 6.85425 7.11981 6.98829
#
# Compressibility (1/GPa) = 0.01602070
#
# Stress axis : x y z
#
# Youngs Moduli (GPa) = 111.79679 92.02360 78.88166
#
# Poissons Ratio (x) = 0.34597 0.18822
# Poissons Ratio (y) = 0.42031 0.16474
# Poissons Ratio (z) = 0.26675 0.19218
#
# Static dielectric constant tensor:
#      x y z
#    x 4.526630 0.000000 0.000000 
#    y 0.000000 4.163260 0.000000 
#    z 0.000000 0.000000 4.069310 
# 
# 
# High freq. dielectric constant tensor:
#      x y z
#    x 1.899920 0.000000 0.000000 
#    y 0.000000 1.903770 0.000000 
#    z 0.000000 0.000000 1.890510 
# 
# From -- ./inp_files/25863.got.cif
#   From: 2010.03.12/outbox.cif.g09.slc.cpg/sg24_13_cif.got.tgz:25863.got - 2010.04.14 03:06:53.
