data_PCOD8165529
_publ_section_title
;
Structure prediction by ZEFSAII (Michael W. Deem and Ramdas Pophale) SiO2 
 PCOD8165529
Probable space group: I 21 21 21
;
_chemical_formula_sum "Si O2"
_cell_formula_units_Z 60
_cell_length_a 8.826486
_cell_length_b 28.001612
_cell_length_c 11.220937
_cell_angle_alpha 90.000000
_cell_angle_beta 90.000000
_cell_angle_gamma 90.000000
_cell_volume 2773.320068
_symmetry_space_group_name_H-M "I 21 21 21"
_symmetry_group_IT_number 24
_symmetry_cell_setting 'orthorhombic'
loop_
_space_group_symop_operation_xyz
x,y,z
-x,1/2-y,z
x,-y,1/2-z
1/2-x,y,-z
1/2+x,1/2+y,1/2+z
1/2-x,-y,1/2+z
1/2+x,1/2-y,-z
-x,1/2+y,1/2-z
loop_
_atom_site_type_symbol
_atom_site_label
_atom_site_fract_x
_atom_site_fract_y
_atom_site_fract_z
Si Si1 0.425737 0.519001 0.012247
Si Si2 0.494017 0.361042 0.760612
Si Si3 0.575370 0.131478 0.502985
Si Si4 0.903555 0.500000 0.750000
Si Si5 0.843403 0.552931 0.386593
Si Si6 0.760709 0.182039 0.868058
Si Si7 0.031715 0.803061 0.794096
Si Si8 0.698211 0.710741 0.630680
O O1 0.434405 0.574690 0.984705
O O2 0.482737 0.515495 0.146758
O O3 0.250000 0.500970 0.000000
O O4 0.541414 0.489984 0.925179
O O5 0.517311 0.352257 0.620284
O O6 0.558562 0.409038 0.815854
O O7 0.312530 0.358157 0.781821
O O8 0.543890 0.316083 0.840215
O O9 0.750000 0.148684 0.500000
O O10 0.490107 0.155547 0.391800
O O11 0.788859 0.540520 0.706123
O O12 0.750000 0.573295 0.500000
O O13 0.930168 0.189758 0.823447
O O14 0.674690 0.232896 0.865491
O O15 0.750000 0.160534 0.000000
O O16 0.000000 0.750000 0.849133
O O17 0.197650 0.807688 0.739991
O O18 0.750000 0.694025 0.500000
#
# Coordination Sequence:
#
# PCOD8165529 Si02
#       8
#     8   8   8   4   8   8   8   8
#     4  10  24  45  70  95 127 172 226 280 337 406
#     4  12  23  38  64  94 128 170 216 267 318 401
#     4  11  24  43  63  92 131 172 216 267 320 392
#     4  10  22  44  68  90 136 172 206 282 340 408
#     4  10  23  43  65  99 132 168 220 281 343 400
#     4  10  21  40  64  92 128 172 213 270 331 379
#     4  10  22  42  64  93 134 171 216 269 324 390
#     4  10  22  40  63  96 130 165 215 270 326 391
#
# _framework density 21.634719
#
# number of rings (size 3 to 8) (size 9 to 14) (size 15 to 20)
#    0.000    1.600    1.333    2.400    1.867    6.933 
#    2.400    0.000    0.000    0.000    0.000    0.000 
#    0.000    0.000    0.000    0.000    0.000    0.000 
#
# Total GULP energy -371717.418355 kJ/mol
# GULP energy per Si atom -12390.580612 kJ/mol
# Density = 2.158548 g / cm^3
# Si number density = 21.634719 Si / 1000 Ang^3
#
#
#
# Elastic Constant Matrix: (Units=GPa)
#
#
# Indices 1 2 3 4 5 6 
#
# 1 87.5309 30.6521 40.3388 -0.0002 0.0000 -0.0001
# 2 30.6521 47.3317 38.7063 -0.0009 0.0001 0.0000
# 3 40.3388 38.7063 138.2745 -0.0021 0.0003 0.0005
# 4 -0.0002 -0.0009 -0.0021 28.4145 0.0000 0.0002
# 5 0.0000 0.0001 0.0003 0.0000 36.4429 -0.0003
# 6 -0.0001 0.0000 0.0005 0.0002 -0.0003 34.9077
#
#
#
# Elastic Compliance Matrix: (Units=1/GPa)
#
#
# Indices 1 2 3 4 5 6 
#
# 1 0.015269 -0.008100 -0.002187 0.000000 0.000000 0.000000
# 2 -0.008100 0.031696 -0.006510 0.000000 0.000000 0.000000
# 3 -0.002187 -0.006510 0.009692 0.000000 0.000000 0.000000
# 4 0.000000 0.000000 0.000000 0.035193 0.000000 0.000000
# 5 0.000000 0.000000 0.000000 0.000000 0.027440 0.000000
# 6 0.000000 0.000000 0.000000 0.000000 0.000000 0.028647
#
#
# Mechanical properties :
#
#
# Convention : Reuss Voigt Hill
#
# Bulk Modulus (GPa) = 43.35650 54.72573 49.04112
# Shear Modulus (GPa) = 26.42449 30.84901 28.63675
#
# Velocity S-wave (km/s) = 3.49863 3.78021 3.64214
# Velocity P-wave (km/s) = 6.03360 6.66360 6.35641
#
# Compressibility (1/GPa) = 0.02306459
#
# Stress axis : x y z
#
# Youngs Moduli (GPa) = 65.49295 31.54963 103.17546
#
# Poissons Ratio (x) = 0.25554 0.22566
# Poissons Ratio (y) = 0.53046 0.67163
# Poissons Ratio (z) = 0.14324 0.20538
#
# Static dielectric constant tensor:
#      x y z
#    x 4.025430 0.000000 0.000000 
#    y 0.000000 3.709650 0.000000 
#    z 0.000000 0.000000 4.010600 
# 
# 
# High freq. dielectric constant tensor:
#      x y z
#    x 1.863370 0.000000 0.000000 
#    y 0.000000 1.836770 0.000000 
#    z 0.000000 0.000000 1.859350 
# 
# From -- ./inp_files/18794.got.cif
#   From: 2010.03.12/outbox.cif.g09.slc.cpg/sg24_10_cif.got.tgz:18794.got - 2010.04.14 03:06:53.
