data_PCOD8165610
_publ_section_title
;
Structure prediction by ZEFSAII (Michael W. Deem and Ramdas Pophale) SiO2 
 PCOD8165610
Probable space group: I 21 21 21
;
_chemical_formula_sum "Si O2"
_cell_formula_units_Z 40
_cell_length_a 9.124561
_cell_length_b 9.593381
_cell_length_c 20.201982
_cell_angle_alpha 90.000000
_cell_angle_beta 90.000000
_cell_angle_gamma 90.000000
_cell_volume 1768.388376
_symmetry_space_group_name_H-M "I 21 21 21"
_symmetry_group_IT_number 24
_symmetry_cell_setting 'orthorhombic'
loop_
_space_group_symop_operation_xyz
x,y,z
-x,1/2-y,z
x,-y,1/2-z
1/2-x,y,-z
1/2+x,1/2+y,1/2+z
1/2-x,-y,1/2+z
1/2+x,1/2-y,-z
-x,1/2+y,1/2-z
loop_
_atom_site_type_symbol
_atom_site_label
_atom_site_fract_x
_atom_site_fract_y
_atom_site_fract_z
Si Si1 0.210237 0.218181 0.665748
Si Si2 0.581950 0.490110 0.987278
Si Si3 0.026944 0.477853 0.627245
Si Si4 0.000000 0.250000 0.412558
Si Si5 0.740144 0.869478 0.706676
Si Si6 0.000000 0.750000 0.391393
O O1 0.127573 0.340132 0.625762
O O2 0.368939 0.211170 0.635380
O O3 0.222706 0.243167 0.744312
O O4 0.129598 0.069594 0.657477
O O5 0.482345 0.615131 0.958649
O O6 0.583145 0.359340 0.938126
O O7 0.750000 0.538424 0.000000
O O8 0.500585 0.453506 0.055761
O O9 0.106298 0.594067 0.671428
O O10 0.618342 0.828862 0.653426
O O11 0.680598 0.000000 0.750000
#
# Coordination Sequence:
#
# PCOD8165610 Si02
#       6
#     8   8   8   4   8   4
#     4  10  21  43  74 105 135 188 246 305 362 429
#     4  12  27  46  71 109 148 195 247 302 371 440
#     4  10  22  44  67 101 143 187 239 294 369 431
#     4  12  23  44  78 106 145 186 254 306 358 452
#     4  10  23  47  73 103 145 194 248 303 370 442
#     4  12  29  48  72 110 153 202 238 308 382 432
#
# _framework density 22.619467
#
# number of rings (size 3 to 8) (size 9 to 14) (size 15 to 20)
#    0.000    1.200    2.000    4.200    2.800    1.600 
#   18.000    0.000    0.000    0.000    0.000    0.000 
#    0.000    0.000    0.000    0.000    0.000    0.000 
#
# Total GULP energy -248009.862427 kJ/mol
# GULP energy per Si atom -12400.493121 kJ/mol
# Density = 2.256798 g / cm^3
# Si number density = 22.619467 Si / 1000 Ang^3
#
#
#
# Elastic Constant Matrix: (Units=GPa)
#
#
# Indices 1 2 3 4 5 6 
#
# 1 119.8711 28.8661 54.8909 0.0000 0.0000 0.0000
# 2 28.8661 77.5868 54.8653 0.0000 0.0000 0.0000
# 3 54.8909 54.8653 166.0790 0.0000 0.0000 0.0000
# 4 0.0000 0.0000 0.0000 24.7951 0.0000 0.0000
# 5 0.0000 0.0000 0.0000 0.0000 28.5592 0.0000
# 6 0.0000 0.0000 0.0000 0.0000 0.0000 30.8642
#
#
#
# Elastic Compliance Matrix: (Units=1/GPa)
#
#
# Indices 1 2 3 4 5 6 
#
# 1 0.010021 -0.001809 -0.002714 0.000000 0.000000 0.000000
# 2 -0.001809 0.017144 -0.005066 0.000000 0.000000 0.000000
# 3 -0.002714 -0.005066 0.008592 0.000000 0.000000 0.000000
# 4 0.000000 0.000000 0.000000 0.040331 0.000000 0.000000
# 5 0.000000 0.000000 0.000000 0.000000 0.035015 0.000000
# 6 0.000000 0.000000 0.000000 0.000000 0.000000 0.032400
#
#
# Mechanical properties :
#
#
# Convention : Reuss Voigt Hill
#
# Bulk Modulus (GPa) = 60.31821 71.19792 65.75807
# Shear Modulus (GPa) = 29.72535 31.83802 30.78168
#
# Velocity S-wave (km/s) = 3.62905 3.75580 3.69297
# Velocity P-wave (km/s) = 6.65465 7.09597 6.87885
#
# Compressibility (1/GPa) = 0.01657874
#
# Stress axis : x y z
#
# Youngs Moduli (GPa) = 99.79191 58.32939 116.38824
#
# Poissons Ratio (x) = 0.10550 0.31593
# Poissons Ratio (y) = 0.18049 0.58960
# Poissons Ratio (z) = 0.27088 0.29549
#
# Static dielectric constant tensor:
#      x y z
#    x 4.244350 0.000000 0.000000 
#    y 0.000000 4.298800 0.000000 
#    z 0.000000 0.000000 4.298170 
# 
# 
# High freq. dielectric constant tensor:
#      x y z
#    x 1.894240 0.000000 0.000000 
#    y 0.000000 1.877660 0.000000 
#    z 0.000000 0.000000 1.908580 
# 
# From -- ./inp_files/29269.got.cif
#   From: 2010.03.12/outbox.cif.g09.slc.cpg/sg24_15_cif.got.tgz:29269.got - 2010.04.14 03:06:53.
