data_PCOD8165342
_publ_section_title
;
Structure prediction by ZEFSAII (Michael W. Deem and Ramdas Pophale) SiO2 
 PCOD8165342
Probable space group: I 21 21 21
;
_chemical_formula_sum "Si O2"
_cell_formula_units_Z 64
_cell_length_a 8.683647
_cell_length_b 19.220876
_cell_length_c 17.873521
_cell_angle_alpha 90.000000
_cell_angle_beta 90.000000
_cell_angle_gamma 90.000000
_cell_volume 2983.221171
_symmetry_space_group_name_H-M "I 21 21 21"
_symmetry_group_IT_number 24
_symmetry_cell_setting 'orthorhombic'
loop_
_space_group_symop_operation_xyz
x,y,z
-x,1/2-y,z
x,-y,1/2-z
1/2-x,y,-z
1/2+x,1/2+y,1/2+z
1/2-x,-y,1/2+z
1/2+x,1/2-y,-z
-x,1/2+y,1/2-z
loop_
_atom_site_type_symbol
_atom_site_label
_atom_site_fract_x
_atom_site_fract_y
_atom_site_fract_z
Si Si1 0.801538 0.316583 0.271997
Si Si2 0.986203 0.993249 0.596155
Si Si3 0.726551 0.103336 0.630403
Si Si4 0.746108 0.114011 0.922193
Si Si5 0.846449 0.829234 0.270296
Si Si6 0.315321 0.755541 0.079830
Si Si7 0.998337 0.998596 0.432213
Si Si8 0.766678 0.547119 0.313736
O O1 0.753069 0.242790 0.236313
O O2 0.740850 0.313026 0.358138
O O3 0.727095 0.377343 0.221191
O O4 0.984821 0.323816 0.265572
O O5 0.869566 0.056080 0.609068
O O6 0.067252 0.008453 0.515646
O O7 0.114349 0.993108 0.660059
O O8 0.912444 0.915436 0.602355
O O9 0.733247 0.110426 0.720965
O O10 0.740256 0.180049 0.595023
O O11 0.561239 0.071015 0.604558
O O12 0.656003 0.154176 0.857682
O O13 0.654338 0.045358 0.945373
O O14 0.750000 0.159458 0.000000
O O15 0.500000 0.750000 0.079879
O O16 0.250000 0.781837 0.000000
O O17 0.113289 0.952630 0.381855
O O18 0.844873 0.500000 0.250000
#
# Coordination Sequence:
#
# PCOD8165342 Si02
#       8
#     8   8   8   8   8   8   8   8
#     4  10  24  43  64  99 130 175 225 277 331 405
#     4  10  23  38  62  95 131 164 215 279 339 396
#     4  10  22  41  69  98 127 174 225 268 336 407
#     4   9  19  37  64  92 124 168 219 270 325 396
#     4  10  20  40  71  91 129 174 228 273 328 407
#     4  11  26  45  70 100 144 183 227 281 344 416
#     4  10  20  41  62  91 128 168 217 270 332 404
#     4  12  25  39  61  91 130 166 216 273 340 399
#
# _framework density 21.453319
#
# number of rings (size 3 to 8) (size 9 to 14) (size 15 to 20)
#    0.000    1.750    1.250    3.000    7.000    2.000 
#    2.250    1.250    0.000    0.000    0.000    0.000 
#    0.000    0.000    0.000    0.000    0.000    0.000 
#
# Total GULP energy -396513.929298 kJ/mol
# GULP energy per Si atom -12391.060291 kJ/mol
# Density = 2.140449 g / cm^3
# Si number density = 21.453319 Si / 1000 Ang^3
#
#
#
# Elastic Constant Matrix: (Units=GPa)
#
#
# Indices 1 2 3 4 5 6 
#
# 1 69.2105 16.6105 48.0966 0.0000 0.0000 0.0000
# 2 16.6105 85.4516 53.8604 0.0000 0.0000 0.0000
# 3 48.0966 53.8604 181.0779 0.0000 0.0000 0.0000
# 4 0.0000 0.0000 0.0000 25.1844 0.0000 0.0000
# 5 0.0000 0.0000 0.0000 0.0000 35.1995 0.0000
# 6 0.0000 0.0000 0.0000 0.0000 0.0000 26.9633
#
#
#
# Elastic Compliance Matrix: (Units=1/GPa)
#
#
# Indices 1 2 3 4 5 6 
#
# 1 0.017743 -0.000589 -0.004538 0.000000 0.000000 0.000000
# 2 -0.000589 0.014422 -0.004133 0.000000 0.000000 0.000000
# 3 -0.004538 -0.004133 0.007957 0.000000 0.000000 0.000000
# 4 0.000000 0.000000 0.000000 0.039707 0.000000 0.000000
# 5 0.000000 0.000000 0.000000 0.000000 0.028410 0.000000
# 6 0.000000 0.000000 0.000000 0.000000 0.000000 0.037087
#
#
# Mechanical properties :
#
#
# Convention : Reuss Voigt Hill
#
# Bulk Modulus (GPa) = 46.29011 63.65279 54.97145
# Shear Modulus (GPa) = 29.23155 31.94759 30.58957
#
# Velocity S-wave (km/s) = 3.69530 3.86316 3.78016
# Velocity P-wave (km/s) = 6.31118 7.04510 6.68821
#
# Compressibility (1/GPa) = 0.02160289
#
# Stress axis : x y z
#
# Youngs Moduli (GPa) = 56.35895 69.33711 125.67224
#
# Poissons Ratio (x) = 0.04083 0.57026
# Poissons Ratio (y) = 0.03319 0.51945
# Poissons Ratio (z) = 0.25574 0.28660
#
# Static dielectric constant tensor:
#      x y z
#    x 3.664390 0.000000 0.000000 
#    y 0.000000 3.851980 0.000000 
#    z 0.000000 0.000000 4.134570 
# 
# 
# High freq. dielectric constant tensor:
#      x y z
#    x 1.829380 0.000000 0.000000 
#    y 0.000000 1.823890 0.000000 
#    z 0.000000 0.000000 1.859590 
# 
# From -- ./inp_files/29825.got.cif
#   From: 2010.03.12/outbox.cif.g09.slc.cpg/sg24_15_cif.got.tgz:29825.got - 2010.04.14 03:06:53.
