data_PCOD8165496
_publ_section_title
;
Structure prediction by ZEFSAII (Michael W. Deem and Ramdas Pophale) SiO2 
 PCOD8165496
Probable space group: I 21 21 21
;
_chemical_formula_sum "Si O2"
_cell_formula_units_Z 64
_cell_length_a 11.853191
_cell_length_b 8.841336
_cell_length_c 30.430758
_cell_angle_alpha 90.000000
_cell_angle_beta 90.000000
_cell_angle_gamma 90.000000
_cell_volume 3189.083925
_symmetry_space_group_name_H-M "I 21 21 21"
_symmetry_group_IT_number 24
_symmetry_cell_setting 'orthorhombic'
loop_
_space_group_symop_operation_xyz
x,y,z
-x,1/2-y,z
x,-y,1/2-z
1/2-x,y,-z
1/2+x,1/2+y,1/2+z
1/2-x,-y,1/2+z
1/2+x,1/2-y,-z
-x,1/2+y,1/2-z
loop_
_atom_site_type_symbol
_atom_site_label
_atom_site_fract_x
_atom_site_fract_y
_atom_site_fract_z
Si Si1 0.130763 0.072358 0.876297
Si Si2 0.744512 0.575523 0.794715
Si Si3 0.000000 0.072889 0.082750
Si Si4 0.726114 0.575621 0.949072
Si Si5 0.755488 0.075523 0.294715
Si Si6 0.869236 0.072358 0.876297
Si Si7 1.000000 0.579664 0.173348
Si Si8 0.273886 0.424378 0.550928
O O1 0.152888 0.250000 0.877846
O O2 1.000000 0.032348 0.870761
O O3 0.198781 0.004636 0.835828
O O4 0.173764 0.001115 0.921678
O O5 0.789160 0.500000 0.750000
O O6 0.780277 0.750000 0.794667
O O7 0.609799 0.554291 0.796886
O O8 0.000000 0.250000 0.074633
O O9 0.891485 0.002730 0.060339
O O10 0.108515 0.002730 0.060339
O O11 1.000000 0.040878 0.134430
O O12 0.718786 0.750000 0.935045
O O13 0.750000 0.554955 0.000000
O O14 0.890201 0.054291 0.296886
O O15 0.710840 0.000000 0.250000
O O16 0.698781 0.995364 0.335828
O O17 0.826235 0.001115 0.921678
O O18 0.000000 0.750000 0.153489
O O19 0.250000 0.445045 0.500000
#
# Coordination Sequence:
#
# PCOD8165496 Si02
#       8
#     8   8   8   8   8   8   8   8
#     4  11  25  44  65  93 128 166 213 267 320 379
#     4  11  23  40  65  94 128 168 212 262 317 381
#     4  12  24  39  67  98 131 169 208 263 320 373
#     4  11  25  44  67  95 129 170 215 261 315 382
#     4  11  23  40  65  94 128 168 212 262 317 381
#     4  11  25  44  65  93 128 166 213 267 320 379
#     4  10  21  39  63  94 130 167 207 257 315 379
#     4  11  25  44  67  95 129 170 215 261 315 382
#
# _framework density 20.068459000000001
#
# number of rings (size 3 to 8) (size 9 to 14) (size 15 to 20)
#    0.000    1.000    2.500    3.750    1.750    5.500 
#    0.000    0.000    0.000    0.000    0.000    0.000 
#    0.000    0.000    0.000    0.000    0.000    0.000 
#
# Total GULP energy -396998.921361 kJ/mol
# GULP energy per Si atom -12406.216293 kJ/mol
# Density = 2.002278 g / cm^3
# Si number density = 20.068459 Si / 1000 Ang^3
#
#
#
# Elastic Constant Matrix: (Units=GPa)
#
#
# Indices 1 2 3 4 5 6 
#
# 1 97.8959 60.3843 36.5792 0.0000 0.0000 0.0000
# 2 60.3843 140.5005 58.8979 0.0000 0.0000 0.0000
# 3 36.5792 58.8979 103.0863 0.0000 0.0000 0.0000
# 4 0.0000 0.0000 0.0000 26.7319 0.0000 0.0000
# 5 0.0000 0.0000 0.0000 0.0000 26.8820 0.0000
# 6 0.0000 0.0000 0.0000 0.0000 0.0000 32.8497
#
#
#
# Elastic Compliance Matrix: (Units=1/GPa)
#
#
# Indices 1 2 3 4 5 6 
#
# 1 0.014220 -0.005255 -0.002043 0.000000 0.000000 0.000000
# 2 -0.005255 0.011301 -0.004592 0.000000 0.000000 0.000000
# 3 -0.002043 -0.004592 0.013049 0.000000 0.000000 0.000000
# 4 0.000000 0.000000 0.000000 0.037408 0.000000 0.000000
# 5 0.000000 0.000000 0.000000 0.000000 0.037200 0.000000
# 6 0.000000 0.000000 0.000000 0.000000 0.000000 0.030442
#
#
# Mechanical properties :
#
#
# Convention : Reuss Voigt Hill
#
# Bulk Modulus (GPa) = 67.61623 72.57842 70.09732
# Shear Modulus (GPa) = 29.01412 29.66748 29.34080
#
# Velocity S-wave (km/s) = 3.80644 3.84906 3.82781
# Velocity P-wave (km/s) = 7.28591 7.48315 7.38519
#
# Compressibility (1/GPa) = 0.01478935
#
# Stress axis : x y z
#
# Youngs Moduli (GPa) = 70.32491 88.48943 76.63205
#
# Poissons Ratio (x) = 0.46499 0.15660
# Poissons Ratio (y) = 0.36954 0.35190
# Poissons Ratio (z) = 0.14371 0.40635
#
# Static dielectric constant tensor:
#      x y z
#    x 3.729550 0.000000 0.000000 
#    y 0.000000 3.878330 0.000000 
#    z 0.000000 0.000000 3.642660 
# 
# 
# High freq. dielectric constant tensor:
#      x y z
#    x 1.791180 0.000000 0.000000 
#    y 0.000000 1.800420 0.000000 
#    z 0.000000 0.000000 1.792150 
# 
# From -- ./inp_files/38613.got.cif
#   From: 2010.03.12/outbox.cif.g09.slc.cpg/sg24_20_cif.got.tgz:38613.got - 2010.04.14 03:06:53.
