data_PCOD8165565
_publ_section_title
;
Structure prediction by ZEFSAII (Michael W. Deem and Ramdas Pophale) SiO2 
 PCOD8165565
Probable space group: I 21 21 21
;
_chemical_formula_sum "Si O2"
_cell_formula_units_Z 28
_cell_length_a 4.909019
_cell_length_b 25.103692
_cell_length_c 10.529111
_cell_angle_alpha 90.000000
_cell_angle_beta 90.000000
_cell_angle_gamma 90.000000
_cell_volume 1297.549740
_symmetry_space_group_name_H-M "I 21 21 21"
_symmetry_group_IT_number 24
_symmetry_cell_setting 'orthorhombic'
loop_
_space_group_symop_operation_xyz
x,y,z
-x,1/2-y,z
x,-y,1/2-z
1/2-x,y,-z
1/2+x,1/2+y,1/2+z
1/2-x,-y,1/2+z
1/2+x,1/2-y,-z
-x,1/2+y,1/2-z
loop_
_atom_site_type_symbol
_atom_site_label
_atom_site_fract_x
_atom_site_fract_y
_atom_site_fract_z
Si Si1 0.499202 0.310114 0.909813
Si Si2 0.549876 0.590087 0.745785
Si Si3 0.074160 0.546762 0.612189
Si Si4 0.750000 0.547042 0.000000
O O1 0.500000 0.250000 0.855325
O O2 0.479800 0.348777 0.787107
O O3 0.250000 0.320574 0.000000
O O4 0.750000 0.322589 0.000000
O O5 0.289616 0.550151 0.728499
O O6 0.629079 0.585562 0.892541
O O7 0.791247 0.574037 0.649072
O O8 0.250000 0.576072 0.500000
O O9 0.989578 0.487805 0.565609
#
# Coordination Sequence:
#
# PCOD8165565 Si02
#       4
#     8   8   8   4
#     4  10  21  41  69  97 121 158 214 275 327 374
#     4  12  26  42  64  93 132 170 214 270 322 380
#     4  12  25  41  61  91 128 172 217 263 311 376
#     4  12  30  38  64  94 136 176 220 254 318 400
#
# _framework density 21.579134
#
# number of rings (size 3 to 8) (size 9 to 14) (size 15 to 20)
#    0.000    0.571    2.857    5.143    8.000    0.000 
#    0.000    0.000    0.000    8.571    0.000    0.000 
#    0.000    0.000    0.000    0.000    0.000    0.000 
#
# Total GULP energy -173491.124622 kJ/mol
# GULP energy per Si atom -12392.223187 kJ/mol
# Density = 2.153002 g / cm^3
# Si number density = 21.579134 Si / 1000 Ang^3
#
#
#
# Elastic Constant Matrix: (Units=GPa)
#
#
# Indices 1 2 3 4 5 6 
#
# 1 156.3192 51.1623 35.1818 0.0000 0.0000 0.0000
# 2 51.1623 155.1264 100.3917 0.0000 0.0000 0.0000
# 3 35.1818 100.3917 124.4929 0.0001 0.0000 0.0000
# 4 0.0000 0.0000 0.0001 19.0259 0.0000 0.0000
# 5 0.0000 0.0000 0.0000 0.0000 35.6275 0.0000
# 6 0.0000 0.0000 0.0000 0.0000 0.0000 23.7167
#
#
#
# Elastic Compliance Matrix: (Units=1/GPa)
#
#
# Indices 1 2 3 4 5 6 
#
# 1 0.007175 -0.002205 -0.000250 0.000000 0.000000 0.000000
# 2 -0.002205 0.014160 -0.010796 0.000000 0.000000 0.000000
# 3 -0.000250 -0.010796 0.016809 0.000000 0.000000 0.000000
# 4 0.000000 0.000000 0.000000 0.052560 0.000000 0.000000
# 5 0.000000 0.000000 0.000000 0.000000 0.028068 0.000000
# 6 0.000000 0.000000 0.000000 0.000000 0.000000 0.042164
#
#
# Mechanical properties :
#
#
# Convention : Reuss Voigt Hill
#
# Bulk Modulus (GPa) = 85.88440 89.93445 87.90942
# Shear Modulus (GPa) = 26.13454 32.28755 29.21104
#
# Velocity S-wave (km/s) = 3.48386 3.87232 3.68322
# Velocity P-wave (km/s) = 7.48794 7.85877 7.67559
#
# Compressibility (1/GPa) = 0.01164356
#
# Stress axis : x y z
#
# Youngs Moduli (GPa) = 139.37329 70.62126 59.49251
#
# Poissons Ratio (x) = 0.15570 0.01486
# Poissons Ratio (y) = 0.30729 0.64226
# Poissons Ratio (z) = 0.03480 0.76240
#
# Static dielectric constant tensor:
#      x y z
#    x 4.290360 0.000000 0.000000 
#    y 0.000000 3.762400 0.000000 
#    z 0.000000 0.000000 3.781470 
# 
# 
# High freq. dielectric constant tensor:
#      x y z
#    x 1.880270 0.000000 0.000000 
#    y 0.000000 1.824540 0.000000 
#    z 0.000000 0.000000 1.831450 
# 
# From -- ./inp_files/16163.got.cif
#   From: 2010.03.12/outbox.cif.g09.slc.cpg/sg24_9_cif.got.tgz:16163.got - 2010.04.14 03:06:53.
