data_PCOD8165255
_publ_section_title
;
Structure prediction by ZEFSAII (Michael W. Deem and Ramdas Pophale) SiO2 
 PCOD8165255
Probable space group: I 21 21 21
;
_chemical_formula_sum "Si O2"
_cell_formula_units_Z 40
_cell_length_a 12.479669
_cell_length_b 9.680447
_cell_length_c 17.785598
_cell_angle_alpha 90.000000
_cell_angle_beta 90.000000
_cell_angle_gamma 90.000000
_cell_volume 2148.656295
_symmetry_space_group_name_H-M "I 21 21 21"
_symmetry_group_IT_number 24
_symmetry_cell_setting 'orthorhombic'
loop_
_space_group_symop_operation_xyz
x,y,z
-x,1/2-y,z
x,-y,1/2-z
1/2-x,y,-z
1/2+x,1/2+y,1/2+z
1/2-x,-y,1/2+z
1/2+x,1/2-y,-z
-x,1/2+y,1/2-z
loop_
_atom_site_type_symbol
_atom_site_label
_atom_site_fract_x
_atom_site_fract_y
_atom_site_fract_z
Si Si1 0.544828 0.466017 0.535452
Si Si2 0.138238 0.648337 0.271131
Si Si3 0.250000 0.210821 0.500000
Si Si4 0.000000 0.250000 0.347834
Si Si5 0.916229 0.865450 0.898411
Si Si6 0.500000 0.750000 0.599224
Si Si7 0.160290 0.500000 0.750000
O O1 0.659549 0.390183 0.532870
O O2 0.483063 0.386259 0.601930
O O3 0.474390 0.456598 0.460976
O O4 0.553148 0.628754 0.550124
O O5 0.084655 0.500000 0.250000
O O6 0.098924 0.694056 0.352524
O O7 0.266879 0.633482 0.271738
O O8 0.103286 0.759381 0.207499
O O9 0.304290 0.305012 0.433678
O O10 0.904581 0.960474 0.824585
O O11 0.000000 0.750000 0.873226
#
# Coordination Sequence:
#
# PCOD8165255 Si02
#       7
#     8   8   4   4   8   4   4
#     4  11  21  38  60  88 119 155 196 257 290 353
#     4   9  20  33  58  87 116 160 186 243 303 359
#     4  10  20  38  64  88 110 154 220 238 290 360
#     4  11  16  36  60  83 116 150 200 237 290 350
#     4  10  22  39  64  87 114 163 207 244 292 357
#     4  11  22  38  54  95 130 144 198 257 320 336
#     4  10  20  40  56  88 116 156 206 236 298 368
#
# _framework density 18.616285999999999
#
# number of rings (size 3 to 8) (size 9 to 14) (size 15 to 20)
#    0.600    1.200    5.000    1.200    2.800    0.000 
#    5.400    2.000    0.000    0.000    0.000    0.000 
#    0.000    0.000    0.000    0.000    0.000    0.000 
#
# Total GULP energy -247777.305437 kJ/mol
# GULP energy per Si atom -12388.865272 kJ/mol
# Density = 1.857391 g / cm^3
# Si number density = 18.616286 Si / 1000 Ang^3
#
#
#
# Elastic Constant Matrix: (Units=GPa)
#
#
# Indices 1 2 3 4 5 6 
#
# 1 90.8797 29.8010 59.1867 0.0000 0.0000 0.0000
# 2 29.8010 106.6535 63.8226 0.0000 0.0000 0.0000
# 3 59.1867 63.8226 142.2015 0.0000 0.0000 0.0000
# 4 0.0000 0.0000 0.0000 38.4020 0.0000 0.0000
# 5 0.0000 0.0000 0.0000 0.0000 17.9078 0.0000
# 6 0.0000 0.0000 0.0000 0.0000 0.0000 24.0040
#
#
#
# Elastic Compliance Matrix: (Units=1/GPa)
#
#
# Indices 1 2 3 4 5 6 
#
# 1 0.015126 -0.000628 -0.006014 0.000000 0.000000 0.000000
# 2 -0.000628 0.012845 -0.005504 0.000000 0.000000 0.000000
# 3 -0.006014 -0.005504 0.012006 0.000000 0.000000 0.000000
# 4 0.000000 0.000000 0.000000 0.026040 0.000000 0.000000
# 5 0.000000 0.000000 0.000000 0.000000 0.055842 0.000000
# 6 0.000000 0.000000 0.000000 0.000000 0.000000 0.041660
#
#
# Mechanical properties :
#
#
# Convention : Reuss Voigt Hill
#
# Bulk Modulus (GPa) = 63.75217 71.70615 67.72916
# Shear Modulus (GPa) = 25.90159 28.52439 27.21299
#
# Velocity S-wave (km/s) = 3.73411 3.91861 3.82748
# Velocity P-wave (km/s) = 7.27401 7.68607 7.48288
#
# Compressibility (1/GPa) = 0.01568574
#
# Stress axis : x y z
#
# Youngs Moduli (GPa) = 66.11086 77.85064 83.29402
#
# Poissons Ratio (x) = 0.04886 0.50093
# Poissons Ratio (y) = 0.04149 0.45844
# Poissons Ratio (z) = 0.39759 0.42848
#
# Static dielectric constant tensor:
#      x y z
#    x 3.287750 0.000000 0.000000 
#    y 0.000000 3.305710 0.000000 
#    z 0.000000 0.000000 3.394260 
# 
# 
# High freq. dielectric constant tensor:
#      x y z
#    x 1.707780 0.000000 0.000000 
#    y 0.000000 1.705400 0.000000 
#    z 0.000000 0.000000 1.727860 
# 
# From -- ./inp_files/29395.got.cif
#   From: 2010.03.12/outbox.cif.g09.slc.cpg/sg24_15_cif.got.tgz:29395.got - 2010.04.14 03:06:53.
