data_PCOD8165631
_publ_section_title
;
Structure prediction by ZEFSAII (Michael W. Deem and Ramdas Pophale) SiO2 
 PCOD8165631
Probable space group: I 21 21 21
;
_chemical_formula_sum "Si O2"
_cell_formula_units_Z 36
_cell_length_a 15.278224
_cell_length_b 5.225916
_cell_length_c 22.677585
_cell_angle_alpha 90.000000
_cell_angle_beta 90.000000
_cell_angle_gamma 90.000000
_cell_volume 1810.639962
_symmetry_space_group_name_H-M "I 21 21 21"
_symmetry_group_IT_number 24
_symmetry_cell_setting 'orthorhombic'
loop_
_space_group_symop_operation_xyz
x,y,z
-x,1/2-y,z
x,-y,1/2-z
1/2-x,y,-z
1/2+x,1/2+y,1/2+z
1/2-x,-y,1/2+z
1/2+x,1/2-y,-z
-x,1/2+y,1/2-z
loop_
_atom_site_type_symbol
_atom_site_label
_atom_site_fract_x
_atom_site_fract_y
_atom_site_fract_z
Si Si1 0.575296 0.423549 0.992240
Si Si2 0.000000 0.250000 0.393248
Si Si3 0.695068 0.242692 0.441868
Si Si4 0.780418 0.263023 0.092102
Si Si5 0.591323 0.902126 0.687172
O O1 0.500000 0.250000 0.023200
O O2 0.535199 0.518099 0.931281
O O3 0.660306 0.259575 0.969071
O O4 0.598289 0.661962 0.036120
O O5 0.078933 0.347301 0.352961
O O6 0.750000 0.232886 0.500000
O O7 0.729969 0.470106 0.400380
O O8 0.706951 0.966340 0.410432
O O9 0.835337 0.257559 0.152742
O O10 0.500000 0.750000 0.695365
O O11 0.626557 0.000000 0.750000
#
# Coordination Sequence:
#
# PCOD8165631 Si02
#       5
#     8   4   8   8   8
#     4  11  22  33  58  79 112 151 192 234 275 341
#     4  12  20  34  52  78 116 140 196 230 272 320
#     4  10  22  34  53  75 105 149 185 223 277 335
#     4  11  21  38  51  74 111 148 186 226 277 323
#     4  12  23  34  53  78 106 155 196 236 265 320
#
# _framework density 19.882473000000001
#
# number of rings (size 3 to 8) (size 9 to 14) (size 15 to 20)
#    0.000    0.889    5.556    4.667    3.111    0.000 
#    0.000    0.000    0.000    0.000    0.000    0.000 
#    0.000    3.556    0.000    0.000    0.000    0.000 
#
# Total GULP energy -222990.795882 kJ/mol
# GULP energy per Si atom -12388.377549 kJ/mol
# Density = 1.983722 g / cm^3
# Si number density = 19.882473 Si / 1000 Ang^3
#
#
#
# Elastic Constant Matrix: (Units=GPa)
#
#
# Indices 1 2 3 4 5 6 
#
# 1 44.4940 13.8809 13.6918 0.0000 0.0000 0.0000
# 2 13.8809 106.6179 17.8476 0.0000 0.0000 0.0000
# 3 13.6918 17.8476 65.1787 0.0000 0.0000 0.0000
# 4 0.0000 0.0000 0.0000 -6.5602 0.0000 0.0000
# 5 0.0000 0.0000 0.0000 0.0000 30.6856 0.0000
# 6 0.0000 0.0000 0.0000 0.0000 0.0000 34.8703
#
#
#
# Elastic Compliance Matrix: (Units=1/GPa)
#
#
# Indices 1 2 3 4 5 6 
#
# 1 0.024625 -0.002453 -0.004501 0.000000 0.000000 0.000000
# 2 -0.002453 0.010074 -0.002243 0.000000 0.000000 0.000000
# 3 -0.004501 -0.002243 0.016902 0.000000 0.000000 0.000000
# 4 0.000000 0.000000 0.000000 -0.152435 0.000000 0.000000
# 5 0.000000 0.000000 0.000000 0.000000 0.032589 0.000000
# 6 0.000000 0.000000 0.000000 0.000000 0.000000 0.028678
#
#
# Mechanical properties :
#
#
# Convention : Reuss Voigt Hill
#
# Bulk Modulus (GPa) = 30.11393 34.12567 32.11980
# Shear Modulus (GPa) = -494.88757 23.19051 -235.84853
#
# Velocity S-wave (km/s) = -15.79388 3.41893 -10.90316
# Velocity P-wave (km/s) = 17.81620 5.72594 11.92959
#
# Compressibility (1/GPa) = 0.03320722
#
# Stress axis : x y z
#
# Youngs Moduli (GPa) = 40.60873 99.26419 59.16354
#
# Poissons Ratio (x) = 0.24345 0.26631
# Poissons Ratio (y) = 0.09959 0.13272
# Poissons Ratio (z) = 0.18279 0.22269
#
# Static dielectric constant tensor:
#      x y z
#    x 2.567030 0.000000 0.000000 
#    y 0.000000 4.174650 0.000000 
#    z 0.000000 0.000000 3.427970 
# 
# 
# High freq. dielectric constant tensor:
#      x y z
#    x 1.744080 0.000000 0.000000 
#    y 0.000000 1.802440 0.000000 
#    z 0.000000 0.000000 1.717420 
# 
# From -- ./inp_files/3456.got.cif
#   From: 2010.03.12/outbox.cif.g09.slc.cpg/sg24_2_cif.got.tgz:3456.got - 2010.04.14 03:06:53.
