data_PCOD8165156
_publ_section_title
;
Structure prediction by ZEFSAII (Michael W. Deem and Ramdas Pophale) SiO2 
 PCOD8165156
Probable space group: I 21 21 21
;
_chemical_formula_sum "Si O2"
_cell_formula_units_Z 36
_cell_length_a 7.223004
_cell_length_b 24.390806
_cell_length_c 10.586461
_cell_angle_alpha 90.000000
_cell_angle_beta 90.000000
_cell_angle_gamma 90.000000
_cell_volume 1865.068595
_symmetry_space_group_name_H-M "I 21 21 21"
_symmetry_group_IT_number 24
_symmetry_cell_setting 'orthorhombic'
loop_
_space_group_symop_operation_xyz
x,y,z
-x,1/2-y,z
x,-y,1/2-z
1/2-x,y,-z
1/2+x,1/2+y,1/2+z
1/2-x,-y,1/2+z
1/2+x,1/2-y,-z
-x,1/2+y,1/2-z
loop_
_atom_site_type_symbol
_atom_site_label
_atom_site_fract_x
_atom_site_fract_y
_atom_site_fract_z
Si Si1 0.500000 0.750000 0.234323
Si Si2 0.774210 0.042682 0.355870
Si Si3 0.909959 0.381024 0.327897
Si Si4 0.654005 0.293658 0.877386
Si Si5 0.497110 0.862623 0.103708
O O1 0.314013 0.759209 0.311143
O O2 0.539814 0.802554 0.150685
O O3 0.750000 0.018846 0.500000
O O4 0.655603 0.097733 0.345825
O O5 0.984327 0.060339 0.315806
O O6 0.704545 0.000000 0.250000
O O7 0.939337 0.340860 0.208420
O O8 0.996175 0.354146 0.453445
O O9 0.691553 0.390081 0.345190
O O10 0.500000 0.250000 0.919900
O O11 0.750000 0.321610 0.000000
#
# Coordination Sequence:
#
# PCOD8165156 Si02
#       5
#     4   8   8   8   8
#     4  10  20  36  58  88 114 154 194 238 300 350
#     4  10  21  41  61  87 116 153 199 251 295 345
#     4   9  20  37  56  82 114 149 194 243 287 344
#     4  11  21  35  52  79 120 157 190 235 289 351
#     4   9  19  37  60  85 117 147 196 246 291 351
#
# _framework density 19.302239
#
# number of rings (size 3 to 8) (size 9 to 14) (size 15 to 20)
#    0.000    2.222    1.111    1.333    1.556    0.889 
#   16.000    0.000    0.000    0.000    0.000    0.000 
#    0.000    0.000    0.000    0.000    0.000    0.000 
#
# Total GULP energy -223075.223737 kJ/mol
# GULP energy per Si atom -12393.067985 kJ/mol
# Density = 1.925831 g / cm^3
# Si number density = 19.302239 Si / 1000 Ang^3
#
#
#
# Elastic Constant Matrix: (Units=GPa)
#
#
# Indices 1 2 3 4 5 6 
#
# 1 62.9798 33.2470 34.6464 0.0000 0.0000 0.0000
# 2 33.2470 82.1157 67.1038 0.0001 0.0000 0.0000
# 3 34.6464 67.1038 129.2770 -0.0001 0.0000 0.0000
# 4 0.0000 0.0001 -0.0001 27.3125 0.0001 0.0000
# 5 0.0000 0.0000 0.0000 0.0001 27.6794 0.0000
# 6 0.0000 0.0000 0.0000 0.0000 0.0000 28.8340
#
#
#
# Elastic Compliance Matrix: (Units=1/GPa)
#
#
# Indices 1 2 3 4 5 6 
#
# 1 0.020505 -0.006619 -0.002060 0.000000 0.000000 0.000000
# 2 -0.006619 0.023285 -0.010313 0.000000 0.000000 0.000000
# 3 -0.002060 -0.010313 0.013640 0.000000 0.000000 0.000000
# 4 0.000000 0.000000 0.000000 0.036613 0.000000 0.000000
# 5 0.000000 0.000000 0.000000 0.000000 0.036128 0.000000
# 6 0.000000 0.000000 0.000000 0.000000 0.000000 0.034681
#
#
# Mechanical properties :
#
#
# Convention : Reuss Voigt Hill
#
# Bulk Modulus (GPa) = 51.41922 60.48523 55.95223
# Shear Modulus (GPa) = 23.88691 26.05685 24.97188
#
# Velocity S-wave (km/s) = 3.52166 3.67814 3.60075
# Velocity P-wave (km/s) = 6.57517 7.03151 6.80717
#
# Compressibility (1/GPa) = 0.01944798
#
# Stress axis : x y z
#
# Youngs Moduli (GPa) = 48.76764 42.94540 73.31157
#
# Poissons Ratio (x) = 0.28426 0.15100
# Poissons Ratio (y) = 0.32280 0.75605
# Poissons Ratio (z) = 0.10045 0.44289
#
# Static dielectric constant tensor:
#      x y z
#    x 3.852750 0.000000 0.000000 
#    y 0.000000 3.345950 0.000000 
#    z 0.000000 0.000000 3.659460 
# 
# 
# High freq. dielectric constant tensor:
#      x y z
#    x 1.768790 0.000000 0.000000 
#    y 0.000000 1.721160 0.000000 
#    z 0.000000 0.000000 1.755040 
# 
# From -- ./inp_files/9080.got.cif
#   From: 2010.03.12/outbox.cif.g09.slc.cpg/sg24_5_cif.got.tgz:9080.got - 2010.04.14 03:06:53.
