data_PCOD8165045
_publ_section_title
;
Structure prediction by ZEFSAII (Michael W. Deem and Ramdas Pophale) SiO2 
 PCOD8165045
Probable space group: I 21 21 21
;
_chemical_formula_sum "Si O2"
_cell_formula_units_Z 60
_cell_length_a 21.030961
_cell_length_b 14.154332
_cell_length_c 11.471835
_cell_angle_alpha 90.000000
_cell_angle_beta 90.000000
_cell_angle_gamma 90.000000
_cell_volume 3414.926714
_symmetry_space_group_name_H-M "I 21 21 21"
_symmetry_group_IT_number 24
_symmetry_cell_setting 'orthorhombic'
loop_
_space_group_symop_operation_xyz
x,y,z
-x,1/2-y,z
x,-y,1/2-z
1/2-x,y,-z
1/2+x,1/2+y,1/2+z
1/2-x,-y,1/2+z
1/2+x,1/2-y,-z
-x,1/2+y,1/2-z
loop_
_atom_site_type_symbol
_atom_site_label
_atom_site_fract_x
_atom_site_fract_y
_atom_site_fract_z
Si Si1 0.958959 0.613909 0.051691
Si Si2 0.927904 0.265002 0.799685
Si Si3 0.043255 0.078380 0.958196
Si Si4 0.675802 0.945138 0.978804
Si Si5 0.498570 0.638901 0.702473
Si Si6 0.403375 0.565722 0.361796
Si Si7 0.610622 0.000000 0.750000
Si Si8 0.915280 0.210823 0.540863
O O1 0.927323 0.524994 0.984980
O O2 0.970394 0.585153 0.186131
O O3 0.911808 0.703726 0.051744
O O4 0.025748 0.641527 0.987525
O O5 0.885880 0.175116 0.837319
O O6 0.923820 0.269875 0.660765
O O7 0.000000 0.250000 0.842238
O O8 0.910346 0.362086 0.869988
O O9 0.036733 0.131467 0.081939
O O10 0.975703 0.056711 0.900605
O O11 0.656824 0.950696 0.843720
O O12 0.750000 0.944296 0.000000
O O13 0.648747 0.849186 0.036896
O O14 0.645917 0.036140 0.039906
O O15 0.500000 0.750000 0.734828
O O16 0.430254 0.585808 0.691388
O O17 0.392961 0.500000 0.250000
#
# Coordination Sequence:
#
# PCOD8165045 Si02
#       8
#     8   8   8   8   8   8   4   8
#     4  11  18  32  54  75 111 144 170 228 291 339
#     4  10  20  29  50  78 111 145 173 210 280 347
#     4  11  21  30  49  86 111 143 174 216 285 351
#     4  12  25  38  56  76 109 154 200 235 273 329
#     4  12  18  33  54  76 113 148 175 226 282 341
#     4  11  19  34  51  71 111 146 176 225 268 322
#     4  12  22  38  52  84 110 146 194 234 274 338
#     4  11  19  36  50  76 106 148 187 225 278 336
#
# _framework density 17.569922999999999
#
# number of rings (size 3 to 8) (size 9 to 14) (size 15 to 20)
#    0.000    0.800    9.333    1.200    2.800    0.000 
#    0.000    0.000    0.000    0.000    0.000    0.933 
#    8.000    0.000    0.000    0.000    0.000    0.000 
#
# Total GULP energy -371720.130807 kJ/mol
# GULP energy per Si atom -12390.671027 kJ/mol
# Density = 1.752993 g / cm^3
# Si number density = 17.569923 Si / 1000 Ang^3
#
#
#
# Elastic Constant Matrix: (Units=GPa)
#
#
# Indices 1 2 3 4 5 6 
#
# 1 53.3488 29.2370 14.4274 0.0000 0.0000 0.0000
# 2 29.2370 113.0580 32.4025 0.0000 0.0000 0.0000
# 3 14.4274 32.4025 108.4434 0.0000 0.0000 0.0000
# 4 0.0000 0.0000 0.0000 37.3594 0.0000 0.0000
# 5 0.0000 0.0000 0.0000 0.0000 11.5455 0.0000
# 6 0.0000 0.0000 0.0000 0.0000 0.0000 8.1862
#
#
#
# Elastic Compliance Matrix: (Units=1/GPa)
#
#
# Indices 1 2 3 4 5 6 
#
# 1 0.022017 -0.005309 -0.001343 0.000000 0.000000 0.000000
# 2 -0.005309 0.010953 -0.002567 0.000000 0.000000 0.000000
# 3 -0.001343 -0.002567 0.010167 0.000000 0.000000 0.000000
# 4 0.000000 0.000000 0.000000 0.026767 0.000000 0.000000
# 5 0.000000 0.000000 0.000000 0.000000 0.086614 0.000000
# 6 0.000000 0.000000 0.000000 0.000000 0.000000 0.122157
#
#
# Mechanical properties :
#
#
# Convention : Reuss Voigt Hill
#
# Bulk Modulus (GPa) = 40.48423 47.44267 43.96345
# Shear Modulus (GPa) = 16.37487 24.67043 20.52265
#
# Velocity S-wave (km/s) = 3.05615 3.75124 3.42139
# Velocity P-wave (km/s) = 5.96198 6.76928 6.37842
#
# Compressibility (1/GPa) = 0.02470097
#
# Stress axis : x y z
#
# Youngs Moduli (GPa) = 45.41915 91.29536 98.35795
#
# Poissons Ratio (x) = 0.48467 0.13209
# Poissons Ratio (y) = 0.24112 0.25244
# Poissons Ratio (z) = 0.06099 0.23432
#
# Static dielectric constant tensor:
#      x y z
#    x 2.659030 0.000000 0.000000 
#    y 0.000000 3.743200 0.000000 
#    z 0.000000 0.000000 3.541820 
# 
# 
# High freq. dielectric constant tensor:
#      x y z
#    x 1.586130 0.000000 0.000000 
#    y 0.000000 1.699440 0.000000 
#    z 0.000000 0.000000 1.704600 
# 
# From -- ./inp_files/22338.got.cif
#   From: 2010.03.12/outbox.cif.g09.slc.cpg/sg24_12_cif.got.tgz:22338.got - 2010.04.14 03:06:53.
