data_PCOD8165967
_publ_section_title
;
Structure prediction by ZEFSAII (Michael W. Deem and Ramdas Pophale) SiO2 
 PCOD8165967
Probable space group: I 21 21 21
;
_chemical_formula_sum "Si O2"
_cell_formula_units_Z 64
_cell_length_a 9.574391
_cell_length_b 21.025352
_cell_length_c 14.549042
_cell_angle_alpha 90.000000
_cell_angle_beta 90.000000
_cell_angle_gamma 90.000000
_cell_volume 2928.794041
_symmetry_space_group_name_H-M "I 21 21 21"
_symmetry_group_IT_number 24
_symmetry_cell_setting 'orthorhombic'
loop_
_space_group_symop_operation_xyz
x,y,z
-x,1/2-y,z
x,-y,1/2-z
1/2-x,y,-z
1/2+x,1/2+y,1/2+z
1/2-x,-y,1/2+z
1/2+x,1/2-y,-z
-x,1/2+y,1/2-z
loop_
_atom_site_type_symbol
_atom_site_label
_atom_site_fract_x
_atom_site_fract_y
_atom_site_fract_z
Si Si1 0.080846 0.933556 0.205787
Si Si2 0.610544 0.546467 0.467596
Si Si3 0.609895 0.569776 0.261871
Si Si4 0.202847 0.724481 0.397853
Si Si5 0.416709 0.310308 0.242606
Si Si6 0.427085 0.848847 0.624396
Si Si7 0.608126 0.802031 0.053409
Si Si8 0.917396 0.063927 0.487443
O O1 0.251295 0.928824 0.196324
O O2 0.039984 0.878646 0.276540
O O3 0.984945 0.928728 0.114539
O O4 0.039472 0.000000 0.250000
O O5 0.750000 0.508792 0.500000
O O6 0.647198 0.578757 0.369705
O O7 0.583758 0.600502 0.542706
O O8 0.484187 0.496566 0.461066
O O9 0.538683 0.500000 0.250000
O O10 0.504095 0.625796 0.237747
O O11 0.250000 0.715405 0.500000
O O12 0.294218 0.679600 0.330437
O O13 0.205580 0.799954 0.369673
O O14 0.050553 0.697160 0.398761
O O15 0.500000 0.250000 0.202341
O O16 0.353928 0.290018 0.340599
O O17 0.500000 0.750000 0.016160
O O18 0.750000 0.793581 0.000000
O O19 0.540590 0.871567 0.039111
O O20 0.750000 0.054986 0.500000
#
# Coordination Sequence:
#
# PCOD8165967 Si02
#       8
#     8   8   8   8   8   8   8   8
#     4  11  22  46  69 102 137 185 241 292 362 443
#     4  12  22  42  71 104 144 186 245 297 362 438
#     4  11  23  41  70 103 139 187 241 300 364 441
#     4  11  26  42  67 102 145 192 242 292 372 446
#     4  11  25  44  67 102 142 179 239 304 368 437
#     4  11  24  42  69 100 142 197 237 297 370 442
#     4  10  25  47  69  97 131 177 233 297 367 426
#     4  11  26  45  71 101 146 189 242 307 378 439
#
# _framework density 21.851997999999998
#
# number of rings (size 3 to 8) (size 9 to 14) (size 15 to 20)
#    0.000    1.000    2.500    3.375    7.000    5.000 
#    0.000    0.000    0.000    0.000    0.000    0.000 
#    0.000    0.000    0.000    0.000    0.000    0.000 
#
# Total GULP energy -396537.709909 kJ/mol
# GULP energy per Si atom -12391.803435 kJ/mol
# Density = 2.180226 g / cm^3
# Si number density = 21.851998 Si / 1000 Ang^3
#
#
#
# Elastic Constant Matrix: (Units=GPa)
#
#
# Indices 1 2 3 4 5 6 
#
# 1 104.7496 54.6354 38.2849 0.0000 0.0000 0.0000
# 2 54.6354 129.6967 12.5672 -0.0004 0.0000 0.0000
# 3 38.2849 12.5672 101.7875 -0.0006 -0.0001 0.0000
# 4 0.0000 -0.0004 -0.0006 20.3033 -0.0001 0.0000
# 5 0.0000 0.0000 -0.0001 -0.0001 22.2429 0.0000
# 6 0.0000 0.0000 0.0000 0.0000 0.0000 33.6376
#
#
#
# Elastic Compliance Matrix: (Units=1/GPa)
#
#
# Indices 1 2 3 4 5 6 
#
# 1 0.014102 -0.005492 -0.004626 0.000000 0.000000 0.000000
# 2 -0.005492 0.009943 0.000838 0.000000 0.000000 0.000000
# 3 -0.004626 0.000838 0.011461 0.000000 0.000000 0.000000
# 4 0.000000 0.000000 0.000000 0.049253 0.000000 0.000000
# 5 0.000000 0.000000 0.000000 0.000000 0.044958 0.000000
# 6 0.000000 0.000000 0.000000 0.000000 0.000000 0.029729
#
#
# Mechanical properties :
#
#
# Convention : Reuss Voigt Hill
#
# Bulk Modulus (GPa) = 59.01308 60.80099 59.90703
# Shear Modulus (GPa) = 27.22505 30.61982 28.92243
#
# Velocity S-wave (km/s) = 3.53354 3.74737 3.64202
# Velocity P-wave (km/s) = 6.61153 6.82701 6.72013
#
# Compressibility (1/GPa) = 0.01694540
#
# Stress axis : x y z
#
# Youngs Moduli (GPa) = 70.91176 100.57589 87.25342
#
# Poissons Ratio (x) = 0.55239 0.40364
# Poissons Ratio (y) = 0.38947 -0.07314
# Poissons Ratio (z) = 0.32804 -0.08430
#
# Static dielectric constant tensor:
#      x y z
#    x 3.931630 0.000000 0.000000 
#    y 0.000000 4.286560 0.000000 
#    z 0.000000 0.000000 4.024350 
# 
# 
# High freq. dielectric constant tensor:
#      x y z
#    x 1.852630 0.000000 0.000000 
#    y 0.000000 1.873750 0.000000 
#    z 0.000000 0.000000 1.867370 
# 
# From -- ./inp_files/25204.got.cif
#   From: 2010.03.12/outbox.cif.g09.slc.cpg/sg24_13_cif.got.tgz:25204.got - 2010.04.14 03:06:53.
