data_PCOD8165108
_publ_section_title
;
Structure prediction by ZEFSAII (Michael W. Deem and Ramdas Pophale) SiO2 
 PCOD8165108
Probable space group: I 21 21 21
;
_chemical_formula_sum "Si O2"
_cell_formula_units_Z 40
_cell_length_a 9.585599
_cell_length_b 17.674769
_cell_length_c 11.938060
_cell_angle_alpha 90.000000
_cell_angle_beta 90.000000
_cell_angle_gamma 90.000000
_cell_volume 2022.584901
_symmetry_space_group_name_H-M "I 21 21 21"
_symmetry_group_IT_number 24
_symmetry_cell_setting 'orthorhombic'
loop_
_space_group_symop_operation_xyz
x,y,z
-x,1/2-y,z
x,-y,1/2-z
1/2-x,y,-z
1/2+x,1/2+y,1/2+z
1/2-x,-y,1/2+z
1/2+x,1/2-y,-z
-x,1/2+y,1/2-z
loop_
_atom_site_type_symbol
_atom_site_label
_atom_site_fract_x
_atom_site_fract_y
_atom_site_fract_z
Si Si1 0.065806 0.889213 0.256179
Si Si2 0.608156 0.511237 0.942252
Si Si3 0.847776 0.959089 0.908379
Si Si4 0.244751 0.609749 0.298902
Si Si5 0.160511 0.761465 0.400253
O O1 0.133232 0.917577 0.140659
O O2 0.150260 0.813772 0.289617
O O3 0.901803 0.881583 0.233393
O O4 0.064131 0.942563 0.364498
O O5 0.750000 0.489038 0.000000
O O6 0.500314 0.525687 0.042756
O O7 0.859194 0.902878 0.800674
O O8 0.764338 0.036967 0.878367
O O9 0.750000 0.918632 0.000000
O O10 0.253070 0.686679 0.371108
O O11 0.250000 0.800472 0.500000
O O12 0.000000 0.750000 0.440922
#
# Coordination Sequence:
#
# PCOD8165108 Si02
#       5
#     8   8   8   8   8
#     4  10  20  38  57  83 120 155 189 240 302 353
#     4  11  22  36  60  86 118 155 193 246 304 349
#     4  11  18  35  62  85 113 147 200 250 285 340
#     4  10  20  34  61  90 111 147 205 244 285 348
#     4  10  22  39  59  84 120 156 190 243 300 354
#
# _framework density 19.776672999999999
#
# number of rings (size 3 to 8) (size 9 to 14) (size 15 to 20)
#    0.000    1.600    4.000    2.400    2.800    3.200 
#    3.600    1.000    0.000    0.000    0.000    0.000 
#    0.000    0.000    0.000    0.000    0.000    0.000 
#
# Total GULP energy -247763.191871 kJ/mol
# GULP energy per Si atom -12388.159594 kJ/mol
# Density = 1.973166 g / cm^3
# Si number density = 19.776673 Si / 1000 Ang^3
#
#
#
# Elastic Constant Matrix: (Units=GPa)
#
#
# Indices 1 2 3 4 5 6 
#
# 1 60.9589 15.9806 27.1720 0.0000 0.0000 0.0000
# 2 15.9806 75.6551 23.8061 0.0000 0.0000 0.0000
# 3 27.1720 23.8061 92.8043 0.0001 0.0000 0.0001
# 4 0.0000 0.0000 0.0001 11.6753 0.0000 0.0000
# 5 0.0000 0.0000 0.0000 0.0000 32.1837 0.0000
# 6 0.0000 0.0000 0.0001 0.0000 0.0000 5.1447
#
#
#
# Elastic Compliance Matrix: (Units=1/GPa)
#
#
# Indices 1 2 3 4 5 6 
#
# 1 0.019292 -0.002499 -0.005007 0.000000 0.000000 0.000000
# 2 -0.002499 0.014702 -0.003040 0.000000 0.000000 0.000000
# 3 -0.005007 -0.003040 0.013021 0.000000 0.000000 0.000000
# 4 0.000000 0.000000 0.000000 0.085651 0.000000 -0.000001
# 5 0.000000 0.000000 0.000000 0.000000 0.031072 0.000000
# 6 0.000000 0.000000 0.000000 -0.000001 0.000000 0.194373
#
#
# Mechanical properties :
#
#
# Convention : Reuss Voigt Hill
#
# Bulk Modulus (GPa) = 38.57634 40.37062 39.47348
# Shear Modulus (GPa) = 12.89177 20.63137 16.76157
#
# Velocity S-wave (km/s) = 2.55594 3.23339 2.91442
# Velocity P-wave (km/s) = 5.31590 5.86492 5.59715
#
# Compressibility (1/GPa) = 0.02592263
#
# Stress axis : x y z
#
# Youngs Moduli (GPa) = 51.83584 68.01657 76.79814
#
# Poissons Ratio (x) = 0.17000 0.38455
# Poissons Ratio (y) = 0.12956 0.23344
# Poissons Ratio (z) = 0.25955 0.20675
#
# Static dielectric constant tensor:
#      x y z
#    x 3.430770 0.000000 0.000000 
#    y 0.000000 3.579890 0.000000 
#    z 0.000000 0.000000 3.732630 
# 
# 
# High freq. dielectric constant tensor:
#      x y z
#    x 1.756210 0.000000 0.000000 
#    y 0.000000 1.746090 0.000000 
#    z 0.000000 0.000000 1.781430 
# 
# From -- ./inp_files/11019.got.cif
#   From: 2010.03.12/outbox.cif.g09.slc.cpg/sg24_6_cif.got.tgz:11019.got - 2010.04.14 03:06:53.
