data_PCOD8165427
_publ_section_title
;
Structure prediction by ZEFSAII (Michael W. Deem and Ramdas Pophale) SiO2 
 PCOD8165427
Probable space group: I 21 21 21
;
_chemical_formula_sum "Si O2"
_cell_formula_units_Z 64
_cell_length_a 8.735496
_cell_length_b 13.645084
_cell_length_c 24.424617
_cell_angle_alpha 90.000000
_cell_angle_beta 90.000000
_cell_angle_gamma 90.000000
_cell_volume 2911.330734
_symmetry_space_group_name_H-M "I 21 21 21"
_symmetry_group_IT_number 24
_symmetry_cell_setting 'orthorhombic'
loop_
_space_group_symop_operation_xyz
x,y,z
-x,1/2-y,z
x,-y,1/2-z
1/2-x,y,-z
1/2+x,1/2+y,1/2+z
1/2-x,-y,1/2+z
1/2+x,1/2-y,-z
-x,1/2+y,1/2-z
loop_
_atom_site_type_symbol
_atom_site_label
_atom_site_fract_x
_atom_site_fract_y
_atom_site_fract_z
Si Si1 0.743003 0.659285 0.659740
Si Si2 0.909412 0.469080 0.662585
Si Si3 0.273133 0.065525 0.561476
Si Si4 0.748788 0.894827 0.158588
Si Si5 0.035091 0.459578 0.121186
Si Si6 0.674887 0.282290 0.272353
Si Si7 0.828704 0.211550 0.059552
Si Si8 0.324193 0.718708 0.945902
O O1 0.874019 0.580988 0.679887
O O2 0.577857 0.609333 0.655317
O O3 0.746058 0.728035 0.712901
O O4 0.767937 0.719695 0.602688
O O5 0.857678 0.479105 0.599516
O O6 0.811445 0.388569 0.697301
O O7 0.086138 0.445173 0.668271
O O8 0.250000 0.026900 0.500000
O O9 0.239297 0.180265 0.567973
O O10 0.441222 0.031855 0.580808
O O11 0.772373 0.798019 0.194282
O O12 0.780053 0.864342 0.096484
O O13 0.876279 0.978412 0.168104
O O14 0.157308 0.397043 0.085444
O O15 0.500000 0.250000 0.270258
O O16 0.000000 0.250000 0.051434
O O17 0.750000 0.210033 0.000000
O O18 0.500000 0.750000 0.952647
O O19 0.250000 0.673665 0.000000
#
# Coordination Sequence:
#
# PCOD8165427 Si02
#       8
#     8   8   8   8   8   8   8   8
#     4  10  23  46  68  92 128 173 220 269 325 389
#     4  10  22  39  66  95 127 172 219 273 325 388
#     4  10  21  37  59  88 132 176 216 259 324 395
#     4  11  23  40  66  99 135 166 217 272 332 393
#     4  10  23  43  63  99 131 166 217 269 328 393
#     4  10  22  42  68  95 128 168 216 269 325 392
#     4  10  24  45  69  95 129 169 219 270 324 383
#     4  11  23  36  58  90 136 180 220 260 323 400
#
# _framework density 21.983073999999998
#
# number of rings (size 3 to 8) (size 9 to 14) (size 15 to 20)
#    0.000    1.750    2.500    0.375    3.500    8.500 
#    0.000   16.250    0.000    0.000    0.000    0.000 
#    0.000    0.000    0.000    0.000    0.000    0.000 
#
# Total GULP energy -396516.161677 kJ/mol
# GULP energy per Si atom -12391.130052 kJ/mol
# Density = 2.193304 g / cm^3
# Si number density = 21.983074 Si / 1000 Ang^3
#
#
#
# Elastic Constant Matrix: (Units=GPa)
#
#
# Indices 1 2 3 4 5 6 
#
# 1 61.6055 24.8438 30.6394 0.0000 0.0000 0.0000
# 2 24.8438 80.3667 21.3210 0.0000 0.0000 0.0000
# 3 30.6394 21.3210 109.0789 0.0000 0.0000 0.0000
# 4 0.0000 0.0000 0.0000 19.8592 0.0000 0.0000
# 5 0.0000 0.0000 0.0000 0.0000 22.3474 0.0000
# 6 0.0000 0.0000 0.0000 0.0000 0.0000 32.1731
#
#
#
# Elastic Compliance Matrix: (Units=1/GPa)
#
#
# Indices 1 2 3 4 5 6 
#
# 1 0.020690 -0.005119 -0.004811 0.000000 0.000000 0.000000
# 2 -0.005119 0.014390 -0.001375 0.000000 0.000000 0.000000
# 3 -0.004811 -0.001375 0.010788 0.000000 0.000000 0.000000
# 4 0.000000 0.000000 0.000000 0.050355 0.000000 0.000000
# 5 0.000000 0.000000 0.000000 0.000000 0.044748 0.000000
# 6 0.000000 0.000000 0.000000 0.000000 0.000000 0.031082
#
#
# Mechanical properties :
#
#
# Convention : Reuss Voigt Hill
#
# Bulk Modulus (GPa) = 42.99713 44.96216 43.97965
# Shear Modulus (GPa) = 24.70177 26.49237 25.59707
#
# Velocity S-wave (km/s) = 3.35576 3.47526 3.41603
# Velocity P-wave (km/s) = 5.88358 6.04985 5.96729
#
# Compressibility (1/GPa) = 0.02325736
#
# Stress axis : x y z
#
# Youngs Moduli (GPa) = 48.33367 69.49139 92.69798
#
# Poissons Ratio (x) = 0.35576 0.44596
# Poissons Ratio (y) = 0.24744 0.12744
# Poissons Ratio (z) = 0.23253 0.09553
#
# Static dielectric constant tensor:
#      x y z
#    x 3.802590 0.000000 0.000000 
#    y 0.000000 4.403960 0.000000 
#    z 0.000000 0.000000 4.190400 
# 
# 
# High freq. dielectric constant tensor:
#      x y z
#    x 1.847560 0.000000 0.000000 
#    y 0.000000 1.877520 0.000000 
#    z 0.000000 0.000000 1.863490 
# 
# From -- ./inp_files/35300.got.cif
#   From: 2010.03.12/outbox.cif.g09.slc.cpg/sg24_18_cif.got.tgz:35300.got - 2010.04.14 03:06:53.
