data_PCOD8165579
_publ_section_title
;
Structure prediction by ZEFSAII (Michael W. Deem and Ramdas Pophale) SiO2 
 PCOD8165579
Probable space group: I 21 21 21
;
_chemical_formula_sum "Si O2"
_cell_formula_units_Z 36
_cell_length_a 9.620831
_cell_length_b 11.895592
_cell_length_c 15.767658
_cell_angle_alpha 90.000000
_cell_angle_beta 90.000000
_cell_angle_gamma 90.000000
_cell_volume 1804.537193
_symmetry_space_group_name_H-M "I 21 21 21"
_symmetry_group_IT_number 24
_symmetry_cell_setting 'orthorhombic'
loop_
_space_group_symop_operation_xyz
x,y,z
-x,1/2-y,z
x,-y,1/2-z
1/2-x,y,-z
1/2+x,1/2+y,1/2+z
1/2-x,-y,1/2+z
1/2+x,1/2-y,-z
-x,1/2+y,1/2-z
loop_
_atom_site_type_symbol
_atom_site_label
_atom_site_fract_x
_atom_site_fract_y
_atom_site_fract_z
Si Si1 0.472724 0.624029 0.484485
Si Si2 0.263766 0.443568 0.876180
Si Si3 0.750000 0.500950 0.000000
Si Si4 0.831776 0.156358 0.296062
Si Si5 0.645239 0.595516 0.823027
O O1 0.500000 0.750000 0.515397
O O2 0.381268 0.555218 0.551614
O O3 0.381139 0.617531 0.398970
O O4 0.622351 0.572671 0.467716
O O5 0.229738 0.572727 0.848516
O O6 0.333747 0.372697 0.802310
O O7 0.797764 0.567912 0.083425
O O8 0.781605 0.285245 0.301629
O O9 0.983880 0.125412 0.331074
O O10 0.674728 0.500000 0.750000
#
# Coordination Sequence:
#
# PCOD8165579 Si02
#       5
#     8   8   4   8   8
#     4  11  24  38  65  97 131 168 219 275 328 387
#     4  10  21  43  66  93 125 177 220 263 329 396
#     4  12  24  44  62 102 132 166 220 268 332 386
#     4  10  21  42  66  91 130 175 218 266 330 391
#     4  11  23  40  69  97 128 173 221 272 325 398
#
# _framework density 19.949712999999999
#
# number of rings (size 3 to 8) (size 9 to 14) (size 15 to 20)
#    0.000    1.333    4.444    1.333    9.333    1.778 
#    4.000    0.000    0.000    0.000    0.000    0.000 
#    0.000    0.000    0.000    0.000    0.000    0.000 
#
# Total GULP energy -223016.569642 kJ/mol
# GULP energy per Si atom -12389.809425 kJ/mol
# Density = 1.990431 g / cm^3
# Si number density = 19.949713 Si / 1000 Ang^3
#
#
#
# Elastic Constant Matrix: (Units=GPa)
#
#
# Indices 1 2 3 4 5 6 
#
# 1 109.5976 27.1137 38.1360 0.0000 0.0000 0.0000
# 2 27.1137 160.0804 54.8257 0.0000 0.0000 0.0000
# 3 38.1360 54.8257 110.3112 0.0000 0.0000 0.0000
# 4 0.0000 0.0000 0.0000 20.2931 0.0000 0.0000
# 5 0.0000 0.0000 0.0000 0.0000 27.3248 0.0000
# 6 0.0000 0.0000 0.0000 0.0000 0.0000 14.4923
#
#
#
# Elastic Compliance Matrix: (Units=1/GPa)
#
#
# Indices 1 2 3 4 5 6 
#
# 1 0.010426 -0.000640 -0.003286 0.000000 0.000000 0.000000
# 2 -0.000640 0.007568 -0.003540 0.000000 0.000000 0.000000
# 3 -0.003286 -0.003540 0.011961 0.000000 0.000000 0.000000
# 4 0.000000 0.000000 0.000000 0.049278 0.000000 0.000000
# 5 0.000000 0.000000 0.000000 0.000000 0.036597 0.000000
# 6 0.000000 0.000000 0.000000 0.000000 0.000000 0.069002
#
#
# Mechanical properties :
#
#
# Convention : Reuss Voigt Hill
#
# Bulk Modulus (GPa) = 66.57042 68.90446 67.73744
# Shear Modulus (GPa) = 24.41746 29.74961 27.08353
#
# Velocity S-wave (km/s) = 3.50230 3.86583 3.68855
# Velocity P-wave (km/s) = 7.05665 7.38514 7.22276
#
# Compressibility (1/GPa) = 0.01502169
#
# Stress axis : x y z
#
# Youngs Moduli (GPa) = 95.91220 132.14096 83.60761
#
# Poissons Ratio (x) = 0.08463 0.27475
# Poissons Ratio (y) = 0.06143 0.29595
# Poissons Ratio (z) = 0.31518 0.46775
#
# Static dielectric constant tensor:
#      x y z
#    x 3.637350 0.000000 0.000000 
#    y 0.000000 4.069360 0.000000 
#    z 0.000000 0.000000 3.702750 
# 
# 
# High freq. dielectric constant tensor:
#      x y z
#    x 1.761220 0.000000 0.000000 
#    y 0.000000 1.786980 0.000000 
#    z 0.000000 0.000000 1.783320 
# 
# From -- ./inp_files/25539.got.cif
#   From: 2010.03.12/outbox.cif.g09.slc.cpg/sg24_13_cif.got.tgz:25539.got - 2010.04.14 03:06:53.
