data_PCOD8165922
_publ_section_title
;
Structure prediction by ZEFSAII (Michael W. Deem and Ramdas Pophale) SiO2 
 PCOD8165922
Probable space group: I 21 21 21
;
_chemical_formula_sum "Si O2"
_cell_formula_units_Z 64
_cell_length_a 26.551290
_cell_length_b 13.060849
_cell_length_c 9.348806
_cell_angle_alpha 90.000000
_cell_angle_beta 90.000000
_cell_angle_gamma 90.000000
_cell_volume 3242.001283
_symmetry_space_group_name_H-M "I 21 21 21"
_symmetry_group_IT_number 24
_symmetry_cell_setting 'orthorhombic'
loop_
_space_group_symop_operation_xyz
x,y,z
-x,1/2-y,z
x,-y,1/2-z
1/2-x,y,-z
1/2+x,1/2+y,1/2+z
1/2-x,-y,1/2+z
1/2+x,1/2-y,-z
-x,1/2+y,1/2-z
loop_
_atom_site_type_symbol
_atom_site_label
_atom_site_fract_x
_atom_site_fract_y
_atom_site_fract_z
Si Si1 0.861632 0.201986 0.947089
Si Si2 0.548188 0.688600 0.117336
Si Si3 0.033499 0.010487 0.421429
Si Si4 0.282253 0.620088 0.247478
Si Si5 0.831302 0.876726 0.256451
Si Si6 0.560882 0.037278 0.099773
Si Si7 0.604081 0.416831 0.146550
Si Si8 0.369615 0.349031 0.461010
O O1 0.809627 0.155608 0.890964
O O2 0.911753 0.147654 0.880813
O O3 0.861806 0.321488 0.903298
O O4 0.860836 0.176248 0.113854
O O5 0.500000 0.750000 0.166511
O O6 0.557762 0.613470 0.250079
O O7 0.597042 0.758018 0.099860
O O8 0.534063 0.629262 0.970041
O O9 0.037184 0.000000 0.250000
O O10 0.081989 0.960217 0.497755
O O11 0.981488 0.958654 0.476540
O O12 0.277568 0.500000 0.250000
O O13 0.225906 0.664624 0.246121
O O14 0.314714 0.656262 0.111794
O O15 0.834274 0.000000 0.250000
O O16 0.862403 0.829410 0.127000
O O17 0.536511 0.000000 0.250000
O O18 0.605638 0.959476 0.061318
O O19 0.633974 0.500000 0.250000
#
# Coordination Sequence:
#
# PCOD8165922 Si02
#       8
#     8   8   8   8   8   8   8   8
#     4  12  22  37  64  93 124 171 213 257 317 376
#     4  11  22  40  64  88 120 165 214 253 303 374
#     4  11  27  42  59  90 124 162 208 266 320 369
#     4  11  20  39  61  93 130 169 204 249 308 396
#     4  11  24  36  58  97 141 166 200 255 323 381
#     4  12  21  37  59  89 131 166 213 246 297 380
#     4  10  24  44  65  88 116 168 221 269 307 368
#     4  12  21  37  60  91 128 173 207 249 305 379
#
# _framework density 19.740894000000001
#
# number of rings (size 3 to 8) (size 9 to 14) (size 15 to 20)
#    0.000    0.750    6.250    1.875    5.250    2.000 
#    0.000    0.000    0.000    0.000   13.000    0.000 
#    0.000    0.000    0.000    0.000    0.000    0.000 
#
# Total GULP energy -396703.601437 kJ/mol
# GULP energy per Si atom -12396.987545 kJ/mol
# Density = 1.969596 g / cm^3
# Si number density = 19.740894 Si / 1000 Ang^3
#
#
#
# Elastic Constant Matrix: (Units=GPa)
#
#
# Indices 1 2 3 4 5 6 
#
# 1 59.0893 20.9282 15.7423 0.0000 0.0000 0.0000
# 2 20.9282 86.2598 19.8143 0.0000 0.0000 0.0000
# 3 15.7423 19.8143 142.0885 0.0000 0.0000 0.0000
# 4 0.0000 0.0000 0.0000 23.7026 0.0000 0.0000
# 5 0.0000 0.0000 0.0000 0.0000 58.1941 0.0000
# 6 0.0000 0.0000 0.0000 0.0000 0.0000 22.1843
#
#
#
# Elastic Compliance Matrix: (Units=1/GPa)
#
#
# Indices 1 2 3 4 5 6 
#
# 1 0.018817 -0.004222 -0.001496 0.000000 0.000000 0.000000
# 2 -0.004222 0.012924 -0.001334 0.000000 0.000000 0.000000
# 3 -0.001496 -0.001334 0.007390 0.000000 0.000000 0.000000
# 4 0.000000 0.000000 0.000000 0.042189 0.000000 0.000000
# 5 0.000000 0.000000 0.000000 0.000000 0.017184 0.000000
# 6 0.000000 0.000000 0.000000 0.000000 0.000000 0.045077
#
#
# Mechanical properties :
#
#
# Convention : Reuss Voigt Hill
#
# Bulk Modulus (GPa) = 39.95824 44.48966 42.22395
# Shear Modulus (GPa) = 30.11546 36.21307 33.16426
#
# Velocity S-wave (km/s) = 3.91005 4.28766 4.10320
# Velocity P-wave (km/s) = 6.37730 6.86278 6.62449
#
# Compressibility (1/GPa) = 0.02502613
#
# Stress axis : x y z
#
# Youngs Moduli (GPa) = 53.14235 77.37726 135.32322
#
# Poissons Ratio (x) = 0.32667 0.20246
# Poissons Ratio (y) = 0.22435 0.18059
# Poissons Ratio (z) = 0.07951 0.10326
#
# Static dielectric constant tensor:
#      x y z
#    x 3.494660 0.000000 0.000000 
#    y 0.000000 3.580970 0.000000 
#    z 0.000000 0.000000 3.684990 
# 
# 
# High freq. dielectric constant tensor:
#      x y z
#    x 1.755120 0.000000 0.000000 
#    y 0.000000 1.754600 0.000000 
#    z 0.000000 0.000000 1.780560 
# 
# From -- ./inp_files/17001.got.cif
#   From: 2010.03.12/outbox.cif.g09.slc.cpg/sg24_9_cif.got.tgz:17001.got - 2010.04.14 03:06:53.
