data_PCOD8165222
_publ_section_title
;
Structure prediction by ZEFSAII (Michael W. Deem and Ramdas Pophale) SiO2 
 PCOD8165222
Probable space group: I 21 21 21
;
_chemical_formula_sum "Si O2"
_cell_formula_units_Z 60
_cell_length_a 11.408575
_cell_length_b 12.405143
_cell_length_c 20.400384
_cell_angle_alpha 90.000000
_cell_angle_beta 90.000000
_cell_angle_gamma 90.000000
_cell_volume 2887.164433
_symmetry_space_group_name_H-M "I 21 21 21"
_symmetry_group_IT_number 24
_symmetry_cell_setting 'orthorhombic'
loop_
_space_group_symop_operation_xyz
x,y,z
-x,1/2-y,z
x,-y,1/2-z
1/2-x,y,-z
1/2+x,1/2+y,1/2+z
1/2-x,-y,1/2+z
1/2+x,1/2-y,-z
-x,1/2+y,1/2-z
loop_
_atom_site_type_symbol
_atom_site_label
_atom_site_fract_x
_atom_site_fract_y
_atom_site_fract_z
Si Si1 0.223288 0.099739 0.424487
Si Si2 0.679967 0.877821 0.731805
Si Si3 0.238531 0.681670 0.128054
Si Si4 0.853633 0.001552 0.946715
Si Si5 0.520852 0.862718 0.962112
Si Si6 0.500000 0.250000 0.860382
Si Si7 0.379261 0.305364 0.144126
Si Si8 0.717039 0.357832 0.924225
O O1 0.250000 0.118111 0.500000
O O2 0.288281 0.196813 0.385455
O O3 0.083879 0.110687 0.412630
O O4 0.252416 0.979096 0.402279
O O5 0.689398 0.812397 0.798892
O O6 0.579477 0.828617 0.684777
O O7 0.809928 0.871598 0.699977
O O8 0.646909 0.000000 0.750000
O O9 0.328939 0.584916 0.111886
O O10 0.137176 0.651708 0.078443
O O11 0.896619 0.114105 0.916963
O O12 0.750000 0.020541 0.000000
O O13 0.967276 0.957929 0.985125
O O14 0.500000 0.750000 0.000353
O O15 0.582011 0.324095 0.907763
O O16 0.500000 0.250000 0.168646
O O17 0.297524 0.208927 0.123230
O O18 0.750000 0.337447 0.000000
#
# Coordination Sequence:
#
# PCOD8165222 Si02
#       8
#     8   8   8   8   8   4   8   8
#     4  10  21  36  58  94 132 155 200 264 335 391
#     4  11  24  45  67  94 129 173 228 278 319 395
#     4  10  20  38  65  90 120 163 207 266 324 378
#     4  10  20  37  63  91 122 160 210 264 323 391
#     4   9  19  33  60  97 126 155 203 261 335 391
#     4  10  26  40  66 100 128 172 230 270 332 400
#     4  11  25  44  61  90 127 175 226 262 320 392
#     4  10  24  41  62  94 133 172 210 271 336 395
#
# _framework density 20.781637
#
# number of rings (size 3 to 8) (size 9 to 14) (size 15 to 20)
#    0.000    1.867    1.333    2.400    9.333    1.067 
#    0.000    5.333    0.000    0.000    0.000    0.000 
#    0.000    0.000    0.000    0.000    0.000    0.000 
#
# Total GULP energy -371681.141999 kJ/mol
# GULP energy per Si atom -12389.371400 kJ/mol
# Density = 2.073434 g / cm^3
# Si number density = 20.781637 Si / 1000 Ang^3
#
#
#
# Elastic Constant Matrix: (Units=GPa)
#
#
# Indices 1 2 3 4 5 6 
#
# 1 69.8277 21.8886 22.6771 0.0000 0.0000 0.0000
# 2 21.8886 129.0543 56.5288 0.0000 0.0000 0.0000
# 3 22.6771 56.5288 78.4754 0.0000 0.0000 0.0000
# 4 0.0000 0.0000 0.0000 28.7392 0.0000 0.0000
# 5 0.0000 0.0000 0.0000 0.0000 4.6491 0.0000
# 6 0.0000 0.0000 0.0000 0.0000 0.0000 25.7874
#
#
#
# Elastic Compliance Matrix: (Units=1/GPa)
#
#
# Indices 1 2 3 4 5 6 
#
# 1 0.015892 -0.000999 -0.003873 0.000000 0.000000 0.000000
# 2 -0.000999 0.011383 -0.007911 0.000000 0.000000 0.000000
# 3 -0.003873 -0.007911 0.019561 0.000000 0.000000 0.000000
# 4 0.000000 0.000000 0.000000 0.034796 0.000000 0.000000
# 5 0.000000 0.000000 0.000000 0.000000 0.215093 0.000000
# 6 0.000000 0.000000 0.000000 0.000000 0.000000 0.038779
#
#
# Mechanical properties :
#
#
# Convention : Reuss Voigt Hill
#
# Bulk Modulus (GPa) = 47.01431 53.28293 50.14862
# Shear Modulus (GPa) = 13.58107 23.58600 18.58354
#
# Velocity S-wave (km/s) = 2.55916 3.37255 2.99361
# Velocity P-wave (km/s) = 5.60398 6.39222 6.01103
#
# Compressibility (1/GPa) = 0.02127012
#
# Stress axis : x y z
#
# Youngs Moduli (GPa) = 62.92551 87.84698 51.12298
#
# Poissons Ratio (x) = 0.08777 0.19798
# Poissons Ratio (y) = 0.06287 0.40444
# Poissons Ratio (z) = 0.24369 0.69498
#
# Static dielectric constant tensor:
#      x y z
#    x 3.968890 0.000000 0.000000 
#    y 0.000000 4.189380 0.000000 
#    z 0.000000 0.000000 3.731100 
# 
# 
# High freq. dielectric constant tensor:
#      x y z
#    x 1.803780 0.000000 0.000000 
#    y 0.000000 1.835450 0.000000 
#    z 0.000000 0.000000 1.789580 
# 
# From -- ./inp_files/33431.got.cif
#   From: 2010.03.12/outbox.cif.g09.slc.cpg/sg24_17_cif.got.tgz:33431.got - 2010.04.14 03:06:53.
