data_PCOD8165895
_publ_section_title
;
Structure prediction by ZEFSAII (Michael W. Deem and Ramdas Pophale) SiO2 
 PCOD8165895
Probable space group: I 21 21 21
;
_chemical_formula_sum "Si O2"
_cell_formula_units_Z 40
_cell_length_a 25.602391
_cell_length_b 7.396369
_cell_length_c 9.888205
_cell_angle_alpha 90.000000
_cell_angle_beta 90.000000
_cell_angle_gamma 90.000000
_cell_volume 1872.477281
_symmetry_space_group_name_H-M "I 21 21 21"
_symmetry_group_IT_number 24
_symmetry_cell_setting 'orthorhombic'
loop_
_space_group_symop_operation_xyz
x,y,z
-x,1/2-y,z
x,-y,1/2-z
1/2-x,y,-z
1/2+x,1/2+y,1/2+z
1/2-x,-y,1/2+z
1/2+x,1/2-y,-z
-x,1/2+y,1/2-z
loop_
_atom_site_type_symbol
_atom_site_label
_atom_site_fract_x
_atom_site_fract_y
_atom_site_fract_z
Si Si1 0.938874 0.709185 0.274868
Si Si2 0.058131 0.710346 0.758447
Si Si3 0.615613 0.728658 0.989646
Si Si4 0.699963 0.011479 0.089739
Si Si5 0.627244 0.324575 0.024659
O O1 0.931720 0.500000 0.250000
O O2 0.910774 0.768613 0.413318
O O3 0.000000 0.750000 0.279308
O O4 0.907538 0.804725 0.151765
O O5 0.072703 0.500000 0.750000
O O6 0.065678 0.781067 0.910833
O O7 0.096765 0.825136 0.665468
O O8 0.000000 0.750000 0.709156
O O9 0.641639 0.528905 0.979903
O O10 0.656923 0.863728 0.053630
O O11 0.680142 0.209931 0.044480
O O12 0.712898 0.000000 0.250000
O O13 0.750000 0.964911 0.000000
#
# Coordination Sequence:
#
# PCOD8165895 Si02
#       5
#     8   8   8   8   8
#     4  10  24  38  62 101 136 184 223 259 330 395
#     4  12  22  38  64 100 133 180 222 265 333 406
#     4  11  23  44  66  96 138 173 220 281 329 401
#     4  12  28  48  72 102 126 178 232 284 353 396
#     4  11  23  44  66  96 138 173 220 281 329 401
#
# _framework density 21.362074
#
# number of rings (size 3 to 8) (size 9 to 14) (size 15 to 20)
#    0.000    0.800    4.000    3.000    5.600    4.000 
#    0.000    0.000    0.000    0.000    0.000    0.000 
#    0.000    0.000    0.000    0.000    0.000    0.000 
#
# Total GULP energy -248018.141040 kJ/mol
# GULP energy per Si atom -12400.907052 kJ/mol
# Density = 2.131345 g / cm^3
# Si number density = 21.362074 Si / 1000 Ang^3
#
#
#
# Elastic Constant Matrix: (Units=GPa)
#
#
# Indices 1 2 3 4 5 6 
#
# 1 79.7763 7.3720 36.0238 0.0000 0.0000 0.0000
# 2 7.3720 68.5177 9.3050 0.0000 0.0000 0.0000
# 3 36.0238 9.3050 143.1771 0.0000 0.0000 0.0000
# 4 0.0000 0.0000 0.0000 25.1434 0.0000 0.0000
# 5 0.0000 0.0000 0.0000 0.0000 38.5579 0.0000
# 6 0.0000 0.0000 0.0000 0.0000 0.0000 22.8289
#
#
#
# Elastic Compliance Matrix: (Units=1/GPa)
#
#
# Indices 1 2 3 4 5 6 
#
# 1 0.014217 -0.001053 -0.003509 0.000000 0.000000 0.000000
# 2 -0.001053 0.014803 -0.000697 0.000000 0.000000 0.000000
# 3 -0.003509 -0.000697 0.007912 0.000000 0.000000 0.000000
# 4 0.000000 0.000000 0.000000 0.039772 0.000000 0.000000
# 5 0.000000 0.000000 0.000000 0.000000 0.025935 0.000000
# 6 0.000000 0.000000 0.000000 0.000000 0.000000 0.043804
#
#
# Mechanical properties :
#
#
# Convention : Reuss Voigt Hill
#
# Bulk Modulus (GPa) = 37.85811 44.09697 40.97754
# Shear Modulus (GPa) = 30.16319 33.22408 31.69363
#
# Velocity S-wave (km/s) = 3.76173 3.94799 3.85598
# Velocity P-wave (km/s) = 6.05211 6.43969 6.24891
#
# Compressibility (1/GPa) = 0.02641442
#
# Stress axis : x y z
#
# Youngs Moduli (GPa) = 70.33995 67.55506 126.38366
#
# Poissons Ratio (x) = 0.07114 0.44342
# Poissons Ratio (y) = 0.07408 0.08810
# Poissons Ratio (z) = 0.24679 0.04709
#
# Static dielectric constant tensor:
#      x y z
#    x 3.723930 0.000000 0.000000 
#    y 0.000000 3.955140 0.000000 
#    z 0.000000 0.000000 4.355060 
# 
# 
# High freq. dielectric constant tensor:
#      x y z
#    x 1.816330 0.000000 0.000000 
#    y 0.000000 1.845640 0.000000 
#    z 0.000000 0.000000 1.857590 
# 
# From -- ./inp_files/9494.got.cif
#   From: 2010.03.12/outbox.cif.g09.slc.cpg/sg24_5_cif.got.tgz:9494.got - 2010.04.14 03:06:53.
