data_PCOD8165479
_publ_section_title
;
Structure prediction by ZEFSAII (Michael W. Deem and Ramdas Pophale) SiO2 
 PCOD8165479
Probable space group: I 21 21 21
;
_chemical_formula_sum "Si O2"
_cell_formula_units_Z 64
_cell_length_a 29.356191
_cell_length_b 10.420906
_cell_length_c 10.008467
_cell_angle_alpha 90.000000
_cell_angle_beta 90.000000
_cell_angle_gamma 90.000000
_cell_volume 3061.771278
_symmetry_space_group_name_H-M "I 21 21 21"
_symmetry_group_IT_number 24
_symmetry_cell_setting 'orthorhombic'
loop_
_space_group_symop_operation_xyz
x,y,z
-x,1/2-y,z
x,-y,1/2-z
1/2-x,y,-z
1/2+x,1/2+y,1/2+z
1/2-x,-y,1/2+z
1/2+x,1/2-y,-z
-x,1/2+y,1/2-z
loop_
_atom_site_type_symbol
_atom_site_label
_atom_site_fract_x
_atom_site_fract_y
_atom_site_fract_z
Si Si1 0.821976 0.837073 0.956418
Si Si2 0.234125 0.638269 0.201717
Si Si3 0.091892 0.475023 0.591661
Si Si4 0.272279 0.115474 0.854925
Si Si5 0.124355 0.913079 0.372520
Si Si6 0.629998 0.580241 0.125733
Si Si7 0.946117 0.772744 0.506850
Si Si8 0.947272 0.735316 0.807776
O O1 0.780312 0.894295 0.874805
O O2 0.857371 0.955383 0.964119
O O3 0.843490 0.714923 0.880802
O O4 0.804582 0.800475 0.104550
O O5 0.215649 0.500000 0.250000
O O6 0.247522 0.746247 0.310913
O O7 0.091553 0.500000 0.750000
O O8 0.065538 0.575795 0.496253
O O9 0.066004 0.340240 0.581460
O O10 0.326270 0.148497 0.848901
O O11 0.260627 0.000000 0.750000
O O12 0.250000 0.079926 0.000000
O O13 0.084798 0.809343 0.404388
O O14 0.106665 0.000000 0.250000
O O15 0.136997 0.005346 0.492392
O O16 0.650045 0.500000 0.250000
O O17 0.575102 0.603084 0.141122
O O18 0.928540 0.742254 0.656074
O O19 0.000000 0.750000 0.480466
O O20 0.000000 0.750000 0.794963
#
# Coordination Sequence:
#
# PCOD8165479 Si02
#       8
#     8   8   8   8   8   8   8   8
#     4  10  23  41  63  93 134 168 230 275 324 399
#     4  11  26  43  67  94 134 182 222 276 335 403
#     4   9  19  34  59  93 130 164 212 273 335 387
#     4  11  28  45  71 102 136 179 226 286 342 403
#     4  11  25  43  64  93 139 171 223 278 336 403
#     4  11  22  39  66  98 123 175 214 273 337 396
#     4  10  21  38  66  95 130 175 220 276 331 400
#     4   9  19  34  60  98 128 157 206 278 333 386
#
# _framework density 20.902933999999998
#
# number of rings (size 3 to 8) (size 9 to 14) (size 15 to 20)
#    0.000    1.750    1.250    1.875   10.500    0.500 
#    0.000    0.625    2.750    0.000    0.000    0.000 
#    0.000    0.000    0.000    0.000    0.000    0.000 
#
# Total GULP energy -396444.913985 kJ/mol
# GULP energy per Si atom -12388.903562 kJ/mol
# Density = 2.085536 g / cm^3
# Si number density = 20.902934 Si / 1000 Ang^3
#
#
#
# Elastic Constant Matrix: (Units=GPa)
#
#
# Indices 1 2 3 4 5 6 
#
# 1 83.3813 40.1736 38.9220 0.0000 0.0000 0.0000
# 2 40.1736 116.9287 44.0499 0.0000 0.0000 0.0000
# 3 38.9220 44.0499 97.2194 0.0000 0.0000 0.0000
# 4 0.0000 0.0000 0.0000 26.4018 0.0000 0.0000
# 5 0.0000 0.0000 0.0000 0.0000 26.7538 0.0000
# 6 0.0000 0.0000 0.0000 0.0000 0.0000 30.7883
#
#
#
# Elastic Compliance Matrix: (Units=1/GPa)
#
#
# Indices 1 2 3 4 5 6 
#
# 1 0.015985 -0.003715 -0.004716 0.000000 0.000000 0.000000
# 2 -0.003715 0.011176 -0.003576 0.000000 0.000000 0.000000
# 3 -0.004716 -0.003576 0.013795 0.000000 0.000000 0.000000
# 4 0.000000 0.000000 0.000000 0.037876 0.000000 0.000000
# 5 0.000000 0.000000 0.000000 0.000000 0.037378 0.000000
# 6 0.000000 0.000000 0.000000 0.000000 0.000000 0.032480
#
#
# Mechanical properties :
#
#
# Convention : Reuss Voigt Hill
#
# Bulk Modulus (GPa) = 59.03302 60.42449 59.72876
# Shear Modulus (GPa) = 28.03459 28.41437 28.22448
#
# Velocity S-wave (km/s) = 3.66618 3.69093 3.67858
# Velocity P-wave (km/s) = 6.79883 6.86542 6.83220
#
# Compressibility (1/GPa) = 0.01693967
#
# Stress axis : x y z
#
# Youngs Moduli (GPa) = 62.56034 89.47754 72.49220
#
# Poissons Ratio (x) = 0.33243 0.34188
# Poissons Ratio (y) = 0.23242 0.25926
# Poissons Ratio (z) = 0.29504 0.32001
#
# Static dielectric constant tensor:
#      x y z
#    x 3.944940 0.000000 0.000000 
#    y 0.000000 3.866470 0.000000 
#    z 0.000000 0.000000 3.769360 
# 
# 
# High freq. dielectric constant tensor:
#      x y z
#    x 1.821620 0.000000 0.000000 
#    y 0.000000 1.823550 0.000000 
#    z 0.000000 0.000000 1.800370 
# 
# From -- ./inp_files/16988.got.cif
#   From: 2010.03.12/outbox.cif.g09.slc.cpg/sg24_9_cif.got.tgz:16988.got - 2010.04.14 03:06:53.
