data_PCOD8165138
_publ_section_title
;
Structure prediction by ZEFSAII (Michael W. Deem and Ramdas Pophale) SiO2 
 PCOD8165138
Probable space group: I 21 21 21
;
_chemical_formula_sum "Si O2"
_cell_formula_units_Z 32
_cell_length_a 13.833965
_cell_length_b 8.948123
_cell_length_c 12.103565
_cell_angle_alpha 90.000000
_cell_angle_beta 90.000000
_cell_angle_gamma 90.000000
_cell_volume 1498.276351
_symmetry_space_group_name_H-M "I 21 21 21"
_symmetry_group_IT_number 24
_symmetry_cell_setting 'orthorhombic'
loop_
_space_group_symop_operation_xyz
x,y,z
-x,1/2-y,z
x,-y,1/2-z
1/2-x,y,-z
1/2+x,1/2+y,1/2+z
1/2-x,-y,1/2+z
1/2+x,1/2-y,-z
-x,1/2+y,1/2-z
loop_
_atom_site_type_symbol
_atom_site_label
_atom_site_fract_x
_atom_site_fract_y
_atom_site_fract_z
Si Si1 0.595971 0.843251 0.011023
Si Si2 0.267809 0.221962 0.656008
Si Si3 0.272068 0.103093 0.116341
Si Si4 0.992535 0.425332 0.862702
O O1 0.500000 0.750000 0.025538
O O2 0.671465 0.785878 0.101577
O O3 0.561920 0.013153 0.038354
O O4 0.642132 0.823352 0.888009
O O5 0.255004 0.224136 0.789107
O O6 0.290755 0.049508 0.623264
O O7 0.380078 0.038035 0.122020
O O8 0.250000 0.184142 0.000000
O O9 0.030314 0.500000 0.750000
O O10 0.000000 0.250000 0.857800
#
# Coordination Sequence:
#
# PCOD8165138 Si02
#       4
#     8   8   8   8
#     4  11  19  39  65  97 133 184 237 291 365 421
#     4  10  20  35  65 100 134 183 235 297 356 419
#     4  11  19  37  63  97 135 181 236 283 348 426
#     4  12  23  38  66 100 133 177 241 295 346 430
#
# _framework density 21.357873999999999
#
# number of rings (size 3 to 8) (size 9 to 14) (size 15 to 20)
#    0.000    1.000    7.500    2.250    0.000    0.000 
#    4.500    1.250    0.000    3.000    6.500    0.000 
#    0.000    0.000    0.000    0.000    0.000    0.000 
#
# Total GULP energy -198271.879783 kJ/mol
# GULP energy per Si atom -12391.992486 kJ/mol
# Density = 2.130926 g / cm^3
# Si number density = 21.357874 Si / 1000 Ang^3
#
#
#
# Elastic Constant Matrix: (Units=GPa)
#
#
# Indices 1 2 3 4 5 6 
#
# 1 67.8487 44.0252 33.0298 0.0000 0.0000 0.0000
# 2 44.0252 118.7005 50.5040 0.0000 0.0000 0.0000
# 3 33.0298 50.5040 170.1352 0.0000 0.0000 0.0000
# 4 0.0000 0.0000 0.0000 35.9133 0.0000 0.0000
# 5 0.0000 0.0000 0.0000 0.0000 9.9826 0.0000
# 6 0.0000 0.0000 0.0000 0.0000 0.0000 24.2100
#
#
#
# Elastic Compliance Matrix: (Units=1/GPa)
#
#
# Indices 1 2 3 4 5 6 
#
# 1 0.019942 -0.006580 -0.001918 0.000000 0.000000 0.000000
# 2 -0.006580 0.011814 -0.002229 0.000000 0.000000 0.000000
# 3 -0.001918 -0.002229 0.006912 0.000000 0.000000 0.000000
# 4 0.000000 0.000000 0.000000 0.027845 0.000000 0.000000
# 5 0.000000 0.000000 0.000000 0.000000 0.100175 0.000000
# 6 0.000000 0.000000 0.000000 0.000000 0.000000 0.041305
#
#
# Mechanical properties :
#
#
# Convention : Reuss Voigt Hill
#
# Bulk Modulus (GPa) = 58.09883 67.97805 63.03844
# Shear Modulus (GPa) = 21.25979 29.29621 25.27800
#
# Velocity S-wave (km/s) = 3.15843 3.70764 3.44400
# Velocity P-wave (km/s) = 6.36887 7.08703 6.73753
#
# Compressibility (1/GPa) = 0.01721205
#
# Stress axis : x y z
#
# Youngs Moduli (GPa) = 50.14471 84.64759 144.67887
#
# Poissons Ratio (x) = 0.55701 0.27753
# Poissons Ratio (y) = 0.32997 0.32254
# Poissons Ratio (z) = 0.09619 0.18871
#
# Static dielectric constant tensor:
#      x y z
#    x 4.519070 0.000000 0.000000 
#    y 0.000000 4.087370 0.000000 
#    z 0.000000 0.000000 4.120410 
# 
# 
# High freq. dielectric constant tensor:
#      x y z
#    x 1.829650 0.000000 0.000000 
#    y 0.000000 1.817890 0.000000 
#    z 0.000000 0.000000 1.829980 
# 
# From -- ./inp_files/10228.got.cif
#   From: 2010.03.12/outbox.cif.g09.slc.cpg/sg24_6_cif.got.tgz:10228.got - 2010.04.14 03:06:53.
