data_PCOD8165526
_publ_section_title
;
Structure prediction by ZEFSAII (Michael W. Deem and Ramdas Pophale) SiO2 
 PCOD8165526
Probable space group: I 21 21 21
;
_chemical_formula_sum "Si O2"
_cell_formula_units_Z 28
_cell_length_a 7.241885
_cell_length_b 34.543337
_cell_length_c 5.003914
_cell_angle_alpha 90.000000
_cell_angle_beta 90.000000
_cell_angle_gamma 90.000000
_cell_volume 1251.773492
_symmetry_space_group_name_H-M "I 21 21 21"
_symmetry_group_IT_number 24
_symmetry_cell_setting 'orthorhombic'
loop_
_space_group_symop_operation_xyz
x,y,z
-x,1/2-y,z
x,-y,1/2-z
1/2-x,y,-z
1/2+x,1/2+y,1/2+z
1/2-x,-y,1/2+z
1/2+x,1/2-y,-z
-x,1/2+y,1/2-z
loop_
_atom_site_type_symbol
_atom_site_label
_atom_site_fract_x
_atom_site_fract_y
_atom_site_fract_z
Si Si1 0.250000 0.974001 0.000000
Si Si2 0.373571 0.715016 0.254519
Si Si3 0.534396 0.136546 0.024445
Si Si4 0.029561 0.591546 0.019783
O O1 0.070916 0.948719 0.081865
O O2 0.306781 0.000000 0.250000
O O3 0.500000 0.750000 0.151335
O O4 0.250000 0.730283 0.500000
O O5 0.502242 0.680309 0.371734
O O6 0.250000 0.700719 0.000000
O O7 0.451506 0.106644 0.237780
O O8 0.750000 0.131276 0.000000
O O9 0.460902 0.124317 0.733416
O O10 0.250000 0.585270 0.000000
#
# Coordination Sequence:
#
# PCOD8165526 Si02
#       4
#     4   8   8   8
#     4  12  26  42  62  94 132 156 198 272 326 384
#     4  11  22  39  61  90 132 170 217 273 331 382
#     4   9  18  37  63  83 117 164 208 253 304 369
#     4  10  21  40  64  89 117 164 210 249 312 385
#
# _framework density 22.368266999999999
#
# number of rings (size 3 to 8) (size 9 to 14) (size 15 to 20)
#    0.000    1.714    0.000    6.857    0.000    1.143 
#    7.714    0.000    0.000    0.000    0.000    0.000 
#    0.000    0.000    0.000    0.000    0.000    0.000 
#
# Total GULP energy -173478.730348 kJ/mol
# GULP energy per Si atom -12391.337882 kJ/mol
# Density = 2.231736 g / cm^3
# Si number density = 22.368267 Si / 1000 Ang^3
#
#
#
# Elastic Constant Matrix: (Units=GPa)
#
#
# Indices 1 2 3 4 5 6 
#
# 1 64.4807 39.5361 19.3658 -0.0670 0.0043 -0.0163
# 2 39.5361 142.7855 40.7269 -0.5180 0.1003 -0.4433
# 3 19.3658 40.7269 113.7669 -0.0746 0.0125 -0.2064
# 4 -0.0670 -0.5180 -0.0746 44.9055 -0.0608 0.2584
# 5 0.0043 0.1003 0.0125 -0.0608 15.0603 0.0049
# 6 -0.0163 -0.4433 -0.2064 0.2584 0.0049 7.5411
#
#
#
# Elastic Compliance Matrix: (Units=1/GPa)
#
#
# Indices 1 2 3 4 5 6 
#
# 1 0.018907 -0.004809 -0.001497 -0.000028 0.000028 -0.000282
# 2 -0.004809 0.009025 -0.002411 0.000090 -0.000056 0.000451
# 3 -0.001497 -0.002411 0.009908 -0.000014 0.000008 0.000127
# 4 -0.000028 0.000090 -0.000014 0.022274 0.000090 -0.000758
# 5 0.000028 -0.000056 0.000008 0.000090 0.066400 -0.000049
# 6 -0.000282 0.000451 0.000127 -0.000758 -0.000049 0.132662
#
#
# Mechanical properties :
#
#
# Convention : Reuss Voigt Hill
#
# Bulk Modulus (GPa) = 49.00899 57.81009 53.40954
# Shear Modulus (GPa) = 17.64211 28.26167 22.95189
#
# Velocity S-wave (km/s) = 2.81145 3.55839 3.20674
# Velocity P-wave (km/s) = 5.70058 6.54092 6.13515
#
# Compressibility (1/GPa) = 0.02040442
#
# Stress axis : x y z
#
# Youngs Moduli (GPa) = 52.89113 110.80816 100.92681
#
# Poissons Ratio (x) = 0.53288 0.15112
# Poissons Ratio (y) = 0.25436 0.24335
# Poissons Ratio (z) = 0.07920 0.26718
#
# Static dielectric constant tensor:
#      x y z
#    x 3.730680 -0.000200 0.001010 
#    y -0.000200 4.183640 -0.000150 
#    z 0.001010 -0.000150 4.766400 
# 
# 
# High freq. dielectric constant tensor:
#      x y z
#    x 1.855620 0.000000 0.000000 
#    y 0.000000 1.875210 0.000010 
#    z 0.000000 0.000010 1.904570 
# 
# From -- ./inp_files/1008.got.cif
#   From: 2010.03.12/outbox.cif.g09.slc.cpg/sg24_1_cif.got.tgz:1008.got - 2010.04.14 03:06:53.
