data_PCOD8165476
_publ_section_title
;
Structure prediction by ZEFSAII (Michael W. Deem and Ramdas Pophale) SiO2 
 PCOD8165476
Probable space group: I 21 21 21
;
_chemical_formula_sum "Si O2"
_cell_formula_units_Z 60
_cell_length_a 8.440850
_cell_length_b 27.435494
_cell_length_c 11.741933
_cell_angle_alpha 90.000000
_cell_angle_beta 90.000000
_cell_angle_gamma 90.000000
_cell_volume 2719.183805
_symmetry_space_group_name_H-M "I 21 21 21"
_symmetry_group_IT_number 24
_symmetry_cell_setting 'orthorhombic'
loop_
_space_group_symop_operation_xyz
x,y,z
-x,1/2-y,z
x,-y,1/2-z
1/2-x,y,-z
1/2+x,1/2+y,1/2+z
1/2-x,-y,1/2+z
1/2+x,1/2-y,-z
-x,1/2+y,1/2-z
loop_
_atom_site_type_symbol
_atom_site_label
_atom_site_fract_x
_atom_site_fract_y
_atom_site_fract_z
Si Si1 0.929991 0.102542 0.008011
Si Si2 0.926303 0.638400 0.107375
Si Si3 0.750000 0.665025 0.500000
Si Si4 0.069436 0.551980 0.721603
Si Si5 0.006326 0.856753 0.853136
Si Si6 0.277822 0.203797 0.241267
Si Si7 0.930351 0.054797 0.250596
Si Si8 0.284674 0.296214 0.621145
O O1 0.928653 0.059681 0.914341
O O2 0.083011 0.136605 0.984124
O O3 0.750000 0.127237 0.000000
O O4 0.962907 0.080138 0.130380
O O5 0.986668 0.585901 0.150088
O O6 0.039957 0.684079 0.133395
O O7 0.779857 0.656125 0.183942
O O8 0.896827 0.636127 0.971698
O O9 0.731348 0.699431 0.609778
O O10 0.988984 0.500000 0.750000
O O11 0.968696 0.594189 0.781216
O O12 0.244126 0.552440 0.776112
O O13 0.822369 0.845155 0.876928
O O14 0.040694 0.807967 0.774451
O O15 0.228719 0.257362 0.278162
O O16 0.001614 0.000000 0.250000
O O17 0.250000 0.269215 0.500000
#
# Coordination Sequence:
#
# PCOD8165476 Si02
#       8
#     8   8   4   8   8   8   8   8
#     4  10  22  44  65  94 135 182 213 271 328 382
#     4  11  22  39  64  94 126 163 208 266 323 384
#     4  12  24  44  68  94 130 182 218 266 328 384
#     4  10  21  38  65  96 127 167 216 266 320 385
#     4  11  22  39  64  94 126 163 208 266 323 384
#     4  12  24  42  62  91 131 163 214 263 323 393
#     4  10  21  38  65  96 127 167 216 266 320 385
#     4  10  22  42  67  93 124 165 212 268 331 387
#
# _framework density 22.065445
#
# number of rings (size 3 to 8) (size 9 to 14) (size 15 to 20)
#    0.000    1.333    4.000    2.000    1.867    2.133 
#    0.000    6.667    0.000    0.000    0.000    0.000 
#    0.000    0.000    0.000    0.000    0.000    0.000 
#
# Total GULP energy -371747.442187 kJ/mol
# GULP energy per Si atom -12391.581406 kJ/mol
# Density = 2.201522 g / cm^3
# Si number density = 22.065445 Si / 1000 Ang^3
#
#
#
# Elastic Constant Matrix: (Units=GPa)
#
#
# Indices 1 2 3 4 5 6 
#
# 1 52.1354 8.6813 8.7515 0.0006 0.0001 0.0000
# 2 8.6813 111.0730 43.3663 0.0013 -0.0001 -0.0001
# 3 8.7515 43.3663 140.8376 0.0024 -0.0015 -0.0013
# 4 0.0006 0.0013 0.0024 34.3035 -0.0005 -0.0004
# 5 0.0001 -0.0001 -0.0015 -0.0005 29.4585 0.0001
# 6 0.0000 -0.0001 -0.0013 -0.0004 0.0001 21.7399
#
#
#
# Elastic Compliance Matrix: (Units=1/GPa)
#
#
# Indices 1 2 3 4 5 6 
#
# 1 0.019522 -0.001196 -0.000845 0.000000 0.000000 0.000000
# 2 -0.001196 0.010307 -0.003099 0.000000 0.000000 0.000000
# 3 -0.000845 -0.003099 0.008107 0.000000 0.000000 0.000000
# 4 0.000000 0.000000 0.000000 0.029152 0.000000 0.000001
# 5 0.000000 0.000000 0.000000 0.000000 0.033946 0.000000
# 6 0.000000 0.000000 0.000000 0.000001 0.000000 0.045998
#
#
# Mechanical properties :
#
#
# Convention : Reuss Voigt Hill
#
# Bulk Modulus (GPa) = 36.15914 47.29381 41.72647
# Shear Modulus (GPa) = 30.02458 33.31683 31.67070
#
# Velocity S-wave (km/s) = 3.69278 3.88997 3.79266
# Velocity P-wave (km/s) = 5.88260 6.45413 6.17498
#
# Compressibility (1/GPa) = 0.02765553
#
# Stress axis : x y z
#
# Youngs Moduli (GPa) = 51.22479 97.02513 123.34725
#
# Poissons Ratio (x) = 0.11604 0.10421
# Poissons Ratio (y) = 0.06126 0.38229
# Poissons Ratio (z) = 0.04328 0.30071
#
# Static dielectric constant tensor:
#      x y z
#    x 4.138520 0.000000 0.000000 
#    y 0.000000 3.709870 0.000000 
#    z 0.000000 0.000000 3.987340 
# 
# 
# High freq. dielectric constant tensor:
#      x y z
#    x 1.877490 0.000000 0.000000 
#    y 0.000000 1.851470 0.000000 
#    z 0.000000 0.000000 1.874940 
# 
# From -- ./inp_files/18823.got.cif
#   From: 2010.03.12/outbox.cif.g09.slc.cpg/sg24_10_cif.got.tgz:18823.got - 2010.04.14 03:06:53.
