data_PCOD8165659
_publ_section_title
;
Structure prediction by ZEFSAII (Michael W. Deem and Ramdas Pophale) SiO2 
 PCOD8165659
Probable space group: I 21 21 21
;
_chemical_formula_sum "Si O2"
_cell_formula_units_Z 28
_cell_length_a 22.951440
_cell_length_b 9.200456
_cell_length_c 6.736613
_cell_angle_alpha 90.000000
_cell_angle_beta 90.000000
_cell_angle_gamma 90.000000
_cell_volume 1422.528220
_symmetry_space_group_name_H-M "I 21 21 21"
_symmetry_group_IT_number 24
_symmetry_cell_setting 'orthorhombic'
loop_
_space_group_symop_operation_xyz
x,y,z
-x,1/2-y,z
x,-y,1/2-z
1/2-x,y,-z
1/2+x,1/2+y,1/2+z
1/2-x,-y,1/2+z
1/2+x,1/2-y,-z
-x,1/2+y,1/2-z
loop_
_atom_site_type_symbol
_atom_site_label
_atom_site_fract_x
_atom_site_fract_y
_atom_site_fract_z
Si Si1 0.072093 0.000000 0.250000
Si Si2 0.315786 0.488373 0.026294
Si Si3 0.480933 0.592008 0.057900
Si Si4 0.877134 0.807665 0.216135
O O1 0.114871 0.862058 0.252757
O O2 0.033511 0.005262 0.449906
O O3 0.335172 0.500000 0.250000
O O4 0.250000 0.431237 0.000000
O O5 0.363013 0.379267 0.929111
O O6 0.321882 0.648620 0.923748
O O7 0.500000 0.750000 0.137398
O O8 0.460212 0.500000 0.250000
O O9 0.432643 0.617416 0.888625
#
# Coordination Sequence:
#
# PCOD8165659 Si02
#       4
#     4   8   8   8
#     4  10  22  40  58  90 130 154 190 240 298 352
#     4  11  21  39  63  82 111 152 205 247 292 341
#     4  10  22  38  60  89 123 160 195 235 291 356
#     4  10  22  38  61  90 119 156 196 247 288 353
#
# _framework density 19.683264999999999
#
# number of rings (size 3 to 8) (size 9 to 14) (size 15 to 20)
#    0.000    1.714    2.857    2.571    0.000   12.571 
#    0.000    1.429    0.000    0.000    0.000    0.000 
#    0.000    0.000    0.000    0.000    0.000    0.000 
#
# Total GULP energy -173449.317765 kJ/mol
# GULP energy per Si atom -12389.236983 kJ/mol
# Density = 1.963847 g / cm^3
# Si number density = 19.683265 Si / 1000 Ang^3
#
#
#
# Elastic Constant Matrix: (Units=GPa)
#
#
# Indices 1 2 3 4 5 6 
#
# 1 83.5050 60.2027 34.5123 0.0000 0.0000 0.0000
# 2 60.2027 159.4546 70.9412 0.0000 0.0000 0.0000
# 3 34.5123 70.9412 158.0934 0.0000 0.0000 0.0000
# 4 0.0000 0.0000 0.0000 31.3376 0.0000 0.0000
# 5 0.0000 0.0000 0.0000 0.0000 35.4742 0.0000
# 6 0.0000 0.0000 0.0000 0.0000 0.0000 24.6366
#
#
#
# Elastic Compliance Matrix: (Units=1/GPa)
#
#
# Indices 1 2 3 4 5 6 
#
# 1 0.016583 -0.005810 -0.001013 0.000000 0.000000 0.000000
# 2 -0.005810 0.009872 -0.003161 0.000000 0.000000 0.000000
# 3 -0.001013 -0.003161 0.007965 0.000000 0.000000 0.000000
# 4 0.000000 0.000000 0.000000 0.031911 0.000000 0.000000
# 5 0.000000 0.000000 0.000000 0.000000 0.028189 0.000000
# 6 0.000000 0.000000 0.000000 0.000000 0.000000 0.040590
#
#
# Mechanical properties :
#
#
# Convention : Reuss Voigt Hill
#
# Bulk Modulus (GPa) = 69.20107 81.37393 75.28750
# Shear Modulus (GPa) = 31.27049 33.98279 32.62664
#
# Velocity S-wave (km/s) = 3.99015 4.15960 4.07576
# Velocity P-wave (km/s) = 7.51412 8.03126 7.77699
#
# Compressibility (1/GPa) = 0.01445064
#
# Stress axis : x y z
#
# Youngs Moduli (GPa) = 60.30316 101.30156 125.54904
#
# Poissons Ratio (x) = 0.58860 0.12716
# Poissons Ratio (y) = 0.35038 0.39689
# Poissons Ratio (z) = 0.06108 0.32024
#
# Static dielectric constant tensor:
#      x y z
#    x 3.775510 0.000000 0.000000 
#    y 0.000000 3.676220 0.000000 
#    z 0.000000 0.000000 3.680140 
# 
# 
# High freq. dielectric constant tensor:
#      x y z
#    x 1.762100 0.000000 0.000000 
#    y 0.000000 1.749020 0.000000 
#    z 0.000000 0.000000 1.781310 
# 
# From -- ./inp_files/6782.got.cif
#   From: 2010.03.12/outbox.cif.g09.slc.cpg/sg24_4_cif.got.tgz:6782.got - 2010.04.14 03:06:53.
