data_PCOD8165604
_publ_section_title
;
Structure prediction by ZEFSAII (Michael W. Deem and Ramdas Pophale) SiO2 
 PCOD8165604
Probable space group: I 21 21 21
;
_chemical_formula_sum "Si O2"
_cell_formula_units_Z 60
_cell_length_a 28.299792
_cell_length_b 5.110162
_cell_length_c 18.627464
_cell_angle_alpha 90.000000
_cell_angle_beta 90.000000
_cell_angle_gamma 90.000000
_cell_volume 2693.839052
_symmetry_space_group_name_H-M "I 21 21 21"
_symmetry_group_IT_number 24
_symmetry_cell_setting 'orthorhombic'
loop_
_space_group_symop_operation_xyz
x,y,z
-x,1/2-y,z
x,-y,1/2-z
1/2-x,y,-z
1/2+x,1/2+y,1/2+z
1/2-x,-y,1/2+z
1/2+x,1/2-y,-z
-x,1/2+y,1/2-z
loop_
_atom_site_type_symbol
_atom_site_label
_atom_site_fract_x
_atom_site_fract_y
_atom_site_fract_z
Si Si1 0.914200 0.353547 0.180216
Si Si2 0.620561 0.746366 0.932546
Si Si3 0.173983 0.811358 0.922587
Si Si4 0.530552 0.986717 0.584367
Si Si5 0.265961 0.703368 0.422213
Si Si6 0.500000 0.250000 0.297850
Si Si7 0.681015 0.078050 0.826091
Si Si8 0.601525 0.251134 0.299692
O O1 0.934275 0.500000 0.250000
O O2 0.910284 0.527825 0.108149
O O3 0.951277 0.120570 0.162344
O O4 0.861771 0.260411 0.198849
O O5 0.580255 0.957250 0.957735
O O6 0.660101 0.853116 0.877554
O O7 0.647702 0.641589 0.001910
O O8 0.214109 0.590088 0.927604
O O9 0.138096 0.716746 0.862877
O O10 0.195283 0.087074 0.896554
O O11 0.500000 0.750000 0.547338
O O12 0.500000 0.250000 0.594225
O O13 0.250000 0.799782 0.500000
O O14 0.221720 0.727794 0.369039
O O15 0.492126 0.500000 0.250000
O O16 0.549800 0.278822 0.339814
O O17 0.704512 0.000000 0.750000
O O18 0.611786 0.500000 0.250000
O O19 0.605561 0.000000 0.250000
#
# Coordination Sequence:
#
# PCOD8165604 Si02
#       8
#     8   8   8   8   8   4   8   8
#     4  11  23  43  71  98 138 187 239 290 344 402
#     4  11  24  46  69  98 140 186 234 281 351 413
#     4  12  27  44  73  99 139 182 220 288 351 411
#     4  11  24  46  67 100 141 184 233 294 343 407
#     4  12  26  45  69  98 135 181 230 283 353 417
#     4   8  16  34  66  92 126 170 210 256 316 398
#     4  11  24  42  70 101 135 181 239 290 336 414
#     4  10  21  43  68 100 139 175 222 272 335 409
#
# _framework density 22.273045
#
# number of rings (size 3 to 8) (size 9 to 14) (size 15 to 20)
#    0.000    1.067    4.000    2.000    3.733    1.600 
#    3.600    0.000    5.867    0.000    0.000    0.000 
#    0.000    0.000    0.000    0.000    0.000    0.000 
#
# Total GULP energy -371743.034661 kJ/mol
# GULP energy per Si atom -12391.434489 kJ/mol
# Density = 2.222235 g / cm^3
# Si number density = 22.273045 Si / 1000 Ang^3
#
#
#
# Elastic Constant Matrix: (Units=GPa)
#
#
# Indices 1 2 3 4 5 6 
#
# 1 106.0865 25.4106 37.9837 0.0000 0.0000 0.0000
# 2 25.4106 117.5041 17.6330 0.0000 0.0000 0.0000
# 3 37.9837 17.6330 87.2190 0.0000 0.0000 0.0000
# 4 0.0000 0.0000 0.0000 22.6001 0.0000 0.0000
# 5 0.0000 0.0000 0.0000 0.0000 5.3065 0.0000
# 6 0.0000 0.0000 0.0000 0.0000 0.0000 37.2457
#
#
#
# Elastic Compliance Matrix: (Units=1/GPa)
#
#
# Indices 1 2 3 4 5 6 
#
# 1 0.011523 -0.001793 -0.004656 0.000000 0.000000 0.000000
# 2 -0.001793 0.009056 -0.001050 0.000000 0.000000 0.000000
# 3 -0.004656 -0.001050 0.013705 0.000000 0.000000 0.000000
# 4 0.000000 0.000000 0.000000 0.044248 0.000000 0.000000
# 5 0.000000 0.000000 0.000000 0.000000 0.188449 0.000000
# 6 0.000000 0.000000 0.000000 0.000000 0.000000 0.026849
#
#
# Mechanical properties :
#
#
# Convention : Reuss Voigt Hill
#
# Bulk Modulus (GPa) = 51.85039 52.54048 52.19543
# Shear Modulus (GPa) = 15.86019 28.34927 22.10473
#
# Velocity S-wave (km/s) = 2.67138 3.57151 3.15372
# Velocity P-wave (km/s) = 5.73105 6.37558 6.06189
#
# Compressibility (1/GPa) = 0.01928626
#
# Stress axis : x y z
#
# Youngs Moduli (GPa) = 86.78527 110.42804 72.96530
#
# Poissons Ratio (x) = 0.19802 0.33970
# Poissons Ratio (y) = 0.15562 0.07660
# Poissons Ratio (z) = 0.40404 0.11593
#
# Static dielectric constant tensor:
#      x y z
#    x 4.428670 0.000000 0.000000 
#    y 0.000000 4.430470 0.000000 
#    z 0.000000 0.000000 3.602130 
# 
# 
# High freq. dielectric constant tensor:
#      x y z
#    x 1.900670 0.000000 0.000000 
#    y 0.000000 1.889180 0.000000 
#    z 0.000000 0.000000 1.840710 
# 
# From -- ./inp_files/31689.got.cif
#   From: 2010.03.12/outbox.cif.g09.slc.cpg/sg24_16_cif.got.tgz:31689.got - 2010.04.14 03:06:53.
