data_PCOD8165957
_publ_section_title
;
Structure prediction by ZEFSAII (Michael W. Deem and Ramdas Pophale) SiO2 
 PCOD8165957
Probable space group: I 21 21 21
;
_chemical_formula_sum "Si O2"
_cell_formula_units_Z 48
_cell_length_a 26.915470
_cell_length_b 14.361931
_cell_length_c 5.295222
_cell_angle_alpha 90.000000
_cell_angle_beta 90.000000
_cell_angle_gamma 90.000000
_cell_volume 2046.911077
_symmetry_space_group_name_H-M "I 21 21 21"
_symmetry_group_IT_number 24
_symmetry_cell_setting 'orthorhombic'
loop_
_space_group_symop_operation_xyz
x,y,z
-x,1/2-y,z
x,-y,1/2-z
1/2-x,y,-z
1/2+x,1/2+y,1/2+z
1/2-x,-y,1/2+z
1/2+x,1/2-y,-z
-x,1/2+y,1/2-z
loop_
_atom_site_type_symbol
_atom_site_label
_atom_site_fract_x
_atom_site_fract_y
_atom_site_fract_z
Si Si1 0.961569 0.610992 0.723462
Si Si2 0.750000 0.600372 0.500000
Si Si3 0.927515 0.896771 0.639715
Si Si4 0.875948 0.000000 0.250000
Si Si5 0.148744 0.673922 0.005490
Si Si6 0.594211 0.338814 0.712515
Si Si7 0.250000 0.777325 0.000000
Si Si8 0.167866 0.000000 0.250000
O O1 0.958441 0.500000 0.750000
O O2 0.928183 0.645809 0.490354
O O3 0.017536 0.645317 0.662951
O O4 0.946684 0.657110 0.989755
O O5 0.745757 0.660735 0.751743
O O6 0.798455 0.533919 0.487901
O O7 0.924578 0.000000 0.750000
O O8 0.911656 0.917242 0.353477
O O9 0.887743 0.826202 0.762731
O O10 0.841582 0.064556 0.426085
O O11 0.121983 0.739408 0.215248
O O12 0.202612 0.713419 0.945292
O O13 0.634196 0.417417 0.642147
#
# Coordination Sequence:
#
# PCOD8165957 Si02
#       8
#     8   4   8   4   8   8   4   4
#     4  11  24  44  71 112 151 203 238 298 369 453
#     4  12  29  48  75 112 154 208 241 304 373 462
#     4   9  23  45  76 100 146 191 248 304 382 447
#     4  10  24  51  76 100 140 194 249 320 388 434
#     4  11  27  50  73 108 142 199 245 326 371 449
#     4  12  27  42  74 112 157 192 252 300 366 447
#     4  12  29  50  81 108 152 190 259 312 383 444
#     4  12  26  47  76 114 154 208 243 298 370 454
#
# _framework density 23.44997
#
# number of rings (size 3 to 8) (size 9 to 14) (size 15 to 20)
#    0.000    1.000    3.333    0.500   14.000    2.000 
#    4.500    0.000    0.000    0.000    0.000    0.000 
#    0.000    0.000    0.000    0.000    0.000    0.000 
#
# Total GULP energy -297403.936015 kJ/mol
# GULP energy per Si atom -12391.830667 kJ/mol
# Density = 2.339660 g / cm^3
# Si number density = 23.449970 Si / 1000 Ang^3
#
#
#
# Elastic Constant Matrix: (Units=GPa)
#
#
# Indices 1 2 3 4 5 6 
#
# 1 155.5700 53.9015 40.8137 0.0000 0.0000 0.0000
# 2 53.9015 106.2251 34.2254 0.0000 0.0000 0.0000
# 3 40.8137 34.2254 117.9874 -0.0001 0.0000 0.0000
# 4 0.0000 0.0000 -0.0001 35.6192 0.0000 0.0000
# 5 0.0000 0.0000 0.0000 0.0000 13.7351 0.0000
# 6 0.0000 0.0000 0.0000 0.0000 0.0000 12.1459
#
#
#
# Elastic Compliance Matrix: (Units=1/GPa)
#
#
# Indices 1 2 3 4 5 6 
#
# 1 0.008125 -0.003549 -0.001781 0.000000 0.000000 0.000000
# 2 -0.003549 0.011935 -0.002234 0.000000 0.000000 0.000000
# 3 -0.001781 -0.002234 0.009740 0.000000 0.000000 0.000000
# 4 0.000000 0.000000 0.000000 0.028075 0.000000 0.000000
# 5 0.000000 0.000000 0.000000 0.000000 0.072806 0.000000
# 6 0.000000 0.000000 0.000000 0.000000 0.000000 0.082333
#
#
# Mechanical properties :
#
#
# Convention : Reuss Voigt Hill
#
# Bulk Modulus (GPa) = 68.16352 70.85152 69.50752
# Shear Modulus (GPa) = 21.45630 29.02283 25.23957
#
# Velocity S-wave (km/s) = 3.02815 3.52184 3.28428
# Velocity P-wave (km/s) = 6.43094 6.84232 6.63982
#
# Compressibility (1/GPa) = 0.01467060
#
# Stress axis : x y z
#
# Youngs Moduli (GPa) = 123.07911 83.78940 102.67248
#
# Poissons Ratio (x) = 0.29736 0.18287
# Poissons Ratio (y) = 0.43680 0.22941
# Poissons Ratio (z) = 0.21921 0.18721
#
# Static dielectric constant tensor:
#      x y z
#    x 5.256380 0.000000 0.000000 
#    y 0.000000 4.699700 0.000000 
#    z 0.000000 0.000000 5.503360 
# 
# 
# High freq. dielectric constant tensor:
#      x y z
#    x 1.923270 0.000000 0.000000 
#    y 0.000000 1.950780 0.000000 
#    z 0.000000 0.000000 1.923740 
# 
# From -- ./inp_files/7170.got.cif
#   From: 2010.03.12/outbox.cif.g09.slc.cpg/sg24_4_cif.got.tgz:7170.got - 2010.04.14 03:06:53.
