data_PCOD8165089
_publ_section_title
;
Structure prediction by ZEFSAII (Michael W. Deem and Ramdas Pophale) SiO2 
 PCOD8165089
Probable space group: I 21 21 21
;
_chemical_formula_sum "Si O2"
_cell_formula_units_Z 56
_cell_length_a 14.482352
_cell_length_b 9.154860
_cell_length_c 22.774806
_cell_angle_alpha 90.000000
_cell_angle_beta 90.000000
_cell_angle_gamma 90.000000
_cell_volume 3019.572716
_symmetry_space_group_name_H-M "I 21 21 21"
_symmetry_group_IT_number 24
_symmetry_cell_setting 'orthorhombic'
loop_
_space_group_symop_operation_xyz
x,y,z
-x,1/2-y,z
x,-y,1/2-z
1/2-x,y,-z
1/2+x,1/2+y,1/2+z
1/2-x,-y,1/2+z
1/2+x,1/2-y,-z
-x,1/2+y,1/2-z
loop_
_atom_site_type_symbol
_atom_site_label
_atom_site_fract_x
_atom_site_fract_y
_atom_site_fract_z
Si Si1 0.408813 0.326856 0.602639
Si Si2 0.288354 0.324496 0.361110
Si Si3 0.350849 0.366931 0.480175
Si Si4 0.713332 0.828053 0.362967
Si Si5 0.408390 0.327165 0.897799
Si Si6 0.406296 0.679807 0.468910
Si Si7 0.098762 0.674484 0.748934
O O1 0.500000 0.250000 0.628473
O O2 0.319534 0.276094 0.640710
O O3 0.393593 0.276031 0.534557
O O4 0.423038 0.499874 0.604756
O O5 0.338325 0.267684 0.421391
O O6 0.291570 0.498246 0.364507
O O7 0.343353 0.266825 0.304846
O O8 0.250000 0.429063 0.500000
O O9 0.416125 0.504419 0.466016
O O10 0.820588 0.779429 0.358228
O O11 0.672531 0.765069 0.423957
O O12 0.655565 0.770037 0.307560
O O13 0.500000 0.250000 0.872463
O O14 0.387345 0.271888 0.964057
O O15 0.500000 0.750000 0.445189
O O16 0.086957 0.500000 0.750000
O O17 0.000000 0.750000 0.749139
#
# Coordination Sequence:
#
# PCOD8165089 Si02
#       7
#     8   8   8   8   8   8   8
#     4   9  16  28  48  69  90 117 150 185 221 263
#     4   8  16  30  47  66  88 120 154 182 216 268
#     4   8  14  26  43  63  88 119 152 182 217 266
#     4   9  16  29  47  65  89 121 154 181 215 268
#     4   9  17  29  46  68  92 118 148 183 223 265
#     4   9  14  22  42  68  90 114 149 185 218 258
#     4  10  20  34  51  69  90 117 151 186 220 262
#
# _framework density 18.545669
#
# number of rings (size 3 to 8) (size 9 to 14) (size 15 to 20)
#    0.000    3.143    0.000    3.429    0.000    0.571 
#    0.000    2.143    0.000   15.429    0.000    0.000 
#    0.000    0.000    0.000    0.000    0.000    0.000 
#
# Total GULP energy -346943.217892 kJ/mol
# GULP energy per Si atom -12390.829210 kJ/mol
# Density = 1.850346 g / cm^3
# Si number density = 18.545669 Si / 1000 Ang^3
#
#
#
# Elastic Constant Matrix: (Units=GPa)
#
#
# Indices 1 2 3 4 5 6 
#
# 1 168.8351 34.7592 67.5891 0.0000 0.0000 0.0000
# 2 34.7592 21.2952 18.0195 0.0000 0.0000 0.0000
# 3 67.5891 18.0195 95.2809 0.0000 0.0000 0.0000
# 4 0.0000 0.0000 0.0000 10.2510 0.0000 0.0000
# 5 0.0000 0.0000 0.0000 0.0000 31.0762 0.0000
# 6 0.0000 0.0000 0.0000 0.0000 0.0000 32.1644
#
#
#
# Elastic Compliance Matrix: (Units=1/GPa)
#
#
# Indices 1 2 3 4 5 6 
#
# 1 0.010651 -0.013086 -0.005081 0.000000 0.000000 0.000000
# 2 -0.013086 0.071983 -0.004331 0.000000 0.000000 0.000000
# 3 -0.005081 -0.004331 0.014918 0.000000 0.000000 0.000000
# 4 0.000000 0.000000 0.000000 0.097552 0.000000 0.000000
# 5 0.000000 0.000000 0.000000 0.000000 0.032179 0.000000
# 6 0.000000 0.000000 0.000000 0.000000 0.000000 0.031090
#
#
# Mechanical properties :
#
#
# Convention : Reuss Voigt Hill
#
# Bulk Modulus (GPa) = 19.02664 58.46076 38.74370
# Shear Modulus (GPa) = 15.58179 25.70120 20.64150
#
# Velocity S-wave (km/s) = 2.90174 3.72672 3.33980
# Velocity P-wave (km/s) = 4.63771 7.07877 5.98403
#
# Compressibility (1/GPa) = 0.05255789
#
# Stress axis : x y z
#
# Youngs Moduli (GPa) = 93.88859 13.89214 67.03169
#
# Poissons Ratio (x) = 0.18179 0.34056
# Poissons Ratio (y) = 1.22862 0.29029
# Poissons Ratio (z) = 0.47701 0.06016
#
# Static dielectric constant tensor:
#      x y z
#    x 3.571820 0.000000 0.000000 
#    y 0.000000 2.814180 0.000000 
#    z 0.000000 0.000000 3.635320 
# 
# 
# High freq. dielectric constant tensor:
#      x y z
#    x 1.730210 0.000000 0.000000 
#    y 0.000000 1.654510 0.000000 
#    z 0.000000 0.000000 1.711580 
# 
# From -- ./inp_files/22681.got.cif
#   From: 2010.03.12/outbox.cif.g09.slc.cpg/sg24_12_cif.got.tgz:22681.got - 2010.04.14 03:06:53.
