data_PCOD8165890
_publ_section_title
;
Structure prediction by ZEFSAII (Michael W. Deem and Ramdas Pophale) SiO2 
 PCOD8165890
Probable space group: I 21 21 21
;
_chemical_formula_sum "Si O2"
_cell_formula_units_Z 52
_cell_length_a 19.180856
_cell_length_b 23.694713
_cell_length_c 4.895793
_cell_angle_alpha 90.000000
_cell_angle_beta 90.000000
_cell_angle_gamma 90.000000
_cell_volume 2225.063884
_symmetry_space_group_name_H-M "I 21 21 21"
_symmetry_group_IT_number 24
_symmetry_cell_setting 'orthorhombic'
loop_
_space_group_symop_operation_xyz
x,y,z
-x,1/2-y,z
x,-y,1/2-z
1/2-x,y,-z
1/2+x,1/2+y,1/2+z
1/2-x,-y,1/2+z
1/2+x,1/2-y,-z
-x,1/2+y,1/2-z
loop_
_atom_site_type_symbol
_atom_site_label
_atom_site_fract_x
_atom_site_fract_y
_atom_site_fract_z
Si Si1 0.580987 0.362532 0.964289
Si Si2 0.839820 0.000000 0.750000
Si Si3 0.500606 0.892952 0.005197
Si Si4 0.061049 0.500000 0.250000
Si Si5 0.626519 0.174285 0.607310
Si Si6 0.916410 0.242416 0.872505
Si Si7 0.750000 0.903507 0.000000
Si Si8 0.203625 0.934245 0.253393
O O1 0.525100 0.349271 0.728315
O O2 0.615055 0.303511 0.050531
O O3 0.631819 0.401987 0.787492
O O4 0.547266 0.395146 0.224061
O O5 0.791792 0.945028 0.797007
O O6 0.888340 0.981072 0.496261
O O7 0.507680 0.953721 0.864214
O O8 0.577117 0.868977 0.064295
O O9 0.599297 0.195708 0.898752
O O10 0.697808 0.139526 0.656533
O O11 0.627673 0.227253 0.399563
O O12 0.000000 0.250000 0.817031
O O13 0.250000 0.915192 0.500000
O O14 0.186091 0.000000 0.250000
O O15 0.250000 0.914682 0.000000
#
# Coordination Sequence:
#
# PCOD8165890 Si02
#       8
#     8   4   8   4   8   8   4   8
#     4  12  25  44  76 105 141 184 242 300 372 440
#     4  12  27  48  74  98 154 205 252 290 372 451
#     4  12  24  44  70 109 142 185 240 307 360 437
#     4  12  27  46  70 112 152 195 242 314 368 431
#     4  12  26  46  71  99 145 189 251 299 359 438
#     4  12  24  46  73 100 135 186 236 304 373 423
#     4  12  30  48  72 108 144 208 252 300 368 436
#     4  10  23  47  72 101 141 185 226 282 363 450
#
# _framework density 23.370114999999998
#
# number of rings (size 3 to 8) (size 9 to 14) (size 15 to 20)
#    0.000    0.308    4.615    3.692    3.231    1.846 
#    4.154    0.000    0.000    0.000    0.000    0.000 
#    0.000    0.000    0.000    0.000    0.000    0.000 
#
# Total GULP energy -322211.492553 kJ/mol
# GULP energy per Si atom -12392.749714 kJ/mol
# Density = 2.331692 g / cm^3
# Si number density = 23.370115 Si / 1000 Ang^3
#
#
#
# Elastic Constant Matrix: (Units=GPa)
#
#
# Indices 1 2 3 4 5 6 
#
# 1 82.7189 48.7979 35.2804 0.0000 0.0000 0.0000
# 2 48.7979 79.6225 15.6799 0.0000 0.0000 0.0000
# 3 35.2804 15.6799 131.9556 0.0000 0.0000 0.0000
# 4 0.0000 0.0000 0.0000 38.6428 0.0000 0.0000
# 5 0.0000 0.0000 0.0000 0.0000 37.3867 0.0000
# 6 0.0000 0.0000 0.0000 0.0000 0.0000 17.8498
#
#
#
# Elastic Compliance Matrix: (Units=1/GPa)
#
#
# Indices 1 2 3 4 5 6 
#
# 1 0.020965 -0.012026 -0.004176 0.000000 0.000000 0.000000
# 2 -0.012026 0.019759 0.000868 0.000000 0.000000 0.000000
# 3 -0.004176 0.000868 0.008592 0.000000 0.000000 0.000000
# 4 0.000000 0.000000 0.000000 0.025878 0.000000 0.000000
# 5 0.000000 0.000000 0.000000 0.000000 0.026747 0.000000
# 6 0.000000 0.000000 0.000000 0.000000 0.000000 0.056023
#
#
# Mechanical properties :
#
#
# Convention : Reuss Voigt Hill
#
# Bulk Modulus (GPa) = 53.63182 54.86814 54.24998
# Shear Modulus (GPa) = 25.66081 31.74511 28.70296
#
# Velocity S-wave (km/s) = 3.31723 3.68960 3.50836
# Velocity P-wave (km/s) = 6.13765 6.45598 6.29883
#
# Compressibility (1/GPa) = 0.01864565
#
# Stress axis : x y z
#
# Youngs Moduli (GPa) = 47.69861 50.60999 116.38994
#
# Poissons Ratio (x) = 0.60865 0.48607
# Poissons Ratio (y) = 0.57364 -0.10097
# Poissons Ratio (z) = 0.19920 -0.04391
#
# Static dielectric constant tensor:
#      x y z
#    x 4.243820 0.000000 0.000000 
#    y 0.000000 4.386500 0.000000 
#    z 0.000000 0.000000 4.372320 
# 
# 
# High freq. dielectric constant tensor:
#      x y z
#    x 1.915420 0.000000 0.000000 
#    y 0.000000 1.928350 0.000000 
#    z 0.000000 0.000000 1.939210 
# 
# From -- ./inp_files/5731.got.cif
#   From: 2010.03.12/outbox.cif.g09.slc.cpg/sg24_3_cif.got.tgz:5731.got - 2010.04.14 03:06:53.
