data_PCOD8165073
_publ_section_title
;
Structure prediction by ZEFSAII (Michael W. Deem and Ramdas Pophale) SiO2 
 PCOD8165073
Probable space group: I 21 21 21
;
_chemical_formula_sum "Si O2"
_cell_formula_units_Z 64
_cell_length_a 14.585358
_cell_length_b 8.579234
_cell_length_c 30.230326
_cell_angle_alpha 90.000000
_cell_angle_beta 90.000000
_cell_angle_gamma 90.000000
_cell_volume 3782.756946
_symmetry_space_group_name_H-M "I 21 21 21"
_symmetry_group_IT_number 24
_symmetry_cell_setting 'orthorhombic'
loop_
_space_group_symop_operation_xyz
x,y,z
-x,1/2-y,z
x,-y,1/2-z
1/2-x,y,-z
1/2+x,1/2+y,1/2+z
1/2-x,-y,1/2+z
1/2+x,1/2-y,-z
-x,1/2+y,1/2-z
loop_
_atom_site_type_symbol
_atom_site_label
_atom_site_fract_x
_atom_site_fract_y
_atom_site_fract_z
Si Si1 0.817428 0.565058 0.882101
Si Si2 0.395055 0.065732 0.202561
Si Si3 0.693973 0.065971 0.956628
Si Si4 0.000000 0.065354 0.573035
Si Si5 0.500000 0.434968 0.525702
Si Si6 0.104945 0.565732 0.702561
Si Si7 0.182572 0.565058 0.882101
Si Si8 0.193973 0.934029 0.456628
O O1 0.821504 0.508047 0.831469
O O2 0.806574 0.750000 0.884441
O O3 0.737664 0.486553 0.910360
O O4 0.911068 0.500180 0.902956
O O5 0.500000 0.014401 0.191319
O O6 0.385374 0.250000 0.202490
O O7 0.366528 0.000000 0.250000
O O8 0.689977 0.250000 0.959550
O O9 0.591938 0.999007 0.952282
O O10 0.737664 0.013447 0.910360
O O11 0.750000 0.000797 0.000000
O O12 0.911068 0.000180 0.597044
O O13 0.000000 0.250000 0.573386
O O14 0.000000 0.999588 0.523861
O O15 0.500000 0.250000 0.528468
O O16 0.591938 0.499007 0.547718
O O17 0.133472 0.500000 0.750000
O O18 0.178496 0.491953 0.668531
O O19 0.250000 0.999203 0.500000
#
# Coordination Sequence:
#
# PCOD8165073 Si02
#       8
#     8   8   8   8   8   8   8   8
#     4  11  20  34  53  76 104 141 181 218 262 315
#     4  10  20  33  50  75 106 140 175 216 264 316
#     4  11  23  36  51  76 107 140 177 220 266 314
#     4   9  18  29  48  74 103 136 175 218 257 302
#     4  11  21  37  55  74 101 140 183 224 263 307
#     4  10  20  33  50  75 106 140 175 216 264 316
#     4  11  20  34  53  76 104 141 181 218 262 315
#     4  11  23  36  51  76 107 140 177 220 266 314
#
# _framework density 16.918879
#
# number of rings (size 3 to 8) (size 9 to 14) (size 15 to 20)
#    0.000    1.500    3.750    2.625    0.000    2.000 
#    0.000    0.000    0.000    0.000    0.000    0.875 
#    0.000    0.000    0.000    0.000    0.000    0.000 
#
# Total GULP energy -396781.185157 kJ/mol
# GULP energy per Si atom -12399.412036 kJ/mol
# Density = 1.688037 g / cm^3
# Si number density = 16.918879 Si / 1000 Ang^3
#
#
#
# Elastic Constant Matrix: (Units=GPa)
#
#
# Indices 1 2 3 4 5 6 
#
# 1 115.7202 31.4724 55.8652 0.0000 0.0000 0.0000
# 2 31.4724 67.4582 27.5658 0.0000 0.0000 0.0000
# 3 55.8652 27.5658 119.2028 0.0000 0.0000 0.0000
# 4 0.0000 0.0000 0.0000 28.6298 0.0000 0.0000
# 5 0.0000 0.0000 0.0000 0.0000 23.8495 0.0000
# 6 0.0000 0.0000 0.0000 0.0000 0.0000 24.9326
#
#
#
# Elastic Compliance Matrix: (Units=1/GPa)
#
#
# Indices 1 2 3 4 5 6 
#
# 1 0.011919 -0.003620 -0.004749 0.000000 0.000000 0.000000
# 2 -0.003620 0.017471 -0.002343 0.000000 0.000000 0.000000
# 3 -0.004749 -0.002343 0.011156 0.000000 0.000000 0.000000
# 4 0.000000 0.000000 0.000000 0.034929 0.000000 0.000000
# 5 0.000000 0.000000 0.000000 0.000000 0.041930 0.000000
# 6 0.000000 0.000000 0.000000 0.000000 0.000000 0.040108
#
#
# Mechanical properties :
#
#
# Convention : Reuss Voigt Hill
#
# Bulk Modulus (GPa) = 52.29793 59.13201 55.71497
# Shear Modulus (GPa) = 26.98181 27.98089 27.48135
#
# Velocity S-wave (km/s) = 3.99780 4.07114 4.03463
# Velocity P-wave (km/s) = 7.23104 7.55811 7.39638
#
# Compressibility (1/GPa) = 0.01912121
#
# Stress axis : x y z
#
# Youngs Moduli (GPa) = 83.90317 57.23908 89.63441
#
# Poissons Ratio (x) = 0.20721 0.42563
# Poissons Ratio (y) = 0.30374 0.21006
# Poissons Ratio (z) = 0.39842 0.13414
#
# Static dielectric constant tensor:
#      x y z
#    x 3.070880 0.000000 0.000000 
#    y 0.000000 3.087760 0.000000 
#    z 0.000000 0.000000 2.988370 
# 
# 
# High freq. dielectric constant tensor:
#      x y z
#    x 1.627300 0.000000 0.000000 
#    y 0.000000 1.659760 0.000000 
#    z 0.000000 0.000000 1.648680 
# 
# From -- ./inp_files/17047.got.cif
#   From: 2010.03.12/outbox.cif.g09.slc.cpg/sg24_9_cif.got.tgz:17047.got - 2010.04.14 03:06:53.
