data_PCOD8165700
_publ_section_title
;
Structure prediction by ZEFSAII (Michael W. Deem and Ramdas Pophale) SiO2 
 PCOD8165700
Probable space group: I 21 21 21
;
_chemical_formula_sum "Si O2"
_cell_formula_units_Z 48
_cell_length_a 22.291496
_cell_length_b 18.699614
_cell_length_c 4.979968
_cell_angle_alpha 90.000000
_cell_angle_beta 90.000000
_cell_angle_gamma 90.000000
_cell_volume 2075.861667
_symmetry_space_group_name_H-M "I 21 21 21"
_symmetry_group_IT_number 24
_symmetry_cell_setting 'orthorhombic'
loop_
_space_group_symop_operation_xyz
x,y,z
-x,1/2-y,z
x,-y,1/2-z
1/2-x,y,-z
1/2+x,1/2+y,1/2+z
1/2-x,-y,1/2+z
1/2+x,1/2-y,-z
-x,1/2+y,1/2-z
loop_
_atom_site_type_symbol
_atom_site_label
_atom_site_fract_x
_atom_site_fract_y
_atom_site_fract_z
Si Si1 0.087963 0.696330 0.245148
Si Si2 0.897393 0.584403 0.779662
Si Si3 0.750000 0.743894 0.000000
Si Si4 0.187720 0.647118 0.627857
Si Si5 0.147803 0.160919 0.234333
Si Si6 0.482878 0.328772 0.258343
Si Si7 0.791915 0.000000 0.750000
O O1 0.150261 0.673440 0.375228
O O2 0.093538 0.782253 0.221395
O O3 0.035297 0.673234 0.448003
O O4 0.074729 0.656890 0.957776
O O5 0.900177 0.500000 0.750000
O O6 0.857365 0.626025 0.559282
O O7 0.965433 0.613125 0.789102
O O8 0.863396 0.597469 0.056983
O O9 0.802070 0.790843 0.851633
O O10 0.713811 0.695650 0.783293
O O11 0.250000 0.625285 0.500000
O O12 0.164318 0.570172 0.734242
O O13 0.500000 0.250000 0.361862
O O14 0.750000 0.016302 0.500000
#
# Coordination Sequence:
#
# PCOD8165700 Si02
#       7
#     8   8   4   8   8   8   4
#     4  12  23  40  70 107 132 178 235 302 337 403
#     4  12  27  48  74 101 142 191 231 290 377 441
#     4  12  24  42  72 110 144 182 248 308 340 416
#     4  11  23  40  68 100 146 190 243 280 360 422
#     4  12  24  44  73 108 138 181 239 292 357 423
#     4  12  23  43  73 101 137 171 239 295 354 410
#     4  10  22  40  62  92 138 194 230 266 342 428
#
# _framework density 23.122927000000001
#
# number of rings (size 3 to 8) (size 9 to 14) (size 15 to 20)
#    0.000    0.333    5.833    4.000    0.000    0.000 
#    1.500    1.667    3.667    0.000    0.000    0.000 
#    0.000    0.000    0.000    0.000    0.000    0.000 
#
# Total GULP energy -297509.688919 kJ/mol
# GULP energy per Si atom -12396.237038 kJ/mol
# Density = 2.307030 g / cm^3
# Si number density = 23.122927 Si / 1000 Ang^3
#
#
#
# Elastic Constant Matrix: (Units=GPa)
#
#
# Indices 1 2 3 4 5 6 
#
# 1 71.7236 36.9858 3.3499 0.0000 0.0000 0.0000
# 2 36.9858 144.1637 24.6084 0.0000 0.0000 0.0000
# 3 3.3499 24.6084 96.9801 0.0000 0.0000 0.0000
# 4 0.0000 0.0000 0.0000 31.1104 0.0000 0.0000
# 5 0.0000 0.0000 0.0000 0.0000 43.4594 0.0000
# 6 0.0000 0.0000 0.0000 0.0000 0.0000 24.6675
#
#
#
# Elastic Compliance Matrix: (Units=1/GPa)
#
#
# Indices 1 2 3 4 5 6 
#
# 1 0.016093 -0.004216 0.000514 0.000000 0.000000 0.000000
# 2 -0.004216 0.008355 -0.001974 0.000000 0.000000 0.000000
# 3 0.000514 -0.001974 0.010795 0.000000 0.000000 0.000000
# 4 0.000000 0.000000 0.000000 0.032144 0.000000 0.000000
# 5 0.000000 0.000000 0.000000 0.000000 0.023010 0.000000
# 6 0.000000 0.000000 0.000000 0.000000 0.000000 0.040539
#
#
# Mechanical properties :
#
#
# Convention : Reuss Voigt Hill
#
# Bulk Modulus (GPa) = 41.86037 49.19505 45.52771
# Shear Modulus (GPa) = 33.27739 36.37567 34.82653
#
# Velocity S-wave (km/s) = 3.79773 3.97059 3.88512
# Velocity P-wave (km/s) = 6.11335 6.50710 6.31330
#
# Compressibility (1/GPa) = 0.02388895
#
# Stress axis : x y z
#
# Youngs Moduli (GPa) = 62.14010 119.68413 92.63840
#
# Poissons Ratio (x) = 0.50463 -0.04762
# Poissons Ratio (y) = 0.26201 0.18291
# Poissons Ratio (z) = -0.03194 0.23632
#
# Static dielectric constant tensor:
#      x y z
#    x 4.144160 0.000000 0.000000 
#    y 0.000000 4.167590 0.000000 
#    z 0.000000 0.000000 4.331140 
# 
# 
# High freq. dielectric constant tensor:
#      x y z
#    x 1.905470 0.000000 0.000000 
#    y 0.000000 1.899110 0.000000 
#    z 0.000000 0.000000 1.935440 
# 
# From -- ./inp_files/6426.got.cif
#   From: 2010.03.12/outbox.cif.g09.slc.cpg/sg24_4_cif.got.tgz:6426.got - 2010.04.14 03:06:53.
