data_PCOD8165232
_publ_section_title
;
Structure prediction by ZEFSAII (Michael W. Deem and Ramdas Pophale) SiO2 
 PCOD8165232
Probable space group: I 21 21 21
;
_chemical_formula_sum "Si O2"
_cell_formula_units_Z 60
_cell_length_a 17.481804
_cell_length_b 16.370853
_cell_length_c 11.429173
_cell_angle_alpha 90.000000
_cell_angle_beta 90.000000
_cell_angle_gamma 90.000000
_cell_volume 3270.938376
_symmetry_space_group_name_H-M "I 21 21 21"
_symmetry_group_IT_number 24
_symmetry_cell_setting 'orthorhombic'
loop_
_space_group_symop_operation_xyz
x,y,z
-x,1/2-y,z
x,-y,1/2-z
1/2-x,y,-z
1/2+x,1/2+y,1/2+z
1/2-x,-y,1/2+z
1/2+x,1/2-y,-z
-x,1/2+y,1/2-z
loop_
_atom_site_type_symbol
_atom_site_label
_atom_site_fract_x
_atom_site_fract_y
_atom_site_fract_z
Si Si1 0.192001 0.254623 0.897353
Si Si2 0.117629 0.587810 0.904057
Si Si3 0.750000 0.817512 0.000000
Si Si4 0.954402 0.169111 0.368166
Si Si5 0.408004 0.597036 0.360531
Si Si6 0.915349 0.592594 0.271709
Si Si7 0.818220 0.261231 0.293786
Si Si8 0.547120 0.669023 0.482978
O O1 0.155447 0.343416 0.914843
O O2 0.240587 0.252207 0.778343
O O3 0.250000 0.234188 0.000000
O O4 0.121618 0.190497 0.903915
O O5 0.083825 0.612942 0.778421
O O6 0.120628 0.490278 0.904371
O O7 0.203152 0.623500 0.912918
O O8 0.070563 0.622869 0.013736
O O9 0.802747 0.754894 0.070231
O O10 0.887518 0.195473 0.274340
O O11 0.000000 0.250000 0.407128
O O12 0.006246 0.105990 0.297723
O O13 0.493287 0.611580 0.406361
O O14 0.889664 0.500000 0.250000
O O15 0.846339 0.646761 0.221423
O O16 0.925887 0.616857 0.406350
O O17 0.500000 0.750000 0.522361
#
# Coordination Sequence:
#
# PCOD8165232 Si02
#       8
#     8   8   4   8   8   8   8   8
#     4  11  21  36  59  84 112 154 189 230 285 342
#     4  10  20  38  56  86 117 146 185 238 287 339
#     4  10  20  38  60  84 116 148 190 232 288 350
#     4   9  20  35  59  82 110 149 190 229 278 343
#     4  10  22  36  57  85 119 147 188 235 286 335
#     4  11  21  37  58  82 113 146 189 240 286 331
#     4  10  20  39  57  84 111 150 189 232 280 347
#     4  10  21  37  59  83 114 150 192 234 277 348
#
# _framework density 18.343360000000001
#
# number of rings (size 3 to 8) (size 9 to 14) (size 15 to 20)
#    0.000    1.867    2.667    2.000    2.800    1.600 
#    2.400    1.333    2.933    0.000    0.000    0.000 
#    0.000    0.000    0.000    0.000    0.000    0.000 
#
# Total GULP energy -371807.542847 kJ/mol
# GULP energy per Si atom -12393.584762 kJ/mol
# Density = 1.830161 g / cm^3
# Si number density = 18.343360 Si / 1000 Ang^3
#
#
#
# Elastic Constant Matrix: (Units=GPa)
#
#
# Indices 1 2 3 4 5 6 
#
# 1 112.5598 52.5052 41.6146 0.0000 0.0000 0.0000
# 2 52.5052 106.8030 53.3741 0.0000 0.0000 0.0000
# 3 41.6146 53.3741 85.9599 0.0000 0.0000 0.0000
# 4 0.0000 0.0000 0.0000 28.2998 0.0000 0.0000
# 5 0.0000 0.0000 0.0000 0.0000 32.8002 0.0000
# 6 0.0000 0.0000 0.0000 0.0000 0.0000 20.8749
#
#
#
# Elastic Compliance Matrix: (Units=1/GPa)
#
#
# Indices 1 2 3 4 5 6 
#
# 1 0.012083 -0.004374 -0.003134 0.000000 0.000000 0.000000
# 2 -0.004374 0.015159 -0.007295 0.000000 0.000000 0.000000
# 3 -0.003134 -0.007295 0.017680 0.000000 0.000000 0.000000
# 4 0.000000 0.000000 0.000000 0.035336 0.000000 0.000000
# 5 0.000000 0.000000 0.000000 0.000000 0.030488 0.000000
# 6 0.000000 0.000000 0.000000 0.000000 0.000000 0.047904
#
#
# Mechanical properties :
#
#
# Convention : Reuss Voigt Hill
#
# Bulk Modulus (GPa) = 65.28850 66.70118 65.99484
# Shear Modulus (GPa) = 25.85839 26.91690 26.38765
#
# Velocity S-wave (km/s) = 3.75865 3.83481 3.79692
# Velocity P-wave (km/s) = 7.38284 7.48660 7.43490
#
# Compressibility (1/GPa) = 0.01531663
#
# Stress axis : x y z
#
# Youngs Moduli (GPa) = 82.76030 65.96758 56.56132
#
# Poissons Ratio (x) = 0.28855 0.17724
# Poissons Ratio (y) = 0.36200 0.41261
# Poissons Ratio (z) = 0.25934 0.48123
#
# Static dielectric constant tensor:
#      x y z
#    x 3.653210 0.000000 0.000000 
#    y 0.000000 3.301380 0.000000 
#    z 0.000000 0.000000 3.377960 
# 
# 
# High freq. dielectric constant tensor:
#      x y z
#    x 1.719560 0.000000 0.000000 
#    y 0.000000 1.701270 0.000000 
#    z 0.000000 0.000000 1.712720 
# 
# From -- ./inp_files/21685.got.cif
#   From: 2010.03.12/outbox.cif.g09.slc.cpg/sg24_11_cif.got.tgz:21685.got - 2010.04.14 03:06:53.
