data_PCOD8165225
_publ_section_title
;
Structure prediction by ZEFSAII (Michael W. Deem and Ramdas Pophale) SiO2 
 PCOD8165225
Probable space group: I 21 21 21
;
_chemical_formula_sum "Si O2"
_cell_formula_units_Z 60
_cell_length_a 8.598623
_cell_length_b 16.893290
_cell_length_c 20.282976
_cell_angle_alpha 90.000000
_cell_angle_beta 90.000000
_cell_angle_gamma 90.000000
_cell_volume 2946.285459
_symmetry_space_group_name_H-M "I 21 21 21"
_symmetry_group_IT_number 24
_symmetry_cell_setting 'orthorhombic'
loop_
_space_group_symop_operation_xyz
x,y,z
-x,1/2-y,z
x,-y,1/2-z
1/2-x,y,-z
1/2+x,1/2+y,1/2+z
1/2-x,-y,1/2+z
1/2+x,1/2-y,-z
-x,1/2+y,1/2-z
loop_
_atom_site_type_symbol
_atom_site_label
_atom_site_fract_x
_atom_site_fract_y
_atom_site_fract_z
Si Si1 0.281400 0.874852 0.307505
Si Si2 0.260187 0.899821 0.925530
Si Si3 0.666532 0.029087 0.679321
Si Si4 0.000000 0.250000 0.871020
Si Si5 0.566723 0.666230 0.813785
Si Si6 0.554433 0.439168 0.910102
Si Si7 0.589386 0.885893 0.464913
Si Si8 0.506319 0.508229 0.141692
O O1 0.381329 0.796253 0.323241
O O2 0.192463 0.868274 0.238109
O O3 0.151545 0.882072 0.363173
O O4 0.392222 0.952906 0.308321
O O5 0.345579 0.830912 0.884066
O O6 0.352343 0.982006 0.927139
O O7 0.098164 0.916415 0.887474
O O8 0.250000 0.867469 0.000000
O O9 0.583619 0.112937 0.672553
O O10 0.611466 0.000000 0.750000
O O11 0.607878 0.965346 0.624784
O O12 0.852499 0.040198 0.678062
O O13 0.907925 0.191782 0.919836
O O14 0.500000 0.750000 0.790440
O O15 0.534074 0.385574 0.975147
O O16 0.750000 0.899815 0.500000
O O17 0.546940 0.960195 0.421424
#
# Coordination Sequence:
#
# PCOD8165225 Si02
#       8
#     8   8   8   4   8   8   8   8
#     4  10  23  43  62  91 133 177 216 265 323 391
#     4  10  21  41  69  95 123 165 213 274 332 379
#     4  11  22  40  66  99 123 166 226 275 319 380
#     4  10  26  36  58  92 140 176 214 252 328 398
#     4  11  26  46  67  91 132 176 216 266 344 407
#     4  10  20  37  66  90 129 170 220 262 312 385
#     4  11  21  36  56  97 134 174 212 262 320 384
#     4  10  22  37  66  99 125 162 218 285 309 380
#
# _framework density 20.364626000000001
#
# number of rings (size 3 to 8) (size 9 to 14) (size 15 to 20)
#    0.000    1.600    4.000    0.000    3.733    3.200 
#    0.000    1.333    0.000    0.000    0.000    0.000 
#    0.000    0.000    0.000    0.000    0.000    0.000 
#
# Total GULP energy -371883.562011 kJ/mol
# GULP energy per Si atom -12396.118734 kJ/mol
# Density = 2.031828 g / cm^3
# Si number density = 20.364626 Si / 1000 Ang^3
#
#
#
# Elastic Constant Matrix: (Units=GPa)
#
#
# Indices 1 2 3 4 5 6 
#
# 1 121.2289 35.3607 39.8590 0.0000 0.0000 0.0000
# 2 35.3607 57.2398 26.3223 0.0000 0.0000 0.0000
# 3 39.8590 26.3223 108.6077 0.0000 0.0000 0.0000
# 4 0.0000 0.0000 0.0000 40.1093 0.0000 0.0000
# 5 0.0000 0.0000 0.0000 0.0000 37.7131 0.0000
# 6 0.0000 0.0000 0.0000 0.0000 0.0000 19.3102
#
#
#
# Elastic Compliance Matrix: (Units=1/GPa)
#
#
# Indices 1 2 3 4 5 6 
#
# 1 0.010682 -0.005398 -0.002612 0.000000 0.000000 0.000000
# 2 -0.005398 0.022389 -0.003445 0.000000 0.000000 0.000000
# 3 -0.002612 -0.003445 0.011001 0.000000 0.000000 0.000000
# 4 0.000000 0.000000 0.000000 0.024932 0.000000 0.000000
# 5 0.000000 0.000000 0.000000 0.000000 0.026516 0.000000
# 6 0.000000 0.000000 0.000000 0.000000 0.000000 0.051786
#
#
# Mechanical properties :
#
#
# Convention : Reuss Voigt Hill
#
# Bulk Modulus (GPa) = 47.25441 54.46227 50.85834
# Shear Modulus (GPa) = 28.20539 31.79548 30.00044
#
# Velocity S-wave (km/s) = 3.72562 3.95563 3.84235
# Velocity P-wave (km/s) = 6.46232 6.90393 6.68677
#
# Compressibility (1/GPa) = 0.02116205
#
# Stress axis : x y z
#
# Youngs Moduli (GPa) = 93.61394 44.66423 90.89995
#
# Poissons Ratio (x) = 0.24109 0.23744
# Poissons Ratio (y) = 0.50531 0.31318
# Poissons Ratio (z) = 0.24453 0.15388
#
# Static dielectric constant tensor:
#      x y z
#    x 3.864750 0.000000 0.000000 
#    y 0.000000 3.344900 0.000000 
#    z 0.000000 0.000000 4.275760 
# 
# 
# High freq. dielectric constant tensor:
#      x y z
#    x 1.808260 0.000000 0.000000 
#    y 0.000000 1.759210 0.000000 
#    z 0.000000 0.000000 1.810520 
# 
# From -- ./inp_files/14466.got.cif
#   From: 2010.03.12/outbox.cif.g09.slc.cpg/sg24_8_cif.got.tgz:14466.got - 2010.04.14 03:06:53.
