data_PCOD8165178
_publ_section_title
;
Structure prediction by ZEFSAII (Michael W. Deem and Ramdas Pophale) SiO2 
 PCOD8165178
Probable space group: I 21 21 21
;
_chemical_formula_sum "Si O2"
_cell_formula_units_Z 40
_cell_length_a 8.043814
_cell_length_b 19.408569
_cell_length_c 12.226482
_cell_angle_alpha 90.000000
_cell_angle_beta 90.000000
_cell_angle_gamma 90.000000
_cell_volume 1908.785154
_symmetry_space_group_name_H-M "I 21 21 21"
_symmetry_group_IT_number 24
_symmetry_cell_setting 'orthorhombic'
loop_
_space_group_symop_operation_xyz
x,y,z
-x,1/2-y,z
x,-y,1/2-z
1/2-x,y,-z
1/2+x,1/2+y,1/2+z
1/2-x,-y,1/2+z
1/2+x,1/2-y,-z
-x,1/2+y,1/2-z
loop_
_atom_site_type_symbol
_atom_site_label
_atom_site_fract_x
_atom_site_fract_y
_atom_site_fract_z
Si Si1 0.878446 0.690509 0.803571
Si Si2 0.641925 0.000000 0.750000
Si Si3 0.876590 0.895495 0.662878
Si Si4 0.750000 0.610438 0.000000
Si Si5 0.437315 0.512828 0.988160
Si Si6 0.692750 0.240174 0.888182
O O1 0.757410 0.725283 0.719329
O O2 0.000000 0.750000 0.852756
O O3 0.973399 0.631987 0.735821
O O4 0.755878 0.659301 0.894479
O O5 0.761757 0.933789 0.751455
O O6 0.531543 0.005303 0.860033
O O7 0.765403 0.837160 0.605504
O O8 0.947112 0.946040 0.567152
O O9 0.918068 0.566526 0.985536
O O10 0.250000 0.544564 0.000000
O O11 0.500000 0.250000 0.882696
O O12 0.750000 0.277977 0.000000
#
# Coordination Sequence:
#
# PCOD8165178 Si02
#       6
#     8   4   8   4   8   8
#     4  10  24  45  67  96 136 182 233 293 340 427
#     4  10  20  36  68  96 130 174 214 278 356 406
#     4  10  21  44  67  94 139 179 228 292 358 409
#     4  12  26  46  66 104 136 186 244 276 374 424
#     4  10  23  42  66  98 139 180 224 297 345 432
#     4  11  23  41  68 100 130 180 232 286 353 417
#
# _framework density 20.955738
#
# number of rings (size 3 to 8) (size 9 to 14) (size 15 to 20)
#    0.000    1.600    0.000    6.000    2.800    2.400 
#   14.400    0.000    0.000    0.000    0.000    0.000 
#    0.000    0.000    0.000    0.000    0.000    0.000 
#
# Total GULP energy -247813.058743 kJ/mol
# GULP energy per Si atom -12390.652937 kJ/mol
# Density = 2.090804 g / cm^3
# Si number density = 20.955738 Si / 1000 Ang^3
#
#
#
# Elastic Constant Matrix: (Units=GPa)
#
#
# Indices 1 2 3 4 5 6 
#
# 1 112.2760 54.0611 35.1605 -0.0001 -0.0001 0.0001
# 2 54.0611 103.8088 72.4513 0.0001 0.0001 -0.0002
# 3 35.1605 72.4513 139.7025 0.0005 -0.0004 -0.0003
# 4 -0.0001 0.0001 0.0005 56.0881 -0.0001 -0.0002
# 5 -0.0001 0.0001 -0.0004 -0.0001 134.0764 -0.0001
# 6 0.0001 -0.0002 -0.0003 -0.0002 -0.0001 16.1197
#
#
#
# Elastic Compliance Matrix: (Units=1/GPa)
#
#
# Indices 1 2 3 4 5 6 
#
# 1 0.011898 -0.006436 0.000343 0.000000 0.000000 0.000000
# 2 -0.006436 0.018579 -0.008015 0.000000 0.000000 0.000000
# 3 0.000343 -0.008015 0.011229 0.000000 0.000000 0.000000
# 4 0.000000 0.000000 0.000000 0.017829 0.000000 0.000000
# 5 0.000000 0.000000 0.000000 0.000000 0.007458 0.000000
# 6 0.000000 0.000000 0.000000 0.000000 0.000000 0.062036
#
#
# Mechanical properties :
#
#
# Convention : Reuss Voigt Hill
#
# Bulk Modulus (GPa) = 74.13213 75.45923 74.79568
# Shear Modulus (GPa) = 30.91353 54.19779 42.55566
#
# Velocity S-wave (km/s) = 3.84498 5.09108 4.51126
# Velocity P-wave (km/s) = 7.42726 8.40511 7.93127
#
# Compressibility (1/GPa) = 0.01348943
#
# Stress axis : x y z
#
# Youngs Moduli (GPa) = 84.04817 53.82458 89.05793
#
# Poissons Ratio (x) = 0.34639 -0.03056
# Poissons Ratio (y) = 0.54090 0.71384
# Poissons Ratio (z) = -0.02884 0.43143
#
# Static dielectric constant tensor:
#      x y z
#    x 3.494150 0.000000 0.000000 
#    y 0.000000 3.817480 0.000000 
#    z 0.000000 0.000000 4.202860 
# 
# 
# High freq. dielectric constant tensor:
#      x y z
#    x 1.812040 0.000000 0.000000 
#    y 0.000000 1.815550 0.000000 
#    z 0.000000 0.000000 1.844320 
# 
# From -- ./inp_files/13875.got.cif
#   From: 2010.03.12/outbox.cif.g09.slc.cpg/sg24_7_cif.got.tgz:13875.got - 2010.04.14 03:06:53.
