data_PCOD8165046
_publ_section_title
;
Structure prediction by ZEFSAII (Michael W. Deem and Ramdas Pophale) SiO2 
 PCOD8165046
Probable space group: I 21 21 21
;
_chemical_formula_sum "Si O2"
_cell_formula_units_Z 40
_cell_length_a 6.593469
_cell_length_b 13.763514
_cell_length_c 23.854453
_cell_angle_alpha 90.000000
_cell_angle_beta 90.000000
_cell_angle_gamma 90.000000
_cell_volume 2164.774981
_symmetry_space_group_name_H-M "I 21 21 21"
_symmetry_group_IT_number 24
_symmetry_cell_setting 'orthorhombic'
loop_
_space_group_symop_operation_xyz
x,y,z
-x,1/2-y,z
x,-y,1/2-z
1/2-x,y,-z
1/2+x,1/2+y,1/2+z
1/2-x,-y,1/2+z
1/2+x,1/2-y,-z
-x,1/2+y,1/2-z
loop_
_atom_site_type_symbol
_atom_site_label
_atom_site_fract_x
_atom_site_fract_y
_atom_site_fract_z
Si Si1 0.838712 0.381913 0.630348
Si Si2 0.519287 0.998978 0.839567
Si Si3 0.617771 0.154639 0.755111
Si Si4 0.000000 0.250000 0.724866
Si Si5 0.765528 0.925119 0.939902
Si Si6 0.000000 0.250000 0.420941
O O1 0.717353 0.481684 0.644456
O O2 0.932953 0.340535 0.686719
O O3 0.668656 0.303576 0.615419
O O4 0.006751 0.398505 0.581525
O O5 0.604817 0.918856 0.796716
O O6 0.661116 0.994146 0.894162
O O7 0.536981 0.105358 0.812115
O O8 0.500000 0.250000 0.737412
O O9 0.841975 0.196587 0.765445
O O10 0.627494 0.830056 0.954859
O O11 0.750000 0.980560 0.000000
#
# Coordination Sequence:
#
# PCOD8165046 Si02
#       6
#     8   8   8   4   8   4
#     4  11  19  36  55  80 120 158 190 239 295 352
#     4  10  23  39  56  85 122 152 203 250 293 366
#     4  11  22  38  58  87 117 157 195 252 305 356
#     4  12  18  33  62  82 118 156 193 234 302 356
#     4  11  23  35  55  83 119 161 197 241 297 359
#     4  10  20  29  50  82 116 152 195 232 276 366
#
# _framework density 18.47767
#
# number of rings (size 3 to 8) (size 9 to 14) (size 15 to 20)
#    0.000    1.200    6.000    1.200    4.200    4.000 
#    0.000    0.000    0.000    0.000    7.800    0.000 
#    0.000    0.000    0.000    0.000    0.000    0.000 
#
# Total GULP energy -247761.835120 kJ/mol
# GULP energy per Si atom -12388.091756 kJ/mol
# Density = 1.843561 g / cm^3
# Si number density = 18.477670 Si / 1000 Ang^3
#
#
#
# Elastic Constant Matrix: (Units=GPa)
#
#
# Indices 1 2 3 4 5 6 
#
# 1 113.1651 19.0560 27.6060 0.0000 0.0000 0.0000
# 2 19.0560 48.3061 26.1218 0.0000 0.0000 0.0000
# 3 27.6060 26.1218 98.1381 0.0000 0.0000 0.0000
# 4 0.0000 0.0000 0.0000 10.7919 0.0000 0.0000
# 5 0.0000 0.0000 0.0000 0.0000 24.0695 0.0000
# 6 0.0000 0.0000 0.0000 0.0000 0.0000 18.2901
#
#
#
# Elastic Compliance Matrix: (Units=1/GPa)
#
#
# Indices 1 2 3 4 5 6 
#
# 1 0.009796 -0.002773 -0.002017 0.000000 0.000000 0.000000
# 2 -0.002773 0.024967 -0.005865 0.000000 0.000000 0.000000
# 3 -0.002017 -0.005865 0.012318 0.000000 0.000000 0.000000
# 4 0.000000 0.000000 0.000000 0.092662 0.000000 0.000000
# 5 0.000000 0.000000 0.000000 0.000000 0.041546 0.000000
# 6 0.000000 0.000000 0.000000 0.000000 0.000000 0.054674
#
#
# Mechanical properties :
#
#
# Convention : Reuss Voigt Hill
#
# Bulk Modulus (GPa) = 38.80632 45.01965 41.91299
# Shear Modulus (GPa) = 18.80647 23.08534 20.94591
#
# Velocity S-wave (km/s) = 3.19375 3.53847 3.37052
# Velocity P-wave (km/s) = 5.88620 6.41183 6.15463
#
# Compressibility (1/GPa) = 0.02576900
#
# Stress axis : x y z
#
# Youngs Moduli (GPa) = 102.08482 40.05263 81.17930
#
# Poissons Ratio (x) = 0.11108 0.16376
# Poissons Ratio (y) = 0.28312 0.47615
# Poissons Ratio (z) = 0.20594 0.23493
#
# Static dielectric constant tensor:
#      x y z
#    x 4.264580 0.000000 0.000000 
#    y 0.000000 3.488840 0.000000 
#    z 0.000000 0.000000 3.257370 
# 
# 
# High freq. dielectric constant tensor:
#      x y z
#    x 1.740000 0.000000 0.000000 
#    y 0.000000 1.673090 0.000000 
#    z 0.000000 0.000000 1.697170 
# 
# From -- ./inp_files/3550.got.cif
#   From: 2010.03.12/outbox.cif.g09.slc.cpg/sg24_2_cif.got.tgz:3550.got - 2010.04.14 03:06:53.
