data_PCOD8165289
_publ_section_title
;
Structure prediction by ZEFSAII (Michael W. Deem and Ramdas Pophale) SiO2 
 PCOD8165289
Probable space group: I 21 21 21
;
_chemical_formula_sum "Si O2"
_cell_formula_units_Z 64
_cell_length_a 19.749942
_cell_length_b 8.613385
_cell_length_c 19.379405
_cell_angle_alpha 90.000000
_cell_angle_beta 90.000000
_cell_angle_gamma 90.000000
_cell_volume 3296.705276
_symmetry_space_group_name_H-M "I 21 21 21"
_symmetry_group_IT_number 24
_symmetry_cell_setting 'orthorhombic'
loop_
_space_group_symop_operation_xyz
x,y,z
-x,1/2-y,z
x,-y,1/2-z
1/2-x,y,-z
1/2+x,1/2+y,1/2+z
1/2-x,-y,1/2+z
1/2+x,1/2-y,-z
-x,1/2+y,1/2-z
loop_
_atom_site_type_symbol
_atom_site_label
_atom_site_fract_x
_atom_site_fract_y
_atom_site_fract_z
Si Si1 0.940764 0.142164 0.065809
Si Si2 0.050461 0.396426 0.316257
Si Si3 0.317728 0.806070 0.197897
Si Si4 0.683800 0.627635 0.354046
Si Si5 0.563300 0.842890 0.406884
Si Si6 0.787959 0.814193 0.428375
Si Si7 0.295614 0.583910 0.819511
Si Si8 0.051790 0.614067 0.809685
O O1 0.867578 0.226345 0.068160
O O2 0.000000 0.250000 0.095594
O O3 0.949149 0.987754 0.111207
O O4 0.951715 0.112193 0.985416
O O5 0.028516 0.500000 0.250000
O O6 0.128912 0.347005 0.307516
O O7 0.000000 0.250000 0.321087
O O8 0.297419 0.851956 0.274690
O O9 0.253213 0.726369 0.162964
O O10 0.378871 0.690677 0.212968
O O11 0.338174 0.945838 0.144795
O O12 0.628469 0.739005 0.389360
O O13 0.752886 0.662813 0.395111
O O14 0.500000 0.750000 0.374830
O O15 0.568804 0.013098 0.375962
O O16 0.750000 0.853231 0.500000
O O17 0.784225 0.967550 0.382376
O O18 0.270840 0.500000 0.750000
O O19 0.023230 0.500000 0.750000
O O20 0.000000 0.750000 0.827656
#
# Coordination Sequence:
#
# PCOD8165289 Si02
#       8
#     8   8   8   8   8   8   8   8
#     4  10  23  40  65  88 118 162 201 245 306 369
#     4  10  22  41  65  93 122 151 199 252 311 369
#     4  11  23  37  60  90 123 155 200 259 300 358
#     4  11  22  38  60  90 121 157 202 250 310 358
#     4  11  22  40  60  85 120 164 209 248 298 365
#     4  11  21  38  65  87 119 161 204 243 301 372
#     4  10  20  39  61  91 118 157 199 247 307 369
#     4  12  24  36  59  86 123 166 206 251 298 352
#
# _framework density 19.413322000000001
#
# number of rings (size 3 to 8) (size 9 to 14) (size 15 to 20)
#    0.000    1.250    3.750    2.625    1.750    1.500 
#    2.250    0.625    0.000    0.000    0.000    0.000 
#    0.000    0.000    0.000    0.000    0.000    0.000 
#
# Total GULP energy -396550.775328 kJ/mol
# GULP energy per Si atom -12392.211729 kJ/mol
# Density = 1.936914 g / cm^3
# Si number density = 19.413322 Si / 1000 Ang^3
#
#
#
# Elastic Constant Matrix: (Units=GPa)
#
#
# Indices 1 2 3 4 5 6 
#
# 1 113.4404 43.9382 21.5414 0.0000 0.0000 0.0000
# 2 43.9382 99.1347 36.9458 0.0000 0.0000 0.0000
# 3 21.5414 36.9458 90.3498 0.0000 0.0000 0.0000
# 4 0.0000 0.0000 0.0000 -35.9607 0.0000 0.0000
# 5 0.0000 0.0000 0.0000 0.0000 26.9470 0.0000
# 6 0.0000 0.0000 0.0000 0.0000 0.0000 40.0760
#
#
#
# Elastic Compliance Matrix: (Units=1/GPa)
#
#
# Indices 1 2 3 4 5 6 
#
# 1 0.010682 -0.004466 -0.000721 0.000000 0.000000 0.000000
# 2 -0.004466 0.013768 -0.004565 0.000000 0.000000 0.000000
# 3 -0.000721 -0.004565 0.013107 0.000000 0.000000 0.000000
# 4 0.000000 0.000000 0.000000 -0.027808 0.000000 0.000000
# 5 0.000000 0.000000 0.000000 0.000000 0.037110 0.000000
# 6 0.000000 0.000000 0.000000 0.000000 0.000000 0.024953
#
#
# Mechanical properties :
#
#
# Convention : Reuss Voigt Hill
#
# Bulk Modulus (GPa) = 55.39201 56.41954 55.90577
# Shear Modulus (GPa) = 51.37063 19.57908 35.47486
#
# Velocity S-wave (km/s) = 5.14966 3.17919 4.27938
# Velocity P-wave (km/s) = 7.99710 6.52700 7.29915
#
# Compressibility (1/GPa) = 0.01805315
#
# Stress axis : x y z
#
# Youngs Moduli (GPa) = 93.61773 72.63227 76.29668
#
# Poissons Ratio (x) = 0.32436 0.05498
# Poissons Ratio (y) = 0.41807 0.34831
# Poissons Ratio (z) = 0.06746 0.33159
#
# Static dielectric constant tensor:
#      x y z
#    x 4.454490 0.000000 0.000000 
#    y 0.000000 3.623430 0.000000 
#    z 0.000000 0.000000 3.584240 
# 
# 
# High freq. dielectric constant tensor:
#      x y z
#    x 1.769400 0.000000 0.000000 
#    y 0.000000 1.744640 0.000000 
#    z 0.000000 0.000000 1.757890 
# 
# From -- ./inp_files/31396.got.cif
#   From: 2010.03.12/outbox.cif.g09.slc.cpg/sg24_16_cif.got.tgz:31396.got - 2010.04.14 03:06:53.
