data_PCOD8165525
_publ_section_title
;
Structure prediction by ZEFSAII (Michael W. Deem and Ramdas Pophale) SiO2 
 PCOD8165525
Probable space group: I 21 21 21
;
_chemical_formula_sum "Si O2"
_cell_formula_units_Z 64
_cell_length_a 11.000646
_cell_length_b 14.369484
_cell_length_c 18.668877
_cell_angle_alpha 90.000000
_cell_angle_beta 90.000000
_cell_angle_gamma 90.000000
_cell_volume 2951.056720
_symmetry_space_group_name_H-M "I 21 21 21"
_symmetry_group_IT_number 24
_symmetry_cell_setting 'orthorhombic'
loop_
_space_group_symop_operation_xyz
x,y,z
-x,1/2-y,z
x,-y,1/2-z
1/2-x,y,-z
1/2+x,1/2+y,1/2+z
1/2-x,-y,1/2+z
1/2+x,1/2-y,-z
-x,1/2+y,1/2-z
loop_
_atom_site_type_symbol
_atom_site_label
_atom_site_fract_x
_atom_site_fract_y
_atom_site_fract_z
Si Si1 0.392921 0.646324 0.904677
Si Si2 0.997141 0.009210 0.859952
Si Si3 0.238608 0.964972 0.413549
Si Si4 0.661268 0.341505 0.565716
Si Si5 0.374956 0.524155 0.507659
Si Si6 0.987353 0.355869 0.116555
Si Si7 0.340826 0.393754 0.748181
Si Si8 0.571758 0.847843 0.246881
O O1 0.517190 0.659005 0.950193
O O2 0.309879 0.739857 0.901545
O O3 0.325090 0.562763 0.944345
O O4 0.423011 0.622060 0.822256
O O5 0.984740 0.914025 0.814773
O O6 0.133553 0.040715 0.874797
O O7 0.940397 0.099367 0.822261
O O8 0.928992 0.989297 0.933581
O O9 0.250000 0.951240 0.500000
O O10 0.153515 0.886436 0.375112
O O11 0.185573 0.065782 0.388374
O O12 0.750000 0.355690 0.500000
O O13 0.250000 0.583830 0.500000
O O14 0.474368 0.582271 0.549230
O O15 0.072461 0.370165 0.185479
O O16 0.000000 0.250000 0.092947
O O17 0.295778 0.500000 0.750000
O O18 0.217912 0.331781 0.740479
O O19 0.500000 0.750000 0.245514
#
# Coordination Sequence:
#
# PCOD8165525 Si02
#       8
#     8   8   8   8   8   8   8   8
#     4  11  23  40  69 105 135 183 229 283 360 413
#     4  11  24  47  73 101 142 187 230 289 356 423
#     4  11  22  48  72 100 147 174 231 295 354 425
#     4  10  21  40  64 101 141 171 221 284 348 420
#     4  12  22  44  72 101 136 185 234 291 354 411
#     4  12  28  45  69 106 137 189 239 293 353 411
#     4  12  23  49  72  97 149 181 236 296 343 425
#     4  11  27  49  70 107 140 189 237 288 354 425
#
# _framework density 21.687145000000001
#
# number of rings (size 3 to 8) (size 9 to 14) (size 15 to 20)
#    0.000    0.750    5.000    2.625    5.250    1.000 
#   11.250    0.000    0.000    0.000    0.000    0.000 
#    0.000    0.000    0.000    0.000    0.000    0.000 
#
# Total GULP energy -396486.853431 kJ/mol
# GULP energy per Si atom -12390.214170 kJ/mol
# Density = 2.163778 g / cm^3
# Si number density = 21.687145 Si / 1000 Ang^3
#
#
#
# Elastic Constant Matrix: (Units=GPa)
#
#
# Indices 1 2 3 4 5 6 
#
# 1 134.9332 25.6973 36.4404 0.0000 0.0000 0.0000
# 2 25.6973 137.7281 41.3678 0.0000 0.0000 0.0000
# 3 36.4404 41.3678 115.8820 0.0000 0.0000 0.0000
# 4 0.0000 0.0000 0.0000 9.7608 0.0000 0.0000
# 5 0.0000 0.0000 0.0000 0.0000 34.2572 0.0000
# 6 0.0000 0.0000 0.0000 0.0000 0.0000 8.6148
#
#
#
# Elastic Compliance Matrix: (Units=1/GPa)
#
#
# Indices 1 2 3 4 5 6 
#
# 1 0.008186 -0.000845 -0.002273 0.000000 0.000000 0.000000
# 2 -0.000845 0.008220 -0.002669 0.000000 0.000000 0.000000
# 3 -0.002273 -0.002669 0.010297 0.000000 0.000000 0.000000
# 4 0.000000 0.000000 0.000000 0.102450 0.000000 0.000000
# 5 0.000000 0.000000 0.000000 0.000000 0.029191 0.000000
# 6 0.000000 0.000000 0.000000 0.000000 0.000000 0.116079
#
#
# Mechanical properties :
#
#
# Convention : Reuss Voigt Hill
#
# Bulk Modulus (GPa) = 66.09212 66.17270 66.13241
# Shear Modulus (GPa) = 17.17990 29.52908 23.35449
#
# Velocity S-wave (km/s) = 2.81760 3.69398 3.28515
# Velocity P-wave (km/s) = 6.41300 6.98374 6.70445
#
# Compressibility (1/GPa) = 0.01513040
#
# Stress axis : x y z
#
# Youngs Moduli (GPa) = 122.16470 121.65656 97.11781
#
# Poissons Ratio (x) = 0.10276 0.22070
# Poissons Ratio (y) = 0.10319 0.25918
# Poissons Ratio (z) = 0.27762 0.32467
#
# Static dielectric constant tensor:
#      x y z
#    x 4.114740 0.000000 0.000000 
#    y 0.000000 4.217900 0.000000 
#    z 0.000000 0.000000 3.881480 
# 
# 
# High freq. dielectric constant tensor:
#      x y z
#    x 1.867070 0.000000 0.000000 
#    y 0.000000 1.852310 0.000000 
#    z 0.000000 0.000000 1.843310 
# 
# From -- ./inp_files/30364.got.cif
#   From: 2010.03.12/outbox.cif.g09.slc.cpg/sg24_16_cif.got.tgz:30364.got - 2010.04.14 03:06:53.
