data_PCOD8165606
_publ_section_title
;
Structure prediction by ZEFSAII (Michael W. Deem and Ramdas Pophale) SiO2 
 PCOD8165606
Probable space group: I 21 21 21
;
_chemical_formula_sum "Si O2"
_cell_formula_units_Z 64
_cell_length_a 16.929538
_cell_length_b 12.208901
_cell_length_c 15.144889
_cell_angle_alpha 90.000000
_cell_angle_beta 90.000000
_cell_angle_gamma 90.000000
_cell_volume 3130.313061
_symmetry_space_group_name_H-M "I 21 21 21"
_symmetry_group_IT_number 24
_symmetry_cell_setting 'orthorhombic'
loop_
_space_group_symop_operation_xyz
x,y,z
-x,1/2-y,z
x,-y,1/2-z
1/2-x,y,-z
1/2+x,1/2+y,1/2+z
1/2-x,-y,1/2+z
1/2+x,1/2-y,-z
-x,1/2+y,1/2-z
loop_
_atom_site_type_symbol
_atom_site_label
_atom_site_fract_x
_atom_site_fract_y
_atom_site_fract_z
Si Si1 0.839810 0.892122 0.504710
Si Si2 0.911751 0.718002 0.622195
Si Si3 0.461116 0.862088 0.934457
Si Si4 0.557380 0.524614 0.114167
Si Si5 0.346393 0.777406 0.194334
Si Si6 0.385364 0.457972 0.341336
Si Si7 0.893792 0.036432 0.350428
Si Si8 0.800632 0.751350 0.091039
O O1 0.750000 0.853148 0.500000
O O2 0.889828 0.786702 0.535431
O O3 0.841739 0.989709 0.575622
O O4 0.877744 0.931214 0.412289
O O5 0.897029 0.589760 0.606656
O O6 0.854203 0.750370 0.702544
O O7 0.000000 0.750000 0.650957
O O8 0.500000 0.750000 0.966790
O O9 0.515848 0.917929 0.858674
O O10 0.370809 0.838150 0.907857
O O11 0.462935 0.943372 0.015480
O O12 0.607184 0.613263 0.168072
O O13 0.475828 0.503905 0.164438
O O14 0.380248 0.672232 0.141851
O O15 0.255142 0.791794 0.169503
O O16 0.345026 0.500000 0.250000
O O17 0.832061 0.128820 0.382680
O O18 0.878911 0.000000 0.250000
O O19 0.750000 0.752979 0.000000
#
# Coordination Sequence:
#
# PCOD8165606 Si02
#       8
#     8   8   8   8   8   8   8   8
#     4  12  26  43  66 100 138 170 226 282 346 407
#     4  12  24  45  63  96 141 180 217 265 344 429
#     4  10  21  43  68  96 130 176 235 283 332 401
#     4  12  22  39  67  98 133 177 225 273 331 420
#     4  12  23  36  67 103 137 170 218 279 349 409
#     4  12  21  39  69 100 134 169 215 283 348 410
#     4  11  24  44  73  99 133 181 237 293 344 409
#     4  11  23  42  66 103 138 169 223 298 351 400
#
# _framework density 20.445239999999998
#
# number of rings (size 3 to 8) (size 9 to 14) (size 15 to 20)
#    0.000    0.500    5.000    4.875    1.750    1.000 
#    2.250    6.875    0.000    0.000    0.000    0.000 
#    0.000    0.000    0.000    0.000    0.000    0.000 
#
# Total GULP energy -396822.403228 kJ/mol
# GULP energy per Si atom -12400.700101 kJ/mol
# Density = 2.039871 g / cm^3
# Si number density = 20.445240 Si / 1000 Ang^3
#
#
#
# Elastic Constant Matrix: (Units=GPa)
#
#
# Indices 1 2 3 4 5 6 
#
# 1 120.6669 15.1451 44.0999 0.0000 0.0000 0.0000
# 2 15.1451 103.2790 31.9737 0.0000 0.0000 0.0000
# 3 44.0999 31.9737 127.3944 0.0000 0.0000 0.0000
# 4 0.0000 0.0000 0.0000 23.3605 0.0000 0.0000
# 5 0.0000 0.0000 0.0000 0.0000 24.5849 0.0000
# 6 0.0000 0.0000 0.0000 0.0000 0.0000 22.4602
#
#
#
# Elastic Compliance Matrix: (Units=1/GPa)
#
#
# Indices 1 2 3 4 5 6 
#
# 1 0.009503 -0.000407 -0.003188 0.000000 0.000000 0.000000
# 2 -0.000407 0.010516 -0.002498 0.000000 0.000000 0.000000
# 3 -0.003188 -0.002498 0.009580 0.000000 0.000000 0.000000
# 4 0.000000 0.000000 0.000000 0.042807 0.000000 0.000000
# 5 0.000000 0.000000 0.000000 0.000000 0.040675 0.000000
# 6 0.000000 0.000000 0.000000 0.000000 0.000000 0.044523
#
#
# Mechanical properties :
#
#
# Convention : Reuss Voigt Hill
#
# Bulk Modulus (GPa) = 57.42689 59.30865 58.36777
# Shear Modulus (GPa) = 28.47458 31.42255 29.94856
#
# Velocity S-wave (km/s) = 3.73597 3.92460 3.83145
# Velocity P-wave (km/s) = 6.83806 7.04331 6.94144
#
# Compressibility (1/GPa) = 0.01741345
#
# Stress axis : x y z
#
# Youngs Moduli (GPa) = 105.22638 95.09645 104.38231
#
# Poissons Ratio (x) = 0.03868 0.33274
# Poissons Ratio (y) = 0.04280 0.26079
# Poissons Ratio (z) = 0.33543 0.23759
#
# Static dielectric constant tensor:
#      x y z
#    x 3.829310 0.000000 0.000000 
#    y 0.000000 3.824160 0.000000 
#    z 0.000000 0.000000 3.622000 
# 
# 
# High freq. dielectric constant tensor:
#      x y z
#    x 1.797180 0.000000 0.000000 
#    y 0.000000 1.802220 0.000000 
#    z 0.000000 0.000000 1.792700 
# 
# From -- ./inp_files/27239.got.cif
#   From: 2010.03.12/outbox.cif.g09.slc.cpg/sg24_14_cif.got.tgz:27239.got - 2010.04.14 03:06:53.
