data_PCOD8165753
_publ_section_title
;
Structure prediction by ZEFSAII (Michael W. Deem and Ramdas Pophale) SiO2 
 PCOD8165753
Probable space group: I 21 21 21
;
_chemical_formula_sum "Si O2"
_cell_formula_units_Z 28
_cell_length_a 33.120550
_cell_length_b 4.938052
_cell_length_c 7.692960
_cell_angle_alpha 90.000000
_cell_angle_beta 90.000000
_cell_angle_gamma 90.000000
_cell_volume 1258.191287
_symmetry_space_group_name_H-M "I 21 21 21"
_symmetry_group_IT_number 24
_symmetry_cell_setting 'orthorhombic'
loop_
_space_group_symop_operation_xyz
x,y,z
-x,1/2-y,z
x,-y,1/2-z
1/2-x,y,-z
1/2+x,1/2+y,1/2+z
1/2-x,-y,1/2+z
1/2+x,1/2-y,-z
-x,1/2+y,1/2-z
loop_
_atom_site_type_symbol
_atom_site_label
_atom_site_fract_x
_atom_site_fract_y
_atom_site_fract_z
Si Si1 0.643044 0.010092 0.052135
Si Si2 0.281676 0.737457 0.858710
Si Si3 0.972018 0.500000 0.250000
Si Si4 0.409844 0.013022 0.449663
O O1 0.628265 0.314889 0.013451
O O2 0.658103 0.000000 0.250000
O O3 0.604853 0.817273 0.015251
O O4 0.679456 0.918595 0.931866
O O5 0.259227 0.500000 0.750000
O O6 0.295118 0.000000 0.750000
O O7 0.250000 0.845407 0.000000
O O8 0.945559 0.564036 0.420228
O O9 0.000000 0.250000 0.295952
O O10 0.425188 0.000000 0.250000
#
# Coordination Sequence:
#
# PCOD8165753 Si02
#       4
#     8   8   4   8
#     4  10  22  42  67  95 128 171 224 281 330 398
#     4  12  26  42  65  97 135 180 225 282 345 401
#     4  12  26  42  66 100 136 176 220 282 338 412
#     4  10  23  42  67  97 132 173 223 277 336 406
#
# _framework density 22.254170999999999
#
# number of rings (size 3 to 8) (size 9 to 14) (size 15 to 20)
#    0.000    1.143    0.000    5.143    6.000    4.571 
#    0.000    0.000    0.000    0.000    0.000    0.000 
#    0.000    0.000    0.000    0.000    0.000    0.000 
#
# Total GULP energy -173634.523597 kJ/mol
# GULP energy per Si atom -12402.465971 kJ/mol
# Density = 2.220352 g / cm^3
# Si number density = 22.254171 Si / 1000 Ang^3
#
#
#
# Elastic Constant Matrix: (Units=GPa)
#
#
# Indices 1 2 3 4 5 6 
#
# 1 89.4327 18.8213 65.9802 0.0000 0.0000 0.0000
# 2 18.8213 120.9890 42.8031 0.0000 0.0000 0.0000
# 3 65.9802 42.8031 129.2814 0.0000 0.0000 0.0000
# 4 0.0000 0.0000 0.0000 38.7428 0.0000 0.0000
# 5 0.0000 0.0000 0.0000 0.0000 26.6621 0.0000
# 6 0.0000 0.0000 0.0000 0.0000 0.0000 10.6043
#
#
#
# Elastic Compliance Matrix: (Units=1/GPa)
#
#
# Indices 1 2 3 4 5 6 
#
# 1 0.017962 0.000508 -0.009335 0.000000 0.000000 0.000000
# 2 0.000508 0.009376 -0.003364 0.000000 0.000000 0.000000
# 3 -0.009335 -0.003364 0.013613 0.000000 0.000000 0.000000
# 4 0.000000 0.000000 0.000000 0.025811 0.000000 0.000000
# 5 0.000000 0.000000 0.000000 0.000000 0.037506 0.000000
# 6 0.000000 0.000000 0.000000 0.000000 0.000000 0.094301
#
#
# Mechanical properties :
#
#
# Convention : Reuss Voigt Hill
#
# Bulk Modulus (GPa) = 60.35087 66.10136 63.22612
# Shear Modulus (GPa) = 21.88425 29.34175 25.61300
#
# Velocity S-wave (km/s) = 3.13929 3.63503 3.39622
# Velocity P-wave (km/s) = 6.34964 6.88370 6.62206
#
# Compressibility (1/GPa) = 0.01656977
#
# Stress axis : x y z
#
# Youngs Moduli (GPa) = 55.67337 106.65358 73.45816
#
# Poissons Ratio (x) = -0.05423 0.68576
# Poissons Ratio (y) = -0.02831 0.24710
# Poissons Ratio (z) = 0.51973 0.35876
#
# Static dielectric constant tensor:
#      x y z
#    x 3.625800 0.000000 0.000000 
#    y 0.000000 4.113090 0.000000 
#    z 0.000000 0.000000 4.276410 
# 
# 
# High freq. dielectric constant tensor:
#      x y z
#    x 1.857190 0.000000 0.000000 
#    y 0.000000 1.896730 0.000000 
#    z 0.000000 0.000000 1.890150 
# 
# From -- ./inp_files/16169.got.cif
#   From: 2010.03.12/outbox.cif.g09.slc.cpg/sg24_9_cif.got.tgz:16169.got - 2010.04.14 03:06:53.
