data_PCOD8165467
_publ_section_title
;
Structure prediction by ZEFSAII (Michael W. Deem and Ramdas Pophale) SiO2 
 PCOD8165467
Probable space group: I 21 21 21
;
_chemical_formula_sum "Si O2"
_cell_formula_units_Z 48
_cell_length_a 9.017742
_cell_length_b 17.770093
_cell_length_c 14.967839
_cell_angle_alpha 90.000000
_cell_angle_beta 90.000000
_cell_angle_gamma 90.000000
_cell_volume 2398.538035
_symmetry_space_group_name_H-M "I 21 21 21"
_symmetry_group_IT_number 24
_symmetry_cell_setting 'orthorhombic'
loop_
_space_group_symop_operation_xyz
x,y,z
-x,1/2-y,z
x,-y,1/2-z
1/2-x,y,-z
1/2+x,1/2+y,1/2+z
1/2-x,-y,1/2+z
1/2+x,1/2-y,-z
-x,1/2+y,1/2-z
loop_
_atom_site_type_symbol
_atom_site_label
_atom_site_fract_x
_atom_site_fract_y
_atom_site_fract_z
Si Si1 0.907906 0.945792 0.994363
Si Si2 0.661713 0.720728 0.758918
Si Si3 0.159844 0.282990 0.580554
Si Si4 0.348097 0.205443 0.088808
Si Si5 0.842435 0.536702 0.588694
Si Si6 0.592346 0.553785 0.823335
O O1 0.867121 0.868493 0.945704
O O2 0.750000 0.989557 0.000000
O O3 0.007661 0.991275 0.926176
O O4 0.986974 0.934363 0.090577
O O5 0.500000 0.750000 0.738691
O O6 0.737406 0.772546 0.833781
O O7 0.754845 0.738136 0.670585
O O8 0.647418 0.633446 0.785689
O O9 0.250000 0.241598 0.500000
O O10 0.000000 0.250000 0.599448
O O11 0.500000 0.250000 0.074095
O O12 0.386815 0.120290 0.118343
O O13 0.250000 0.211330 0.000000
O O14 0.750000 0.544621 0.500000
O O15 0.742737 0.492254 0.658648
O O16 0.508725 0.500000 0.750000
#
# Coordination Sequence:
#
# PCOD8165467 Si02
#       6
#     8   8   8   8   8   8
#     4  10  21  38  62  96 130 165 210 273 337 382
#     4  12  24  41  66  96 131 172 219 274 330 396
#     4  11  21  37  62  97 135 170 209 268 334 398
#     4  11  24  44  64  90 124 170 223 276 329 390
#     4   9  20  40  64  86 121 169 216 257 318 402
#     4  11  21  41  67  94 127 177 222 261 323 416
#
# _framework density 20.012191000000001
#
# number of rings (size 3 to 8) (size 9 to 14) (size 15 to 20)
#    0.000    1.333    1.667    5.500    0.000    2.000 
#    3.000    0.833    0.000    0.000    0.000    0.000 
#    0.000    0.000    0.000    0.000    0.000    0.000 
#
# Total GULP energy -297467.232767 kJ/mol
# GULP energy per Si atom -12394.468032 kJ/mol
# Density = 1.996664 g / cm^3
# Si number density = 20.012191 Si / 1000 Ang^3
#
#
#
# Elastic Constant Matrix: (Units=GPa)
#
#
# Indices 1 2 3 4 5 6 
#
# 1 144.4843 53.3413 49.8041 0.0000 0.0000 0.0000
# 2 53.3413 118.2128 42.8057 0.0000 0.0000 0.0000
# 3 49.8041 42.8057 129.6696 0.0000 0.0000 0.0000
# 4 0.0000 0.0000 0.0000 31.6756 0.0000 0.0000
# 5 0.0000 0.0000 0.0000 0.0000 34.1139 0.0000
# 6 0.0000 0.0000 0.0000 0.0000 0.0000 18.0842
#
#
#
# Elastic Compliance Matrix: (Units=1/GPa)
#
#
# Indices 1 2 3 4 5 6 
#
# 1 0.008907 -0.003158 -0.002379 0.000000 0.000000 0.000000
# 2 -0.003158 0.010727 -0.002328 0.000000 0.000000 0.000000
# 3 -0.002379 -0.002328 0.009394 0.000000 0.000000 0.000000
# 4 0.000000 0.000000 0.000000 0.031570 0.000000 0.000000
# 5 0.000000 0.000000 0.000000 0.000000 0.029314 0.000000
# 6 0.000000 0.000000 0.000000 0.000000 0.000000 0.055297
#
#
# Mechanical properties :
#
#
# Convention : Reuss Voigt Hill
#
# Bulk Modulus (GPa) = 75.19438 76.02988 75.61213
# Shear Modulus (GPa) = 30.23500 33.20244 31.71872
#
# Velocity S-wave (km/s) = 3.89116 4.07764 3.98549
# Velocity P-wave (km/s) = 7.60552 7.76169 7.68400
#
# Compressibility (1/GPa) = 0.01329887
#
# Stress axis : x y z
#
# Youngs Moduli (GPa) = 112.27296 93.21988 106.44962
#
# Poissons Ratio (x) = 0.29437 0.25320
# Poissons Ratio (y) = 0.35453 0.24786
# Poissons Ratio (z) = 0.26705 0.21705
#
# Static dielectric constant tensor:
#      x y z
#    x 7.245870 0.000000 0.000000 
#    y 0.000000 3.855500 0.000000 
#    z 0.000000 0.000000 3.656130 
# 
# 
# High freq. dielectric constant tensor:
#      x y z
#    x 1.791220 0.000000 0.000000 
#    y 0.000000 1.780910 0.000000 
#    z 0.000000 0.000000 1.788170 
# 
# From -- ./inp_files/24788.got.cif
#   From: 2010.03.12/outbox.cif.g09.slc.cpg/sg24_13_cif.got.tgz:24788.got - 2010.04.14 03:06:53.
