data_PCOD8165729
_publ_section_title
;
Structure prediction by ZEFSAII (Michael W. Deem and Ramdas Pophale) SiO2 
 PCOD8165729
Probable space group: I 21 21 21
;
_chemical_formula_sum "Si O2"
_cell_formula_units_Z 24
_cell_length_a 27.552971
_cell_length_b 7.570847
_cell_length_c 4.950042
_cell_angle_alpha 90.000000
_cell_angle_beta 90.000000
_cell_angle_gamma 90.000000
_cell_volume 1032.575434
_symmetry_space_group_name_H-M "I 21 21 21"
_symmetry_group_IT_number 24
_symmetry_cell_setting 'orthorhombic'
loop_
_space_group_symop_operation_xyz
x,y,z
-x,1/2-y,z
x,-y,1/2-z
1/2-x,y,-z
1/2+x,1/2+y,1/2+z
1/2-x,-y,1/2+z
1/2+x,1/2-y,-z
-x,1/2+y,1/2-z
loop_
_atom_site_type_symbol
_atom_site_label
_atom_site_fract_x
_atom_site_fract_y
_atom_site_fract_z
Si Si1 0.783330 0.296555 0.746046
Si Si2 0.624695 0.110179 0.482724
Si Si3 0.956479 0.379304 0.498635
O O1 0.800109 0.500000 0.750000
O O2 0.750000 0.254231 0.500000
O O3 0.830413 0.177222 0.701694
O O4 0.750000 0.243655 0.000000
O O5 0.591281 0.269696 0.586804
O O6 0.595437 0.000000 0.250000
O O7 0.640079 0.000000 0.750000
O O8 0.942665 0.500000 0.750000
O O9 0.000000 0.250000 0.577801
O O10 0.973122 0.500000 0.250000
#
# Coordination Sequence:
#
# PCOD8165729 Si02
#       3
#     8   8   8
#     4  10  22  41  65  92 126 171 223 276 333 394
#     4  12  25  42  66  99 136 176 225 278 338 402
#     4  12  25  45  71 101 139 179 225 276 335 400
#
# _framework density 23.242853
#
# number of rings (size 3 to 8) (size 9 to 14) (size 15 to 20)
#    0.000    0.667    0.000    8.000    0.000    6.667 
#    0.000    0.000    0.000    0.000    0.000    0.000 
#    0.000    0.000    0.000    0.000    0.000    0.000 
#
# Total GULP energy -148781.041159 kJ/mol
# GULP energy per Si atom -12398.420097 kJ/mol
# Density = 2.318995 g / cm^3
# Si number density = 23.242853 Si / 1000 Ang^3
#
#
#
# Elastic Constant Matrix: (Units=GPa)
#
#
# Indices 1 2 3 4 5 6 
#
# 1 109.9637 55.9703 36.2673 -0.0003 -0.0001 0.0000
# 2 55.9703 110.0557 49.6968 -0.0005 -0.0002 -0.0002
# 3 36.2673 49.6968 169.1575 -0.0011 -0.0001 -0.0001
# 4 -0.0003 -0.0005 -0.0011 49.6264 -0.0001 -0.0002
# 5 -0.0001 -0.0002 -0.0001 -0.0001 38.5635 -0.0002
# 6 0.0000 -0.0002 -0.0001 -0.0002 -0.0002 18.9791
#
#
#
# Elastic Compliance Matrix: (Units=1/GPa)
#
#
# Indices 1 2 3 4 5 6 
#
# 1 0.012395 -0.005884 -0.000929 0.000000 0.000000 0.000000
# 2 -0.005884 0.013270 -0.002637 0.000000 0.000000 0.000000
# 3 -0.000929 -0.002637 0.006885 0.000000 0.000000 0.000000
# 4 0.000000 0.000000 0.000000 0.020151 0.000000 0.000000
# 5 0.000000 0.000000 0.000000 0.000000 0.025931 0.000000
# 6 0.000000 0.000000 0.000000 0.000000 0.000000 0.052690
#
#
# Mechanical properties :
#
#
# Convention : Reuss Voigt Hill
#
# Bulk Modulus (GPa) = 73.25845 74.78286 74.02066
# Shear Modulus (GPa) = 32.30558 37.91664 35.11111
#
# Velocity S-wave (km/s) = 3.73220 4.04335 3.89089
# Velocity P-wave (km/s) = 7.08234 7.35137 7.21811
#
# Compressibility (1/GPa) = 0.01365030
#
# Stress axis : x y z
#
# Youngs Moduli (GPa) = 80.67556 75.36015 145.23354
#
# Poissons Ratio (x) = 0.44345 0.13489
# Poissons Ratio (y) = 0.47473 0.38296
# Poissons Ratio (z) = 0.07493 0.19871
#
# Static dielectric constant tensor:
#      x y z
#    x 3.926100 0.000000 0.000000 
#    y 0.000000 4.361850 0.000000 
#    z 0.000000 0.000000 4.356510 
# 
# 
# High freq. dielectric constant tensor:
#      x y z
#    x 1.912350 0.000000 0.000000 
#    y 0.000000 1.938790 0.000000 
#    z 0.000000 0.000000 1.936320 
# 
# From -- ./inp_files/6731.got.cif
#   From: 2010.03.12/outbox.cif.g09.slc.cpg/sg24_4_cif.got.tgz:6731.got - 2010.04.14 03:06:53.
