data_PCOD8165293
_publ_section_title
;
Structure prediction by ZEFSAII (Michael W. Deem and Ramdas Pophale) SiO2 
 PCOD8165293
Probable space group: I 21 21 21
;
_chemical_formula_sum "Si O2"
_cell_formula_units_Z 48
_cell_length_a 13.061320
_cell_length_b 20.916264
_cell_length_c 8.821839
_cell_angle_alpha 90.000000
_cell_angle_beta 90.000000
_cell_angle_gamma 90.000000
_cell_volume 2410.073636
_symmetry_space_group_name_H-M "I 21 21 21"
_symmetry_group_IT_number 24
_symmetry_cell_setting 'orthorhombic'
loop_
_space_group_symop_operation_xyz
x,y,z
-x,1/2-y,z
x,-y,1/2-z
1/2-x,y,-z
1/2+x,1/2+y,1/2+z
1/2-x,-y,1/2+z
1/2+x,1/2-y,-z
-x,1/2+y,1/2-z
loop_
_atom_site_type_symbol
_atom_site_label
_atom_site_fract_x
_atom_site_fract_y
_atom_site_fract_z
Si Si1 0.646133 0.356114 0.594262
Si Si2 0.042309 0.567489 0.171357
Si Si3 0.593791 0.065733 0.324578
Si Si4 0.754908 0.724435 0.677013
Si Si5 0.774229 0.130699 0.177620
Si Si6 0.954237 0.317236 0.694223
O O1 0.750000 0.376409 0.500000
O O2 0.578874 0.415325 0.656904
O O3 0.661861 0.309188 0.735988
O O4 0.569991 0.317522 0.484095
O O5 0.049173 0.500000 0.250000
O O6 0.107093 0.617579 0.276223
O O7 0.091950 0.562446 0.005264
O O8 0.709315 0.079203 0.272151
O O9 0.523927 0.123047 0.258295
O O10 0.553820 0.000000 0.250000
O O11 0.750000 0.722213 0.500000
O O12 0.758725 0.798107 0.731282
O O13 0.849592 0.678952 0.714805
O O14 0.750000 0.121138 0.000000
O O15 0.000000 0.250000 0.743197
#
# Coordination Sequence:
#
# PCOD8165293 Si02
#       6
#     8   8   8   8   8   8
#     4   9  22  41  64  88 119 156 215 261 316 376
#     4  11  24  41  62  90 123 168 214 255 321 383
#     4  11  23  39  62  90 126 169 208 260 314 374
#     4  10  22  38  59  93 125 160 205 267 323 363
#     4  11  23  38  59  91 133 169 206 256 317 386
#     4  10  20  39  63  88 119 163 212 254 303 381
#
# _framework density 19.916402999999999
#
# number of rings (size 3 to 8) (size 9 to 14) (size 15 to 20)
#    0.000    1.667    1.667    2.000    4.667    4.000 
#    0.000    8.333    0.000    0.000    0.000    0.000 
#    0.000    0.000    0.000    0.000    0.000    0.000 
#
# Total GULP energy -297455.076418 kJ/mol
# GULP energy per Si atom -12393.961517 kJ/mol
# Density = 1.987107 g / cm^3
# Si number density = 19.916403 Si / 1000 Ang^3
#
#
#
# Elastic Constant Matrix: (Units=GPa)
#
#
# Indices 1 2 3 4 5 6 
#
# 1 88.6736 52.8525 30.4215 0.0000 0.0000 0.0001
# 2 52.8525 119.7489 47.5518 -0.0002 0.0000 -0.0001
# 3 30.4215 47.5518 89.4763 0.0001 0.0003 -0.0014
# 4 0.0000 -0.0002 0.0001 29.7793 -0.0001 -0.0004
# 5 0.0000 0.0000 0.0003 -0.0001 21.7794 0.0000
# 6 0.0001 -0.0001 -0.0014 -0.0004 0.0000 27.0052
#
#
#
# Elastic Compliance Matrix: (Units=1/GPa)
#
#
# Indices 1 2 3 4 5 6 
#
# 1 0.015604 -0.006059 -0.002085 0.000000 0.000000 0.000000
# 2 -0.006059 0.012937 -0.004815 0.000000 0.000000 0.000000
# 3 -0.002085 -0.004815 0.014444 0.000000 0.000000 0.000001
# 4 0.000000 0.000000 0.000000 0.033580 0.000000 0.000001
# 5 0.000000 0.000000 0.000000 0.000000 0.045915 0.000000
# 6 0.000000 0.000000 0.000001 0.000001 0.000000 0.037030
#
#
# Mechanical properties :
#
#
# Convention : Reuss Voigt Hill
#
# Bulk Modulus (GPa) = 58.59535 62.17226 60.38380
# Shear Modulus (GPa) = 26.16176 26.85099 26.50638
#
# Velocity S-wave (km/s) = 3.62826 3.67575 3.65208
# Velocity P-wave (km/s) = 6.85835 7.02134 6.94032
#
# Compressibility (1/GPa) = 0.01706620
#
# Stress axis : x y z
#
# Youngs Moduli (GPa) = 64.08589 77.29674 69.23167
#
# Poissons Ratio (x) = 0.46834 0.14437
# Poissons Ratio (y) = 0.38829 0.33338
# Poissons Ratio (z) = 0.13364 0.37221
#
# Static dielectric constant tensor:
#      x y z
#    x 3.814720 0.000000 0.000000 
#    y 0.000000 3.719360 0.000000 
#    z 0.000000 0.000000 3.867880 
# 
# 
# High freq. dielectric constant tensor:
#      x y z
#    x 1.779960 0.000000 0.000000 
#    y 0.000000 1.771150 0.000000 
#    z 0.000000 0.000000 1.781670 
# 
# From -- ./inp_files/11251.got.cif
#   From: 2010.03.12/outbox.cif.g09.slc.cpg/sg24_6_cif.got.tgz:11251.got - 2010.04.14 03:06:53.
