data_PCOD8165063
_publ_section_title
;
Structure prediction by ZEFSAII (Michael W. Deem and Ramdas Pophale) SiO2 
 PCOD8165063
Probable space group: I 21 21 21
;
_chemical_formula_sum "Si O2"
_cell_formula_units_Z 60
_cell_length_a 10.664536
_cell_length_b 30.686067
_cell_length_c 9.707252
_cell_angle_alpha 90.000000
_cell_angle_beta 90.000000
_cell_angle_gamma 90.000000
_cell_volume 3176.724099
_symmetry_space_group_name_H-M "I 21 21 21"
_symmetry_group_IT_number 24
_symmetry_cell_setting 'orthorhombic'
loop_
_space_group_symop_operation_xyz
x,y,z
-x,1/2-y,z
x,-y,1/2-z
1/2-x,y,-z
1/2+x,1/2+y,1/2+z
1/2-x,-y,1/2+z
1/2+x,1/2-y,-z
-x,1/2+y,1/2-z
loop_
_atom_site_type_symbol
_atom_site_label
_atom_site_fract_x
_atom_site_fract_y
_atom_site_fract_z
Si Si1 0.428121 0.936468 0.043601
Si Si2 0.870123 0.995951 0.086633
Si Si3 0.893392 0.283134 0.675787
Si Si4 0.878213 0.379617 0.295241
Si Si5 0.038192 0.928004 0.443981
Si Si6 0.597686 0.621524 0.285264
Si Si7 0.390706 0.782223 0.849297
Si Si8 0.750000 0.491748 0.000000
O O1 0.474434 0.911068 0.179547
O O2 0.364374 0.899691 0.947113
O O3 0.332533 0.974855 0.093946
O O4 0.536105 0.956834 0.949428
O O5 0.917584 0.042300 0.027573
O O6 0.846110 0.000000 0.250000
O O7 0.750000 0.983446 0.000000
O O8 0.930959 0.328284 0.749909
O O9 0.899223 0.286734 0.512596
O O10 0.748633 0.268131 0.706305
O O11 0.000000 0.250000 0.730515
O O12 0.980854 0.403404 0.200245
O O13 0.745353 0.385720 0.221402
O O14 0.921409 0.329881 0.294394
O O15 0.053269 0.892063 0.563155
O O16 0.155890 0.960729 0.417121
O O17 0.500000 0.750000 0.794036
#
# Coordination Sequence:
#
# PCOD8165063 Si02
#       8
#     8   8   8   8   8   8   8   4
#     4  11  21  34  59  82 114 146 194 239 286 336
#     4  11  26  43  56  75 113 162 201 239 282 342
#     4   9  18  34  56  83 116 147 187 250 302 361
#     4  11  18  36  56  88 119 146 186 243 297 349
#     4  11  23  36  56  83 119 149 190 239 292 343
#     4  11  20  34  58  92 116 148 186 240 301 359
#     4   9  18  33  57  83 112 150 192 243 303 364
#     4  10  20  32  54  86 116 146 178 234 284 354
#
# _framework density 18.887381999999999
#
# number of rings (size 3 to 8) (size 9 to 14) (size 15 to 20)
#    0.000    1.600    5.333    0.000    1.867    2.667 
#    0.000    3.333    0.000    0.000    0.000    0.000 
#    0.000    0.000    0.000    0.000    0.000    0.000 
#
# Total GULP energy -371707.952083 kJ/mol
# GULP energy per Si atom -12390.265069 kJ/mol
# Density = 1.884439 g / cm^3
# Si number density = 18.887382 Si / 1000 Ang^3
#
#
#
# Elastic Constant Matrix: (Units=GPa)
#
#
# Indices 1 2 3 4 5 6 
#
# 1 78.1479 53.0350 22.5929 0.0004 0.0001 0.0002
# 2 53.0350 126.2101 39.3076 0.0011 -0.0006 -0.0003
# 3 22.5929 39.3076 71.8571 0.0034 -0.0008 -0.0009
# 4 0.0004 0.0011 0.0034 25.1806 -0.0008 -0.0005
# 5 0.0001 -0.0006 -0.0008 -0.0008 20.0073 0.0001
# 6 0.0002 -0.0003 -0.0009 -0.0005 0.0001 24.3222
#
#
#
# Elastic Compliance Matrix: (Units=1/GPa)
#
#
# Indices 1 2 3 4 5 6 
#
# 1 0.018102 -0.007032 -0.001845 0.000000 0.000000 0.000000
# 2 -0.007032 0.012282 -0.004508 0.000000 0.000000 0.000000
# 3 -0.001845 -0.004508 0.016962 -0.000002 0.000001 0.000001
# 4 0.000000 0.000000 -0.000002 0.039713 0.000002 0.000001
# 5 0.000000 0.000000 0.000001 0.000002 0.049982 0.000000
# 6 0.000000 0.000000 0.000001 0.000001 0.000000 0.041115
#
#
# Mechanical properties :
#
#
# Convention : Reuss Voigt Hill
#
# Bulk Modulus (GPa) = 48.59710 56.23178 52.41444
# Shear Modulus (GPa) = 23.60895 24.65399 24.13147
#
# Velocity S-wave (km/s) = 3.53935 3.61683 3.57830
# Velocity P-wave (km/s) = 6.51832 6.87596 6.69952
#
# Compressibility (1/GPa) = 0.02057736
#
# Stress axis : x y z
#
# Youngs Moduli (GPa) = 55.24279 81.41893 58.95415
#
# Poissons Ratio (x) = 0.57255 0.10876
# Poissons Ratio (y) = 0.38847 0.26574
# Poissons Ratio (z) = 0.10191 0.36701
#
# Static dielectric constant tensor:
#      x y z
#    x 3.412370 0.000000 0.000000 
#    y 0.000000 3.622960 0.000000 
#    z 0.000000 0.000000 3.199950 
# 
# 
# High freq. dielectric constant tensor:
#      x y z
#    x 1.708410 0.000000 0.000000 
#    y 0.000000 1.741040 0.000000 
#    z 0.000000 0.000000 1.716760 
# 
# From -- ./inp_files/11612.got.cif
#   From: 2010.03.12/outbox.cif.g09.slc.cpg/sg24_6_cif.got.tgz:11612.got - 2010.04.14 03:06:53.
