data_PCOD8165992
_publ_section_title
;
Structure prediction by ZEFSAII (Michael W. Deem and Ramdas Pophale) SiO2 
 PCOD8165992
Probable space group: I 21 21 21
;
_chemical_formula_sum "Si O2"
_cell_formula_units_Z 20
_cell_length_a 27.727370
_cell_length_b 5.557097
_cell_length_c 5.086646
_cell_angle_alpha 90.000000
_cell_angle_beta 90.000000
_cell_angle_gamma 90.000000
_cell_volume 783.769158
_symmetry_space_group_name_H-M "I 21 21 21"
_symmetry_group_IT_number 24
_symmetry_cell_setting 'orthorhombic'
loop_
_space_group_symop_operation_xyz
x,y,z
-x,1/2-y,z
x,-y,1/2-z
1/2-x,y,-z
1/2+x,1/2+y,1/2+z
1/2-x,-y,1/2+z
1/2+x,1/2-y,-z
-x,1/2+y,1/2-z
loop_
_atom_site_type_symbol
_atom_site_label
_atom_site_fract_x
_atom_site_fract_y
_atom_site_fract_z
Si Si1 0.000000 0.250000 0.905534
Si Si2 0.173047 0.500000 0.250000
Si Si3 0.395960 0.842820 0.511473
Si Si4 0.750000 0.344530 0.500000
O O1 0.003057 0.500000 0.750000
O O2 0.950891 0.258324 0.073935
O O3 0.139643 0.614449 0.480842
O O4 0.205256 0.312281 0.407410
O O5 0.376848 0.000000 0.750000
O O6 0.392232 0.000000 0.250000
O O7 0.731929 0.500000 0.250000
#
# Coordination Sequence:
#
# PCOD8165992 Si02
#       4
#     4   4   8   4
#     4  10  26  52  80 120 172 218 276 338 416 498
#     4  12  30  52  86 116 166 214 280 338 428 492
#     4  11  29  49  80 120 162 216 274 336 410 500
#     4  12  30  56  80 118 162 212 276 350 420 496
#
# _framework density 25.517713000000001
#
# number of rings (size 3 to 8) (size 9 to 14) (size 15 to 20)
#    0.000    0.800    0.000    2.400   14.000   17.600 
#    0.000    0.000    0.000    0.000    0.000    0.000 
#    0.000    0.000    0.000    0.000    0.000    0.000 
#
# Total GULP energy -123961.693151 kJ/mol
# GULP energy per Si atom -12396.169315 kJ/mol
# Density = 2.545963 g / cm^3
# Si number density = 25.517713 Si / 1000 Ang^3
#
#
#
# Elastic Constant Matrix: (Units=GPa)
#
#
# Indices 1 2 3 4 5 6 
#
# 1 211.6739 82.9667 59.5439 0.0000 0.0000 0.0000
# 2 82.9667 167.4362 68.4450 0.0000 0.0000 0.0000
# 3 59.5439 68.4450 160.6913 0.0000 0.0000 0.0000
# 4 0.0000 0.0000 0.0000 37.2085 0.0000 0.0000
# 5 0.0000 0.0000 0.0000 0.0000 40.3513 -0.0001
# 6 0.0000 0.0000 0.0000 0.0000 -0.0001 96.5737
#
#
#
# Elastic Compliance Matrix: (Units=1/GPa)
#
#
# Indices 1 2 3 4 5 6 
#
# 1 0.006038 -0.002515 -0.001166 0.000000 0.000000 0.000000
# 2 -0.002515 0.008279 -0.002594 0.000000 0.000000 0.000000
# 3 -0.001166 -0.002594 0.007760 0.000000 0.000000 0.000000
# 4 0.000000 0.000000 0.000000 0.026876 0.000000 0.000000
# 5 0.000000 0.000000 0.000000 0.000000 0.024782 0.000000
# 6 0.000000 0.000000 0.000000 0.000000 0.000000 0.010355
#
#
# Mechanical properties :
#
#
# Convention : Reuss Voigt Hill
#
# Bulk Modulus (GPa) = 104.97454 106.85695 105.91574
# Shear Modulus (GPa) = 50.09139 56.74977 53.42058
#
# Velocity S-wave (km/s) = 4.43539 4.72098 4.58041
# Velocity P-wave (km/s) = 8.21325 8.46660 8.34089
#
# Compressibility (1/GPa) = 0.00952612
#
# Stress axis : x y z
#
# Youngs Moduli (GPa) = 165.61366 120.78213 128.86129
#
# Poissons Ratio (x) = 0.30381 0.15026
# Poissons Ratio (y) = 0.41657 0.33433
# Poissons Ratio (z) = 0.19311 0.31337
#
# Static dielectric constant tensor:
#      x y z
#    x 5.169380 0.000000 0.000000 
#    y 0.000000 4.952370 0.000000 
#    z 0.000000 0.000000 4.161990 
# 
# 
# High freq. dielectric constant tensor:
#      x y z
#    x 2.050130 0.000000 0.000000 
#    y 0.000000 2.042940 0.000000 
#    z 0.000000 0.000000 2.002690 
# 
# From -- ./inp_files/331.got.cif
#   From: 2010.03.12/outbox.cif.g09.slc.cpg/sg24_1_cif.got.tgz:331.got - 2010.04.14 03:06:53.
