data_PCOD8165369
_publ_section_title
;
Structure prediction by ZEFSAII (Michael W. Deem and Ramdas Pophale) SiO2 
 PCOD8165369
Probable space group: I 21 21 21
;
_chemical_formula_sum "Si O2"
_cell_formula_units_Z 40
_cell_length_a 23.389662
_cell_length_b 5.893069
_cell_length_c 12.267258
_cell_angle_alpha 90.000000
_cell_angle_beta 90.000000
_cell_angle_gamma 90.000000
_cell_volume 1690.880717
_symmetry_space_group_name_H-M "I 21 21 21"
_symmetry_group_IT_number 24
_symmetry_cell_setting 'orthorhombic'
loop_
_space_group_symop_operation_xyz
x,y,z
-x,1/2-y,z
x,-y,1/2-z
1/2-x,y,-z
1/2+x,1/2+y,1/2+z
1/2-x,-y,1/2+z
1/2+x,1/2-y,-z
-x,1/2+y,1/2-z
loop_
_atom_site_type_symbol
_atom_site_label
_atom_site_fract_x
_atom_site_fract_y
_atom_site_fract_z
Si Si1 0.063007 0.677459 0.661015
Si Si2 0.649366 0.534959 0.094781
Si Si3 0.404631 0.410625 0.534011
Si Si4 0.500000 0.250000 0.689652
Si Si5 0.302327 0.708829 0.576825
Si Si6 0.753129 0.500000 0.750000
O O1 0.085185 0.500000 0.750000
O O2 0.109867 0.875861 0.670307
O O3 0.059851 0.598925 0.533552
O O4 0.000000 0.750000 0.696864
O O5 0.707121 0.609319 0.156658
O O6 0.613696 0.754070 0.065854
O O7 0.666557 0.416342 0.982007
O O8 0.443019 0.272078 0.618617
O O9 0.348616 0.509008 0.594891
O O10 0.505551 0.500000 0.750000
O O11 0.250000 0.621764 0.500000
O O12 0.283503 0.796196 0.696473
#
# Coordination Sequence:
#
# PCOD8165369 Si02
#       6
#     8   8   8   4   8   4
#     4  11  25  39  68 110 146 191 242 302 391 473
#     4  10  22  42  69 101 148 190 241 309 382 457
#     4  11  25  48  74 100 154 198 251 326 379 463
#     4  12  32  52  82 114 150 210 274 332 388 464
#     4   9  22  42  69 108 144 192 244 307 381 458
#     4  10  20  42  74 104 148 188 250 312 388 474
#
# _framework density 23.656310999999999
#
# number of rings (size 3 to 8) (size 9 to 14) (size 15 to 20)
#    0.000    1.600    0.000    2.400   12.600    4.000 
#    0.000    8.000    0.000    0.000    0.000    0.000 
#    0.000    0.000    0.000    0.000    0.000    0.000 
#
# Total GULP energy -247898.143903 kJ/mol
# GULP energy per Si atom -12394.907195 kJ/mol
# Density = 2.360247 g / cm^3
# Si number density = 23.656311 Si / 1000 Ang^3
#
#
#
# Elastic Constant Matrix: (Units=GPa)
#
#
# Indices 1 2 3 4 5 6 
#
# 1 146.8655 63.8737 60.9011 0.0000 0.0000 0.0000
# 2 63.8737 118.6112 64.4698 0.0000 0.0000 0.0000
# 3 60.9011 64.4698 111.4336 0.0000 0.0000 0.0000
# 4 0.0000 0.0000 0.0000 34.2973 0.0000 0.0000
# 5 0.0000 0.0000 0.0000 0.0000 46.5934 0.0000
# 6 0.0000 0.0000 0.0000 0.0000 0.0000 46.0030
#
#
#
# Elastic Compliance Matrix: (Units=1/GPa)
#
#
# Indices 1 2 3 4 5 6 
#
# 1 0.009662 -0.003403 -0.003312 0.000000 0.000000 0.000000
# 2 -0.003403 0.013497 -0.005949 0.000000 0.000000 0.000000
# 3 -0.003312 -0.005949 0.014226 0.000000 0.000000 0.000000
# 4 0.000000 0.000000 0.000000 0.029157 0.000000 0.000000
# 5 0.000000 0.000000 0.000000 0.000000 0.021462 0.000000
# 6 0.000000 0.000000 0.000000 0.000000 0.000000 0.021738
#
#
# Mechanical properties :
#
#
# Convention : Reuss Voigt Hill
#
# Bulk Modulus (GPa) = 82.93643 83.93329 83.43486
# Shear Modulus (GPa) = 35.94840 37.88977 36.91909
#
# Velocity S-wave (km/s) = 3.90245 4.00644 3.95478
# Velocity P-wave (km/s) = 7.44584 7.54714 7.49666
#
# Compressibility (1/GPa) = 0.01205743
#
# Stress axis : x y z
#
# Youngs Moduli (GPa) = 103.49430 74.09084 70.29611
#
# Poissons Ratio (x) = 0.25215 0.23280
# Poissons Ratio (y) = 0.35222 0.41817
# Poissons Ratio (z) = 0.34275 0.44074
#
# Static dielectric constant tensor:
#      x y z
#    x 4.299220 0.000000 0.000000 
#    y 0.000000 4.232470 0.000000 
#    z 0.000000 0.000000 4.131300 
# 
# 
# High freq. dielectric constant tensor:
#      x y z
#    x 1.945310 0.000000 0.000000 
#    y 0.000000 1.929990 0.000000 
#    z 0.000000 0.000000 1.940820 
# 
# From -- ./inp_files/22814.got.cif
#   From: 2010.03.12/outbox.cif.g09.slc.cpg/sg24_12_cif.got.tgz:22814.got - 2010.04.14 03:06:53.
