data_PCOD8165033
_publ_section_title
;
Structure prediction by ZEFSAII (Michael W. Deem and Ramdas Pophale) SiO2 
 PCOD8165033
Probable space group: I 21 21 21
;
_chemical_formula_sum "Si O2"
_cell_formula_units_Z 48
_cell_length_a 30.641388
_cell_length_b 9.394768
_cell_length_c 8.346895
_cell_angle_alpha 90.000000
_cell_angle_beta 90.000000
_cell_angle_gamma 90.000000
_cell_volume 2402.810075
_symmetry_space_group_name_H-M "I 21 21 21"
_symmetry_group_IT_number 24
_symmetry_cell_setting 'orthorhombic'
loop_
_space_group_symop_operation_xyz
x,y,z
-x,1/2-y,z
x,-y,1/2-z
1/2-x,y,-z
1/2+x,1/2+y,1/2+z
1/2-x,-y,1/2+z
1/2+x,1/2-y,-z
-x,1/2+y,1/2-z
loop_
_atom_site_type_symbol
_atom_site_label
_atom_site_fract_x
_atom_site_fract_y
_atom_site_fract_z
Si Si1 0.431686 0.514912 0.438844
Si Si2 0.703362 0.958028 0.566461
Si Si3 0.144733 0.310764 0.564233
Si Si4 0.108816 0.958440 0.066504
Si Si5 0.481732 0.092640 0.405553
Si Si6 0.632851 0.244661 0.062825
O O1 0.438581 0.500000 0.250000
O O2 0.396688 0.400187 0.498837
O O3 0.479959 0.485392 0.510674
O O4 0.413488 0.670853 0.483358
O O5 0.750000 0.910665 0.500000
O O6 0.671218 0.823264 0.544090
O O7 0.706024 0.000000 0.750000
O O8 0.687888 0.097555 0.468731
O O9 0.144495 0.165098 0.463009
O O10 0.143373 0.282696 0.752480
O O11 0.106229 0.000000 0.250000
O O12 0.061959 0.899527 0.009857
O O13 0.126889 0.089618 0.964573
O O14 0.500000 0.250000 0.358737
O O15 0.469579 0.000000 0.250000
#
# Coordination Sequence:
#
# PCOD8165033 Si02
#       6
#     8   8   8   8   8   8
#     4   8  17  33  57  82 109 149 203 252 296 351
#     4  11  22  40  66  98 127 156 192 244 301 367
#     4  10  19  39  63  86 117 159 207 247 299 364
#     4  12  25  39  55  87 126 164 203 259 317 358
#     4  11  22  38  60  85 115 160 213 263 303 367
#     4  10  21  39  63  88 115 163 207 250 299 368
#
# _framework density 19.976607999999999
#
# number of rings (size 3 to 8) (size 9 to 14) (size 15 to 20)
#    0.000    1.667    1.667    5.000    4.667    0.000 
#    3.000    1.667    0.000    0.000    0.000    0.000 
#    0.000    0.000    0.000    0.000    0.000    0.000 
#
# Total GULP energy -297526.035057 kJ/mol
# GULP energy per Si atom -12396.918127 kJ/mol
# Density = 1.993114 g / cm^3
# Si number density = 19.976608 Si / 1000 Ang^3
#
#
#
# Elastic Constant Matrix: (Units=GPa)
#
#
# Indices 1 2 3 4 5 6 
#
# 1 89.7957 19.8917 4.3081 0.0000 0.0000 0.0000
# 2 19.8917 115.0027 11.0358 0.0000 0.0000 0.0000
# 3 4.3081 11.0358 69.0530 0.0000 0.0000 0.0000
# 4 0.0000 0.0000 0.0000 21.1825 0.0000 0.0000
# 5 0.0000 0.0000 0.0000 0.0000 24.8276 0.0000
# 6 0.0000 0.0000 0.0000 0.0000 0.0000 20.0443
#
#
#
# Elastic Compliance Matrix: (Units=1/GPa)
#
#
# Indices 1 2 3 4 5 6 
#
# 1 0.011591 -0.001966 -0.000409 0.000000 0.000000 0.000000
# 2 -0.001966 0.009164 -0.001342 0.000000 0.000000 0.000000
# 3 -0.000409 -0.001342 0.014722 0.000000 0.000000 0.000000
# 4 0.000000 0.000000 0.000000 0.047209 0.000000 0.000000
# 5 0.000000 0.000000 0.000000 0.000000 0.040278 0.000000
# 6 0.000000 0.000000 0.000000 0.000000 0.000000 0.049890
#
#
# Mechanical properties :
#
#
# Convention : Reuss Voigt Hill
#
# Bulk Modulus (GPa) = 35.65832 38.25808 36.95820
# Shear Modulus (GPa) = 26.36648 29.11859 27.74254
#
# Velocity S-wave (km/s) = 3.63694 3.82204 3.73064
# Velocity P-wave (km/s) = 5.96030 6.21855 6.09079
#
# Compressibility (1/GPa) = 0.02804394
#
# Stress axis : x y z
#
# Youngs Moduli (GPa) = 86.27041 109.11997 67.92734
#
# Poissons Ratio (x) = 0.21450 0.02778
# Poissons Ratio (y) = 0.16958 0.09116
# Poissons Ratio (z) = 0.03529 0.14643
#
# Static dielectric constant tensor:
#      x y z
#    x 3.848700 0.000000 0.000000 
#    y 0.000000 3.958130 0.000000 
#    z 0.000000 0.000000 3.419480 
# 
# 
# High freq. dielectric constant tensor:
#      x y z
#    x 1.772530 0.000000 0.000000 
#    y 0.000000 1.788290 0.000000 
#    z 0.000000 0.000000 1.759250 
# 
# From -- ./inp_files/16813.got.cif
#   From: 2010.03.12/outbox.cif.g09.slc.cpg/sg24_9_cif.got.tgz:16813.got - 2010.04.14 03:06:53.
