data_PCOD8165845
_publ_section_title
;
Structure prediction by ZEFSAII (Michael W. Deem and Ramdas Pophale) SiO2 
 PCOD8165845
Probable space group: I 21 21 21
;
_chemical_formula_sum "Si O2"
_cell_formula_units_Z 52
_cell_length_a 16.942506
_cell_length_b 9.021647
_cell_length_c 16.722658
_cell_angle_alpha 90.000000
_cell_angle_beta 90.000000
_cell_angle_gamma 90.000000
_cell_volume 2556.046710
_symmetry_space_group_name_H-M "I 21 21 21"
_symmetry_group_IT_number 24
_symmetry_cell_setting 'orthorhombic'
loop_
_space_group_symop_operation_xyz
x,y,z
-x,1/2-y,z
x,-y,1/2-z
1/2-x,y,-z
1/2+x,1/2+y,1/2+z
1/2-x,-y,1/2+z
1/2+x,1/2-y,-z
-x,1/2+y,1/2-z
loop_
_atom_site_type_symbol
_atom_site_label
_atom_site_fract_x
_atom_site_fract_y
_atom_site_fract_z
Si Si1 0.924575 0.648258 0.698346
Si Si2 0.250915 0.238817 0.803589
Si Si3 0.810917 0.937783 0.442604
Si Si4 0.005107 0.500000 0.250000
Si Si5 0.627910 0.513958 0.632861
Si Si6 0.634629 0.179063 0.671911
Si Si7 0.084256 0.805747 0.513706
O O1 0.936010 0.500000 0.750000
O O2 0.840324 0.719623 0.721275
O O3 0.920396 0.624594 0.602578
O O4 0.000000 0.750000 0.720172
O O5 0.261036 0.337453 0.881827
O O6 0.295173 0.082102 0.822205
O O7 0.289571 0.325434 0.729258
O O8 0.750000 0.024620 0.500000
O O9 0.861306 0.837935 0.503533
O O10 0.863548 0.056439 0.397140
O O11 0.057491 0.640515 0.223463
O O12 0.949314 0.566987 0.319054
O O13 0.629940 0.337451 0.630490
O O14 0.619665 0.565349 0.541822
O O15 0.000000 0.750000 0.483986
#
# Coordination Sequence:
#
# PCOD8165845 Si02
#       7
#     8   8   8   4   8   8   8
#     4  11  25  48  72  92 122 169 230 289 340 386
#     4  11  22  45  66  94 130 176 217 265 333 396
#     4  11  22  41  65  95 130 175 215 269 322 400
#     4  12  22  36  62  98 144 174 210 246 328 398
#     4  11  24  37  65 100 137 175 211 259 323 415
#     4  12  23  39  62 100 138 176 218 263 318 394
#     4  10  23  43  66  91 128 173 214 268 337 398
#
# _framework density 20.343917000000001
#
# number of rings (size 3 to 8) (size 9 to 14) (size 15 to 20)
#    0.000    0.923    4.615    2.308    2.154    1.231 
#    5.538    1.538    0.000    0.000    0.000    0.000 
#    0.000    0.000    0.000    0.000    0.000    0.000 
#
# Total GULP energy -322292.866331 kJ/mol
# GULP energy per Si atom -12395.879474 kJ/mol
# Density = 2.029761 g / cm^3
# Si number density = 20.343917 Si / 1000 Ang^3
#
#
#
# Elastic Constant Matrix: (Units=GPa)
#
#
# Indices 1 2 3 4 5 6 
#
# 1 145.6804 45.6118 42.7473 0.0000 0.0000 0.0000
# 2 45.6118 113.1610 49.7757 0.0000 0.0000 0.0000
# 3 42.7473 49.7757 107.3291 0.0000 0.0000 0.0000
# 4 0.0000 0.0000 0.0000 19.2059 0.0000 0.0000
# 5 0.0000 0.0000 0.0000 0.0000 28.4349 0.0000
# 6 0.0000 0.0000 0.0000 0.0000 0.0000 31.5456
#
#
#
# Elastic Compliance Matrix: (Units=1/GPa)
#
#
# Indices 1 2 3 4 5 6 
#
# 1 0.008246 -0.002361 -0.002189 0.000000 0.000000 0.000000
# 2 -0.002361 0.011777 -0.004522 0.000000 0.000000 0.000000
# 3 -0.002189 -0.004522 0.012286 0.000000 0.000000 0.000000
# 4 0.000000 0.000000 0.000000 0.052067 0.000000 0.000000
# 5 0.000000 0.000000 0.000000 0.000000 0.035168 0.000000
# 6 0.000000 0.000000 0.000000 0.000000 0.000000 0.031700
#
#
# Mechanical properties :
#
#
# Convention : Reuss Voigt Hill
#
# Bulk Modulus (GPa) = 70.59218 71.38223 70.98720
# Shear Modulus (GPa) = 28.71736 31.03966 29.87851
#
# Velocity S-wave (km/s) = 3.76119 3.91032 3.83648
# Velocity P-wave (km/s) = 7.32372 7.45328 7.38878
#
# Compressibility (1/GPa) = 0.01416587
#
# Stress axis : x y z
#
# Youngs Moduli (GPa) = 121.27266 84.90805 81.39210
#
# Poissons Ratio (x) = 0.20044 0.17820
# Poissons Ratio (y) = 0.28628 0.36804
# Poissons Ratio (z) = 0.26552 0.38394
#
# Static dielectric constant tensor:
#      x y z
#    x 3.919480 0.000000 0.000000 
#    y 0.000000 3.533410 0.000000 
#    z 0.000000 0.000000 3.656260 
# 
# 
# High freq. dielectric constant tensor:
#      x y z
#    x 1.805740 0.000000 0.000000 
#    y 0.000000 1.784780 0.000000 
#    z 0.000000 0.000000 1.794620 
# 
# From -- ./inp_files/29632.got.cif
#   From: 2010.03.12/outbox.cif.g09.slc.cpg/sg24_15_cif.got.tgz:29632.got - 2010.04.14 03:06:53.
