data_PCOD8165499
_publ_section_title
;
Structure prediction by ZEFSAII (Michael W. Deem and Ramdas Pophale) SiO2 
 PCOD8165499
Probable space group: I 21 21 21
;
_chemical_formula_sum "Si O2"
_cell_formula_units_Z 48
_cell_length_a 18.161544
_cell_length_b 6.678992
_cell_length_c 19.220188
_cell_angle_alpha 90.000000
_cell_angle_beta 90.000000
_cell_angle_gamma 90.000000
_cell_volume 2331.424317
_symmetry_space_group_name_H-M "I 21 21 21"
_symmetry_group_IT_number 24
_symmetry_cell_setting 'orthorhombic'
loop_
_space_group_symop_operation_xyz
x,y,z
-x,1/2-y,z
x,-y,1/2-z
1/2-x,y,-z
1/2+x,1/2+y,1/2+z
1/2-x,-y,1/2+z
1/2+x,1/2-y,-z
-x,1/2+y,1/2-z
loop_
_atom_site_type_symbol
_atom_site_label
_atom_site_fract_x
_atom_site_fract_y
_atom_site_fract_z
Si Si1 0.074882 0.369437 0.455917
Si Si2 0.827985 0.566461 0.973355
Si Si3 0.919492 0.805356 0.575776
Si Si4 0.277445 0.166828 0.330862
Si Si5 0.341650 0.453492 0.673911
Si Si6 0.198395 0.699137 0.688361
O O1 0.069532 0.519498 0.520189
O O2 0.095493 0.485574 0.384377
O O3 0.000000 0.250000 0.445555
O O4 0.139707 0.211520 0.468625
O O5 0.750000 0.480248 0.000000
O O6 0.882131 0.381648 0.962178
O O7 0.817536 0.703280 0.904362
O O8 0.871386 0.869183 0.642772
O O9 0.000000 0.750000 0.604616
O O10 0.286153 0.935025 0.315354
O O11 0.190618 0.226251 0.330713
O O12 0.313974 0.322976 0.272869
O O13 0.376084 0.500000 0.750000
O O14 0.271560 0.595815 0.658500
#
# Coordination Sequence:
#
# PCOD8165499 Si02
#       6
#     8   8   8   8   8   8
#     4  12  25  41  60  89 130 165 204 265 319 375
#     4  11  22  38  66  94 120 164 212 256 312 378
#     4  11  24  40  59  92 127 164 207 257 313 373
#     4   9  18  36  60  92 120 149 203 254 302 356
#     4  10  21  39  64  88 114 157 207 258 311 373
#     4   9  20  36  63  89 121 156 204 256 300 372
#
# _framework density 20.588273000000001
#
# number of rings (size 3 to 8) (size 9 to 14) (size 15 to 20)
#    0.000    1.667    3.333    1.000    4.667    0.000 
#    0.000    1.667   25.667    0.000    0.000    0.000 
#    0.000    0.000    0.000    0.000    0.000    0.000 
#
# Total GULP energy -297450.950748 kJ/mol
# GULP energy per Si atom -12393.789614 kJ/mol
# Density = 2.054141 g / cm^3
# Si number density = 20.588273 Si / 1000 Ang^3
#
#
#
# Elastic Constant Matrix: (Units=GPa)
#
#
# Indices 1 2 3 4 5 6 
#
# 1 112.0141 45.3677 75.5528 0.0000 0.0000 0.0000
# 2 45.3677 34.6645 29.5007 0.0000 0.0000 0.0000
# 3 75.5528 29.5007 153.4140 0.0000 0.0000 0.0000
# 4 0.0000 0.0000 0.0000 26.4926 0.0000 0.0000
# 5 0.0000 0.0000 0.0000 0.0000 27.1436 0.0000
# 6 0.0000 0.0000 0.0000 0.0000 0.0000 32.0363
#
#
#
# Elastic Compliance Matrix: (Units=1/GPa)
#
#
# Indices 1 2 3 4 5 6 
#
# 1 0.023809 -0.025326 -0.006855 0.000000 0.000000 0.000000
# 2 -0.025326 0.061433 0.000659 0.000000 0.000000 0.000000
# 3 -0.006855 0.000659 0.009768 0.000000 0.000000 0.000000
# 4 0.000000 0.000000 0.000000 0.037746 0.000000 0.000000
# 5 0.000000 0.000000 0.000000 0.000000 0.036841 0.000000
# 6 0.000000 0.000000 0.000000 0.000000 0.000000 0.031215
#
#
# Mechanical properties :
#
#
# Convention : Reuss Voigt Hill
#
# Bulk Modulus (GPa) = 31.28412 66.77057 49.02735
# Shear Modulus (GPa) = 18.21429 27.11259 22.66344
#
# Velocity S-wave (km/s) = 2.97760 3.63284 3.32142
# Velocity P-wave (km/s) = 5.20092 7.07803 6.21080
#
# Compressibility (1/GPa) = 0.03196510
#
# Stress axis : x y z
#
# Youngs Moduli (GPa) = 42.00146 16.27800 102.37987
#
# Poissons Ratio (x) = 0.41226 0.70183
# Poissons Ratio (y) = 1.06373 -0.06750
# Poissons Ratio (z) = 0.28793 -0.01073
#
# Static dielectric constant tensor:
#      x y z
#    x 3.514250 0.000000 0.000000 
#    y 0.000000 3.893590 0.000000 
#    z 0.000000 0.000000 4.370930 
# 
# 
# High freq. dielectric constant tensor:
#      x y z
#    x 1.776480 0.000000 0.000000 
#    y 0.000000 1.817730 0.000000 
#    z 0.000000 0.000000 1.821770 
# 
# From -- ./inp_files/37479.got.cif
#   From: 2010.03.12/outbox.cif.g09.slc.cpg/sg24_19_cif.got.tgz:37479.got - 2010.04.14 03:06:53.
