data_PCOD8165112
_publ_section_title
;
Structure prediction by ZEFSAII (Michael W. Deem and Ramdas Pophale) SiO2 
 PCOD8165112
Probable space group: I 21 21 21
;
_chemical_formula_sum "Si O2"
_cell_formula_units_Z 32
_cell_length_a 15.291004
_cell_length_b 4.762064
_cell_length_c 22.046483
_cell_angle_alpha 90.000000
_cell_angle_beta 90.000000
_cell_angle_gamma 90.000000
_cell_volume 1605.353013
_symmetry_space_group_name_H-M "I 21 21 21"
_symmetry_group_IT_number 24
_symmetry_cell_setting 'orthorhombic'
loop_
_space_group_symop_operation_xyz
x,y,z
-x,1/2-y,z
x,-y,1/2-z
1/2-x,y,-z
1/2+x,1/2+y,1/2+z
1/2-x,-y,1/2+z
1/2+x,1/2-y,-z
-x,1/2+y,1/2-z
loop_
_atom_site_type_symbol
_atom_site_label
_atom_site_fract_x
_atom_site_fract_y
_atom_site_fract_z
Si Si1 0.094871 0.617686 0.508910
Si Si2 0.660493 0.113739 0.618039
Si Si3 0.687323 0.644346 0.054250
Si Si4 0.595881 0.379498 0.814558
O O1 0.124017 0.552352 0.440530
O O2 0.098673 0.330436 0.548052
O O3 0.000000 0.750000 0.508341
O O4 0.162580 0.820316 0.545427
O O5 0.755934 0.267720 0.613196
O O6 0.595350 0.367103 0.636486
O O7 0.663667 0.870917 0.668985
O O8 0.750000 0.743994 0.000000
O O9 0.500000 0.250000 0.811613
O O10 0.625623 0.500000 0.750000
#
# Coordination Sequence:
#
# PCOD8165112 Si02
#       4
#     8   8   8   8
#     4  11  21  34  53  79 108 142 181 220 268 332
#     4  11  22  37  56  77 111 155 188 223 281 332
#     4  10  20  35  51  75 107 141 179 223 268 325
#     4  12  24  38  54  79 112 150 195 238 269 311
#
# _framework density 19.933312000000001
#
# number of rings (size 3 to 8) (size 9 to 14) (size 15 to 20)
#    0.000    1.000    0.000   11.250    0.000    4.000 
#    0.000    0.000    0.000    0.000    0.000    0.000 
#    0.000   56.000    0.000    0.000    0.000    0.000 
#
# Total GULP energy -198218.231170 kJ/mol
# GULP energy per Si atom -12388.639448 kJ/mol
# Density = 1.988794 g / cm^3
# Si number density = 19.933312 Si / 1000 Ang^3
#
#
#
# Elastic Constant Matrix: (Units=GPa)
#
#
# Indices 1 2 3 4 5 6 
#
# 1 55.2566 18.9672 26.9157 0.0000 0.0000 0.0000
# 2 18.9672 135.2998 42.7444 0.0000 0.0000 0.0000
# 3 26.9157 42.7444 65.2981 0.0000 0.0000 0.0000
# 4 0.0000 0.0000 0.0000 43.8115 0.0000 0.0000
# 5 0.0000 0.0000 0.0000 0.0000 18.5748 0.0000
# 6 0.0000 0.0000 0.0000 0.0000 0.0000 47.3534
#
#
#
# Elastic Compliance Matrix: (Units=1/GPa)
#
#
# Indices 1 2 3 4 5 6 
#
# 1 0.022653 -0.000285 -0.009151 0.000000 0.000000 0.000000
# 2 -0.000285 0.009322 -0.005985 0.000000 0.000000 0.000000
# 3 -0.009151 -0.005985 0.023004 0.000000 0.000000 0.000000
# 4 0.000000 0.000000 0.000000 0.022825 0.000000 0.000000
# 5 0.000000 0.000000 0.000000 0.000000 0.053836 0.000000
# 6 0.000000 0.000000 0.000000 0.000000 0.000000 0.021118
#
#
# Mechanical properties :
#
#
# Convention : Reuss Voigt Hill
#
# Bulk Modulus (GPa) = 41.42913 48.12327 44.77620
# Shear Modulus (GPa) = 26.09007 33.09641 29.59324
#
# Velocity S-wave (km/s) = 3.62175 4.07917 3.85725
# Velocity P-wave (km/s) = 6.19019 6.81034 6.50765
#
# Compressibility (1/GPa) = 0.02413760
#
# Stress axis : x y z
#
# Youngs Moduli (GPa) = 44.14510 107.27801 43.47070
#
# Poissons Ratio (x) = 0.03053 0.39780
# Poissons Ratio (y) = 0.01256 0.26016
# Poissons Ratio (z) = 0.40398 0.64202
#
# Static dielectric constant tensor:
#      x y z
#    x 3.700320 0.000000 0.000000 
#    y 0.000000 4.137200 0.000000 
#    z 0.000000 0.000000 3.592660 
# 
# 
# High freq. dielectric constant tensor:
#      x y z
#    x 1.752260 0.000000 0.000000 
#    y 0.000000 1.821170 0.000000 
#    z 0.000000 0.000000 1.729060 
# 
# From -- ./inp_files/35704.got.cif
#   From: 2010.03.12/outbox.cif.g09.slc.cpg/sg24_18_cif.got.tgz:35704.got - 2010.04.14 03:06:53.
