data_PCOD8165268
_publ_section_title
;
Structure prediction by ZEFSAII (Michael W. Deem and Ramdas Pophale) SiO2 
 PCOD8165268
Probable space group: I 21 21 21
;
_chemical_formula_sum "Si O2"
_cell_formula_units_Z 40
_cell_length_a 14.056366
_cell_length_b 8.024396
_cell_length_c 15.421928
_cell_angle_alpha 90.000000
_cell_angle_beta 90.000000
_cell_angle_gamma 90.000000
_cell_volume 1739.498589
_symmetry_space_group_name_H-M "I 21 21 21"
_symmetry_group_IT_number 24
_symmetry_cell_setting 'orthorhombic'
loop_
_space_group_symop_operation_xyz
x,y,z
-x,1/2-y,z
x,-y,1/2-z
1/2-x,y,-z
1/2+x,1/2+y,1/2+z
1/2-x,-y,1/2+z
1/2+x,1/2-y,-z
-x,1/2+y,1/2-z
loop_
_atom_site_type_symbol
_atom_site_label
_atom_site_fract_x
_atom_site_fract_y
_atom_site_fract_z
Si Si1 0.537852 0.069483 0.989985
Si Si2 0.289386 0.819390 0.706206
Si Si3 0.093641 0.359820 0.822984
Si Si4 0.604864 0.177866 0.645265
Si Si5 0.841998 0.485891 0.447173
O O1 0.500000 0.250000 0.965327
O O2 0.595215 0.059886 0.080284
O O3 0.439140 0.966738 0.002668
O O4 0.600466 0.993906 0.909817
O O5 0.184645 0.757114 0.683603
O O6 0.345133 0.673163 0.759921
O O7 0.351370 0.859624 0.620415
O O8 0.278941 0.000000 0.750000
O O9 0.096791 0.500000 0.750000
O O10 0.000000 0.250000 0.810030
O O11 0.500000 0.250000 0.659354
O O12 0.673765 0.305967 0.595474
O O13 0.750000 0.533157 0.500000
#
# Coordination Sequence:
#
# PCOD8165268 Si02
#       5
#     8   8   8   8   8
#     4  10  22  40  62  92 130 170 213 266 323 382
#     4  10  22  42  67  95 127 166 216 272 328 386
#     4  11  24  41  63  94 133 176 217 266 323 386
#     4   9  21  41  66  93 122 166 216 265 324 382
#     4  10  20  38  65  94 126 166 213 265 325 390
#
# _framework density 22.99513
#
# number of rings (size 3 to 8) (size 9 to 14) (size 15 to 20)
#    0.000    2.000    0.000    3.000    0.000    9.600 
#    0.000   10.000    0.000    0.000    0.000    0.000 
#    0.000    0.000    0.000    0.000    0.000    0.000 
#
# Total GULP energy -247785.011657 kJ/mol
# GULP energy per Si atom -12389.250583 kJ/mol
# Density = 2.294279 g / cm^3
# Si number density = 22.995130 Si / 1000 Ang^3
#
#
#
# Elastic Constant Matrix: (Units=GPa)
#
#
# Indices 1 2 3 4 5 6 
#
# 1 98.4528 19.4055 59.3299 0.0000 0.0000 0.0000
# 2 19.4055 90.9937 57.4085 0.0000 0.0000 0.0000
# 3 59.3299 57.4085 147.4648 0.0000 0.0000 0.0000
# 4 0.0000 0.0000 0.0000 9.6163 0.0000 0.0000
# 5 0.0000 0.0000 0.0000 0.0000 38.1095 0.0000
# 6 0.0000 0.0000 0.0000 0.0000 0.0000 37.9982
#
#
#
# Elastic Compliance Matrix: (Units=1/GPa)
#
#
# Indices 1 2 3 4 5 6 
#
# 1 0.013444 0.000723 -0.005690 0.000000 0.000000 0.000000
# 2 0.000723 0.014607 -0.005977 0.000000 0.000000 0.000000
# 3 -0.005690 -0.005977 0.011398 0.000000 0.000000 0.000000
# 4 0.000000 0.000000 0.000000 0.103990 0.000000 0.000000
# 5 0.000000 0.000000 0.000000 0.000000 0.026240 0.000000
# 6 0.000000 0.000000 0.000000 0.000000 0.000000 0.026317
#
#
# Mechanical properties :
#
#
# Convention : Reuss Voigt Hill
#
# Bulk Modulus (GPa) = 56.95130 67.68880 62.32005
# Shear Modulus (GPa) = 22.34761 30.52928 26.43845
#
# Velocity S-wave (km/s) = 3.12082 3.64763 3.39446
# Velocity P-wave (km/s) = 6.14870 6.87316 6.52100
#
# Compressibility (1/GPa) = 0.01755886
#
# Stress axis : x y z
#
# Youngs Moduli (GPa) = 74.38385 68.46162 87.73705
#
# Poissons Ratio (x) = -0.04950 0.49925
# Poissons Ratio (y) = -0.05378 0.52443
# Poissons Ratio (z) = 0.42327 0.40922
#
# Static dielectric constant tensor:
#      x y z
#    x 4.141070 0.000000 0.000000 
#    y 0.000000 4.196550 0.000000 
#    z 0.000000 0.000000 4.366590 
# 
# 
# High freq. dielectric constant tensor:
#      x y z
#    x 1.909800 0.000000 0.000000 
#    y 0.000000 1.907260 0.000000 
#    z 0.000000 0.000000 1.912250 
# 
# From -- ./inp_files/24524.got.cif
#   From: 2010.03.12/outbox.cif.g09.slc.cpg/sg24_13_cif.got.tgz:24524.got - 2010.04.14 03:06:53.
