data_PCOD8165500
_publ_section_title
;
Structure prediction by ZEFSAII (Michael W. Deem and Ramdas Pophale) SiO2 
 PCOD8165500
Probable space group: I 21 21 21
;
_chemical_formula_sum "Si O2"
_cell_formula_units_Z 48
_cell_length_a 17.246319
_cell_length_b 9.303394
_cell_length_c 13.548060
_cell_angle_alpha 90.000000
_cell_angle_beta 90.000000
_cell_angle_gamma 90.000000
_cell_volume 2173.776753
_symmetry_space_group_name_H-M "I 21 21 21"
_symmetry_group_IT_number 24
_symmetry_cell_setting 'orthorhombic'
loop_
_space_group_symop_operation_xyz
x,y,z
-x,1/2-y,z
x,-y,1/2-z
1/2-x,y,-z
1/2+x,1/2+y,1/2+z
1/2-x,-y,1/2+z
1/2+x,1/2-y,-z
-x,1/2+y,1/2-z
loop_
_atom_site_type_symbol
_atom_site_label
_atom_site_fract_x
_atom_site_fract_y
_atom_site_fract_z
Si Si1 0.063116 0.644706 0.300681
Si Si2 0.589871 0.239406 0.116782
Si Si3 0.153254 0.758602 0.124733
Si Si4 0.661346 0.032211 0.976946
Si Si5 0.808677 0.648563 0.793912
Si Si6 0.840169 0.500885 0.516668
O O1 0.029237 0.500000 0.250000
O O2 0.093282 0.740420 0.211193
O O3 0.131958 0.610437 0.377190
O O4 0.000000 0.750000 0.352534
O O5 0.500000 0.250000 0.143846
O O6 0.637943 0.266653 0.216532
O O7 0.612116 0.352783 0.030408
O O8 0.610135 0.083001 0.071211
O O9 0.150045 0.637895 0.038743
O O10 0.239195 0.749444 0.171354
O O11 0.131489 0.913074 0.078608
O O12 0.750000 0.074587 0.000000
O O13 0.774073 0.500000 0.750000
O O14 0.857666 0.601363 0.889519
O O15 0.750000 0.538393 0.500000
#
# Coordination Sequence:
#
# PCOD8165500 Si02
#       6
#     8   8   8   8   8   8
#     4  10  23  39  57  86 123 160 196 239 298 362
#     4  11  23  39  61  91 126 161 196 242 304 367
#     4  10  21  39  64  89 116 156 204 254 299 347
#     4  11  22  39  61  90 122 154 198 250 303 354
#     4   9  19  39  63  89 117 157 211 253 291 349
#     4   9  19  39  64  87 115 156 210 254 288 347
#
# _framework density 22.081384
#
# number of rings (size 3 to 8) (size 9 to 14) (size 15 to 20)
#    0.000    2.000    0.000    3.500    0.000    7.333 
#    0.000   13.333    0.000    0.000    0.000    0.000 
#    0.000    0.000    0.000    0.000    0.000    0.000 
#
# Total GULP energy -297517.466253 kJ/mol
# GULP energy per Si atom -12396.561094 kJ/mol
# Density = 2.203113 g / cm^3
# Si number density = 22.081384 Si / 1000 Ang^3
#
#
#
# Elastic Constant Matrix: (Units=GPa)
#
#
# Indices 1 2 3 4 5 6 
#
# 1 73.1908 38.4264 26.2042 0.0000 0.0000 0.0000
# 2 38.4264 77.8949 27.9615 0.0000 0.0000 0.0000
# 3 26.2042 27.9615 82.1868 0.0000 0.0000 0.0000
# 4 0.0000 0.0000 0.0000 30.6741 0.0000 0.0000
# 5 0.0000 0.0000 0.0000 0.0000 27.3671 0.0000
# 6 0.0000 0.0000 0.0000 0.0000 0.0000 27.8321
#
#
#
# Elastic Compliance Matrix: (Units=1/GPa)
#
#
# Indices 1 2 3 4 5 6 
#
# 1 0.019194 -0.008283 -0.003302 0.000000 0.000000 0.000000
# 2 -0.008283 0.018199 -0.003550 0.000000 0.000000 0.000000
# 3 -0.003302 -0.003550 0.014428 0.000000 0.000000 0.000000
# 4 0.000000 0.000000 0.000000 0.032601 0.000000 0.000000
# 5 0.000000 0.000000 0.000000 0.000000 0.036540 0.000000
# 6 0.000000 0.000000 0.000000 0.000000 0.000000 0.035930
#
#
# Mechanical properties :
#
#
# Convention : Reuss Voigt Hill
#
# Bulk Modulus (GPa) = 46.40447 46.49520 46.44983
# Shear Modulus (GPa) = 25.72741 26.55335 26.14038
#
# Velocity S-wave (km/s) = 3.41708 3.47150 3.44440
# Velocity P-wave (km/s) = 6.05223 6.09676 6.07453
#
# Compressibility (1/GPa) = 0.02154965
#
# Stress axis : x y z
#
# Youngs Moduli (GPa) = 52.09992 54.94928 69.30972
#
# Poissons Ratio (x) = 0.45517 0.22883
# Poissons Ratio (y) = 0.43157 0.24608
# Poissons Ratio (z) = 0.17201 0.19509
#
# Static dielectric constant tensor:
#      x y z
#    x 3.706890 0.000000 0.000000 
#    y 0.000000 4.087310 0.000000 
#    z 0.000000 0.000000 4.148100 
# 
# 
# High freq. dielectric constant tensor:
#      x y z
#    x 1.844500 0.000000 0.000000 
#    y 0.000000 1.870560 0.000000 
#    z 0.000000 0.000000 1.880030 
# 
# From -- ./inp_files/12792.got.cif
#   From: 2010.03.12/outbox.cif.g09.slc.cpg/sg24_7_cif.got.tgz:12792.got - 2010.04.14 03:06:53.
