data_PCOD8165920
_publ_section_title
;
Structure prediction by ZEFSAII (Michael W. Deem and Ramdas Pophale) SiO2 
 PCOD8165920
Probable space group: I 21 21 21
;
_chemical_formula_sum "Si O2"
_cell_formula_units_Z 40
_cell_length_a 8.690961
_cell_length_b 11.954124
_cell_length_c 17.396564
_cell_angle_alpha 90.000000
_cell_angle_beta 90.000000
_cell_angle_gamma 90.000000
_cell_volume 1807.378187
_symmetry_space_group_name_H-M "I 21 21 21"
_symmetry_group_IT_number 24
_symmetry_cell_setting 'orthorhombic'
loop_
_space_group_symop_operation_xyz
x,y,z
-x,1/2-y,z
x,-y,1/2-z
1/2-x,y,-z
1/2+x,1/2+y,1/2+z
1/2-x,-y,1/2+z
1/2+x,1/2-y,-z
-x,1/2+y,1/2-z
loop_
_atom_site_type_symbol
_atom_site_label
_atom_site_fract_x
_atom_site_fract_y
_atom_site_fract_z
Si Si1 0.500000 0.250000 0.788409
Si Si2 0.609972 0.444273 0.883447
Si Si3 0.575515 0.631951 0.359184
Si Si4 0.732668 0.352521 0.297136
Si Si5 0.081331 0.478565 0.525735
Si Si6 0.500000 0.250000 0.414172
O O1 0.489230 0.363248 0.839557
O O2 0.653577 0.257274 0.736448
O O3 0.761511 0.371622 0.904048
O O4 0.664633 0.543965 0.826761
O O5 0.540009 0.488041 0.961340
O O6 0.500000 0.750000 0.375914
O O7 0.610003 0.610739 0.268753
O O8 0.463588 0.535527 0.392801
O O9 0.640046 0.299685 0.366268
O O10 0.250000 0.516856 0.500000
O O11 0.073501 0.345255 0.532800
#
# Coordination Sequence:
#
# PCOD8165920 Si02
#       6
#     4   8   8   8   8   4
#     4  10  24  43  79 106 142 192 252 310 380 443
#     4  11  26  49  73 111 153 197 247 314 385 437
#     4  11  24  46  76 108 147 190 250 305 383 438
#     4  11  25  48  79 107 145 199 246 322 370 442
#     4  12  31  45  74 109 148 204 249 310 373 462
#     4  12  28  49  73 102 152 198 262 300 380 453
#
# _framework density 22.131506999999999
#
# number of rings (size 3 to 8) (size 9 to 14) (size 15 to 20)
#    0.000    0.800    3.000    3.000   12.600    0.000 
#    0.000    0.000    0.000    0.000    0.000    0.000 
#    0.000    0.000    0.000    0.000    0.000    0.000 
#
# Total GULP energy -247957.244118 kJ/mol
# GULP energy per Si atom -12397.862206 kJ/mol
# Density = 2.208113 g / cm^3
# Si number density = 22.131507 Si / 1000 Ang^3
#
#
#
# Elastic Constant Matrix: (Units=GPa)
#
#
# Indices 1 2 3 4 5 6 
#
# 1 116.9959 58.8150 54.0653 0.0000 0.0000 0.0000
# 2 58.8150 155.0654 48.1834 0.0000 0.0000 0.0000
# 3 54.0653 48.1834 95.1757 0.0000 0.0000 0.0000
# 4 0.0000 0.0000 0.0000 40.0077 0.0000 0.0000
# 5 0.0000 0.0000 0.0000 0.0000 35.8837 0.0000
# 6 0.0000 0.0000 0.0000 0.0000 0.0000 48.6854
#
#
#
# Elastic Compliance Matrix: (Units=1/GPa)
#
#
# Indices 1 2 3 4 5 6 
#
# 1 0.012704 -0.003057 -0.005669 0.000000 0.000000 0.000000
# 2 -0.003057 0.008388 -0.002510 0.000000 0.000000 0.000000
# 3 -0.005669 -0.002510 0.014998 0.000000 0.000000 0.000000
# 4 0.000000 0.000000 0.000000 0.024995 0.000000 0.000000
# 5 0.000000 0.000000 0.000000 0.000000 0.027868 0.000000
# 6 0.000000 0.000000 0.000000 0.000000 0.000000 0.020540
#
#
# Mechanical properties :
#
#
# Convention : Reuss Voigt Hill
#
# Bulk Modulus (GPa) = 73.43170 76.59604 75.01387
# Shear Modulus (GPa) = 36.62890 38.66024 37.64457
#
# Velocity S-wave (km/s) = 4.07265 4.18406 4.12873
# Velocity P-wave (km/s) = 7.44091 7.61751 7.52972
#
# Compressibility (1/GPa) = 0.01361810
#
# Stress axis : x y z
#
# Youngs Moduli (GPa) = 78.71717 119.21321 66.67597
#
# Poissons Ratio (x) = 0.36443 0.37798
# Poissons Ratio (y) = 0.24063 0.16737
# Poissons Ratio (z) = 0.44624 0.29924
#
# Static dielectric constant tensor:
#      x y z
#    x 4.146880 0.000000 0.000000 
#    y 0.000000 4.257250 0.000000 
#    z 0.000000 0.000000 4.005410 
# 
# 
# High freq. dielectric constant tensor:
#      x y z
#    x 1.871750 0.000000 0.000000 
#    y 0.000000 1.879200 0.000000 
#    z 0.000000 0.000000 1.875260 
# 
# From -- ./inp_files/29280.got.cif
#   From: 2010.03.12/outbox.cif.g09.slc.cpg/sg24_15_cif.got.tgz:29280.got - 2010.04.14 03:06:53.
