data_PCOD8165170
_publ_section_title
;
Structure prediction by ZEFSAII (Michael W. Deem and Ramdas Pophale) SiO2 
 PCOD8165170
Probable space group: I 21 21 21
;
_chemical_formula_sum "Si O2"
_cell_formula_units_Z 56
_cell_length_a 19.377617
_cell_length_b 12.419632
_cell_length_c 11.610602
_cell_angle_alpha 90.000000
_cell_angle_beta 90.000000
_cell_angle_gamma 90.000000
_cell_volume 2794.240825
_symmetry_space_group_name_H-M "I 21 21 21"
_symmetry_group_IT_number 24
_symmetry_cell_setting 'orthorhombic'
loop_
_space_group_symop_operation_xyz
x,y,z
-x,1/2-y,z
x,-y,1/2-z
1/2-x,y,-z
1/2+x,1/2+y,1/2+z
1/2-x,-y,1/2+z
1/2+x,1/2-y,-z
-x,1/2+y,1/2-z
loop_
_atom_site_type_symbol
_atom_site_label
_atom_site_fract_x
_atom_site_fract_y
_atom_site_fract_z
Si Si1 0.372949 0.609017 0.370347
Si Si2 0.976201 0.536516 0.628778
Si Si3 0.886510 0.617769 0.234993
Si Si4 0.694071 0.879976 0.139618
Si Si5 0.489582 0.628441 0.927947
Si Si6 0.577834 0.713741 0.524421
Si Si7 0.159489 0.314375 0.402269
O O1 0.452304 0.592436 0.336105
O O2 0.337726 0.662413 0.258580
O O3 0.332673 0.498673 0.397194
O O4 0.372512 0.690075 0.478945
O O5 0.942067 0.500000 0.750000
O O6 0.922956 0.619282 0.570528
O O7 0.993450 0.443011 0.538282
O O8 0.851461 0.500000 0.250000
O O9 0.889376 0.674411 0.357852
O O10 0.842402 0.694522 0.151397
O O11 0.962229 0.598668 0.180054
O O12 0.777177 0.882157 0.151171
O O13 0.670946 0.798133 0.039390
O O14 0.500000 0.750000 0.969973
O O15 0.410852 0.617379 0.882045
O O16 0.500000 0.750000 0.550274
#
# Coordination Sequence:
#
# PCOD8165170 Si02
#       7
#     8   8   8   8   8   8   8
#     4  10  20  40  59  84 136 153 201 262 311 373
#     4  11  19  34  58  93 124 168 203 251 325 377
#     4  11  22  42  62  86 127 163 209 261 312 382
#     4  10  20  41  62  91 119 166 205 262 308 382
#     4  10  20  36  62  91 122 163 208 261 310 381
#     4  10  22  37  56  92 129 163 202 257 318 376
#     4  10  21  38  65  90 119 163 214 250 318 362
#
# _framework density 20.041222999999999
#
# number of rings (size 3 to 8) (size 9 to 14) (size 15 to 20)
#    0.000    1.714    4.286    1.286    0.000    4.000 
#   12.857    0.000    6.286    0.000    0.000    0.000 
#    0.000    0.000    0.000    0.000    0.000    0.000 
#
# Total GULP energy -347094.934773 kJ/mol
# GULP energy per Si atom -12396.247670 kJ/mol
# Density = 1.999561 g / cm^3
# Si number density = 20.041223 Si / 1000 Ang^3
#
#
#
# Elastic Constant Matrix: (Units=GPa)
#
#
# Indices 1 2 3 4 5 6 
#
# 1 84.0427 29.3046 35.7808 0.0000 0.0000 0.0000
# 2 29.3046 118.4021 63.8101 0.0000 0.0000 0.0000
# 3 35.7808 63.8101 150.7091 0.0000 0.0000 0.0000
# 4 0.0000 0.0000 0.0000 48.7980 0.0000 0.0000
# 5 0.0000 0.0000 0.0000 0.0000 25.4086 0.0000
# 6 0.0000 0.0000 0.0000 0.0000 0.0000 19.7045
#
#
#
# Elastic Compliance Matrix: (Units=1/GPa)
#
#
# Indices 1 2 3 4 5 6 
#
# 1 0.013632 -0.002112 -0.002342 0.000000 0.000000 0.000000
# 2 -0.002112 0.011270 -0.004270 0.000000 0.000000 0.000000
# 3 -0.002342 -0.004270 0.008999 0.000000 0.000000 0.000000
# 4 0.000000 0.000000 0.000000 0.020493 0.000000 0.000000
# 5 0.000000 0.000000 0.000000 0.000000 0.039357 0.000000
# 6 0.000000 0.000000 0.000000 0.000000 0.000000 0.050750
#
#
# Mechanical properties :
#
#
# Convention : Reuss Voigt Hill
#
# Bulk Modulus (GPa) = 60.77976 67.88279 64.33127
# Shear Modulus (GPa) = 29.86253 33.73278 31.79765
#
# Velocity S-wave (km/s) = 3.86431 4.10710 3.98755
# Velocity P-wave (km/s) = 7.09251 7.51240 7.30547
#
# Compressibility (1/GPa) = 0.01645285
#
# Stress axis : x y z
#
# Youngs Moduli (GPa) = 73.35524 88.73279 111.11748
#
# Poissons Ratio (x) = 0.18737 0.26029
# Poissons Ratio (y) = 0.15489 0.47450
# Poissons Ratio (z) = 0.17183 0.37892
#
# Static dielectric constant tensor:
#      x y z
#    x 3.555750 0.000000 0.000000 
#    y 0.000000 3.731380 0.000000 
#    z 0.000000 0.000000 3.773200 
# 
# 
# High freq. dielectric constant tensor:
#      x y z
#    x 1.753420 0.000000 0.000000 
#    y 0.000000 1.773010 0.000000 
#    z 0.000000 0.000000 1.793500 
# 
# From -- ./inp_files/22193.got.cif
#   From: 2010.03.12/outbox.cif.g09.slc.cpg/sg24_12_cif.got.tgz:22193.got - 2010.04.14 03:06:53.
