data_PCOD8165084
_publ_section_title
;
Structure prediction by ZEFSAII (Michael W. Deem and Ramdas Pophale) SiO2 
 PCOD8165084
Probable space group: I 21 21 21
;
_chemical_formula_sum "Si O2"
_cell_formula_units_Z 64
_cell_length_a 18.340546
_cell_length_b 17.371642
_cell_length_c 10.870862
_cell_angle_alpha 90.000000
_cell_angle_beta 90.000000
_cell_angle_gamma 90.000000
_cell_volume 3463.515327
_symmetry_space_group_name_H-M "I 21 21 21"
_symmetry_group_IT_number 24
_symmetry_cell_setting 'orthorhombic'
loop_
_space_group_symop_operation_xyz
x,y,z
-x,1/2-y,z
x,-y,1/2-z
1/2-x,y,-z
1/2+x,1/2+y,1/2+z
1/2-x,-y,1/2+z
1/2+x,1/2-y,-z
-x,1/2+y,1/2-z
loop_
_atom_site_type_symbol
_atom_site_label
_atom_site_fract_x
_atom_site_fract_y
_atom_site_fract_z
Si Si1 0.730033 0.085709 0.755376
Si Si2 0.488696 0.008930 0.111457
Si Si3 0.957116 0.171743 0.893424
Si Si4 0.576825 0.282747 0.745747
Si Si5 0.878798 0.848305 0.084518
Si Si6 0.111845 0.398927 0.674755
Si Si7 0.323020 0.707801 0.559836
Si Si8 0.521654 0.436759 0.644486
O O1 0.699902 0.131028 0.638087
O O2 0.817148 0.081362 0.753279
O O3 0.701984 0.128895 0.875973
O O4 0.697767 0.000000 0.750000
O O5 0.571057 0.977155 0.132166
O O6 0.449839 0.000000 0.250000
O O7 0.495274 0.097425 0.063314
O O8 0.451766 0.964441 0.994077
O O9 0.942883 0.155309 0.750422
O O10 0.000000 0.250000 0.913254
O O11 0.880013 0.179461 0.959535
O O12 0.500000 0.250000 0.800938
O O13 0.596443 0.236242 0.623268
O O14 0.639453 0.269925 0.848778
O O15 0.573703 0.369966 0.698389
O O16 0.938785 0.908727 0.133540
O O17 0.867877 0.846759 0.940175
O O18 0.250000 0.746110 0.500000
O O19 0.525339 0.500000 0.750000
#
# Coordination Sequence:
#
# PCOD8165084 Si02
#       8
#     8   8   8   8   8   8   8   8
#     4  11  21  32  51  78 115 160 190 222 280 346
#     4   9  21  36  54  83 123 150 192 243 286 360
#     4  11  23  36  56  81 119 156 188 241 296 348
#     4   9  20  37  54  81 113 149 193 251 284 338
#     4   9  20  32  52  76 113 148 195 231 276 341
#     4  10  20  37  51  80 115 155 194 228 280 354
#     4  11  23  36  54  81 117 153 198 238 287 350
#     4  10  20  33  56  82 111 148 197 240 297 336
#
# _framework density 18.478337
#
# number of rings (size 3 to 8) (size 9 to 14) (size 15 to 20)
#    0.000    2.000    1.250    2.250   10.500    3.500 
#    0.000    0.000    0.000    0.000    0.000    6.125 
#    0.000    0.000    0.000    0.000    0.000    0.000 
#
# Total GULP energy -396475.956007 kJ/mol
# GULP energy per Si atom -12389.873625 kJ/mol
# Density = 1.843628 g / cm^3
# Si number density = 18.478337 Si / 1000 Ang^3
#
#
#
# Elastic Constant Matrix: (Units=GPa)
#
#
# Indices 1 2 3 4 5 6 
#
# 1 61.1588 41.3860 27.4701 0.0000 0.0000 0.0000
# 2 41.3860 125.0491 49.5184 0.0000 0.0000 0.0000
# 3 27.4701 49.5184 99.3705 0.0000 0.0000 0.0000
# 4 0.0000 0.0000 0.0000 23.7878 0.0000 0.0000
# 5 0.0000 0.0000 0.0000 0.0000 19.6815 0.0000
# 6 0.0000 0.0000 0.0000 0.0000 0.0000 19.5052
#
#
#
# Elastic Compliance Matrix: (Units=1/GPa)
#
#
# Indices 1 2 3 4 5 6 
#
# 1 0.021776 -0.006009 -0.003025 0.000000 0.000000 0.000000
# 2 -0.006009 0.011621 -0.004130 0.000000 0.000000 0.000000
# 3 -0.003025 -0.004130 0.012958 0.000000 0.000000 0.000000
# 4 0.000000 0.000000 0.000000 0.042038 0.000000 0.000000
# 5 0.000000 0.000000 0.000000 0.000000 0.050809 0.000000
# 6 0.000000 0.000000 0.000000 0.000000 0.000000 0.051268
#
#
# Mechanical properties :
#
#
# Convention : Reuss Voigt Hill
#
# Bulk Modulus (GPa) = 49.93436 58.03637 53.98537
# Shear Modulus (GPa) = 22.37395 23.74183 23.05789
#
# Velocity S-wave (km/s) = 3.48346 3.58836 3.53630
# Velocity P-wave (km/s) = 6.57732 6.97456 6.77885
#
# Compressibility (1/GPa) = 0.02002629
#
# Stress axis : x y z
#
# Youngs Moduli (GPa) = 45.92213 86.05154 77.17422
#
# Poissons Ratio (x) = 0.51708 0.23348
# Poissons Ratio (y) = 0.27594 0.31872
# Poissons Ratio (z) = 0.13893 0.35538
#
# Static dielectric constant tensor:
#      x y z
#    x 3.182110 0.000000 0.000000 
#    y 0.000000 3.343240 0.000000 
#    z 0.000000 0.000000 3.729000 
# 
# 
# High freq. dielectric constant tensor:
#      x y z
#    x 1.678170 0.000000 0.000000 
#    y 0.000000 1.704820 0.000000 
#    z 0.000000 0.000000 1.736040 
# 
# From -- ./inp_files/21708.got.cif
#   From: 2010.03.12/outbox.cif.g09.slc.cpg/sg24_11_cif.got.tgz:21708.got - 2010.04.14 03:06:53.
