data_PCOD8165506
_publ_section_title
;
Structure prediction by ZEFSAII (Michael W. Deem and Ramdas Pophale) SiO2 
 PCOD8165506
Probable space group: I 21 21 21
;
_chemical_formula_sum "Si O2"
_cell_formula_units_Z 44
_cell_length_a 15.187217
_cell_length_b 16.478030
_cell_length_c 8.568284
_cell_angle_alpha 90.000000
_cell_angle_beta 90.000000
_cell_angle_gamma 90.000000
_cell_volume 2144.259488
_symmetry_space_group_name_H-M "I 21 21 21"
_symmetry_group_IT_number 24
_symmetry_cell_setting 'orthorhombic'
loop_
_space_group_symop_operation_xyz
x,y,z
-x,1/2-y,z
x,-y,1/2-z
1/2-x,y,-z
1/2+x,1/2+y,1/2+z
1/2-x,-y,1/2+z
1/2+x,1/2-y,-z
-x,1/2+y,1/2-z
loop_
_atom_site_type_symbol
_atom_site_label
_atom_site_fract_x
_atom_site_fract_y
_atom_site_fract_z
Si Si1 0.195196 0.808024 0.233443
Si Si2 0.547411 0.581503 0.841701
Si Si3 0.133113 0.345262 0.420582
Si Si4 0.696700 0.092363 0.270119
Si Si5 0.175482 0.063293 0.615616
Si Si6 0.750000 0.195880 0.000000
O O1 0.122508 0.876728 0.263193
O O2 0.162357 0.748713 0.094395
O O3 0.288040 0.850859 0.186638
O O4 0.195104 0.754496 0.388531
O O5 0.521927 0.500000 0.750000
O O6 0.462285 0.638652 0.848986
O O7 0.585361 0.572104 0.017782
O O8 0.202552 0.402638 0.329609
O O9 0.132546 0.365755 0.604380
O O10 0.686220 0.138996 0.104739
O O11 0.667590 0.000000 0.250000
O O12 0.250000 0.027354 0.500000
O O13 0.155180 0.000000 0.750000
#
# Coordination Sequence:
#
# PCOD8165506 Si02
#       6
#     8   8   8   8   8   4
#     4  10  22  39  62  91 126 166 212 262 317 382
#     4  11  24  40  63  94 131 174 207 265 329 386
#     4  10  22  40  63  87 128 165 208 257 321 384
#     4  10  21  39  65  90 116 167 217 259 313 380
#     4  10  22  38  63  92 125 171 213 261 319 386
#     4  10  22  34  66  92 116 158 214 272 306 378
#
# _framework density 20.519904
#
# number of rings (size 3 to 8) (size 9 to 14) (size 15 to 20)
#    0.000    1.818    0.000    4.364   19.091    2.182 
#    0.000    0.000    8.000    0.000    0.000    0.000 
#    0.000    0.000    0.000    0.000    0.000    0.000 
#
# Total GULP energy -272705.302525 kJ/mol
# GULP energy per Si atom -12395.695569 kJ/mol
# Density = 2.047320 g / cm^3
# Si number density = 20.519904 Si / 1000 Ang^3
#
#
#
# Elastic Constant Matrix: (Units=GPa)
#
#
# Indices 1 2 3 4 5 6 
#
# 1 67.3513 20.6507 13.9646 0.0000 0.0000 0.0000
# 2 20.6507 126.5841 56.1646 0.0000 0.0000 0.0000
# 3 13.9646 56.1646 120.7978 0.0000 0.0000 0.0000
# 4 0.0000 0.0000 0.0000 46.8715 0.0000 0.0000
# 5 0.0000 0.0000 0.0000 0.0000 19.0968 0.0000
# 6 0.0000 0.0000 0.0000 0.0000 0.0000 20.3384
#
#
#
# Elastic Compliance Matrix: (Units=1/GPa)
#
#
# Indices 1 2 3 4 5 6 
#
# 1 0.015688 -0.002211 -0.000786 0.000000 0.000000 0.000000
# 2 -0.002211 0.010265 -0.004517 0.000000 0.000000 0.000000
# 3 -0.000786 -0.004517 0.010469 0.000000 0.000000 0.000000
# 4 0.000000 0.000000 0.000000 0.021335 0.000000 0.000000
# 5 0.000000 0.000000 0.000000 0.000000 0.052365 0.000000
# 6 0.000000 0.000000 0.000000 0.000000 0.000000 0.049168
#
#
# Mechanical properties :
#
#
# Convention : Reuss Voigt Hill
#
# Bulk Modulus (GPa) = 46.73909 55.14369 50.94139
# Shear Modulus (GPa) = 27.55600 32.19157 29.87378
#
# Velocity S-wave (km/s) = 3.66852 3.96510 3.81969
# Velocity P-wave (km/s) = 6.38522 6.92057 6.65828
#
# Compressibility (1/GPa) = 0.02139537
#
# Stress axis : x y z
#
# Youngs Moduli (GPa) = 63.74184 97.42130 95.51750
#
# Poissons Ratio (x) = 0.21537 0.07505
# Poissons Ratio (y) = 0.14092 0.43145
# Poissons Ratio (z) = 0.05008 0.44005
#
# Static dielectric constant tensor:
#      x y z
#    x 3.439940 0.000000 0.000000 
#    y 0.000000 3.836210 0.000000 
#    z 0.000000 0.000000 3.870180 
# 
# 
# High freq. dielectric constant tensor:
#      x y z
#    x 1.769910 0.000000 0.000000 
#    y 0.000000 1.815570 0.000000 
#    z 0.000000 0.000000 1.805510 
# 
# From -- ./inp_files/12671.got.cif
#   From: 2010.03.12/outbox.cif.g09.slc.cpg/sg24_7_cif.got.tgz:12671.got - 2010.04.14 03:06:53.
