data_PCOD8165855
_publ_section_title
;
Structure prediction by ZEFSAII (Michael W. Deem and Ramdas Pophale) SiO2 
 PCOD8165855
Probable space group: I 21 21 21
;
_chemical_formula_sum "Si O2"
_cell_formula_units_Z 56
_cell_length_a 21.760364
_cell_length_b 7.723026
_cell_length_c 15.527066
_cell_angle_alpha 90.000000
_cell_angle_beta 90.000000
_cell_angle_gamma 90.000000
_cell_volume 2609.414382
_symmetry_space_group_name_H-M "I 21 21 21"
_symmetry_group_IT_number 24
_symmetry_cell_setting 'orthorhombic'
loop_
_space_group_symop_operation_xyz
x,y,z
-x,1/2-y,z
x,-y,1/2-z
1/2-x,y,-z
1/2+x,1/2+y,1/2+z
1/2-x,-y,1/2+z
1/2+x,1/2-y,-z
-x,1/2+y,1/2-z
loop_
_atom_site_type_symbol
_atom_site_label
_atom_site_fract_x
_atom_site_fract_y
_atom_site_fract_z
Si Si1 0.518756 0.054635 0.010980
Si Si2 0.158725 0.118696 0.170155
Si Si3 0.729235 0.190548 0.237453
Si Si4 0.201350 0.720967 0.927077
Si Si5 0.445619 0.614680 0.667265
Si Si6 0.635578 0.126544 0.099652
Si Si7 0.617834 0.508472 0.489409
O O1 0.500000 0.250000 0.996267
O O2 0.566308 0.044114 0.092555
O O3 0.454225 0.956727 0.022719
O O4 0.551760 0.998881 0.920912
O O5 0.229380 0.185059 0.177151
O O6 0.119516 0.292559 0.169928
O O7 0.140149 0.000000 0.250000
O O8 0.143556 0.003548 0.086550
O O9 0.726749 0.270580 0.332728
O O10 0.660234 0.172607 0.195678
O O11 0.758683 0.000000 0.250000
O O12 0.181849 0.519981 0.936516
O O13 0.145451 0.852063 0.936330
O O14 0.250000 0.764983 0.000000
O O15 0.500000 0.750000 0.668299
O O16 0.453881 0.500000 0.750000
O O17 0.636518 0.301375 0.044196
#
# Coordination Sequence:
#
# PCOD8165855 Si02
#       7
#     8   8   8   8   8   8   8
#     4   9  19  42  63  94 123 176 229 268 336 410
#     4  12  24  39  62  97 135 175 220 270 343 403
#     4  10  25  44  66  97 135 171 223 277 330 403
#     4  11  26  43  65 105 134 167 230 274 326 414
#     4  11  21  38  58  88 133 175 225 274 332 402
#     4  10  23  43  73  88 134 178 216 271 341 389
#     4  11  24  42  69  94 135 175 219 280 334 398
#
# _framework density 21.460754000000001
#
# number of rings (size 3 to 8) (size 9 to 14) (size 15 to 20)
#    0.000    1.429    4.286    1.714    8.000    2.857 
#    0.000    0.000   28.286    0.000    0.000    0.000 
#    0.000    0.000    0.000    0.000    0.000    0.000 
#
# Total GULP energy -346942.542201 kJ/mol
# GULP energy per Si atom -12390.805079 kJ/mol
# Density = 2.141191 g / cm^3
# Si number density = 21.460754 Si / 1000 Ang^3
#
#
#
# Elastic Constant Matrix: (Units=GPa)
#
#
# Indices 1 2 3 4 5 6 
#
# 1 130.9453 23.7986 70.7623 0.0000 0.0000 0.0000
# 2 23.7986 47.3067 14.8210 0.0000 0.0000 0.0000
# 3 70.7623 14.8210 111.3824 0.0000 0.0000 0.0000
# 4 0.0000 0.0000 0.0000 47.2257 0.0000 0.0000
# 5 0.0000 0.0000 0.0000 0.0000 35.0275 0.0000
# 6 0.0000 0.0000 0.0000 0.0000 0.0000 26.5614
#
#
#
# Elastic Compliance Matrix: (Units=1/GPa)
#
#
# Indices 1 2 3 4 5 6 
#
# 1 0.012281 -0.003896 -0.007284 0.000000 0.000000 0.000000
# 2 -0.003896 0.023294 -0.000624 0.000000 0.000000 0.000000
# 3 -0.007284 -0.000624 0.013689 0.000000 0.000000 0.000000
# 4 0.000000 0.000000 0.000000 0.021175 0.000000 0.000000
# 5 0.000000 0.000000 0.000000 0.000000 0.028549 0.000000
# 6 0.000000 0.000000 0.000000 0.000000 0.000000 0.037649
#
#
# Mechanical properties :
#
#
# Convention : Reuss Voigt Hill
#
# Bulk Modulus (GPa) = 38.97838 56.48869 47.73353
# Shear Modulus (GPa) = 29.62138 33.77975 31.70056
#
# Velocity S-wave (km/s) = 3.71921 3.97170 3.84753
# Velocity P-wave (km/s) = 6.05355 6.88560 6.48294
#
# Compressibility (1/GPa) = 0.02565525
#
# Stress axis : x y z
#
# Youngs Moduli (GPa) = 81.42643 42.92892 73.05340
#
# Poissons Ratio (x) = 0.16726 0.53211
# Poissons Ratio (y) = 0.31726 0.04561
# Poissons Ratio (z) = 0.59309 0.02680
#
# Static dielectric constant tensor:
#      x y z
#    x 4.300410 0.000000 0.000000 
#    y 0.000000 3.733430 0.000000 
#    z 0.000000 0.000000 4.158190 
# 
# 
# High freq. dielectric constant tensor:
#      x y z
#    x 1.844310 0.000000 0.000000 
#    y 0.000000 1.837190 0.000000 
#    z 0.000000 0.000000 1.835520 
# 
# From -- ./inp_files/27536.got.cif
#   From: 2010.03.12/outbox.cif.g09.slc.cpg/sg24_14_cif.got.tgz:27536.got - 2010.04.14 03:06:53.
