data_PCOD8165442
_publ_section_title
;
Structure prediction by ZEFSAII (Michael W. Deem and Ramdas Pophale) SiO2 
 PCOD8165442
Probable space group: I 21 21 21
;
_chemical_formula_sum "Si O2"
_cell_formula_units_Z 56
_cell_length_a 17.740240
_cell_length_b 9.173367
_cell_length_c 17.785383
_cell_angle_alpha 90.000000
_cell_angle_beta 90.000000
_cell_angle_gamma 90.000000
_cell_volume 2894.352896
_symmetry_space_group_name_H-M "I 21 21 21"
_symmetry_group_IT_number 24
_symmetry_cell_setting 'orthorhombic'
loop_
_space_group_symop_operation_xyz
x,y,z
-x,1/2-y,z
x,-y,1/2-z
1/2-x,y,-z
1/2+x,1/2+y,1/2+z
1/2-x,-y,1/2+z
1/2+x,1/2-y,-z
-x,1/2+y,1/2-z
loop_
_atom_site_type_symbol
_atom_site_label
_atom_site_fract_x
_atom_site_fract_y
_atom_site_fract_z
Si Si1 0.698195 0.500000 0.750000
Si Si2 0.065626 0.355585 0.521769
Si Si3 0.563671 0.133677 0.308979
Si Si4 0.826731 0.000000 0.250000
Si Si5 0.425557 0.579025 0.609831
Si Si6 0.766372 0.238957 0.680003
Si Si7 0.682560 0.657051 0.956867
Si Si8 0.903548 0.401426 0.125330
O O1 0.754736 0.407877 0.699497
O O2 0.643625 0.395277 0.797914
O O3 0.046502 0.417359 0.605297
O O4 0.076836 0.492379 0.467781
O O5 0.140282 0.256253 0.518641
O O6 0.000000 0.250000 0.491688
O O7 0.500000 0.250000 0.282937
O O8 0.645135 0.207768 0.316638
O O9 0.563136 0.000000 0.250000
O O10 0.875096 0.009020 0.174477
O O11 0.772736 0.138915 0.257373
O O12 0.397170 0.741611 0.587714
O O13 0.509280 0.572362 0.643958
O O14 0.720496 0.227287 0.601500
O O15 0.627129 0.533741 0.925160
O O16 0.750000 0.573583 0.000000
#
# Coordination Sequence:
#
# PCOD8165442 Si02
#       8
#     4   8   8   4   8   8   8   8
#     4  10  21  38  57  92 132 168 208 250 303 376
#     4  11  22  42  66  92 124 164 214 259 315 378
#     4  11  26  47  67  93 119 163 219 277 328 378
#     4  12  21  36  61  96 130 170 210 248 305 380
#     4  11  22  38  61  95 136 172 205 248 312 383
#     4  11  22  38  65  88 130 162 209 260 315 377
#     4  11  21  39  64  94 121 169 210 259 316 377
#     4  10  22  38  56  92 135 169 205 250 309 376
#
# _framework density 19.348020000000002
#
# number of rings (size 3 to 8) (size 9 to 14) (size 15 to 20)
#    0.000    1.143    6.429    0.429    1.000    0.000 
#    5.143    5.000    0.000    0.000    0.000    0.000 
#    0.000    0.000    0.000    0.000    0.000    0.000 
#
# Total GULP energy -346966.470622 kJ/mol
# GULP energy per Si atom -12391.659665 kJ/mol
# Density = 1.930398 g / cm^3
# Si number density = 19.348020 Si / 1000 Ang^3
#
#
#
# Elastic Constant Matrix: (Units=GPa)
#
#
# Indices 1 2 3 4 5 6 
#
# 1 109.2528 56.0445 30.6830 0.0000 0.0000 0.0000
# 2 56.0445 101.9972 45.7203 0.0000 0.0000 0.0000
# 3 30.6830 45.7203 94.9773 0.0000 0.0000 0.0000
# 4 0.0000 0.0000 0.0000 28.9336 0.0000 0.0000
# 5 0.0000 0.0000 0.0000 0.0000 24.9542 0.0000
# 6 0.0000 0.0000 0.0000 0.0000 0.0000 31.7004
#
#
#
# Elastic Compliance Matrix: (Units=1/GPa)
#
#
# Indices 1 2 3 4 5 6 
#
# 1 0.012813 -0.006612 -0.000957 0.000000 0.000000 0.000000
# 2 -0.006612 0.015914 -0.005524 0.000000 0.000000 0.000000
# 3 -0.000957 -0.005524 0.013497 0.000000 0.000000 0.000000
# 4 0.000000 0.000000 0.000000 0.034562 0.000000 0.000000
# 5 0.000000 0.000000 0.000000 0.000000 0.040073 0.000000
# 6 0.000000 0.000000 0.000000 0.000000 0.000000 0.031545
#
#
# Mechanical properties :
#
#
# Convention : Reuss Voigt Hill
#
# Bulk Modulus (GPa) = 62.35056 63.45810 62.90433
# Shear Modulus (GPa) = 27.78750 28.70294 28.24522
#
# Velocity S-wave (km/s) = 3.79383 3.85581 3.82494
# Velocity P-wave (km/s) = 7.17542 7.25896 7.21731
#
# Compressibility (1/GPa) = 0.01603835
#
# Stress axis : x y z
#
# Youngs Moduli (GPa) = 78.04283 62.83966 74.08904
#
# Poissons Ratio (x) = 0.41548 0.07088
# Poissons Ratio (y) = 0.51600 0.40930
# Poissons Ratio (z) = 0.07466 0.34716
#
# Static dielectric constant tensor:
#      x y z
#    x 3.680060 0.000000 0.000000 
#    y 0.000000 3.421340 0.000000 
#    z 0.000000 0.000000 3.467780 
# 
# 
# High freq. dielectric constant tensor:
#      x y z
#    x 1.768150 0.000000 0.000000 
#    y 0.000000 1.746000 0.000000 
#    z 0.000000 0.000000 1.747120 
# 
# From -- ./inp_files/33788.got.cif
#   From: 2010.03.12/outbox.cif.g09.slc.cpg/sg24_17_cif.got.tgz:33788.got - 2010.04.14 03:06:53.
