data_PCOD8165001
_publ_section_title
;
Structure prediction by ZEFSAII (Michael W. Deem and Ramdas Pophale) SiO2 
 PCOD8165001
Probable space group: I 21 21 21
;
_chemical_formula_sum "Si O2"
_cell_formula_units_Z 44
_cell_length_a 11.330788
_cell_length_b 20.285162
_cell_length_c 9.488979
_cell_angle_alpha 90.000000
_cell_angle_beta 90.000000
_cell_angle_gamma 90.000000
_cell_volume 2181.012124
_symmetry_space_group_name_H-M "I 21 21 21"
_symmetry_group_IT_number 24
_symmetry_cell_setting 'orthorhombic'
loop_
_space_group_symop_operation_xyz
x,y,z
-x,1/2-y,z
x,-y,1/2-z
1/2-x,y,-z
1/2+x,1/2+y,1/2+z
1/2-x,-y,1/2+z
1/2+x,1/2-y,-z
-x,1/2+y,1/2-z
loop_
_atom_site_type_symbol
_atom_site_label
_atom_site_fract_x
_atom_site_fract_y
_atom_site_fract_z
Si Si1 0.279218 0.354916 0.336741
Si Si2 0.830676 0.500000 0.750000
Si Si3 0.694860 0.290019 0.349944
Si Si4 0.545468 0.077803 0.734080
Si Si5 0.687175 0.617042 0.639952
Si Si6 0.516413 0.600252 0.087120
O O1 0.250000 0.349114 0.500000
O O2 0.317118 0.282431 0.279042
O O3 0.392034 0.403393 0.330032
O O4 0.171094 0.385159 0.246457
O O5 0.747654 0.547048 0.661716
O O6 0.907982 0.538531 0.863418
O O7 0.750000 0.278911 0.500000
O O8 0.788386 0.331517 0.262107
O O9 0.572568 0.329574 0.366727
O O10 0.454986 0.104483 0.855724
O O11 0.492670 0.095149 0.581187
O O12 0.566498 0.000000 0.750000
O O13 0.750000 0.646377 0.500000
#
# Coordination Sequence:
#
# PCOD8165001 Si02
#       6
#     8   4   8   8   8   8
#     4   9  21  36  60  91 117 165 215 260 314 380
#     4  10  22  32  60  82 118 152 208 250 326 366
#     4  10  19  37  65  90 118 155 215 269 313 367
#     4  11  21  36  61  88 132 161 210 259 325 388
#     4  11  22  36  60  90 121 156 202 262 320 380
#     4  10  20  37  59  92 119 165 209 270 309 385
#
# _framework density 20.174119999999998
#
# number of rings (size 3 to 8) (size 9 to 14) (size 15 to 20)
#    0.000    1.818    2.727    1.636    1.273    0.727 
#    0.000    0.000   20.000    0.000    0.000    0.000 
#    0.000    0.000    0.000    0.000    0.000    0.000 
#
# Total GULP energy -272644.453614 kJ/mol
# GULP energy per Si atom -12392.929710 kJ/mol
# Density = 2.012820 g / cm^3
# Si number density = 20.174120 Si / 1000 Ang^3
#
#
#
# Elastic Constant Matrix: (Units=GPa)
#
#
# Indices 1 2 3 4 5 6 
#
# 1 137.0689 43.2520 30.5716 0.0000 0.0000 -0.0001
# 2 43.2520 109.2726 21.3248 0.0006 0.0001 0.0000
# 3 30.5716 21.3248 44.7630 0.0017 0.0000 -0.0005
# 4 0.0000 0.0006 0.0017 15.4987 0.0001 0.0000
# 5 0.0000 0.0001 0.0000 0.0001 21.5087 0.0000
# 6 -0.0001 0.0000 -0.0005 0.0000 0.0000 14.0502
#
#
#
# Elastic Compliance Matrix: (Units=1/GPa)
#
#
# Indices 1 2 3 4 5 6 
#
# 1 0.009269 -0.002683 -0.005052 0.000001 0.000000 0.000000
# 2 -0.002683 0.010866 -0.003344 0.000000 0.000000 0.000000
# 3 -0.005052 -0.003344 0.027384 -0.000003 0.000000 0.000001
# 4 0.000001 0.000000 -0.000003 0.064522 0.000000 0.000000
# 5 0.000000 0.000000 0.000000 0.000000 0.046493 0.000000
# 6 0.000000 0.000000 0.000001 0.000000 0.000000 0.071173
#
#
# Mechanical properties :
#
#
# Convention : Reuss Voigt Hill
#
# Bulk Modulus (GPa) = 39.43241 53.48904 46.46073
# Shear Modulus (GPa) = 19.20724 23.27525 21.24124
#
# Velocity S-wave (km/s) = 3.08892 3.40033 3.24836
# Velocity P-wave (km/s) = 5.68422 6.47978 6.09499
#
# Compressibility (1/GPa) = 0.02535985
#
# Stress axis : x y z
#
# Youngs Moduli (GPa) = 107.88599 92.03040 36.51826
#
# Poissons Ratio (x) = 0.24691 0.18450
# Poissons Ratio (y) = 0.28945 0.12212
# Poissons Ratio (z) = 0.54508 0.30776
#
# Static dielectric constant tensor:
#      x y z
#    x 3.951410 0.000000 0.000000 
#    y 0.000000 3.782610 0.000000 
#    z 0.000000 0.000000 3.638020 
# 
# 
# High freq. dielectric constant tensor:
#      x y z
#    x 1.797240 0.000000 0.000000 
#    y 0.000000 1.793730 0.000000 
#    z 0.000000 0.000000 1.752040 
# 
# From -- ./inp_files/11180.got.cif
#   From: 2010.03.12/outbox.cif.g09.slc.cpg/sg24_6_cif.got.tgz:11180.got - 2010.04.14 03:06:53.
