data_PCOD8165505
_publ_section_title
;
Structure prediction by ZEFSAII (Michael W. Deem and Ramdas Pophale) SiO2 
 PCOD8165505
Probable space group: I 21 21 21
;
_chemical_formula_sum "Si O2"
_cell_formula_units_Z 40
_cell_length_a 15.424185
_cell_length_b 8.087579
_cell_length_c 13.842771
_cell_angle_alpha 90.000000
_cell_angle_beta 90.000000
_cell_angle_gamma 90.000000
_cell_volume 1726.806982
_symmetry_space_group_name_H-M "I 21 21 21"
_symmetry_group_IT_number 24
_symmetry_cell_setting 'orthorhombic'
loop_
_space_group_symop_operation_xyz
x,y,z
-x,1/2-y,z
x,-y,1/2-z
1/2-x,y,-z
1/2+x,1/2+y,1/2+z
1/2-x,-y,1/2+z
1/2+x,1/2-y,-z
-x,1/2+y,1/2-z
loop_
_atom_site_type_symbol
_atom_site_label
_atom_site_fract_x
_atom_site_fract_y
_atom_site_fract_z
Si Si1 0.296688 0.076515 0.404208
Si Si2 0.130069 0.057476 0.153579
Si Si3 0.643336 0.058413 0.445702
Si Si4 0.301358 0.574464 0.644405
Si Si5 0.963342 0.433794 0.957674
O O1 0.250000 0.006982 0.500000
O O2 0.322020 0.266725 0.409617
O O3 0.219396 0.048595 0.328853
O O4 0.382446 0.963630 0.384645
O O5 0.152546 0.249482 0.142270
O O6 0.070008 0.006854 0.063138
O O7 0.077224 0.000000 0.250000
O O8 0.654154 0.038866 0.561420
O O9 0.699018 0.919703 0.386298
O O10 0.541920 0.048514 0.421566
O O11 0.314821 0.500000 0.750000
O O12 0.000000 0.250000 0.958649
#
# Coordination Sequence:
#
# PCOD8165505 Si02
#       5
#     8   8   8   8   8
#     4  10  21  39  65  88 122 171 217 257 322 391
#     4  11  24  41  64  97 133 172 217 271 327 394
#     4  11  22  42  65  96 131 172 220 272 329 386
#     4  11  23  40  67  95 132 172 222 267 324 391
#     4  11  22  39  62  95 129 170 214 263 324 388
#
# _framework density 23.164141999999998
#
# number of rings (size 3 to 8) (size 9 to 14) (size 15 to 20)
#    0.000    1.200    4.000    3.000    8.400    0.800 
#    0.000    1.000    0.000    0.000    0.000    0.000 
#    0.000    0.000    0.000    0.000    0.000    0.000 
#
# Total GULP energy -247794.908773 kJ/mol
# GULP energy per Si atom -12389.745439 kJ/mol
# Density = 2.311142 g / cm^3
# Si number density = 23.164142 Si / 1000 Ang^3
#
#
#
# Elastic Constant Matrix: (Units=GPa)
#
#
# Indices 1 2 3 4 5 6 
#
# 1 101.5956 17.3673 -34.4936 0.0000 0.0000 0.0000
# 2 17.3673 88.5640 4.7641 0.0000 0.0000 0.0000
# 3 -34.4936 4.7641 41.2001 0.0000 0.0000 0.0000
# 4 0.0000 0.0000 0.0000 30.3969 0.0000 0.0000
# 5 0.0000 0.0000 0.0000 0.0000 16.5411 0.0000
# 6 0.0000 0.0000 0.0000 0.0000 0.0000 37.3927
#
#
#
# Elastic Compliance Matrix: (Units=1/GPa)
#
#
# Indices 1 2 3 4 5 6 
#
# 1 0.014807 -0.003593 0.012812 0.000000 0.000000 0.000000
# 2 -0.003593 0.012234 -0.004423 0.000000 0.000000 0.000000
# 3 0.012812 -0.004423 0.035510 0.000000 0.000000 0.000000
# 4 0.000000 0.000000 0.000000 0.032898 0.000000 0.000000
# 5 0.000000 0.000000 0.000000 0.000000 0.060456 0.000000
# 6 0.000000 0.000000 0.000000 0.000000 0.000000 0.026743
#
#
# Mechanical properties :
#
#
# Convention : Reuss Voigt Hill
#
# Bulk Modulus (GPa) = 13.86108 22.95948 18.41028
# Shear Modulus (GPa) = 25.36755 33.11426 29.24090
#
# Velocity S-wave (km/s) = 3.31285 3.78504 3.55679
# Velocity P-wave (km/s) = 4.54204 5.38843 4.98324
#
# Compressibility (1/GPa) = 0.07214443
#
# Stress axis : x y z
#
# Youngs Moduli (GPa) = 67.53493 81.74121 28.16112
#
# Poissons Ratio (x) = 0.29369 -0.36081
# Poissons Ratio (y) = 0.24264 0.12455
# Poissons Ratio (z) = -0.86528 0.36151
#
# Static dielectric constant tensor:
#      x y z
#    x 4.836670 0.000000 0.000000 
#    y 0.000000 4.053120 0.000000 
#    z 0.000000 0.000000 4.178950 
# 
# 
# High freq. dielectric constant tensor:
#      x y z
#    x 1.925340 0.000000 0.000000 
#    y 0.000000 1.911930 0.000000 
#    z 0.000000 0.000000 1.895890 
# 
# From -- ./inp_files/24525.got.cif
#   From: 2010.03.12/outbox.cif.g09.slc.cpg/sg24_13_cif.got.tgz:24525.got - 2010.04.14 03:06:53.
