data_PCOD8165071
_publ_section_title
;
Structure prediction by ZEFSAII (Michael W. Deem and Ramdas Pophale) SiO2 
 PCOD8165071
Probable space group: I 21 21 21
;
_chemical_formula_sum "Si O2"
_cell_formula_units_Z 64
_cell_length_a 8.892869
_cell_length_b 27.318643
_cell_length_c 14.478442
_cell_angle_alpha 90.000000
_cell_angle_beta 90.000000
_cell_angle_gamma 90.000000
_cell_volume 3517.408821
_symmetry_space_group_name_H-M "I 21 21 21"
_symmetry_group_IT_number 24
_symmetry_cell_setting 'orthorhombic'
loop_
_space_group_symop_operation_xyz
x,y,z
-x,1/2-y,z
x,-y,1/2-z
1/2-x,y,-z
1/2+x,1/2+y,1/2+z
1/2-x,-y,1/2+z
1/2+x,1/2-y,-z
-x,1/2+y,1/2-z
loop_
_atom_site_type_symbol
_atom_site_label
_atom_site_fract_x
_atom_site_fract_y
_atom_site_fract_z
Si Si1 0.167826 0.980897 0.147087
Si Si2 0.176784 0.075520 0.910235
Si Si3 0.822191 0.612813 0.789466
Si Si4 0.667826 0.019103 0.647087
Si Si5 0.324851 0.306865 0.596104
Si Si6 0.677809 0.887187 0.210534
Si Si7 0.676784 0.075520 0.089765
Si Si8 0.324851 0.806865 0.903896
O O1 0.253538 0.929146 0.144790
O O2 0.000000 0.974720 0.105435
O O3 0.157153 0.000000 0.250000
O O4 0.262051 0.020042 0.089150
O O5 0.223327 0.104425 0.817524
O O6 1.000000 0.074007 0.921913
O O7 0.250000 0.102096 0.000000
O O8 0.753079 0.664430 0.819964
O O9 0.000000 0.612680 0.802025
O O10 0.753538 0.070854 0.644790
O O11 0.657153 0.000000 0.750000
O O12 0.762051 0.979958 0.589150
O O13 0.250000 0.322918 0.500000
O O14 0.246921 0.335570 0.680036
O O15 0.296371 0.250000 0.616025
O O16 0.500000 0.319744 0.591497
O O17 0.723327 0.895575 0.317524
O O18 0.750000 0.102096 0.000000
O O19 0.250000 0.822918 0.000000
#
# Coordination Sequence:
#
# PCOD8165071 Si02
#       8
#     8   8   8   8   8   8   8   8
#     4   9  17  30  48  70  98 132 169 208 248 292
#     4  10  20  33  50  74 105 140 176 213 252 297
#     4  10  20  34  53  77 105 136 171 212 256 303
#     4   9  17  30  48  70  98 132 169 208 248 292
#     4  10  21  37  57  80 104 130 163 206 256 309
#     4  10  20  34  53  77 105 136 171 212 256 303
#     4  10  20  33  50  74 105 140 176 213 252 297
#     4  10  21  37  57  80 104 130 163 206 256 309
#
# _framework density 18.195212000000001
#
# number of rings (size 3 to 8) (size 9 to 14) (size 15 to 20)
#    0.000    2.250    0.000    3.000    0.000    8.500 
#    0.000    5.000    0.000    0.750    0.000    0.000 
#    0.000    0.000    0.000    0.000    0.000    0.000 
#
# Total GULP energy -396810.600022 kJ/mol
# GULP energy per Si atom -12400.331251 kJ/mol
# Density = 1.815380 g / cm^3
# Si number density = 18.195212 Si / 1000 Ang^3
#
#
#
# Elastic Constant Matrix: (Units=GPa)
#
#
# Indices 1 2 3 4 5 6 
#
# 1 116.0224 48.7060 57.5050 -0.0002 0.0000 0.0000
# 2 48.7060 83.3632 52.9491 -0.0002 0.0000 0.0000
# 3 57.5050 52.9491 107.7163 -0.0005 -0.0001 0.0000
# 4 -0.0002 -0.0002 -0.0005 23.2790 0.0000 0.0000
# 5 0.0000 0.0000 -0.0001 0.0000 32.4399 -0.0001
# 6 0.0000 0.0000 0.0000 0.0000 -0.0001 32.3003
#
#
#
# Elastic Compliance Matrix: (Units=1/GPa)
#
#
# Indices 1 2 3 4 5 6 
#
# 1 0.012814 -0.004568 -0.004596 0.000000 0.000000 0.000000
# 2 -0.004568 0.019070 -0.006935 0.000000 0.000000 0.000000
# 3 -0.004596 -0.006935 0.015146 0.000000 0.000000 0.000000
# 4 0.000000 0.000000 0.000000 0.042957 0.000000 0.000000
# 5 0.000000 0.000000 0.000000 0.000000 0.030826 0.000000
# 6 0.000000 0.000000 0.000000 0.000000 0.000000 0.030960
#
#
# Mechanical properties :
#
#
# Convention : Reuss Voigt Hill
#
# Bulk Modulus (GPa) = 67.41962 69.49134 68.45548
# Shear Modulus (GPa) = 26.46698 27.46664 26.96681
#
# Velocity S-wave (km/s) = 3.81808 3.88951 3.85396
# Velocity P-wave (km/s) = 7.52136 7.64500 7.58343
#
# Compressibility (1/GPa) = 0.01483248
#
# Stress axis : x y z
#
# Youngs Moduli (GPa) = 78.03703 52.43954 66.02373
#
# Poissons Ratio (x) = 0.23955 0.30342
# Poissons Ratio (y) = 0.35648 0.45789
# Poissons Ratio (z) = 0.35863 0.36368
#
# Static dielectric constant tensor:
#      x y z
#    x 3.536480 0.000000 0.000000 
#    y 0.000000 3.183690 0.000000 
#    z 0.000000 0.000000 3.415150 
# 
# 
# High freq. dielectric constant tensor:
#      x y z
#    x 1.725270 0.000000 0.000000 
#    y 0.000000 1.677640 0.000000 
#    z 0.000000 0.000000 1.702040 
# 
# From -- ./inp_files/25226.got.cif
#   From: 2010.03.12/outbox.cif.g09.slc.cpg/sg24_13_cif.got.tgz:25226.got - 2010.04.14 03:06:53.
