data_PCOD8165000
_publ_section_title
;
Structure prediction by ZEFSAII (Michael W. Deem and Ramdas Pophale) SiO2 
 PCOD8165000
Probable space group: I 21 21 21
;
_chemical_formula_sum "Si O2"
_cell_formula_units_Z 48
_cell_length_a 10.547322
_cell_length_b 9.345771
_cell_length_c 23.201885
_cell_angle_alpha 90.000000
_cell_angle_beta 90.000000
_cell_angle_gamma 90.000000
_cell_volume 2287.076071
_symmetry_space_group_name_H-M "I 21 21 21"
_symmetry_group_IT_number 24
_symmetry_cell_setting 'orthorhombic'
loop_
_space_group_symop_operation_xyz
x,y,z
-x,1/2-y,z
x,-y,1/2-z
1/2-x,y,-z
1/2+x,1/2+y,1/2+z
1/2-x,-y,1/2+z
1/2+x,1/2-y,-z
-x,1/2+y,1/2-z
loop_
_atom_site_type_symbol
_atom_site_label
_atom_site_fract_x
_atom_site_fract_y
_atom_site_fract_z
Si Si1 0.356676 0.993248 0.955674
Si Si2 0.146387 0.263199 0.725835
Si Si3 0.814375 0.481984 0.648694
Si Si4 0.598043 0.065745 0.384779
Si Si5 0.000000 0.750000 0.978556
Si Si6 0.000000 0.250000 0.096604
Si Si7 0.756913 0.192496 0.843073
O O1 0.452364 0.124258 0.944924
O O2 0.296808 0.941776 0.895470
O O3 0.250000 0.049900 0.000000
O O4 0.429291 0.859422 0.980551
O O5 0.202244 0.106003 0.708685
O O6 0.163224 0.357708 0.668950
O O7 0.225801 0.346357 0.775458
O O8 0.000000 0.250000 0.745682
O O9 0.818404 0.650691 0.657788
O O10 0.947468 0.439835 0.621135
O O11 0.609001 0.163711 0.442024
O O12 0.665002 0.910076 0.387185
O O13 0.110975 0.307905 0.138244
#
# Coordination Sequence:
#
# PCOD8165000 Si02
#       7
#     8   8   8   8   4   4   8
#     4  11  23  44  68  90 130 172 214 274 327 379
#     4  10  19  37  64  97 131 164 211 263 321 375
#     4  10  20  39  63  96 128 163 217 264 314 383
#     4  11  20  39  63  99 127 158 215 271 309 387
#     4  12  24  42  67  98 127 166 218 272 336 386
#     4  10  28  46  57  98 129 170 230 256 318 408
#     4  11  23  39  63  90 133 170 205 262 322 379
#
# _framework density 20.987494999999999
#
# number of rings (size 3 to 8) (size 9 to 14) (size 15 to 20)
#    0.000    1.333    4.167    2.500    0.000    8.000 
#    0.000    7.500    0.000    0.000    0.000    0.000 
#    0.000    0.000    0.000    0.000    0.000    0.000 
#
# Total GULP energy -297505.933636 kJ/mol
# GULP energy per Si atom -12396.080568 kJ/mol
# Density = 2.093973 g / cm^3
# Si number density = 20.987495 Si / 1000 Ang^3
#
#
#
# Elastic Constant Matrix: (Units=GPa)
#
#
# Indices 1 2 3 4 5 6 
#
# 1 78.9937 61.8002 52.1756 0.0000 0.0000 0.0000
# 2 61.8002 143.3691 63.1879 0.0000 0.0000 0.0000
# 3 52.1756 63.1879 104.1173 0.0000 0.0000 0.0000
# 4 0.0000 0.0000 0.0000 35.1847 0.0000 0.0000
# 5 0.0000 0.0000 0.0000 0.0000 35.0120 0.0000
# 6 0.0000 0.0000 0.0000 0.0000 0.0000 32.1223
#
#
#
# Elastic Compliance Matrix: (Units=1/GPa)
#
#
# Indices 1 2 3 4 5 6 
#
# 1 0.022624 -0.006492 -0.007398 0.000000 0.000000 0.000000
# 2 -0.006492 0.011385 -0.003656 0.000000 0.000000 0.000000
# 3 -0.007398 -0.003656 0.015531 0.000000 0.000000 0.000000
# 4 0.000000 0.000000 0.000000 0.028421 0.000000 0.000000
# 5 0.000000 0.000000 0.000000 0.000000 0.028562 0.000000
# 6 0.000000 0.000000 0.000000 0.000000 0.000000 0.031131
#
#
# Mechanical properties :
#
#
# Convention : Reuss Voigt Hill
#
# Bulk Modulus (GPa) = 69.21237 75.64528 72.42883
# Shear Modulus (GPa) = 28.15928 30.41821 29.28875
#
# Velocity S-wave (km/s) = 3.66692 3.81116 3.73974
# Velocity P-wave (km/s) = 7.13988 7.44902 7.29609
#
# Compressibility (1/GPa) = 0.01444828
#
# Stress axis : x y z
#
# Youngs Moduli (GPa) = 44.20002 87.83675 64.38935
#
# Poissons Ratio (x) = 0.57023 0.47633
# Poissons Ratio (y) = 0.28695 0.23541
# Poissons Ratio (z) = 0.32698 0.32113
#
# Static dielectric constant tensor:
#      x y z
#    x 3.656080 0.000000 0.000000 
#    y 0.000000 4.169010 0.000000 
#    z 0.000000 0.000000 4.076560 
# 
# 
# High freq. dielectric constant tensor:
#      x y z
#    x 1.793380 0.000000 0.000000 
#    y 0.000000 1.840950 0.000000 
#    z 0.000000 0.000000 1.825080 
# 
# From -- ./inp_files/35569.got.cif
#   From: 2010.03.12/outbox.cif.g09.slc.cpg/sg24_18_cif.got.tgz:35569.got - 2010.04.14 03:06:53.
