data_PCOD8165251
_publ_section_title
;
Structure prediction by ZEFSAII (Michael W. Deem and Ramdas Pophale) SiO2 
 PCOD8165251
Probable space group: I 21 21 21
;
_chemical_formula_sum "Si O2"
_cell_formula_units_Z 60
_cell_length_a 10.936881
_cell_length_b 28.696987
_cell_length_c 9.028983
_cell_angle_alpha 90.000000
_cell_angle_beta 90.000000
_cell_angle_gamma 90.000000
_cell_volume 2833.796262
_symmetry_space_group_name_H-M "I 21 21 21"
_symmetry_group_IT_number 24
_symmetry_cell_setting 'orthorhombic'
loop_
_space_group_symop_operation_xyz
x,y,z
-x,1/2-y,z
x,-y,1/2-z
1/2-x,y,-z
1/2+x,1/2+y,1/2+z
1/2-x,-y,1/2+z
1/2+x,1/2-y,-z
-x,1/2+y,1/2-z
loop_
_atom_site_type_symbol
_atom_site_label
_atom_site_fract_x
_atom_site_fract_y
_atom_site_fract_z
Si Si1 0.826820 0.352074 0.638728
Si Si2 0.453859 0.419687 0.432616
Si Si3 0.238807 0.071144 0.164270
Si Si4 0.719675 0.157960 0.338582
Si Si5 0.559128 0.500000 0.250000
Si Si6 0.123305 0.634101 0.417388
Si Si7 0.025109 0.551086 0.256910
Si Si8 0.508121 0.197400 0.157127
O O1 0.750000 0.330127 0.500000
O O2 0.734689 0.383599 0.732211
O O3 0.929433 0.387047 0.582118
O O4 0.886016 0.313575 0.747543
O O5 0.338922 0.394283 0.353535
O O6 0.474124 0.471362 0.364800
O O7 0.433125 0.423585 0.607035
O O8 0.356057 0.037461 0.169569
O O9 0.118941 0.043208 0.214423
O O10 0.250000 0.091040 0.000000
O O11 0.750000 0.178338 0.500000
O O12 0.844286 0.157421 0.241413
O O13 0.624113 0.193094 0.264581
O O14 0.250000 0.628451 0.500000
O O15 0.025973 0.663984 0.513422
O O16 0.069982 0.582460 0.394498
O O17 0.086055 0.500000 0.250000
O O18 0.500000 0.250000 0.097952
#
# Coordination Sequence:
#
# PCOD8165251 Si02
#       8
#     8   8   8   8   4   8   8   8
#     4  10  20  38  63  88 129 170 203 263 332 404
#     4  10  21  37  59  89 124 170 221 265 324 389
#     4  11  21  34  56  88 130 173 210 258 338 395
#     4  10  20  42  69  89 123 178 216 271 339 392
#     4  10  22  34  56  88 134 170 212 276 328 370
#     4  10  23  45  66  88 134 180 215 277 342 386
#     4  12  22  36  61  94 128 169 232 272 316 395
#     4  10  23  43  68  98 130 165 219 277 343 416
#
# _framework density 21.173010999999999
#
# number of rings (size 3 to 8) (size 9 to 14) (size 15 to 20)
#    0.000    1.600    3.333    1.600    0.000    4.800 
#    3.600    6.667    0.000    0.000    0.000    0.000 
#    0.000    0.000    0.000    0.000    0.000    0.000 
#
# Total GULP energy -371833.452260 kJ/mol
# GULP energy per Si atom -12394.448409 kJ/mol
# Density = 2.112482 g / cm^3
# Si number density = 21.173011 Si / 1000 Ang^3
#
#
#
# Elastic Constant Matrix: (Units=GPa)
#
#
# Indices 1 2 3 4 5 6 
#
# 1 55.1465 26.3777 32.9097 0.0012 0.0048 0.0058
# 2 26.3777 122.3876 44.4912 0.0058 -0.0018 -0.0002
# 3 32.9097 44.4912 132.5866 0.0146 0.0002 0.0086
# 4 0.0012 0.0058 0.0146 27.5475 -0.0038 -0.0021
# 5 0.0048 -0.0018 0.0002 -0.0038 36.3552 0.0045
# 6 0.0058 -0.0002 0.0086 -0.0021 0.0045 13.9037
#
#
#
# Elastic Compliance Matrix: (Units=1/GPa)
#
#
# Indices 1 2 3 4 5 6 
#
# 1 0.022327 -0.003186 -0.004473 0.000002 -0.000003 -0.000007
# 2 -0.003186 0.009761 -0.002484 -0.000001 0.000001 0.000003
# 3 -0.004473 -0.002484 0.009486 -0.000004 0.000000 -0.000004
# 4 0.000002 -0.000001 -0.000004 0.036301 0.000004 0.000006
# 5 -0.000003 0.000001 0.000000 0.000004 0.027506 -0.000009
# 6 -0.000007 0.000003 -0.000004 0.000006 -0.000009 0.071923
#
#
# Mechanical properties :
#
#
# Convention : Reuss Voigt Hill
#
# Bulk Modulus (GPa) = 46.97703 57.51976 52.24840
# Shear Modulus (GPa) = 24.42768 29.31742 26.87255
#
# Velocity S-wave (km/s) = 3.40033 3.72514 3.56643
# Velocity P-wave (km/s) = 6.13610 6.76223 6.45676
#
# Compressibility (1/GPa) = 0.02128700
#
# Stress axis : x y z
#
# Youngs Moduli (GPa) = 44.78962 102.45259 105.41732
#
# Poissons Ratio (x) = 0.32642 0.47149
# Poissons Ratio (y) = 0.14270 0.26191
# Poissons Ratio (z) = 0.20033 0.25454
#
# Static dielectric constant tensor:
#      x y z
#    x 3.828470 0.000010 0.000040 
#    y 0.000010 3.497760 -0.000010 
#    z 0.000040 -0.000010 4.132700 
# 
# 
# High freq. dielectric constant tensor:
#      x y z
#    x 1.822210 0.000000 0.000000 
#    y 0.000000 1.800150 0.000000 
#    z 0.000000 0.000000 1.843000 
# 
# From -- ./inp_files/11545.got.cif
#   From: 2010.03.12/outbox.cif.g09.slc.cpg/sg24_6_cif.got.tgz:11545.got - 2010.04.14 03:06:53.
