data_PCOD8165079
_publ_section_title
;
Structure prediction by ZEFSAII (Michael W. Deem and Ramdas Pophale) SiO2 
 PCOD8165079
Probable space group: I 21 21 21
;
_chemical_formula_sum "Si O2"
_cell_formula_units_Z 52
_cell_length_a 8.563353
_cell_length_b 12.784674
_cell_length_c 26.635928
_cell_angle_alpha 90.000000
_cell_angle_beta 90.000000
_cell_angle_gamma 90.000000
_cell_volume 2916.092779
_symmetry_space_group_name_H-M "I 21 21 21"
_symmetry_group_IT_number 24
_symmetry_cell_setting 'orthorhombic'
loop_
_space_group_symop_operation_xyz
x,y,z
-x,1/2-y,z
x,-y,1/2-z
1/2-x,y,-z
1/2+x,1/2+y,1/2+z
1/2-x,-y,1/2+z
1/2+x,1/2-y,-z
-x,1/2+y,1/2-z
loop_
_atom_site_type_symbol
_atom_site_label
_atom_site_fract_x
_atom_site_fract_y
_atom_site_fract_z
Si Si1 0.319016 0.373776 0.448296
Si Si2 0.686283 0.633060 0.053145
Si Si3 0.184196 0.456890 0.351122
Si Si4 0.322638 0.287205 0.289154
Si Si5 0.167632 0.896845 0.154847
Si Si6 0.613927 0.500000 0.750000
Si Si7 0.893634 0.160005 0.203588
O O1 0.250000 0.416802 0.500000
O O2 0.503408 0.382570 0.447309
O O3 0.264583 0.254184 0.440157
O O4 0.250620 0.450377 0.406712
O O5 0.758993 0.571085 0.100882
O O6 0.750000 0.589319 0.000000
O O7 0.307074 0.403669 0.312371
O O8 0.168631 0.579766 0.338168
O O9 0.018697 0.398031 0.349316
O O10 0.500000 0.250000 0.285345
O O11 0.230367 0.215793 0.328878
O O12 0.248914 0.285273 0.233493
O O13 0.216715 0.979266 0.199653
O O14 0.501505 0.600381 0.744245
O O15 0.000000 0.250000 0.177655
#
# Coordination Sequence:
#
# PCOD8165079 Si02
#       7
#     8   8   8   8   8   4   8
#     4  10  20  34  52  80 115 148 185 232 292 347
#     4  10  20  33  53  82 112 151 187 229 286 352
#     4  11  21  35  56  80 107 156 187 235 287 340
#     4  12  21  33  51  79 115 149 186 236 284 337
#     4  11  20  34  54  76 113 148 194 231 277 344
#     4  10  20  34  58  78 104 156 192 232 284 334
#     4  11  20  39  55  78 111 150 199 232 278 345
#
# _framework density 17.832079
#
# number of rings (size 3 to 8) (size 9 to 14) (size 15 to 20)
#    0.000    1.231    6.154    2.308    0.000    1.231 
#    5.538    0.000    0.000    0.000    0.000    9.692 
#    0.000    0.000    0.000    0.000    0.000    0.000 
#
# Total GULP energy -322320.808496 kJ/mol
# GULP energy per Si atom -12396.954173 kJ/mol
# Density = 1.779149 g / cm^3
# Si number density = 17.832079 Si / 1000 Ang^3
#
#
#
# Elastic Constant Matrix: (Units=GPa)
#
#
# Indices 1 2 3 4 5 6 
#
# 1 83.5899 44.2734 54.0969 0.0000 0.0000 0.0000
# 2 44.2734 72.2978 41.2235 0.0000 0.0000 0.0000
# 3 54.0969 41.2235 161.2235 0.0000 0.0000 0.0000
# 4 0.0000 0.0000 0.0000 6.6017 0.0000 0.0000
# 5 0.0000 0.0000 0.0000 0.0000 32.1493 0.0000
# 6 0.0000 0.0000 0.0000 0.0000 0.0000 19.3908
#
#
#
# Elastic Compliance Matrix: (Units=1/GPa)
#
#
# Indices 1 2 3 4 5 6 
#
# 1 0.019828 -0.009774 -0.004154 0.000000 0.000000 0.000000
# 2 -0.009774 0.021010 -0.002093 0.000000 0.000000 0.000000
# 3 -0.004154 -0.002093 0.008132 0.000000 0.000000 0.000000
# 4 0.000000 0.000000 0.000000 0.151476 0.000000 0.000000
# 5 0.000000 0.000000 0.000000 0.000000 0.031105 0.000000
# 6 0.000000 0.000000 0.000000 0.000000 0.000000 0.051571
#
#
# Mechanical properties :
#
#
# Convention : Reuss Voigt Hill
#
# Bulk Modulus (GPa) = 59.07052 66.25542 62.66297
# Shear Modulus (GPa) = 15.58579 23.46287 19.52433
#
# Velocity S-wave (km/s) = 2.95961 3.63129 3.31252
# Velocity P-wave (km/s) = 6.69903 7.40388 7.06026
#
# Compressibility (1/GPa) = 0.01692892
#
# Stress axis : x y z
#
# Youngs Moduli (GPa) = 50.43317 47.59624 122.97849
#
# Poissons Ratio (x) = 0.46519 0.51086
# Poissons Ratio (y) = 0.49292 0.25735
# Poissons Ratio (z) = 0.20950 0.09960
#
# Static dielectric constant tensor:
#      x y z
#    x 3.270550 0.000000 0.000000 
#    y 0.000000 3.082250 0.000000 
#    z 0.000000 0.000000 3.490240 
# 
# 
# High freq. dielectric constant tensor:
#      x y z
#    x 1.688930 0.000000 0.000000 
#    y 0.000000 1.647120 0.000000 
#    z 0.000000 0.000000 1.691430 
# 
# From -- ./inp_files/18756.got.cif
#   From: 2010.03.12/outbox.cif.g09.slc.cpg/sg24_10_cif.got.tgz:18756.got - 2010.04.14 03:06:53.
