data_PCOD8165316
_publ_section_title
;
Structure prediction by ZEFSAII (Michael W. Deem and Ramdas Pophale) SiO2 
 PCOD8165316
Probable space group: I 21 21 21
;
_chemical_formula_sum "Si O2"
_cell_formula_units_Z 36
_cell_length_a 7.572931
_cell_length_b 8.279084
_cell_length_c 29.176542
_cell_angle_alpha 90.000000
_cell_angle_beta 90.000000
_cell_angle_gamma 90.000000
_cell_volume 1829.279666
_symmetry_space_group_name_H-M "I 21 21 21"
_symmetry_group_IT_number 24
_symmetry_cell_setting 'orthorhombic'
loop_
_space_group_symop_operation_xyz
x,y,z
-x,1/2-y,z
x,-y,1/2-z
1/2-x,y,-z
1/2+x,1/2+y,1/2+z
1/2-x,-y,1/2+z
1/2+x,1/2-y,-z
-x,1/2+y,1/2-z
loop_
_atom_site_type_symbol
_atom_site_label
_atom_site_fract_x
_atom_site_fract_y
_atom_site_fract_z
Si Si1 0.000000 0.750000 0.667273
Si Si2 0.848526 0.388320 0.206114
Si Si3 0.105944 0.986397 0.391138
Si Si4 0.770331 0.152898 0.909193
Si Si5 0.000000 0.750000 0.049595
Si Si6 0.750000 0.988573 0.000000
O O1 0.151837 0.814154 0.701432
O O2 0.086809 0.619081 0.631476
O O3 0.865592 0.500000 0.250000
O O4 0.869878 0.507829 0.163083
O O5 0.000000 0.250000 0.205990
O O6 0.230992 0.844724 0.410023
O O7 0.901514 0.947992 0.398136
O O8 0.141591 0.154012 0.418084
O O9 0.834718 0.099871 0.959721
O O10 0.092239 0.621566 0.017265
#
# Coordination Sequence:
#
# PCOD8165316 Si02
#       6
#     4   8   8   8   4   4
#     4  10  20  40  60  95 118 159 214 264 312 384
#     4  11  23  41  66  92 123 167 217 266 327 394
#     4   9  18  39  57  81 117 166 195 251 318 379
#     4   9  18  36  61  79 120 163 210 246 301 387
#     4  10  22  34  56  87 130 149 206 266 316 362
#     4  10  22  36  54  90 118 166 212 258 304 382
#
# _framework density 19.679877999999999
#
# number of rings (size 3 to 8) (size 9 to 14) (size 15 to 20)
#    0.000    2.222    4.444    0.000    1.556    8.889 
#    0.000    0.000    0.000    0.000    0.000    0.000 
#    0.000    0.000    0.000    0.000    0.000    0.000 
#
# Total GULP energy -222985.363770 kJ/mol
# GULP energy per Si atom -12388.075765 kJ/mol
# Density = 1.963509 g / cm^3
# Si number density = 19.679878 Si / 1000 Ang^3
#
#
#
# Elastic Constant Matrix: (Units=GPa)
#
#
# Indices 1 2 3 4 5 6 
#
# 1 93.6420 22.8405 31.9718 0.0000 0.0000 0.0000
# 2 22.8405 81.9338 70.0475 0.0000 0.0000 0.0000
# 3 31.9718 70.0475 153.4167 0.0000 0.0000 0.0000
# 4 0.0000 0.0000 0.0000 37.7181 0.0000 0.0000
# 5 0.0000 0.0000 0.0000 0.0000 25.9661 0.0000
# 6 0.0000 0.0000 0.0000 0.0000 0.0000 18.6899
#
#
#
# Elastic Compliance Matrix: (Units=1/GPa)
#
#
# Indices 1 2 3 4 5 6 
#
# 1 0.011680 -0.001927 -0.001554 0.000000 0.000000 0.000000
# 2 -0.001927 0.020338 -0.008884 0.000000 0.000000 0.000000
# 3 -0.001554 -0.008884 0.010898 0.000000 0.000000 0.000000
# 4 0.000000 0.000000 0.000000 0.026512 0.000000 0.000000
# 5 0.000000 0.000000 0.000000 0.000000 0.038512 0.000000
# 6 0.000000 0.000000 0.000000 0.000000 0.000000 0.053505
#
#
# Mechanical properties :
#
#
# Convention : Reuss Voigt Hill
#
# Bulk Modulus (GPa) = 54.99153 64.30134 59.64644
# Shear Modulus (GPa) = 26.00953 30.08367 28.04660
#
# Velocity S-wave (km/s) = 3.63937 3.91404 3.77920
# Velocity P-wave (km/s) = 6.75749 7.29183 7.02974
#
# Compressibility (1/GPa) = 0.01818462
#
# Stress axis : x y z
#
# Youngs Moduli (GPa) = 85.61897 49.17011 91.75653
#
# Poissons Ratio (x) = 0.09477 0.14259
# Poissons Ratio (y) = 0.16502 0.81518
# Poissons Ratio (z) = 0.13305 0.43683
#
# Static dielectric constant tensor:
#      x y z
#    x 3.666130 0.000000 0.000000 
#    y 0.000000 3.830670 0.000000 
#    z 0.000000 0.000000 3.975490 
# 
# 
# High freq. dielectric constant tensor:
#      x y z
#    x 1.764890 0.000000 0.000000 
#    y 0.000000 1.744470 0.000000 
#    z 0.000000 0.000000 1.778280 
# 
# From -- ./inp_files/9442.got.cif
#   From: 2010.03.12/outbox.cif.g09.slc.cpg/sg24_5_cif.got.tgz:9442.got - 2010.04.14 03:06:53.
