data_PCOD8165317
_publ_section_title
;
Structure prediction by ZEFSAII (Michael W. Deem and Ramdas Pophale) SiO2 
 PCOD8165317
Probable space group: I 21 21 21
;
_chemical_formula_sum "Si O2"
_cell_formula_units_Z 64
_cell_length_a 19.054111
_cell_length_b 17.698945
_cell_length_c 9.079319
_cell_angle_alpha 90.000000
_cell_angle_beta 90.000000
_cell_angle_gamma 90.000000
_cell_volume 3061.888318
_symmetry_space_group_name_H-M "I 21 21 21"
_symmetry_group_IT_number 24
_symmetry_cell_setting 'orthorhombic'
loop_
_space_group_symop_operation_xyz
x,y,z
-x,1/2-y,z
x,-y,1/2-z
1/2-x,y,-z
1/2+x,1/2+y,1/2+z
1/2-x,-y,1/2+z
1/2+x,1/2-y,-z
-x,1/2+y,1/2-z
loop_
_atom_site_type_symbol
_atom_site_label
_atom_site_fract_x
_atom_site_fract_y
_atom_site_fract_z
Si Si1 0.137008 0.643941 0.101784
Si Si2 0.242763 0.079484 0.671929
Si Si3 0.037121 0.175758 0.034782
Si Si4 0.919085 0.065313 0.146271
Si Si5 0.634577 0.308246 0.697611
Si Si6 0.513367 0.663654 0.010392
Si Si7 0.910629 0.589251 0.740125
Si Si8 0.819933 0.990001 0.925621
O O1 0.145557 0.603022 0.260667
O O2 0.160454 0.730924 0.117437
O O3 0.178043 0.599616 0.971679
O O4 0.054380 0.632620 0.070853
O O5 0.250000 0.065414 0.500000
O O6 0.298796 0.139830 0.730570
O O7 0.166500 0.114318 0.706554
O O8 0.256311 0.000000 0.750000
O O9 0.093360 0.208552 0.151524
O O10 0.000000 0.250000 0.963363
O O11 0.979230 0.125175 0.113810
O O12 0.078736 0.123201 0.921419
O O13 0.951841 0.000000 0.250000
O O14 0.887231 0.033020 0.993671
O O15 0.581448 0.351199 0.589542
O O16 0.500000 0.750000 0.049225
O O17 0.526097 0.620836 0.162437
O O18 0.916239 0.500000 0.750000
O O19 0.819860 0.000000 0.750000
O O20 0.750000 0.024548 0.000000
#
# Coordination Sequence:
#
# PCOD8165317 Si02
#       8
#     8   8   8   8   8   8   8   8
#     4  10  21  41  68 104 133 175 231 278 342 429
#     4  11  26  47  66  95 136 182 242 289 344 415
#     4  12  24  43  69 104 144 178 230 290 354 413
#     4  10  22  40  68  98 138 176 230 277 339 418
#     4  11  22  42  73  93 134 185 226 279 349 420
#     4  10  20  40  63  95 132 170 217 283 349 405
#     4  11  27  41  64  99 138 179 236 290 346 412
#     4  11  25  46  70 100 143 181 227 290 346 412
#
# _framework density 20.902135000000001
#
# number of rings (size 3 to 8) (size 9 to 14) (size 15 to 20)
#    0.000    1.250    3.750    1.875    8.750    1.000 
#    0.000    1.250    0.000    0.000    0.000    0.000 
#    0.000    0.000    0.000    0.000    0.000    0.000 
#
# Total GULP energy -396740.441773 kJ/mol
# GULP energy per Si atom -12398.138805 kJ/mol
# Density = 2.085456 g / cm^3
# Si number density = 20.902135 Si / 1000 Ang^3
#
#
#
# Elastic Constant Matrix: (Units=GPa)
#
#
# Indices 1 2 3 4 5 6 
#
# 1 78.0665 55.0925 35.4942 0.0000 0.0000 0.0000
# 2 55.0925 97.2398 41.0679 0.0000 0.0000 0.0000
# 3 35.4942 41.0679 134.5797 0.0000 0.0000 0.0000
# 4 0.0000 0.0000 0.0000 35.1117 0.0000 0.0000
# 5 0.0000 0.0000 0.0000 0.0000 26.3676 0.0000
# 6 0.0000 0.0000 0.0000 0.0000 0.0000 25.5216
#
#
#
# Elastic Compliance Matrix: (Units=1/GPa)
#
#
# Indices 1 2 3 4 5 6 
#
# 1 0.021940 -0.011464 -0.002288 0.000000 0.000000 0.000000
# 2 -0.011464 0.017796 -0.002407 0.000000 0.000000 0.000000
# 3 -0.002288 -0.002407 0.008768 0.000000 0.000000 0.000000
# 4 0.000000 0.000000 0.000000 0.028481 0.000000 0.000000
# 5 0.000000 0.000000 0.000000 0.000000 0.037925 0.000000
# 6 0.000000 0.000000 0.000000 0.000000 0.000000 0.039182
#
#
# Mechanical properties :
#
#
# Convention : Reuss Voigt Hill
#
# Bulk Modulus (GPa) = 61.78212 63.68835 62.73524
# Shear Modulus (GPa) = 26.06793 29.28229 27.67511
#
# Velocity S-wave (km/s) = 3.53532 3.74695 3.64267
# Velocity P-wave (km/s) = 6.80343 7.01822 6.91166
#
# Compressibility (1/GPa) = 0.01618591
#
# Stress axis : x y z
#
# Youngs Moduli (GPa) = 45.57802 56.19381 114.04464
#
# Poissons Ratio (x) = 0.64422 0.26096
# Poissons Ratio (y) = 0.52252 0.27449
# Poissons Ratio (z) = 0.10429 0.13525
#
# Static dielectric constant tensor:
#      x y z
#    x 3.885440 0.000000 0.000000 
#    y 0.000000 3.871130 0.000000 
#    z 0.000000 0.000000 3.824080 
# 
# 
# High freq. dielectric constant tensor:
#      x y z
#    x 1.813040 0.000000 0.000000 
#    y 0.000000 1.824030 0.000000 
#    z 0.000000 0.000000 1.819960 
# 
# From -- ./inp_files/15411.got.cif
#   From: 2010.03.12/outbox.cif.g09.slc.cpg/sg24_8_cif.got.tgz:15411.got - 2010.04.14 03:06:53.
