data_PCOD8165668
_publ_section_title
;
Structure prediction by ZEFSAII (Michael W. Deem and Ramdas Pophale) SiO2 
 PCOD8165668
Probable space group: I 21 21 21
;
_chemical_formula_sum "Si O2"
_cell_formula_units_Z 48
_cell_length_a 14.325200
_cell_length_b 14.425800
_cell_length_c 11.036839
_cell_angle_alpha 90.000000
_cell_angle_beta 90.000000
_cell_angle_gamma 90.000000
_cell_volume 2280.790042
_symmetry_space_group_name_H-M "I 21 21 21"
_symmetry_group_IT_number 24
_symmetry_cell_setting 'orthorhombic'
loop_
_space_group_symop_operation_xyz
x,y,z
-x,1/2-y,z
x,-y,1/2-z
1/2-x,y,-z
1/2+x,1/2+y,1/2+z
1/2-x,-y,1/2+z
1/2+x,1/2-y,-z
-x,1/2+y,1/2-z
loop_
_atom_site_type_symbol
_atom_site_label
_atom_site_fract_x
_atom_site_fract_y
_atom_site_fract_z
Si Si1 0.250000 0.642455 0.500000
Si Si2 0.433025 0.893991 0.716271
Si Si3 0.779590 0.251817 0.238211
Si Si4 0.408746 0.299171 0.329291
Si Si5 0.944290 0.047665 0.005521
Si Si6 0.579286 0.849726 0.899800
Si Si7 0.942650 0.000000 0.750000
O O1 0.277880 0.705767 0.609582
O O2 0.343227 0.586066 0.466496
O O3 0.330597 0.849453 0.714592
O O4 0.489159 0.886223 0.587350
O O5 0.486942 0.832822 0.817801
O O6 0.418117 0.000000 0.750000
O O7 0.676697 0.267748 0.293035
O O8 0.829108 0.181772 0.330232
O O9 0.500000 0.250000 0.270026
O O10 0.424751 0.297381 0.473101
O O11 0.387411 0.403903 0.280807
O O12 0.997527 0.021890 0.877208
O O13 0.917587 0.959961 0.086246
#
# Coordination Sequence:
#
# PCOD8165668 Si02
#       7
#     4   8   8   8   8   8   4
#     4  12  24  34  62 100 128 172 216 270 350 386
#     4  10  22  44  69  96 132 181 226 273 333 406
#     4  12  24  40  66  99 131 173 229 277 333 410
#     4  11  24  41  63  98 134 175 223 279 341 393
#     4  10  22  38  63  99 136 168 215 272 340 404
#     4  10  22  39  69  97 133 171 217 277 333 396
#     4  10  22  42  64  92 132 170 216 274 340 398
#
# _framework density 21.045341000000001
#
# number of rings (size 3 to 8) (size 9 to 14) (size 15 to 20)
#    0.000    1.333    3.333    2.000    4.667    1.333 
#    1.500    0.000    3.667    0.000    0.000    0.000 
#    0.000    0.000    0.000    0.000    0.000    0.000 
#
# Total GULP energy -297337.576995 kJ/mol
# GULP energy per Si atom -12389.065708 kJ/mol
# Density = 2.099744 g / cm^3
# Si number density = 21.045341 Si / 1000 Ang^3
#
#
#
# Elastic Constant Matrix: (Units=GPa)
#
#
# Indices 1 2 3 4 5 6 
#
# 1 140.2617 56.9267 40.0371 0.0000 0.0000 0.0000
# 2 56.9267 81.9824 39.2130 0.0000 0.0000 0.0000
# 3 40.0371 39.2130 127.4011 0.0000 0.0000 0.0000
# 4 0.0000 0.0000 0.0000 20.3776 0.0000 0.0000
# 5 0.0000 0.0000 0.0000 0.0000 21.7337 0.0000
# 6 0.0000 0.0000 0.0000 0.0000 0.0000 33.5800
#
#
#
# Elastic Compliance Matrix: (Units=1/GPa)
#
#
# Indices 1 2 3 4 5 6 
#
# 1 0.010078 -0.006430 -0.001188 0.000000 0.000000 0.000000
# 2 -0.006430 0.018406 -0.003644 0.000000 0.000000 0.000000
# 3 -0.001188 -0.003644 0.009344 0.000000 0.000000 0.000000
# 4 0.000000 0.000000 0.000000 0.049073 0.000000 0.000000
# 5 0.000000 0.000000 0.000000 0.000000 0.046011 0.000000
# 6 0.000000 0.000000 0.000000 0.000000 0.000000 0.029780
#
#
# Mechanical properties :
#
#
# Convention : Reuss Voigt Hill
#
# Bulk Modulus (GPa) = 65.34499 69.11098 67.22799
# Shear Modulus (GPa) = 26.27170 29.36949 27.82060
#
# Velocity S-wave (km/s) = 3.53702 3.73974 3.63979
# Velocity P-wave (km/s) = 6.91359 7.18038 7.04825
#
# Compressibility (1/GPa) = 0.01530339
#
# Stress axis : x y z
#
# Youngs Moduli (GPa) = 99.22306 54.33111 107.01653
#
# Poissons Ratio (x) = 0.34934 0.12715
# Poissons Ratio (y) = 0.63799 0.39002
# Poissons Ratio (z) = 0.11789 0.19801
#
# Static dielectric constant tensor:
#      x y z
#    x 3.482060 0.000000 0.000000 
#    y 0.000000 3.699930 0.000000 
#    z 0.000000 0.000000 4.202390 
# 
# 
# High freq. dielectric constant tensor:
#      x y z
#    x 1.796040 0.000000 0.000000 
#    y 0.000000 1.823360 0.000000 
#    z 0.000000 0.000000 1.848720 
# 
# From -- ./inp_files/20779.got.cif
#   From: 2010.03.12/outbox.cif.g09.slc.cpg/sg24_11_cif.got.tgz:20779.got - 2010.04.14 03:06:53.
