data_PCOD8165901
_publ_section_title
;
Structure prediction by ZEFSAII (Michael W. Deem and Ramdas Pophale) SiO2 
 PCOD8165901
Probable space group: I 21 21 21
;
_chemical_formula_sum "Si O2"
_cell_formula_units_Z 56
_cell_length_a 20.465442
_cell_length_b 9.476064
_cell_length_c 13.797937
_cell_angle_alpha 90.000000
_cell_angle_beta 90.000000
_cell_angle_gamma 90.000000
_cell_volume 2675.859286
_symmetry_space_group_name_H-M "I 21 21 21"
_symmetry_group_IT_number 24
_symmetry_cell_setting 'orthorhombic'
loop_
_space_group_symop_operation_xyz
x,y,z
-x,1/2-y,z
x,-y,1/2-z
1/2-x,y,-z
1/2+x,1/2+y,1/2+z
1/2-x,-y,1/2+z
1/2+x,1/2-y,-z
-x,1/2+y,1/2-z
loop_
_atom_site_type_symbol
_atom_site_label
_atom_site_fract_x
_atom_site_fract_y
_atom_site_fract_z
Si Si1 0.934215 0.167292 0.541629
Si Si2 0.250622 0.166648 0.748892
Si Si3 0.064366 0.661911 0.546224
Si Si4 0.646521 0.667098 0.587792
Si Si5 0.378467 0.658088 0.250131
Si Si6 0.449062 0.144522 0.750619
Si Si7 0.844319 0.351299 0.410639
O O1 0.920042 0.189671 0.654349
O O2 0.873208 0.236374 0.483751
O O3 0.000000 0.250000 0.512790
O O4 0.942416 0.002384 0.514288
O O5 0.295341 0.217029 0.840307
O O6 0.180573 0.234617 0.760859
O O7 0.278064 0.207493 0.640529
O O8 0.243065 0.000000 0.750000
O O9 0.131977 0.725687 0.500554
O O10 0.071442 0.675027 0.661552
O O11 0.000000 0.750000 0.515639
O O12 0.577047 0.681989 0.643355
O O13 0.662045 0.509748 0.544027
O O14 0.349157 0.500000 0.250000
O O15 0.500000 0.250000 0.704647
O O16 0.387691 0.120707 0.683029
O O17 0.489935 0.000000 0.750000
#
# Coordination Sequence:
#
# PCOD8165901 Si02
#       7
#     8   8   8   8   8   8   8
#     4  11  23  39  59  84 113 149 191 237 287 337
#     4   9  20  39  62  87 116 151 190 228 276 337
#     4  11  23  39  59  84 113 149 191 237 287 337
#     4   9  19  36  56  82 114 146 183 229 278 335
#     4  10  24  42  58  80 114 152 192 238 286 334
#     4   9  17  29  47  73 108 143 176 218 270 327
#     4   9  19  36  56  82 114 146 183 229 278 335
#
# _framework density 20.927856999999999
#
# number of rings (size 3 to 8) (size 9 to 14) (size 15 to 20)
#    0.000    2.286    0.000    3.857    0.000    8.000 
#    0.000    8.571    0.000    0.000    0.000    0.000 
#    0.000    0.000    0.000    0.000    0.000    0.000 
#
# Total GULP energy -346965.670905 kJ/mol
# GULP energy per Si atom -12391.631104 kJ/mol
# Density = 2.088022 g / cm^3
# Si number density = 20.927857 Si / 1000 Ang^3
#
#
#
# Elastic Constant Matrix: (Units=GPa)
#
#
# Indices 1 2 3 4 5 6 
#
# 1 65.6805 31.6118 0.2264 0.0000 0.0000 0.0000
# 2 31.6118 100.7267 26.0282 0.0000 0.0000 0.0000
# 3 0.2264 26.0282 70.6953 0.0000 0.0000 0.0000
# 4 0.0000 0.0000 0.0000 30.6924 0.0000 0.0000
# 5 0.0000 0.0000 0.0000 0.0000 23.5934 0.0000
# 6 0.0000 0.0000 0.0000 0.0000 0.0000 34.1708
#
#
#
# Elastic Compliance Matrix: (Units=1/GPa)
#
#
# Indices 1 2 3 4 5 6 
#
# 1 0.018257 -0.006315 0.002267 0.000000 0.000000 0.000000
# 2 -0.006315 0.013156 -0.004824 0.000000 0.000000 0.000000
# 3 0.002267 -0.004824 0.015914 0.000000 0.000000 0.000000
# 4 0.000000 0.000000 0.000000 0.032581 0.000000 0.000000
# 5 0.000000 0.000000 0.000000 0.000000 0.042385 0.000000
# 6 0.000000 0.000000 0.000000 0.000000 0.000000 0.029265
#
#
# Mechanical properties :
#
#
# Convention : Reuss Voigt Hill
#
# Bulk Modulus (GPa) = 33.80372 39.20391 36.50382
# Shear Modulus (GPa) = 27.90746 29.64039 28.77393
#
# Velocity S-wave (km/s) = 3.65568 3.76748 3.71200
# Velocity P-wave (km/s) = 5.83149 6.13993 5.98770
#
# Compressibility (1/GPa) = 0.02958254
#
# Stress axis : x y z
#
# Youngs Moduli (GPa) = 54.77350 76.00917 62.83826
#
# Poissons Ratio (x) = 0.48003 -0.14244
# Poissons Ratio (y) = 0.34592 0.30311
# Poissons Ratio (z) = -0.12416 0.36664
#
# Static dielectric constant tensor:
#      x y z
#    x 3.530500 0.000000 0.000000 
#    y 0.000000 3.847570 0.000000 
#    z 0.000000 0.000000 3.804200 
# 
# 
# High freq. dielectric constant tensor:
#      x y z
#    x 1.805890 0.000000 0.000000 
#    y 0.000000 1.815970 0.000000 
#    z 0.000000 0.000000 1.826350 
# 
# From -- ./inp_files/27534.got.cif
#   From: 2010.03.12/outbox.cif.g09.slc.cpg/sg24_14_cif.got.tgz:27534.got - 2010.04.14 03:06:53.
