data_PCOD8165931
_publ_section_title
;
Structure prediction by ZEFSAII (Michael W. Deem and Ramdas Pophale) SiO2 
 PCOD8165931
Probable space group: I 21 21 21
;
_chemical_formula_sum "Si O2"
_cell_formula_units_Z 20
_cell_length_a 9.671328
_cell_length_b 14.489080
_cell_length_c 5.259618
_cell_angle_alpha 90.000000
_cell_angle_beta 90.000000
_cell_angle_gamma 90.000000
_cell_volume 737.023144
_symmetry_space_group_name_H-M "I 21 21 21"
_symmetry_group_IT_number 24
_symmetry_cell_setting 'orthorhombic'
loop_
_space_group_symop_operation_xyz
x,y,z
-x,1/2-y,z
x,-y,1/2-z
1/2-x,y,-z
1/2+x,1/2+y,1/2+z
1/2-x,-y,1/2+z
1/2+x,1/2-y,-z
-x,1/2+y,1/2-z
loop_
_atom_site_type_symbol
_atom_site_label
_atom_site_fract_x
_atom_site_fract_y
_atom_site_fract_z
Si Si1 0.750000 0.622929 0.000000
Si Si2 0.454110 0.445894 0.505271
Si Si3 0.353634 0.282888 0.198295
O O1 0.774646 0.688630 0.760464
O O2 0.882132 0.559333 0.052384
O O3 0.420726 0.500000 0.250000
O O4 0.384664 0.345123 0.453266
O O5 0.390078 0.500000 0.750000
O O6 0.500000 0.250000 0.074480
O O7 0.250000 0.334862 0.000000
#
# Coordination Sequence:
#
# PCOD8165931 Si02
#       3
#     4   8   8
#     4  10  24  44  78 108 150 206 258 308 372 470
#     4  11  26  47  75 115 152 199 250 322 384 443
#     4  10  25  46  81 113 152 205 256 314 379 465
#
# _framework density 27.136189999999999
#
# number of rings (size 3 to 8) (size 9 to 14) (size 15 to 20)
#    0.000    1.600    0.000    1.200   16.800    1.600 
#    3.600    0.000    0.000    0.000    0.000    0.000 
#    0.000    0.000    0.000    0.000    0.000    0.000 
#
# Total GULP energy -123925.152963 kJ/mol
# GULP energy per Si atom -12392.515296 kJ/mol
# Density = 2.707443 g / cm^3
# Si number density = 27.136190 Si / 1000 Ang^3
#
#
#
# Elastic Constant Matrix: (Units=GPa)
#
#
# Indices 1 2 3 4 5 6 
#
# 1 153.1057 18.2710 56.5483 0.0000 0.0000 0.0000
# 2 18.2710 94.2173 51.4771 0.0000 0.0000 0.0000
# 3 56.5483 51.4771 176.7760 0.0001 0.0001 -0.0001
# 4 0.0000 0.0000 0.0001 43.9253 0.0000 0.0000
# 5 0.0000 0.0000 0.0001 0.0000 34.2170 0.0000
# 6 0.0000 0.0000 -0.0001 0.0000 0.0000 19.4229
#
#
#
# Elastic Compliance Matrix: (Units=1/GPa)
#
#
# Indices 1 2 3 4 5 6 
#
# 1 0.007409 -0.000169 -0.002321 0.000000 0.000000 0.000000
# 2 -0.000169 0.012626 -0.003623 0.000000 0.000000 0.000000
# 3 -0.002321 -0.003623 0.007454 0.000000 0.000000 0.000000
# 4 0.000000 0.000000 0.000000 0.022766 0.000000 0.000000
# 5 0.000000 0.000000 0.000000 0.000000 0.029225 0.000000
# 6 0.000000 0.000000 0.000000 0.000000 0.000000 0.051486
#
#
# Mechanical properties :
#
#
# Convention : Reuss Voigt Hill
#
# Bulk Modulus (GPa) = 65.51225 75.18799 70.35012
# Shear Modulus (GPa) = 33.72045 39.36655 36.54350
#
# Velocity S-wave (km/s) = 3.52893 3.81294 3.67368
# Velocity P-wave (km/s) = 6.38740 6.86677 6.63142
#
# Compressibility (1/GPa) = 0.01526432
#
# Stress axis : x y z
#
# Youngs Moduli (GPa) = 134.97559 79.20312 134.15274
#
# Poissons Ratio (x) = 0.01336 0.31135
# Poissons Ratio (y) = 0.02277 0.48599
# Poissons Ratio (z) = 0.31326 0.28692
#
# Static dielectric constant tensor:
#      x y z
#    x 5.208790 0.000000 0.000000 
#    y 0.000000 5.145950 0.000000 
#    z 0.000000 0.000000 4.639010 
# 
# 
# High freq. dielectric constant tensor:
#      x y z
#    x 2.113310 0.000000 0.000000 
#    y 0.000000 2.088810 0.000000 
#    z 0.000000 0.000000 2.072990 
# 
# From -- ./inp_files/641.got.cif
#   From: 2010.03.12/outbox.cif.g09.slc.cpg/sg24_1_cif.got.tgz:641.got - 2010.04.14 03:06:53.
