data_PCOD8165464
_publ_section_title
;
Structure prediction by ZEFSAII (Michael W. Deem and Ramdas Pophale) SiO2 
 PCOD8165464
Probable space group: I 21 21 21
;
_chemical_formula_sum "Si O2"
_cell_formula_units_Z 48
_cell_length_a 16.514570
_cell_length_b 4.966622
_cell_length_c 27.447378
_cell_angle_alpha 90.000000
_cell_angle_beta 90.000000
_cell_angle_gamma 90.000000
_cell_volume 2251.278592
_symmetry_space_group_name_H-M "I 21 21 21"
_symmetry_group_IT_number 24
_symmetry_cell_setting 'orthorhombic'
loop_
_space_group_symop_operation_xyz
x,y,z
-x,1/2-y,z
x,-y,1/2-z
1/2-x,y,-z
1/2+x,1/2+y,1/2+z
1/2-x,-y,1/2+z
1/2+x,1/2-y,-z
-x,1/2+y,1/2-z
loop_
_atom_site_type_symbol
_atom_site_label
_atom_site_fract_x
_atom_site_fract_y
_atom_site_fract_z
Si Si1 0.056204 0.000174 0.305743
Si Si2 0.807741 0.625780 0.543890
Si Si3 0.778791 0.065828 0.697241
Si Si4 0.413843 0.359375 0.442357
Si Si5 0.551121 0.982117 0.165683
Si Si6 0.720316 0.575549 0.646003
O O1 0.000000 0.750000 0.316118
O O2 0.090658 0.000000 0.250000
O O3 0.127660 0.013294 0.345781
O O4 0.000000 0.250000 0.315641
O O5 0.750000 0.711848 0.500000
O O6 0.846806 0.335652 0.534867
O O7 0.750906 0.583538 0.590892
O O8 0.883067 0.836538 0.546788
O O9 0.725745 0.885921 0.661355
O O10 0.741925 0.000000 0.750000
O O11 0.870702 0.953787 0.697757
O O12 0.774448 0.376280 0.680027
O O13 0.500000 0.250000 0.463952
O O14 0.418360 0.341974 0.384078
O O15 0.500000 0.750000 0.193499
O O16 0.500000 0.250000 0.155384
#
# Coordination Sequence:
#
# PCOD8165464 Si02
#       6
#     8   8   8   8   8   8
#     4  10  21  38  62  89 119 160 206 253 321 402
#     4  12  24  43  68  99 127 168 220 282 335 389
#     4  12  24  38  61  92 128 172 216 259 319 383
#     4  11  22  42  68  94 127 174 218 259 321 396
#     4  11  21  36  60  86 125 169 211 255 303 362
#     4  12  23  43  62  92 129 167 213 274 331 391
#
# _framework density 21.321216
#
# number of rings (size 3 to 8) (size 9 to 14) (size 15 to 20)
#    0.000    0.667    3.333    6.500    0.000    2.000 
#    0.000    2.500    0.000    0.000    0.000    0.000 
#    0.000    0.000    0.000    0.000    0.000    0.000 
#
# Total GULP energy -297453.373241 kJ/mol
# GULP energy per Si atom -12393.890552 kJ/mol
# Density = 2.127269 g / cm^3
# Si number density = 21.321216 Si / 1000 Ang^3
#
#
#
# Elastic Constant Matrix: (Units=GPa)
#
#
# Indices 1 2 3 4 5 6 
#
# 1 129.1346 38.8608 38.3655 0.0000 0.0000 0.0000
# 2 38.8608 120.0592 17.7543 0.0000 0.0000 0.0000
# 3 38.3655 17.7543 87.0982 0.0000 0.0000 0.0000
# 4 0.0000 0.0000 0.0000 13.9740 0.0000 0.0000
# 5 0.0000 0.0000 0.0000 0.0000 -6.9542 0.0000
# 6 0.0000 0.0000 0.0000 0.0000 0.0000 6.1105
#
#
#
# Elastic Compliance Matrix: (Units=1/GPa)
#
#
# Indices 1 2 3 4 5 6 
#
# 1 0.009619 -0.002564 -0.003714 0.000000 0.000000 0.000000
# 2 -0.002564 0.009272 -0.000760 0.000000 0.000000 0.000000
# 3 -0.003714 -0.000760 0.013272 0.000000 0.000000 0.000000
# 4 0.000000 0.000000 0.000000 0.071562 0.000000 0.000000
# 5 0.000000 0.000000 0.000000 0.000000 -0.143798 0.000000
# 6 0.000000 0.000000 0.000000 0.000000 0.000000 0.163654
#
#
# Mechanical properties :
#
#
# Convention : Reuss Voigt Hill
#
# Bulk Modulus (GPa) = 55.29422 58.47260 56.88341
# Shear Modulus (GPa) = 34.79782 18.71347 26.75565
#
# Velocity S-wave (km/s) = 4.04428 2.96580 3.54628
# Velocity P-wave (km/s) = 6.91364 6.26196 6.59585
#
# Compressibility (1/GPa) = 0.01808507
#
# Stress axis : x y z
#
# Youngs Moduli (GPa) = 103.96054 107.85544 75.34418
#
# Poissons Ratio (x) = 0.27656 0.27985
# Poissons Ratio (y) = 0.26658 0.05730
# Poissons Ratio (z) = 0.38615 0.08202
#
# Static dielectric constant tensor:
#      x y z
#    x 4.022360 0.000000 0.000000 
#    y 0.000000 3.973340 0.000000 
#    z 0.000000 0.000000 3.499290 
# 
# 
# High freq. dielectric constant tensor:
#      x y z
#    x 1.846050 0.000000 0.000000 
#    y 0.000000 1.858370 0.000000 
#    z 0.000000 0.000000 1.795680 
# 
# From -- ./inp_files/37361.got.cif
#   From: 2010.03.12/outbox.cif.g09.slc.cpg/sg24_19_cif.got.tgz:37361.got - 2010.04.14 03:06:53.
