data_PCOD8165463
_publ_section_title
;
Structure prediction by ZEFSAII (Michael W. Deem and Ramdas Pophale) SiO2 
 PCOD8165463
Probable space group: I 21 21 21
;
_chemical_formula_sum "Si O2"
_cell_formula_units_Z 24
_cell_length_a 16.426251
_cell_length_b 13.552945
_cell_length_c 4.887600
_cell_angle_alpha 90.000000
_cell_angle_beta 90.000000
_cell_angle_gamma 90.000000
_cell_volume 1088.097436
_symmetry_space_group_name_H-M "I 21 21 21"
_symmetry_group_IT_number 24
_symmetry_cell_setting 'orthorhombic'
loop_
_space_group_symop_operation_xyz
x,y,z
-x,1/2-y,z
x,-y,1/2-z
1/2-x,y,-z
1/2+x,1/2+y,1/2+z
1/2-x,-y,1/2+z
1/2+x,1/2-y,-z
-x,1/2+y,1/2-z
loop_
_atom_site_type_symbol
_atom_site_label
_atom_site_fract_x
_atom_site_fract_y
_atom_site_fract_z
Si Si1 0.341978 0.606602 0.885727
Si Si2 0.807685 0.391860 0.749236
Si Si3 0.910711 0.786696 0.626248
O O1 0.357200 0.500000 0.750000
O O2 0.360671 0.684682 0.645817
O O3 0.250000 0.617491 0.000000
O O4 0.402972 0.626250 0.143360
O O5 0.849711 0.500000 0.750000
O O6 0.750000 0.376469 0.500000
O O7 0.876050 0.310313 0.731637
O O8 0.750000 0.375971 0.000000
O O9 0.000000 0.750000 0.542566
#
# Coordination Sequence:
#
# PCOD8165463 Si02
#       3
#     8   8   8
#     4  12  25  44  70  98 131 178 231 277 328 399
#     4  10  21  38  62  88 117 162 216 265 316 383
#     4  12  25  42  65  98 137 174 216 276 345 400
#
# _framework density 22.056851000000002
#
# number of rings (size 3 to 8) (size 9 to 14) (size 15 to 20)
#    0.000    0.667    0.000   10.000    0.000    2.667 
#    0.000    3.333    0.000    0.000    0.000    0.000 
#    0.000    0.000    0.000    0.000    0.000    0.000 
#
# Total GULP energy -148719.443242 kJ/mol
# GULP energy per Si atom -12393.286937 kJ/mol
# Density = 2.200665 g / cm^3
# Si number density = 22.056851 Si / 1000 Ang^3
#
#
#
# Elastic Constant Matrix: (Units=GPa)
#
#
# Indices 1 2 3 4 5 6 
#
# 1 94.9908 65.0318 41.9703 0.0000 0.0000 0.0000
# 2 65.0318 130.4341 46.4194 0.0000 0.0000 0.0000
# 3 41.9703 46.4194 162.4872 0.0000 0.0000 0.0000
# 4 0.0000 0.0000 0.0000 30.1306 0.0000 0.0000
# 5 0.0000 0.0000 0.0000 0.0000 35.9504 0.0000
# 6 0.0000 0.0000 0.0000 0.0000 0.0000 16.3066
#
#
#
# Elastic Compliance Matrix: (Units=1/GPa)
#
#
# Indices 1 2 3 4 5 6 
#
# 1 0.016628 -0.007527 -0.002145 0.000000 0.000000 0.000000
# 2 -0.007527 0.011942 -0.001467 0.000000 0.000000 0.000000
# 3 -0.002145 -0.001467 0.007127 0.000000 0.000000 0.000000
# 4 0.000000 0.000000 0.000000 0.033189 0.000000 0.000000
# 5 0.000000 0.000000 0.000000 0.000000 0.027816 0.000000
# 6 0.000000 0.000000 0.000000 0.000000 0.000000 0.061325
#
#
# Mechanical properties :
#
#
# Convention : Reuss Voigt Hill
#
# Bulk Modulus (GPa) = 74.52042 77.19500 75.85771
# Shear Modulus (GPa) = 27.05942 32.11022 29.58482
#
# Velocity S-wave (km/s) = 3.50638 3.81963 3.66635
# Velocity P-wave (km/s) = 7.08885 7.38423 7.23805
#
# Compressibility (1/GPa) = 0.01341914
#
# Stress axis : x y z
#
# Youngs Moduli (GPa) = 60.13905 83.73956 140.30231
#
# Poissons Ratio (x) = 0.63032 0.30090
# Poissons Ratio (y) = 0.45268 0.20586
# Poissons Ratio (z) = 0.12898 0.12287
#
# Static dielectric constant tensor:
#      x y z
#    x 3.888720 0.000000 0.000000 
#    y 0.000000 4.468220 0.000000 
#    z 0.000000 0.000000 4.258290 
# 
# 
# High freq. dielectric constant tensor:
#      x y z
#    x 1.839020 0.000000 0.000000 
#    y 0.000000 1.886910 0.000000 
#    z 0.000000 0.000000 1.896550 
# 
# From -- ./inp_files/1698.got.cif
#   From: 2010.03.12/outbox.cif.g09.slc.cpg/sg24_1_cif.got.tgz:1698.got - 2010.04.14 03:06:53.
