data_PCOD8165016
_publ_section_title
;
Structure prediction by ZEFSAII (Michael W. Deem and Ramdas Pophale) SiO2 
 PCOD8165016
Probable space group: I 21 21 21
;
_chemical_formula_sum "Si O2"
_cell_formula_units_Z 48
_cell_length_a 29.831754
_cell_length_b 10.252957
_cell_length_c 7.966178
_cell_angle_alpha 90.000000
_cell_angle_beta 90.000000
_cell_angle_gamma 90.000000
_cell_volume 2436.564606
_symmetry_space_group_name_H-M "I 21 21 21"
_symmetry_group_IT_number 24
_symmetry_cell_setting 'orthorhombic'
loop_
_space_group_symop_operation_xyz
x,y,z
-x,1/2-y,z
x,-y,1/2-z
1/2-x,y,-z
1/2+x,1/2+y,1/2+z
1/2-x,-y,1/2+z
1/2+x,1/2-y,-z
-x,1/2+y,1/2-z
loop_
_atom_site_type_symbol
_atom_site_label
_atom_site_fract_x
_atom_site_fract_y
_atom_site_fract_z
Si Si1 0.611803 0.967664 0.550584
Si Si2 0.856953 0.500000 0.750000
Si Si3 0.699987 0.370868 0.500825
Si Si4 0.546059 0.000000 0.250000
Si Si5 0.000000 0.750000 0.625821
Si Si6 0.865192 0.500000 0.250000
Si Si7 0.296717 0.428014 0.575492
Si Si8 0.907511 0.322352 0.013625
O O1 0.618067 0.814681 0.516976
O O2 0.601496 0.000000 0.750000
O O3 0.573714 0.019844 0.423484
O O4 0.658034 0.030515 0.480011
O O5 0.823910 0.384736 0.680055
O O6 0.889646 0.422783 0.874664
O O7 0.750000 0.429978 0.500000
O O8 0.667786 0.464134 0.602304
O O9 0.702870 0.228083 0.582799
O O10 0.516186 0.130514 0.241865
O O11 0.039610 0.800547 0.506269
O O12 0.897994 0.616850 0.303813
O O13 0.301365 0.500000 0.750000
O O14 0.250000 0.479443 0.500000
#
# Coordination Sequence:
#
# PCOD8165016 Si02
#       8
#     8   4   8   4   4   4   8   8
#     4  10  22  41  61  93 124 167 207 253 315 378
#     4  10  22  38  64  88 118 168 202 250 312 374
#     4  10  21  36  58  89 125 161 206 249 294 367
#     4  10  23  42  70  85 134 163 204 270 325 374
#     4  10  22  44  60  98 116 158 216 256 316 390
#     4  10  19  38  62  87 122 165 196 252 311 362
#     4  10  22  36  56  88 125 161 209 251 298 369
#     4  10  22  41  64  87 125 155 208 258 314 377
#
# _framework density 19.699867999999999
#
# number of rings (size 3 to 8) (size 9 to 14) (size 15 to 20)
#    0.000    2.000    0.000    3.000    5.833    1.333 
#    9.000    5.000    0.000    0.000    0.000    0.000 
#    0.000    0.000    0.000    0.000    0.000    0.000 
#
# Total GULP energy -297317.696799 kJ/mol
# GULP energy per Si atom -12388.237367 kJ/mol
# Density = 1.965503 g / cm^3
# Si number density = 19.699868 Si / 1000 Ang^3
#
#
#
# Elastic Constant Matrix: (Units=GPa)
#
#
# Indices 1 2 3 4 5 6 
#
# 1 147.7090 53.7304 41.8323 0.0000 0.0000 0.0000
# 2 53.7304 104.3254 26.0338 0.0000 0.0000 0.0000
# 3 41.8323 26.0338 65.3595 0.0000 0.0000 0.0000
# 4 0.0000 0.0000 0.0000 33.7571 0.0000 0.0000
# 5 0.0000 0.0000 0.0000 0.0000 24.5533 0.0000
# 6 0.0000 0.0000 0.0000 0.0000 0.0000 24.8815
#
#
#
# Elastic Compliance Matrix: (Units=1/GPa)
#
#
# Indices 1 2 3 4 5 6 
#
# 1 0.009406 -0.003711 -0.004542 0.000000 0.000000 0.000000
# 2 -0.003711 0.012107 -0.002447 0.000000 0.000000 0.000000
# 3 -0.004542 -0.002447 0.019182 0.000000 0.000000 0.000000
# 4 0.000000 0.000000 0.000000 0.029623 0.000000 0.000000
# 5 0.000000 0.000000 0.000000 0.000000 0.040728 0.000000
# 6 0.000000 0.000000 0.000000 0.000000 0.000000 0.040190
#
#
# Mechanical properties :
#
#
# Convention : Reuss Voigt Hill
#
# Bulk Modulus (GPa) = 51.82833 62.28744 57.05788
# Shear Modulus (GPa) = 27.92201 29.69156 28.80678
#
# Velocity S-wave (km/s) = 3.76888 3.88647 3.82813
# Velocity P-wave (km/s) = 6.73093 7.19906 6.96892
#
# Compressibility (1/GPa) = 0.01929447
#
# Stress axis : x y z
#
# Youngs Moduli (GPa) = 106.31074 82.59403 52.13220
#
# Poissons Ratio (x) = 0.30651 0.23680
# Poissons Ratio (y) = 0.39453 0.12759
# Poissons Ratio (z) = 0.48289 0.20214
#
# Static dielectric constant tensor:
#      x y z
#    x 4.141260 0.000000 0.000000 
#    y 0.000000 3.539010 0.000000 
#    z 0.000000 0.000000 4.740990 
# 
# 
# High freq. dielectric constant tensor:
#      x y z
#    x 1.782500 0.000000 0.000000 
#    y 0.000000 1.774360 0.000000 
#    z 0.000000 0.000000 1.757830 
# 
# From -- ./inp_files/16909.got.cif
#   From: 2010.03.12/outbox.cif.g09.slc.cpg/sg24_9_cif.got.tgz:16909.got - 2010.04.14 03:06:53.
