data_PCOD8165211
_publ_section_title
;
Structure prediction by ZEFSAII (Michael W. Deem and Ramdas Pophale) SiO2 
 PCOD8165211
Probable space group: I 21 21 21
;
_chemical_formula_sum "Si O2"
_cell_formula_units_Z 64
_cell_length_a 8.971069
_cell_length_b 23.367768
_cell_length_c 15.332654
_cell_angle_alpha 90.000000
_cell_angle_beta 90.000000
_cell_angle_gamma 90.000000
_cell_volume 3214.243428
_symmetry_space_group_name_H-M "I 21 21 21"
_symmetry_group_IT_number 24
_symmetry_cell_setting 'orthorhombic'
loop_
_space_group_symop_operation_xyz
x,y,z
-x,1/2-y,z
x,-y,1/2-z
1/2-x,y,-z
1/2+x,1/2+y,1/2+z
1/2-x,-y,1/2+z
1/2+x,1/2-y,-z
-x,1/2+y,1/2-z
loop_
_atom_site_type_symbol
_atom_site_label
_atom_site_fract_x
_atom_site_fract_y
_atom_site_fract_z
Si Si1 0.326530 0.498233 0.851290
Si Si2 0.673470 0.498233 0.851290
Si Si3 0.328480 0.183978 0.249476
Si Si4 0.175902 0.109554 0.587160
Si Si5 0.675902 0.890446 0.087160
Si Si6 0.828480 0.816022 0.749475
Si Si7 0.175166 0.871963 0.410181
Si Si8 0.824834 0.871963 0.410181
O O1 0.285775 0.500000 0.750000
O O2 0.500000 0.511929 0.866838
O O3 0.227963 0.544336 0.901528
O O4 0.279739 0.436874 0.888483
O O5 0.714225 0.500000 0.750000
O O6 0.772037 0.544336 0.901528
O O7 0.720261 0.436874 0.888483
O O8 0.269360 0.147197 0.331156
O O9 0.307877 0.250000 0.273997
O O10 0.500000 0.168993 0.229155
O O11 0.231364 0.169759 0.165301
O O12 0.250000 0.135323 0.500000
O O13 1.000000 0.111774 0.576425
O O14 0.730640 0.852803 0.168844
O O15 0.750000 0.864677 0.000000
O O16 0.731364 0.830241 0.665301
O O17 0.250000 0.852585 0.500000
O O18 0.000000 0.864544 0.418790
O O19 0.750000 0.852585 0.500000
#
# Coordination Sequence:
#
# PCOD8165211 Si02
#       8
#     8   8   8   8   8   8   8   8
#     4  10  20  37  61  90 123 155 191 239 294 353
#     4  10  20  37  61  90 123 155 191 239 294 353
#     4  10  23  43  63  85 116 155 201 249 294 345
#     4  11  23  38  61  90 121 157 197 241 294 352
#     4  11  23  38  61  90 121 157 197 241 294 352
#     4  10  23  43  63  85 116 155 201 249 294 345
#     4  11  23  39  62  90 121 156 195 240 294 352
#     4  11  23  39  62  90 121 156 195 240 294 352
#
# _framework density 19.911373000000001
#
# number of rings (size 3 to 8) (size 9 to 14) (size 15 to 20)
#    0.000    1.500    2.500    2.250    0.000    7.000 
#    0.000    0.000    0.000    0.000    0.000    0.000 
#    0.000    0.000    0.000    0.000    0.000    0.000 
#
# Total GULP energy -397031.506792 kJ/mol
# GULP energy per Si atom -12407.234587 kJ/mol
# Density = 1.986605 g / cm^3
# Si number density = 19.911373 Si / 1000 Ang^3
#
#
#
# Elastic Constant Matrix: (Units=GPa)
#
#
# Indices 1 2 3 4 5 6 
#
# 1 65.6299 25.1111 41.6660 -0.0001 0.0000 0.0000
# 2 25.1111 72.2116 25.1520 -0.0001 0.0000 0.0000
# 3 41.6660 25.1520 135.2132 -0.0005 0.0001 0.0001
# 4 -0.0001 -0.0001 -0.0005 12.5063 0.0001 0.0000
# 5 0.0000 0.0000 0.0001 0.0001 36.2447 0.0000
# 6 0.0000 0.0000 0.0001 0.0000 0.0000 20.8754
#
#
#
# Elastic Compliance Matrix: (Units=1/GPa)
#
#
# Indices 1 2 3 4 5 6 
#
# 1 0.020692 -0.005319 -0.005387 0.000000 0.000000 0.000000
# 2 -0.005319 0.016175 -0.001370 0.000000 0.000000 0.000000
# 3 -0.005387 -0.001370 0.009310 0.000000 0.000000 0.000000
# 4 0.000000 0.000000 0.000000 0.079960 0.000000 0.000000
# 5 0.000000 0.000000 0.000000 0.000000 0.027590 0.000000
# 6 0.000000 0.000000 0.000000 0.000000 0.000000 0.047903
#
#
# Mechanical properties :
#
#
# Convention : Reuss Voigt Hill
#
# Bulk Modulus (GPa) = 45.40081 50.76809 48.08445
# Shear Modulus (GPa) = 21.44778 26.00032 23.72405
#
# Velocity S-wave (km/s) = 3.28558 3.61751 3.45553
# Velocity P-wave (km/s) = 6.10281 6.55751 6.33424
#
# Compressibility (1/GPa) = 0.02202604
#
# Stress axis : x y z
#
# Youngs Moduli (GPa) = 48.32767 61.82380 107.40604
#
# Poissons Ratio (x) = 0.32886 0.57858
# Poissons Ratio (y) = 0.25707 0.14711
# Poissons Ratio (z) = 0.26033 0.08468
#
# Static dielectric constant tensor:
#      x y z
#    x 3.553720 0.000000 0.000000 
#    y 0.000000 3.541730 0.000000 
#    z 0.000000 0.000000 3.789140 
# 
# 
# High freq. dielectric constant tensor:
#      x y z
#    x 1.776010 0.000000 0.000000 
#    y 0.000000 1.770540 0.000000 
#    z 0.000000 0.000000 1.793300 
# 
# From -- ./inp_files/25208.got.cif
#   From: 2010.03.12/outbox.cif.g09.slc.cpg/sg24_13_cif.got.tgz:25208.got - 2010.04.14 03:06:53.
