data_PCOD8165835
_publ_section_title
;
Structure prediction by ZEFSAII (Michael W. Deem and Ramdas Pophale) SiO2 
 PCOD8165835
Probable space group: I 21 21 21
;
_chemical_formula_sum "Si O2"
_cell_formula_units_Z 56
_cell_length_a 19.362400
_cell_length_b 15.616894
_cell_length_c 8.836123
_cell_angle_alpha 90.000000
_cell_angle_beta 90.000000
_cell_angle_gamma 90.000000
_cell_volume 2671.871718
_symmetry_space_group_name_H-M "I 21 21 21"
_symmetry_group_IT_number 24
_symmetry_cell_setting 'orthorhombic'
loop_
_space_group_symop_operation_xyz
x,y,z
-x,1/2-y,z
x,-y,1/2-z
1/2-x,y,-z
1/2+x,1/2+y,1/2+z
1/2-x,-y,1/2+z
1/2+x,1/2-y,-z
-x,1/2+y,1/2-z
loop_
_atom_site_type_symbol
_atom_site_label
_atom_site_fract_x
_atom_site_fract_y
_atom_site_fract_z
Si Si1 0.996612 0.132544 0.557756
Si Si2 0.802560 0.598499 0.735273
Si Si3 0.390562 0.698989 0.568645
Si Si4 0.605100 0.257643 0.597824
Si Si5 0.250000 0.802654 0.000000
Si Si6 0.052757 0.841055 0.618851
Si Si7 0.973134 0.959710 0.414580
Si Si8 0.250000 0.780527 0.500000
O O1 0.066456 0.155481 0.461321
O O2 0.003711 0.153509 0.735187
O O3 0.930013 0.183612 0.500586
O O4 0.975942 0.033806 0.539449
O O5 0.780939 0.500000 0.750000
O O6 0.798938 0.637229 0.900822
O O7 0.876819 0.610994 0.662230
O O8 0.747854 0.654735 0.641500
O O9 0.410771 0.744384 0.725915
O O10 0.437109 0.741639 0.433986
O O11 0.401965 0.596010 0.581694
O O12 0.313184 0.715923 0.515536
O O13 0.688965 0.248812 0.581414
O O14 0.029613 0.890737 0.467261
O O15 0.987672 0.000000 0.250000
#
# Coordination Sequence:
#
# PCOD8165835 Si02
#       8
#     8   8   8   8   4   8   8   4
#     4  11  24  43  68 101 134 177 223 293 329 409
#     4  11  22  41  61  97 133 176 224 282 335 413
#     4  11  24  44  67  96 135 185 225 277 343 418
#     4  11  24  43  68  98 139 175 228 269 357 406
#     4  12  23  40  69  92 132 184 216 278 335 415
#     4  11  25  42  68 100 136 175 225 281 347 410
#     4  12  24  42  68  97 134 177 225 284 338 398
#     4  10  23  42  65  92 136 184 232 276 349 407
#
# _framework density 20.95909
#
# number of rings (size 3 to 8) (size 9 to 14) (size 15 to 20)
#    0.000    0.857    4.286    3.000    6.000    0.000 
#    0.000    0.714    0.000    0.000    0.000    0.000 
#    0.000    0.000    0.000    0.000    0.000    0.000 
#
# Total GULP energy -346959.207435 kJ/mol
# GULP energy per Si atom -12391.400266 kJ/mol
# Density = 2.091139 g / cm^3
# Si number density = 20.959090 Si / 1000 Ang^3
#
#
#
# Elastic Constant Matrix: (Units=GPa)
#
#
# Indices 1 2 3 4 5 6 
#
# 1 112.9417 44.0150 35.8512 0.0000 0.0000 0.0000
# 2 44.0150 133.6633 50.3013 0.0000 0.0000 0.0000
# 3 35.8512 50.3013 129.5769 0.0000 0.0000 0.0000
# 4 0.0000 0.0000 0.0000 8.0269 0.0000 0.0000
# 5 0.0000 0.0000 0.0000 0.0000 29.0169 0.0000
# 6 0.0000 0.0000 0.0000 0.0000 0.0000 22.1596
#
#
#
# Elastic Compliance Matrix: (Units=1/GPa)
#
#
# Indices 1 2 3 4 5 6 
#
# 1 0.010517 -0.002773 -0.001833 0.000000 0.000000 0.000000
# 2 -0.002773 0.009493 -0.002918 0.000000 0.000000 0.000000
# 3 -0.001833 -0.002918 0.009357 0.000000 0.000000 0.000000
# 4 0.000000 0.000000 0.000000 0.124582 0.000000 0.000000
# 5 0.000000 0.000000 0.000000 0.000000 0.034463 0.000000
# 6 0.000000 0.000000 0.000000 0.000000 0.000000 0.045127
#
#
# Mechanical properties :
#
#
# Convention : Reuss Voigt Hill
#
# Bulk Modulus (GPa) = 69.84017 70.72411 70.28214
# Shear Modulus (GPa) = 19.73478 28.24162 23.98820
#
# Velocity S-wave (km/s) = 3.07186 3.67476 3.38675
# Velocity P-wave (km/s) = 6.78058 7.19877 6.99280
#
# Compressibility (1/GPa) = 0.01431841
#
# Stress axis : x y z
#
# Youngs Moduli (GPa) = 95.08571 105.34355 106.86849
#
# Poissons Ratio (x) = 0.29215 0.19591
# Poissons Ratio (y) = 0.26370 0.31181
# Poissons Ratio (z) = 0.17431 0.30737
#
# Static dielectric constant tensor:
#      x y z
#    x 5.544550 0.000000 0.000000 
#    y 0.000000 3.868340 0.000000 
#    z 0.000000 0.000000 4.017740 
# 
# 
# High freq. dielectric constant tensor:
#      x y z
#    x 1.815350 0.000000 0.000000 
#    y 0.000000 1.811870 0.000000 
#    z 0.000000 0.000000 1.841570 
# 
# From -- ./inp_files/15299.got.cif
#   From: 2010.03.12/outbox.cif.g09.slc.cpg/sg24_8_cif.got.tgz:15299.got - 2010.04.14 03:06:53.
