data_PCOD8165031
_publ_section_title
;
Structure prediction by ZEFSAII (Michael W. Deem and Ramdas Pophale) SiO2 
 PCOD8165031
Probable space group: I 21 21 21
;
_chemical_formula_sum "Si O2"
_cell_formula_units_Z 48
_cell_length_a 9.195581
_cell_length_b 13.941158
_cell_length_c 15.536402
_cell_angle_alpha 90.000000
_cell_angle_beta 90.000000
_cell_angle_gamma 90.000000
_cell_volume 1991.720867
_symmetry_space_group_name_H-M "I 21 21 21"
_symmetry_group_IT_number 24
_symmetry_cell_setting 'orthorhombic'
loop_
_space_group_symop_operation_xyz
x,y,z
-x,1/2-y,z
x,-y,1/2-z
1/2-x,y,-z
1/2+x,1/2+y,1/2+z
1/2-x,-y,1/2+z
1/2+x,1/2-y,-z
-x,1/2+y,1/2-z
loop_
_atom_site_type_symbol
_atom_site_label
_atom_site_fract_x
_atom_site_fract_y
_atom_site_fract_z
Si Si1 0.800595 0.276899 0.856297
Si Si2 0.952105 0.583978 0.921020
Si Si3 0.997909 0.888542 0.363358
Si Si4 0.000000 0.750000 0.799444
Si Si5 0.621565 0.590438 0.885692
Si Si6 0.500000 0.250000 0.728250
Si Si7 0.559217 0.117027 0.056866
O O1 0.645487 0.325788 0.859730
O O2 0.805601 0.168464 0.895596
O O3 0.860995 0.275665 0.758807
O O4 0.905703 0.336074 0.919350
O O5 0.789907 0.560736 0.887726
O O6 0.033484 0.661883 0.863043
O O7 0.055760 0.492266 0.911744
O O8 0.941661 0.615542 0.020502
O O9 0.909317 0.830142 0.287481
O O10 0.919866 0.877481 0.454330
O O11 0.033819 0.000076 0.344258
O O12 0.608092 0.686893 0.829642
#
# Coordination Sequence:
#
# PCOD8165031 Si02
#       7
#     8   8   8   4   8   4   8
#     4  10  20  34  57  94 122 155 200 256 315 360
#     4  10  19  39  62  88 117 159 214 255 298 372
#     4  11  21  39  61  89 124 164 202 257 314 376
#     4  10  21  31  54  88 122 160 200 255 307 360
#     4  10  22  38  64  89 115 164 210 256 304 368
#     4  12  23  35  58  94 126 158 200 255 313 376
#     4   9  19  35  62  91 116 156 210 260 299 364
#
# _framework density 24.099762999999999
#
# number of rings (size 3 to 8) (size 9 to 14) (size 15 to 20)
#    0.000    2.000    1.667    3.500    0.000    2.667 
#    0.000    0.000   14.667    0.000    8.667    0.000 
#    0.000    0.000    0.000    0.000    0.000    0.000 
#
# Total GULP energy -297406.998317 kJ/mol
# GULP energy per Si atom -12391.958263 kJ/mol
# Density = 2.404491 g / cm^3
# Si number density = 24.099763 Si / 1000 Ang^3
#
#
#
# Elastic Constant Matrix: (Units=GPa)
#
#
# Indices 1 2 3 4 5 6 
#
# 1 34.2000 26.4798 11.0185 0.0000 0.0000 0.0000
# 2 26.4798 160.1956 71.1366 0.0000 0.0000 0.0000
# 3 11.0185 71.1366 116.2826 0.0000 0.0000 0.0000
# 4 0.0000 0.0000 0.0000 47.0507 0.0000 0.0000
# 5 0.0000 0.0000 0.0000 0.0000 18.2800 0.0000
# 6 0.0000 0.0000 0.0000 0.0000 0.0000 27.6125
#
#
#
# Elastic Compliance Matrix: (Units=1/GPa)
#
#
# Indices 1 2 3 4 5 6 
#
# 1 0.033538 -0.005674 0.000293 0.000000 0.000000 0.000000
# 2 -0.005674 0.009531 -0.005293 0.000000 0.000000 0.000000
# 3 0.000293 -0.005293 0.011810 0.000000 0.000000 0.000000
# 4 0.000000 0.000000 0.000000 0.021254 0.000000 0.000000
# 5 0.000000 0.000000 0.000000 0.000000 0.054704 0.000000
# 6 0.000000 0.000000 0.000000 0.000000 0.000000 0.036216
#
#
# Mechanical properties :
#
#
# Convention : Reuss Voigt Hill
#
# Bulk Modulus (GPa) = 29.82257 58.66090 44.24173
# Shear Modulus (GPa) = 25.05301 32.05820 28.55561
#
# Velocity S-wave (km/s) = 3.22771 3.65119 3.44596
# Velocity P-wave (km/s) = 5.12760 6.49374 5.85068
#
# Compressibility (1/GPa) = 0.03353165
#
# Stress axis : x y z
#
# Youngs Moduli (GPa) = 29.81653 104.92569 84.67526
#
# Poissons Ratio (x) = 0.59534 -0.02482
# Poissons Ratio (y) = 0.16918 0.44816
# Poissons Ratio (z) = -0.00874 0.55534
#
# Static dielectric constant tensor:
#      x y z
#    x 4.202120 0.000000 0.000000 
#    y 0.000000 4.600300 0.000000 
#    z 0.000000 0.000000 4.764210 
# 
# 
# High freq. dielectric constant tensor:
#      x y z
#    x 1.935260 0.000000 0.000000 
#    y 0.000000 1.964950 0.000000 
#    z 0.000000 0.000000 1.972570 
# 
# From -- ./inp_files/25780.got.cif
#   From: 2010.03.12/outbox.cif.g09.slc.cpg/sg24_13_cif.got.tgz:25780.got - 2010.04.14 03:06:53.
