data_PCOD8165131
_publ_section_title
;
Structure prediction by ZEFSAII (Michael W. Deem and Ramdas Pophale) SiO2 
 PCOD8165131
Probable space group: I 21 21 21
;
_chemical_formula_sum "Si O2"
_cell_formula_units_Z 64
_cell_length_a 11.539021
_cell_length_b 17.741321
_cell_length_c 16.412835
_cell_angle_alpha 90.000000
_cell_angle_beta 90.000000
_cell_angle_gamma 90.000000
_cell_volume 3359.994148
_symmetry_space_group_name_H-M "I 21 21 21"
_symmetry_group_IT_number 24
_symmetry_cell_setting 'orthorhombic'
loop_
_space_group_symop_operation_xyz
x,y,z
-x,1/2-y,z
x,-y,1/2-z
1/2-x,y,-z
1/2+x,1/2+y,1/2+z
1/2-x,-y,1/2+z
1/2+x,1/2-y,-z
-x,1/2+y,1/2-z
loop_
_atom_site_type_symbol
_atom_site_label
_atom_site_fract_x
_atom_site_fract_y
_atom_site_fract_z
Si Si1 0.043154 0.530697 0.946604
Si Si2 0.420989 0.581018 0.876237
Si Si3 0.766181 0.032460 0.831436
Si Si4 0.320048 0.063871 0.074773
Si Si5 0.520281 0.829265 0.156617
Si Si6 0.815479 0.332979 0.771233
Si Si7 0.263163 0.326628 0.735058
Si Si8 0.328263 0.049919 0.674982
O O1 0.150101 0.484981 0.906767
O O2 0.943340 0.467684 0.957824
O O3 0.984905 0.596786 0.893149
O O4 0.093644 0.573182 0.026166
O O5 0.358686 0.507354 0.839975
O O6 0.367447 0.654297 0.829148
O O7 0.557906 0.584687 0.864277
O O8 0.739325 0.120567 0.815858
O O9 0.828612 0.000000 0.750000
O O10 0.332076 0.130407 0.140395
O O11 0.242842 0.996118 0.108592
O O12 0.250000 0.100318 0.000000
O O13 0.500000 0.750000 0.107082
O O14 0.444668 0.819195 0.238692
O O15 0.652879 0.841178 0.178867
O O16 0.736710 0.257408 0.772207
O O17 0.755113 0.385541 0.705926
O O18 0.370552 0.000000 0.750000
#
# Coordination Sequence:
#
# PCOD8165131 Si02
#       8
#     8   8   8   8   8   8   8   8
#     4  12  21  36  61  89 118 153 197 254 303 344
#     4  11  22  36  57  87 121 152 199 248 298 353
#     4  10  20  35  61  84 112 153 201 245 287 353
#     4  11  22  38  59  91 119 151 201 261 298 350
#     4  10  20  36  58  90 116 147 194 243 293 353
#     4  10  22  38  64  85 116 162 203 240 301 365
#     4  10  21  39  59  85 117 154 201 244 294 365
#     4  10  20  36  58  82 111 156 204 241 286 358
#
# _framework density 19.047650999999998
#
# number of rings (size 3 to 8) (size 9 to 14) (size 15 to 20)
#    0.000    1.500    5.000    2.250    0.000    0.500 
#    2.250    1.250    0.000    0.000    0.000    0.000 
#    0.000    0.000    0.000    0.000    0.000    0.000 
#
# Total GULP energy -396537.206722 kJ/mol
# GULP energy per Si atom -12391.787710 kJ/mol
# Density = 1.900430 g / cm^3
# Si number density = 19.047651 Si / 1000 Ang^3
#
#
#
# Elastic Constant Matrix: (Units=GPa)
#
#
# Indices 1 2 3 4 5 6 
#
# 1 74.3921 8.9546 20.6090 0.0000 0.0000 0.0000
# 2 8.9546 95.8208 34.7618 0.0000 0.0000 0.0000
# 3 20.6090 34.7618 86.7349 0.0000 0.0001 0.0000
# 4 0.0000 0.0000 0.0000 21.1663 0.0000 0.0000
# 5 0.0000 0.0000 0.0001 0.0000 44.5397 0.0000
# 6 0.0000 0.0000 0.0000 0.0000 0.0000 29.3063
#
#
#
# Elastic Compliance Matrix: (Units=1/GPa)
#
#
# Indices 1 2 3 4 5 6 
#
# 1 0.014391 -0.000122 -0.003370 0.000000 0.000000 0.000000
# 2 -0.000122 0.012213 -0.004866 0.000000 0.000000 0.000000
# 3 -0.003370 -0.004866 0.014280 0.000000 0.000000 0.000000
# 4 0.000000 0.000000 0.000000 0.047245 0.000000 0.000000
# 5 0.000000 0.000000 0.000000 0.000000 0.022452 0.000000
# 6 0.000000 0.000000 0.000000 0.000000 0.000000 0.034122
#
#
# Mechanical properties :
#
#
# Convention : Reuss Voigt Hill
#
# Bulk Modulus (GPa) = 41.37809 42.84428 42.11118
# Shear Modulus (GPa) = 29.50289 31.84395 30.67342
#
# Velocity S-wave (km/s) = 3.93988 4.09321 4.01727
# Velocity P-wave (km/s) = 6.51670 6.69934 6.60865
#
# Compressibility (1/GPa) = 0.02416738
#
# Stress axis : x y z
#
# Youngs Moduli (GPa) = 69.48937 81.88190 70.02663
#
# Poissons Ratio (x) = 0.01000 0.23602
# Poissons Ratio (y) = 0.00849 0.34072
# Poissons Ratio (z) = 0.23421 0.39841
#
# Static dielectric constant tensor:
#      x y z
#    x 3.426690 0.000000 0.000000 
#    y 0.000000 3.574630 0.000000 
#    z 0.000000 0.000000 3.452090 
# 
# 
# High freq. dielectric constant tensor:
#      x y z
#    x 1.746770 0.000000 0.000000 
#    y 0.000000 1.731880 0.000000 
#    z 0.000000 0.000000 1.729350 
# 
# From -- ./inp_files/30432.got.cif
#   From: 2010.03.12/outbox.cif.g09.slc.cpg/sg24_16_cif.got.tgz:30432.got - 2010.04.14 03:06:53.
