data_PCOD8165905
_publ_section_title
;
Structure prediction by ZEFSAII (Michael W. Deem and Ramdas Pophale) SiO2 
 PCOD8165905
Probable space group: I 21 21 21
;
_chemical_formula_sum "Si O2"
_cell_formula_units_Z 56
_cell_length_a 8.389353
_cell_length_b 22.099867
_cell_length_c 13.427596
_cell_angle_alpha 90.000000
_cell_angle_beta 90.000000
_cell_angle_gamma 90.000000
_cell_volume 2489.524443
_symmetry_space_group_name_H-M "I 21 21 21"
_symmetry_group_IT_number 24
_symmetry_cell_setting 'orthorhombic'
loop_
_space_group_symop_operation_xyz
x,y,z
-x,1/2-y,z
x,-y,1/2-z
1/2-x,y,-z
1/2+x,1/2+y,1/2+z
1/2-x,-y,1/2+z
1/2+x,1/2-y,-z
-x,1/2+y,1/2-z
loop_
_atom_site_type_symbol
_atom_site_label
_atom_site_fract_x
_atom_site_fract_y
_atom_site_fract_z
Si Si1 0.008343 0.585301 0.626032
Si Si2 0.922406 0.629829 0.970032
Si Si3 0.398589 0.689771 0.702280
Si Si4 0.560375 0.185664 0.281520
Si Si5 0.016685 0.415291 0.328273
Si Si6 0.305285 0.014568 0.357196
Si Si7 0.221995 0.500000 0.750000
Si Si8 0.250000 0.348042 0.000000
O O1 0.976804 0.635682 0.710871
O O2 0.126660 0.533972 0.665098
O O3 0.095789 0.613655 0.531167
O O4 0.842975 0.551158 0.590524
O O5 0.900358 0.564679 0.918082
O O6 0.008289 0.675489 0.895398
O O7 0.750000 0.656834 0.000000
O O8 0.028176 0.622434 0.069169
O O9 0.500000 0.750000 0.716783
O O10 0.251625 0.685565 0.779162
O O11 0.507563 0.631626 0.734528
O O12 0.320063 0.690644 0.592040
O O13 0.500000 0.250000 0.242552
O O14 0.875438 0.464966 0.339017
O O15 0.177119 0.451538 0.312184
O O16 0.386155 0.000000 0.250000
#
# Coordination Sequence:
#
# PCOD8165905 Si02
#       8
#     8   8   8   8   8   8   4   4
#     4  11  23  43  68 104 138 187 238 295 362 435
#     4  10  24  42  65 109 146 184 242 293 359 447
#     4  11  27  50  76 105 144 192 251 311 367 442
#     4  11  24  46  73 100 140 198 238 300 365 430
#     4  11  25  43  68 105 147 190 231 298 369 436
#     4  11  21  40  68  96 150 184 230 288 356 428
#     4  12  20  42  68 100 138 182 228 284 358 438
#     4  10  24  46  70 108 140 188 254 298 372 438
#
# _framework density 22.494257000000001
#
# number of rings (size 3 to 8) (size 9 to 14) (size 15 to 20)
#    0.000    1.143    5.714    0.000    6.000    3.429 
#    2.571    0.000    0.000    0.000    0.000    0.000 
#    0.000    0.000    0.000    0.000    0.000    0.000 
#
# Total GULP energy -346941.612435 kJ/mol
# GULP energy per Si atom -12390.771873 kJ/mol
# Density = 2.244306 g / cm^3
# Si number density = 22.494257 Si / 1000 Ang^3
#
#
#
# Elastic Constant Matrix: (Units=GPa)
#
#
# Indices 1 2 3 4 5 6 
#
# 1 100.5624 54.4693 39.5658 0.0000 0.0000 0.0000
# 2 54.4693 132.5535 30.8365 0.0001 0.0000 0.0000
# 3 39.5658 30.8365 121.0211 0.0001 -0.0001 0.0001
# 4 0.0000 0.0001 0.0001 22.6838 -0.0001 0.0000
# 5 0.0000 0.0000 -0.0001 -0.0001 37.5822 0.0000
# 6 0.0000 0.0000 0.0001 0.0000 0.0000 39.4546
#
#
#
# Elastic Compliance Matrix: (Units=1/GPa)
#
#
# Indices 1 2 3 4 5 6 
#
# 1 0.013922 -0.004956 -0.003289 0.000000 0.000000 0.000000
# 2 -0.004956 0.009784 -0.000873 0.000000 0.000000 0.000000
# 3 -0.003289 -0.000873 0.009561 0.000000 0.000000 0.000000
# 4 0.000000 0.000000 0.000000 0.044084 0.000000 0.000000
# 5 0.000000 0.000000 0.000000 0.000000 0.026608 0.000000
# 6 0.000000 0.000000 0.000000 0.000000 0.000000 0.025346
#
#
# Mechanical properties :
#
#
# Convention : Reuss Voigt Hill
#
# Bulk Modulus (GPa) = 66.52597 67.09779 66.81188
# Shear Modulus (GPa) = 32.77602 35.22847 34.00225
#
# Velocity S-wave (km/s) = 3.82132 3.96170 3.89214
# Velocity P-wave (km/s) = 7.00777 7.12884 7.06856
#
# Compressibility (1/GPa) = 0.01503172
#
# Stress axis : x y z
#
# Youngs Moduli (GPa) = 71.82640 102.21142 104.59563
#
# Poissons Ratio (x) = 0.50655 0.34401
# Poissons Ratio (y) = 0.35597 0.09127
# Poissons Ratio (z) = 0.23623 0.08919
#
# Static dielectric constant tensor:
#      x y z
#    x 4.289540 0.000000 0.000000 
#    y 0.000000 4.249090 0.000000 
#    z 0.000000 0.000000 4.204950 
# 
# 
# High freq. dielectric constant tensor:
#      x y z
#    x 1.883830 0.000000 0.000000 
#    y 0.000000 1.883730 0.000000 
#    z 0.000000 0.000000 1.889010 
# 
# From -- ./inp_files/25093.got.cif
#   From: 2010.03.12/outbox.cif.g09.slc.cpg/sg24_13_cif.got.tgz:25093.got - 2010.04.14 03:06:53.
