data_PCOD8165446
_publ_section_title
;
Structure prediction by ZEFSAII (Michael W. Deem and Ramdas Pophale) SiO2 
 PCOD8165446
Probable space group: I 21 21 21
;
_chemical_formula_sum "Si O2"
_cell_formula_units_Z 56
_cell_length_a 15.733951
_cell_length_b 14.820908
_cell_length_c 11.989229
_cell_angle_alpha 90.000000
_cell_angle_beta 90.000000
_cell_angle_gamma 90.000000
_cell_volume 2795.785578
_symmetry_space_group_name_H-M "I 21 21 21"
_symmetry_group_IT_number 24
_symmetry_cell_setting 'orthorhombic'
loop_
_space_group_symop_operation_xyz
x,y,z
-x,1/2-y,z
x,-y,1/2-z
1/2-x,y,-z
1/2+x,1/2+y,1/2+z
1/2-x,-y,1/2+z
1/2+x,1/2-y,-z
-x,1/2+y,1/2-z
loop_
_atom_site_type_symbol
_atom_site_label
_atom_site_fract_x
_atom_site_fract_y
_atom_site_fract_z
Si Si1 0.806935 0.595391 0.902274
Si Si2 0.097151 0.941714 0.470909
Si Si3 0.684538 0.000000 0.750000
Si Si4 0.598662 0.750000 0.209577
Si Si5 0.193065 0.595391 0.902274
Si Si6 0.402850 0.558286 0.529091
Si Si7 0.315462 0.000000 0.750000
Si Si8 0.344974 0.250000 0.045092
O O1 0.880970 0.662491 0.864763
O O2 0.744713 0.577992 0.798679
O O3 0.750000 0.639908 0.000000
O O4 0.846754 0.501236 0.944687
O O5 0.125713 0.955995 0.344001
O O6 0.106051 0.837356 0.501096
O O7 0.000000 0.971816 0.483503
O O8 0.744713 0.922008 0.798679
O O9 0.625713 0.955995 0.655999
O O10 0.500000 0.750000 0.241436
O O11 0.619030 0.837509 0.135237
O O12 0.654893 0.750000 0.320887
O O13 0.250000 0.639908 0.000000
O O14 0.153245 0.501236 0.944686
O O15 0.393950 0.662644 0.498904
O O16 0.250000 0.250000 0.000000
#
# Coordination Sequence:
#
# PCOD8165446 Si02
#       8
#     8   8   4   8   8   8   4   8
#     4  10  21  38  59  83 115 155 193 233 284 346
#     4  11  22  39  60  88 118 149 191 243 287 334
#     4  10  21  38  61  82 112 154 190 230 291 348
#     4  12  23  37  58  87 116 151 193 240 286 332
#     4  10  21  38  59  83 115 155 193 233 284 346
#     4  11  22  39  60  88 118 149 191 243 287 334
#     4  10  21  38  61  82 112 154 190 230 291 348
#     4  12  24  39  60  85 116 153 193 236 287 348
#
# _framework density 20.030148000000001
#
# number of rings (size 3 to 8) (size 9 to 14) (size 15 to 20)
#    0.000    1.143    0.000    9.000    0.000    0.000 
#    0.000    5.714    0.000    0.000    0.000    0.000 
#    0.000    0.000    0.000    0.000    0.000    0.000 
#
# Total GULP energy -347333.019457 kJ/mol
# GULP energy per Si atom -12404.750695 kJ/mol
# Density = 1.998456 g / cm^3
# Si number density = 20.030148 Si / 1000 Ang^3
#
#
#
# Elastic Constant Matrix: (Units=GPa)
#
#
# Indices 1 2 3 4 5 6 
#
# 1 122.2681 24.9815 39.8746 0.0000 0.0000 0.0000
# 2 24.9815 115.7224 49.5034 0.0000 0.0000 0.0000
# 3 39.8746 49.5034 115.0892 0.0000 0.0000 0.0000
# 4 0.0000 0.0000 0.0000 19.3186 0.0000 0.0000
# 5 0.0000 0.0000 0.0000 0.0000 29.2334 0.0000
# 6 0.0000 0.0000 0.0000 0.0000 0.0000 31.3643
#
#
#
# Elastic Compliance Matrix: (Units=1/GPa)
#
#
# Indices 1 2 3 4 5 6 
#
# 1 0.009276 -0.000769 -0.002883 0.000000 0.000000 0.000000
# 2 -0.000769 0.010654 -0.004316 0.000000 0.000000 0.000000
# 3 -0.002883 -0.004316 0.011544 0.000000 0.000000 0.000000
# 4 0.000000 0.000000 0.000000 0.051764 0.000000 0.000000
# 5 0.000000 0.000000 0.000000 0.000000 0.034207 0.000000
# 6 0.000000 0.000000 0.000000 0.000000 0.000000 0.031883
#
#
# Mechanical properties :
#
#
# Convention : Reuss Voigt Hill
#
# Bulk Modulus (GPa) = 64.35974 64.64430 64.50202
# Shear Modulus (GPa) = 29.33513 31.89794 30.61653
#
# Velocity S-wave (km/s) = 3.83109 3.99494 3.91387
# Velocity P-wave (km/s) = 7.19520 7.32277 7.25926
#
# Compressibility (1/GPa) = 0.01553766
#
# Stress axis : x y z
#
# Youngs Moduli (GPa) = 107.80362 93.86406 86.62336
#
# Poissons Ratio (x) = 0.07220 0.24974
# Poissons Ratio (y) = 0.08292 0.37387
# Poissons Ratio (z) = 0.31080 0.40512
#
# Static dielectric constant tensor:
#      x y z
#    x 3.649620 0.000000 0.000000 
#    y 0.000000 3.515500 0.000000 
#    z 0.000000 0.000000 3.843810 
# 
# 
# High freq. dielectric constant tensor:
#      x y z
#    x 1.789900 0.000000 0.000000 
#    y 0.000000 1.778540 0.000000 
#    z 0.000000 0.000000 1.796240 
# 
# From -- ./inp_files/20906.got.cif
#   From: 2010.03.12/outbox.cif.g09.slc.cpg/sg24_11_cif.got.tgz:20906.got - 2010.04.14 03:06:53.
