data_PCOD8165625
_publ_section_title
;
Structure prediction by ZEFSAII (Michael W. Deem and Ramdas Pophale) SiO2 
 PCOD8165625
Probable space group: I 21 21 21
;
_chemical_formula_sum "Si O2"
_cell_formula_units_Z 52
_cell_length_a 5.430363
_cell_length_b 23.470788
_cell_length_c 18.594324
_cell_angle_alpha 90.000000
_cell_angle_beta 90.000000
_cell_angle_gamma 90.000000
_cell_volume 2369.937682
_symmetry_space_group_name_H-M "I 21 21 21"
_symmetry_group_IT_number 24
_symmetry_cell_setting 'orthorhombic'
loop_
_space_group_symop_operation_xyz
x,y,z
-x,1/2-y,z
x,-y,1/2-z
1/2-x,y,-z
1/2+x,1/2+y,1/2+z
1/2-x,-y,1/2+z
1/2+x,1/2-y,-z
-x,1/2+y,1/2-z
loop_
_atom_site_type_symbol
_atom_site_label
_atom_site_fract_x
_atom_site_fract_y
_atom_site_fract_z
Si Si1 0.000000 0.250000 0.680718
Si Si2 0.637863 0.694298 0.928595
Si Si3 0.250000 0.433364 0.000000
Si Si4 0.875165 0.492318 0.077845
Si Si5 0.442176 0.100934 0.674004
Si Si6 0.115027 0.879584 0.599684
Si Si7 0.074145 0.363648 0.747613
Si Si8 0.750000 0.286522 0.000000
O O1 0.825360 0.286398 0.631199
O O2 0.862837 0.202464 0.728897
O O3 0.500000 0.750000 0.957413
O O4 0.479141 0.645951 0.888822
O O5 0.750000 0.665430 0.000000
O O6 0.461787 0.392321 0.027613
O O7 0.157600 0.475441 0.063084
O O8 0.872392 0.542401 0.135379
O O9 0.763299 0.437083 0.117751
O O10 0.750000 0.507252 0.000000
O O11 0.690695 0.097690 0.722652
O O12 0.194010 0.117510 0.717109
O O13 0.270300 0.824524 0.573884
O O14 0.939421 0.865908 0.666628
O O15 0.500000 0.250000 0.003011
#
# Coordination Sequence:
#
# PCOD8165625 Si02
#       8
#     4   8   4   8   8   8   8   4
#     4  10  22  44  60  94 142 184 220 282 352 414
#     4  11  20  38  65  95 135 185 232 290 334 388
#     4  10  21  46  78  90 144 175 234 290 366 408
#     4  10  23  45  72 103 138 189 232 300 351 410
#     4  11  26  45  66 106 140 185 244 278 342 436
#     4  11  25  48  71 106 140 186 228 300 366 418
#     4  11  27  44  69 100 144 188 229 283 356 432
#     4  12  27  46  78 114 142 175 250 306 356 446
#
# _framework density 21.941504999999999
#
# number of rings (size 3 to 8) (size 9 to 14) (size 15 to 20)
#    0.000    1.231    4.615    0.923    7.538    0.615 
#    1.385    0.000    0.000    0.000    0.000    0.000 
#    0.000    0.000    0.000    0.000    0.000    0.000 
#
# Total GULP energy -322119.771018 kJ/mol
# GULP energy per Si atom -12389.221962 kJ/mol
# Density = 2.189157 g / cm^3
# Si number density = 21.941505 Si / 1000 Ang^3
#
#
#
# Elastic Constant Matrix: (Units=GPa)
#
#
# Indices 1 2 3 4 5 6 
#
# 1 109.1189 32.3572 27.1285 0.0000 0.0000 0.0000
# 2 32.3572 123.3207 49.3474 0.0000 0.0000 0.0000
# 3 27.1285 49.3474 97.9720 0.0000 0.0000 0.0000
# 4 0.0000 0.0000 0.0000 26.8000 0.0000 0.0000
# 5 0.0000 0.0000 0.0000 0.0000 38.4047 0.0000
# 6 0.0000 0.0000 0.0000 0.0000 0.0000 19.9810
#
#
#
# Elastic Compliance Matrix: (Units=1/GPa)
#
#
# Indices 1 2 3 4 5 6 
#
# 1 0.010198 -0.001936 -0.001849 0.000000 0.000000 0.000000
# 2 -0.001936 0.010523 -0.004764 0.000000 0.000000 0.000000
# 3 -0.001849 -0.004764 0.013119 0.000000 0.000000 0.000000
# 4 0.000000 0.000000 0.000000 0.037313 0.000000 0.000000
# 5 0.000000 0.000000 0.000000 0.000000 0.026038 0.000000
# 6 0.000000 0.000000 0.000000 0.000000 0.000000 0.050047
#
#
# Mechanical properties :
#
#
# Convention : Reuss Voigt Hill
#
# Bulk Modulus (GPa) = 59.73059 60.89752 60.31406
# Shear Modulus (GPa) = 29.42587 31.80905 30.61746
#
# Velocity S-wave (km/s) = 3.66608 3.81165 3.73958
# Velocity P-wave (km/s) = 6.72324 6.86923 6.79663
#
# Compressibility (1/GPa) = 0.01674184
#
# Stress axis : x y z
#
# Youngs Moduli (GPa) = 98.05830 95.02606 76.22709
#
# Poissons Ratio (x) = 0.18397 0.14092
# Poissons Ratio (y) = 0.18984 0.36318
# Poissons Ratio (z) = 0.18128 0.45275
#
# Static dielectric constant tensor:
#      x y z
#    x 3.931890 0.000000 0.000000 
#    y 0.000000 4.300020 0.000000 
#    z 0.000000 0.000000 3.894720 
# 
# 
# High freq. dielectric constant tensor:
#      x y z
#    x 1.857100 0.000000 0.000000 
#    y 0.000000 1.866960 0.000000 
#    z 0.000000 0.000000 1.862890 
# 
# From -- ./inp_files/32214.got.cif
#   From: 2010.03.12/outbox.cif.g09.slc.cpg/sg24_17_cif.got.tgz:32214.got - 2010.04.14 03:06:53.
