data_PCOD8165262
_publ_section_title
;
Structure prediction by ZEFSAII (Michael W. Deem and Ramdas Pophale) SiO2 
 PCOD8165262
Probable space group: I 21 21 21
;
_chemical_formula_sum "Si O2"
_cell_formula_units_Z 32
_cell_length_a 9.586266
_cell_length_b 8.493655
_cell_length_c 17.397559
_cell_angle_alpha 90.000000
_cell_angle_beta 90.000000
_cell_angle_gamma 90.000000
_cell_volume 1416.551637
_symmetry_space_group_name_H-M "I 21 21 21"
_symmetry_group_IT_number 24
_symmetry_cell_setting 'orthorhombic'
loop_
_space_group_symop_operation_xyz
x,y,z
-x,1/2-y,z
x,-y,1/2-z
1/2-x,y,-z
1/2+x,1/2+y,1/2+z
1/2-x,-y,1/2+z
1/2+x,1/2-y,-z
-x,1/2+y,1/2-z
loop_
_atom_site_type_symbol
_atom_site_label
_atom_site_fract_x
_atom_site_fract_y
_atom_site_fract_z
Si Si1 0.393288 0.610812 0.175947
Si Si2 0.860680 0.678748 0.164312
Si Si3 0.141293 0.830806 0.345779
Si Si4 0.633452 0.848345 0.435266
O O1 0.500000 0.750000 0.195984
O O2 0.372008 0.500000 0.250000
O O3 0.255124 0.693915 0.145542
O O4 0.434903 0.504194 0.102600
O O5 0.870998 0.660236 0.255148
O O6 0.839761 0.509523 0.123486
O O7 0.000000 0.750000 0.128535
O O8 0.282203 0.739988 0.367578
O O9 0.000000 0.750000 0.379454
O O10 0.500000 0.750000 0.466688
O O11 0.750000 0.881765 0.500000
#
# Coordination Sequence:
#
# PCOD8165262 Si02
#       4
#     8   8   8   8
#     4  12  25  43  70 104 138 174 231 292 345 400
#     4  10  21  35  65 102 137 172 217 282 330 393
#     4  10  20  38  64  97 135 176 223 268 333 400
#     4  12  26  46  68  97 135 187 226 277 344 417
#
# _framework density 22.590069
#
# number of rings (size 3 to 8) (size 9 to 14) (size 15 to 20)
#    0.000    1.000    2.500    4.500    7.000    0.000 
#    0.000    8.750    0.000    0.000    0.000    0.000 
#    0.000    0.000    0.000    0.000    0.000    0.000 
#
# Total GULP energy -198290.318012 kJ/mol
# GULP energy per Si atom -12393.144876 kJ/mol
# Density = 2.253865 g / cm^3
# Si number density = 22.590069 Si / 1000 Ang^3
#
#
#
# Elastic Constant Matrix: (Units=GPa)
#
#
# Indices 1 2 3 4 5 6 
#
# 1 119.1794 38.4587 11.0115 0.0000 0.0000 0.0000
# 2 38.4587 153.2026 35.5590 0.0000 0.0000 0.0000
# 3 11.0115 35.5590 46.3846 0.0000 0.0000 0.0000
# 4 0.0000 0.0000 0.0000 15.8433 0.0000 0.0000
# 5 0.0000 0.0000 0.0000 0.0000 25.4368 0.0000
# 6 0.0000 0.0000 0.0000 0.0000 0.0000 50.8807
#
#
#
# Elastic Compliance Matrix: (Units=1/GPa)
#
#
# Indices 1 2 3 4 5 6 
#
# 1 0.009140 -0.002178 -0.000500 0.000000 0.000000 0.000000
# 2 -0.002178 0.008459 -0.005968 0.000000 0.000000 0.000000
# 3 -0.000500 -0.005968 0.026253 0.000000 0.000000 0.000000
# 4 0.000000 0.000000 0.000000 0.063118 0.000000 0.000000
# 5 0.000000 0.000000 0.000000 0.000000 0.039313 0.000000
# 6 0.000000 0.000000 0.000000 0.000000 0.000000 0.019654
#
#
# Mechanical properties :
#
#
# Convention : Reuss Voigt Hill
#
# Bulk Modulus (GPa) = 37.65111 54.31387 45.98249
# Shear Modulus (GPa) = 26.03052 34.01465 30.02258
#
# Velocity S-wave (km/s) = 3.39824 3.88459 3.64952
# Velocity P-wave (km/s) = 5.66574 6.64947 6.17722
#
# Compressibility (1/GPa) = 0.02655964
#
# Stress axis : x y z
#
# Youngs Moduli (GPa) = 109.41103 118.21284 38.09151
#
# Poissons Ratio (x) = 0.25751 0.01904
# Poissons Ratio (y) = 0.23834 0.22733
# Poissons Ratio (z) = 0.05468 0.70548
#
# Static dielectric constant tensor:
#      x y z
#    x 4.066080 0.000000 0.000000 
#    y 0.000000 4.555670 0.000000 
#    z 0.000000 0.000000 3.628290 
# 
# 
# High freq. dielectric constant tensor:
#      x y z
#    x 1.898110 0.000000 0.000000 
#    y 0.000000 1.909700 0.000000 
#    z 0.000000 0.000000 1.854040 
# 
# From -- ./inp_files/8946.got.cif
#   From: 2010.03.12/outbox.cif.g09.slc.cpg/sg24_5_cif.got.tgz:8946.got - 2010.04.14 03:06:53.
