data_PCOD8165808
_publ_section_title
;
Structure prediction by ZEFSAII (Michael W. Deem and Ramdas Pophale) SiO2 
 PCOD8165808
Probable space group: I 21 21 21
;
_chemical_formula_sum "Si O2"
_cell_formula_units_Z 36
_cell_length_a 11.390429
_cell_length_b 22.245210
_cell_length_c 5.832715
_cell_angle_alpha 90.000000
_cell_angle_beta 90.000000
_cell_angle_gamma 90.000000
_cell_volume 1477.907822
_symmetry_space_group_name_H-M "I 21 21 21"
_symmetry_group_IT_number 24
_symmetry_cell_setting 'orthorhombic'
loop_
_space_group_symop_operation_xyz
x,y,z
-x,1/2-y,z
x,-y,1/2-z
1/2-x,y,-z
1/2+x,1/2+y,1/2+z
1/2-x,-y,1/2+z
1/2+x,1/2-y,-z
-x,1/2+y,1/2-z
loop_
_atom_site_type_symbol
_atom_site_label
_atom_site_fract_x
_atom_site_fract_y
_atom_site_fract_z
Si Si1 0.134055 0.283676 0.132020
Si Si2 0.536748 0.123669 0.220880
Si Si3 0.873807 0.552297 0.407041
Si Si4 0.250000 0.636643 0.000000
Si Si5 0.869383 0.331665 0.387396
O O1 0.161770 0.323907 0.351107
O O2 0.076127 0.220604 0.223522
O O3 0.250000 0.262620 0.000000
O O4 0.054666 0.323135 0.961704
O O5 0.661885 0.099800 0.329077
O O6 0.460512 0.152845 0.418069
O O7 0.468878 0.067606 0.104754
O O8 0.930927 0.500000 0.250000
O O9 0.750000 0.526876 0.500000
O O10 0.840082 0.610375 0.261545
O O11 0.750000 0.306649 0.500000
#
# Coordination Sequence:
#
# PCOD8165808 Si02
#       5
#     8   8   8   4   8
#     4  10  23  44  69 109 151 197 242 293 362 447
#     4  11  26  45  73 110 151 198 248 300 372 452
#     4  12  27  47  74 110 147 191 252 315 381 443
#     4  10  22  46  70 108 146 196 238 296 370 450
#     4  12  24  45  70 111 156 195 237 304 378 441
#
# _framework density 24.35876
#
# number of rings (size 3 to 8) (size 9 to 14) (size 15 to 20)
#    0.000    0.889    3.333    2.667    0.000    5.333 
#    4.000    0.000    0.000    0.000  130.000    0.000 
#    0.000    0.000    0.000    0.000    0.000    0.000 
#
# Total GULP energy -223189.432572 kJ/mol
# GULP energy per Si atom -12399.412921 kJ/mol
# Density = 2.430332 g / cm^3
# Si number density = 24.358760 Si / 1000 Ang^3
#
#
#
# Elastic Constant Matrix: (Units=GPa)
#
#
# Indices 1 2 3 4 5 6 
#
# 1 138.4104 44.8664 62.7635 0.0155 0.0000 0.0104
# 2 44.8664 88.8723 31.7046 0.0028 -0.0064 -0.0026
# 3 62.7635 31.7046 121.8961 -0.0128 -0.0039 -0.0119
# 4 0.0155 0.0028 -0.0128 44.1296 -0.0097 -0.0071
# 5 0.0000 -0.0064 -0.0039 -0.0097 58.9559 -0.0136
# 6 0.0104 -0.0026 -0.0119 -0.0071 -0.0136 39.5638
#
#
#
# Elastic Compliance Matrix: (Units=1/GPa)
#
#
# Indices 1 2 3 4 5 6 
#
# 1 0.010418 -0.003688 -0.004405 -0.000005 -0.000001 -0.000004
# 2 -0.003688 0.013708 -0.001667 0.000000 0.000001 0.000001
# 3 -0.004405 -0.001667 0.010905 0.000005 0.000001 0.000004
# 4 -0.000005 0.000000 0.000005 0.022661 0.000004 0.000004
# 5 -0.000001 0.000001 0.000001 0.000004 0.016962 0.000006
# 6 -0.000004 0.000001 0.000004 0.000004 0.000006 0.025276
#
#
# Mechanical properties :
#
#
# Convention : Reuss Voigt Hill
#
# Bulk Modulus (GPa) = 64.46330 69.76085 67.11207
# Shear Modulus (GPa) = 40.12227 42.51949 41.32088
#
# Velocity S-wave (km/s) = 4.06290 4.18251 4.12314
# Velocity P-wave (km/s) = 6.96643 7.21288 7.09072
#
# Compressibility (1/GPa) = 0.01551270
#
# Stress axis : x y z
#
# Youngs Moduli (GPa) = 95.98994 72.94757 91.69936
#
# Poissons Ratio (x) = 0.26903 0.40392
# Poissons Ratio (y) = 0.35400 0.15283
# Poissons Ratio (z) = 0.42282 0.12158
#
# Static dielectric constant tensor:
#      x y z
#    x 4.854690 -0.000030 -0.000250 
#    y -0.000030 3.922660 0.000020 
#    z -0.000250 0.000020 4.151460 
# 
# 
# High freq. dielectric constant tensor:
#      x y z
#    x 1.996290 0.000000 0.000000 
#    y 0.000000 1.928290 0.000000 
#    z 0.000000 0.000000 1.998170 
# 
# From -- ./inp_files/2266.got.cif
#   From: 2010.03.12/outbox.cif.g09.slc.cpg/sg24_2_cif.got.tgz:2266.got - 2010.04.14 03:06:53.
