data_PCOD8165726
_publ_section_title
;
Structure prediction by ZEFSAII (Michael W. Deem and Ramdas Pophale) SiO2 
 PCOD8165726
Probable space group: I 21 21 21
;
_chemical_formula_sum "Si O2"
_cell_formula_units_Z 56
_cell_length_a 14.951147
_cell_length_b 9.192923
_cell_length_c 20.587736
_cell_angle_alpha 90.000000
_cell_angle_beta 90.000000
_cell_angle_gamma 90.000000
_cell_volume 2829.676086
_symmetry_space_group_name_H-M "I 21 21 21"
_symmetry_group_IT_number 24
_symmetry_cell_setting 'orthorhombic'
loop_
_space_group_symop_operation_xyz
x,y,z
-x,1/2-y,z
x,-y,1/2-z
1/2-x,y,-z
1/2+x,1/2+y,1/2+z
1/2-x,-y,1/2+z
1/2+x,1/2-y,-z
-x,1/2+y,1/2-z
loop_
_atom_site_type_symbol
_atom_site_label
_atom_site_fract_x
_atom_site_fract_y
_atom_site_fract_z
Si Si1 0.829527 0.198626 0.906980
Si Si2 0.464179 0.009273 0.589356
Si Si3 0.500000 0.250000 0.007639
Si Si4 0.697897 0.393301 0.838756
Si Si5 0.910555 0.838992 0.731540
Si Si6 0.250000 0.466972 0.500000
Si Si7 0.628943 0.804309 0.907594
Si Si8 0.751914 0.298567 0.295424
O O1 0.750208 0.317793 0.898750
O O2 0.860485 0.152561 0.836342
O O3 0.787323 0.060485 0.941085
O O4 0.911604 0.259279 0.948739
O O5 0.552017 0.086269 0.618639
O O6 0.403080 0.145651 0.567044
O O7 0.496576 0.898062 0.533952
O O8 0.405704 0.921393 0.642476
O O9 0.695462 0.295461 0.773573
O O10 0.754151 0.538354 0.823012
O O11 0.847476 0.765157 0.785963
O O12 0.000000 0.750000 0.724422
O O13 0.938519 0.000000 0.750000
O O14 0.171789 0.366803 0.472675
O O15 0.696362 0.799911 0.847159
#
# Coordination Sequence:
#
# PCOD8165726 Si02
#       8
#     8   8   4   8   8   4   8   8
#     4  11  23  38  63  94 126 163 213 261 315 374
#     4  10  22  41  63  91 126 162 208 261 313 381
#     4  12  22  40  62  96 126 164 212 256 312 378
#     4   9  20  39  67  91 123 164 210 264 320 376
#     4  11  24  40  64  92 127 166 211 263 316 376
#     4  12  22  40  66  88 126 172 202 268 320 374
#     4  10  22  41  65  90 127 163 208 260 317 384
#     4   9  20  41  65  90 125 165 210 261 322 378
#
# _framework density 19.79025
#
# number of rings (size 3 to 8) (size 9 to 14) (size 15 to 20)
#    0.000    1.714    2.143    1.714    4.000    2.286 
#    0.000    7.143    3.143    0.000    0.000    0.000 
#    0.000    0.000    0.000    0.000    0.000    0.000 
#
# Total GULP energy -347115.101041 kJ/mol
# GULP energy per Si atom -12396.967894 kJ/mol
# Density = 1.974521 g / cm^3
# Si number density = 19.790250 Si / 1000 Ang^3
#
#
#
# Elastic Constant Matrix: (Units=GPa)
#
#
# Indices 1 2 3 4 5 6 
#
# 1 98.1443 43.5602 46.7386 0.0000 0.0000 0.0000
# 2 43.5602 93.1609 54.0872 0.0000 0.0000 0.0000
# 3 46.7386 54.0872 89.7256 0.0000 0.0000 0.0000
# 4 0.0000 0.0000 0.0000 40.9330 0.0000 0.0000
# 5 0.0000 0.0000 0.0000 0.0000 28.1381 0.0000
# 6 0.0000 0.0000 0.0000 0.0000 0.0000 33.5290
#
#
#
# Elastic Compliance Matrix: (Units=1/GPa)
#
#
# Indices 1 2 3 4 5 6 
#
# 1 0.014308 -0.003635 -0.005262 0.000000 0.000000 0.000000
# 2 -0.003635 0.017437 -0.008617 0.000000 0.000000 0.000000
# 3 -0.005262 -0.008617 0.019081 0.000000 0.000000 0.000000
# 4 0.000000 0.000000 0.000000 0.024430 0.000000 0.000000
# 5 0.000000 0.000000 0.000000 0.000000 0.035539 0.000000
# 6 0.000000 0.000000 0.000000 0.000000 0.000000 0.029825
#
#
# Mechanical properties :
#
#
# Convention : Reuss Voigt Hill
#
# Bulk Modulus (GPa) = 63.30452 63.31143 63.30797
# Shear Modulus (GPa) = 27.63721 29.62967 28.63344
#
# Velocity S-wave (km/s) = 3.74104 3.87355 3.80787
# Velocity P-wave (km/s) = 7.12163 7.21571 7.16883
#
# Compressibility (1/GPa) = 0.01579666
#
# Stress axis : x y z
#
# Youngs Moduli (GPa) = 69.88880 57.34906 52.40895
#
# Poissons Ratio (x) = 0.20849 0.27577
# Poissons Ratio (y) = 0.25407 0.45163
# Poissons Ratio (z) = 0.36775 0.49420
#
# Static dielectric constant tensor:
#      x y z
#    x 3.764550 0.000000 0.000000 
#    y 0.000000 3.735250 0.000000 
#    z 0.000000 0.000000 3.578730 
# 
# 
# High freq. dielectric constant tensor:
#      x y z
#    x 1.779580 0.000000 0.000000 
#    y 0.000000 1.780980 0.000000 
#    z 0.000000 0.000000 1.763850 
# 
# From -- ./inp_files/15287.got.cif
#   From: 2010.03.12/outbox.cif.g09.slc.cpg/sg24_8_cif.got.tgz:15287.got - 2010.04.14 03:06:53.
