data_PCOD8165545
_publ_section_title
;
Structure prediction by ZEFSAII (Michael W. Deem and Ramdas Pophale) SiO2 
 PCOD8165545
Probable space group: I 21 21 21
;
_chemical_formula_sum "Si O2"
_cell_formula_units_Z 40
_cell_length_a 5.080361
_cell_length_b 25.903029
_cell_length_c 13.721864
_cell_angle_alpha 90.000000
_cell_angle_beta 90.000000
_cell_angle_gamma 90.000000
_cell_volume 1805.752546
_symmetry_space_group_name_H-M "I 21 21 21"
_symmetry_group_IT_number 24
_symmetry_cell_setting 'orthorhombic'
loop_
_space_group_symop_operation_xyz
x,y,z
-x,1/2-y,z
x,-y,1/2-z
1/2-x,y,-z
1/2+x,1/2+y,1/2+z
1/2-x,-y,1/2+z
1/2+x,1/2-y,-z
-x,1/2+y,1/2-z
loop_
_atom_site_type_symbol
_atom_site_label
_atom_site_fract_x
_atom_site_fract_y
_atom_site_fract_z
Si Si1 0.251071 0.716590 0.385850
Si Si2 0.497567 0.191790 0.434071
Si Si3 0.250000 0.538561 0.500000
Si Si4 0.309872 0.604219 0.690555
Si Si5 0.250000 0.968256 0.000000
Si Si6 0.664297 0.599107 0.186785
O O1 0.500000 0.750000 0.355301
O O2 0.250000 0.703638 0.500000
O O3 0.265918 0.663452 0.327425
O O4 0.000000 0.750000 0.354552
O O5 0.500000 0.250000 0.393017
O O6 0.250000 0.182412 0.500000
O O7 0.464166 0.153801 0.343790
O O8 0.750000 0.178376 0.500000
O O9 0.328458 0.574104 0.589926
O O10 0.496989 0.502492 0.480205
O O11 0.593905 0.603856 0.740134
O O12 0.085001 0.575072 0.754968
O O13 0.272235 0.932980 0.904423
#
# Coordination Sequence:
#
# PCOD8165545 Si02
#       6
#     8   8   4   8   4   8
#     4  10  21  40  68 100 139 186 227 271 336 414
#     4  10  21  40  67  99 141 187 225 269 333 408
#     4  12  28  50  72  98 138 178 230 294 360 398
#     4  12  26  45  71 105 139 180 229 285 344 418
#     4  12  28  48  74  98 134 182 228 298 350 404
#     4  12  26  43  74 104 137 179 235 281 344 415
#
# _framework density 22.151429
#
# number of rings (size 3 to 8) (size 9 to 14) (size 15 to 20)
#    0.000    0.800    2.000    4.800    1.400    7.200 
#    0.000    0.000    0.000    0.000    0.000    0.000 
#    0.000    0.000    0.000    0.000    0.000    0.000 
#
# Total GULP energy -248011.256252 kJ/mol
# GULP energy per Si atom -12400.562813 kJ/mol
# Density = 2.210101 g / cm^3
# Si number density = 22.151429 Si / 1000 Ang^3
#
#
#
# Elastic Constant Matrix: (Units=GPa)
#
#
# Indices 1 2 3 4 5 6 
#
# 1 178.8314 42.4181 48.7402 0.0000 0.0000 0.0000
# 2 42.4181 108.7238 54.3617 0.0000 0.0000 0.0000
# 3 48.7402 54.3617 123.2155 0.0000 0.0000 0.0001
# 4 0.0000 0.0000 0.0000 5.6023 0.0000 0.0000
# 5 0.0000 0.0000 0.0000 0.0000 58.5677 0.0000
# 6 0.0000 0.0000 0.0001 0.0000 0.0000 25.8448
#
#
#
# Elastic Compliance Matrix: (Units=1/GPa)
#
#
# Indices 1 2 3 4 5 6 
#
# 1 0.006477 -0.001599 -0.001857 0.000000 0.000000 0.000000
# 2 -0.001599 0.012195 -0.004748 0.000000 0.000000 0.000000
# 3 -0.001857 -0.004748 0.010945 0.000000 0.000000 0.000000
# 4 0.000000 0.000000 0.000000 0.178497 0.000000 0.000000
# 5 0.000000 0.000000 0.000000 0.000000 0.017074 0.000000
# 6 0.000000 0.000000 0.000000 0.000000 0.000000 0.038692
#
#
# Mechanical properties :
#
#
# Convention : Reuss Voigt Hill
#
# Bulk Modulus (GPa) = 75.69728 77.97895 76.83811
# Shear Modulus (GPa) = 17.56286 35.68637 26.62461
#
# Velocity S-wave (km/s) = 2.81882 4.01810 3.47066
# Velocity P-wave (km/s) = 6.69635 7.53697 7.12907
#
# Compressibility (1/GPa) = 0.01321052
#
# Stress axis : x y z
#
# Youngs Moduli (GPa) = 154.38954 81.99837 91.36411
#
# Poissons Ratio (x) = 0.13108 0.16965
# Poissons Ratio (y) = 0.24681 0.43381
# Poissons Ratio (z) = 0.28668 0.38934
#
# Static dielectric constant tensor:
#      x y z
#    x 4.072370 0.000000 0.000000 
#    y 0.000000 3.822760 0.000000 
#    z 0.000000 0.000000 3.979020 
# 
# 
# High freq. dielectric constant tensor:
#      x y z
#    x 1.892710 0.000000 0.000000 
#    y 0.000000 1.874700 0.000000 
#    z 0.000000 0.000000 1.883200 
# 
# From -- ./inp_files/17656.got.cif
#   From: 2010.03.12/outbox.cif.g09.slc.cpg/sg24_9_cif.got.tgz:17656.got - 2010.04.14 03:06:53.
