data_PCOD8165041
_publ_section_title
;
Structure prediction by ZEFSAII (Michael W. Deem and Ramdas Pophale) SiO2 
 PCOD8165041
Probable space group: I 21 21 21
;
_chemical_formula_sum "Si O2"
_cell_formula_units_Z 40
_cell_length_a 15.542805
_cell_length_b 13.235864
_cell_length_c 8.302809
_cell_angle_alpha 90.000000
_cell_angle_beta 90.000000
_cell_angle_gamma 90.000000
_cell_volume 1708.074236
_symmetry_space_group_name_H-M "I 21 21 21"
_symmetry_group_IT_number 24
_symmetry_cell_setting 'orthorhombic'
loop_
_space_group_symop_operation_xyz
x,y,z
-x,1/2-y,z
x,-y,1/2-z
1/2-x,y,-z
1/2+x,1/2+y,1/2+z
1/2-x,-y,1/2+z
1/2+x,1/2-y,-z
-x,1/2+y,1/2-z
loop_
_atom_site_type_symbol
_atom_site_label
_atom_site_fract_x
_atom_site_fract_y
_atom_site_fract_z
Si Si1 0.982488 0.000000 0.250000
Si Si2 0.803045 0.682002 0.840259
Si Si3 0.977164 0.360822 0.507024
Si Si4 0.632040 0.892237 0.216609
Si Si5 0.079215 0.322671 0.045797
Si Si6 0.750000 0.700707 0.500000
O O1 0.048156 0.061532 0.365738
O O2 0.920883 0.081480 0.164216
O O3 0.798768 0.804627 0.823141
O O4 0.773137 0.636592 0.664575
O O5 0.750000 0.648785 0.000000
O O6 0.900905 0.645723 0.863205
O O7 0.000000 0.250000 0.437485
O O8 0.064752 0.408871 0.573922
O O9 0.570598 0.859666 0.363337
O O10 0.679534 0.000000 0.250000
O O11 0.000000 0.250000 0.088359
O O12 0.170601 0.267465 0.061880
#
# Coordination Sequence:
#
# PCOD8165041 Si02
#       6
#     4   8   8   8   8   4
#     4  12  24  38  70 102 134 178 238 284 348 422
#     4  10  23  41  66  94 139 179 219 282 346 406
#     4  10  22  42  66  95 133 185 226 281 348 411
#     4  10  19  41  63  93 128 174 224 273 340 404
#     4  11  24  43  69  99 138 179 228 288 343 416
#     4  10  24  44  68 108 134 186 230 282 354 416
#
# _framework density 23.418187
#
# number of rings (size 3 to 8) (size 9 to 14) (size 15 to 20)
#    0.000    1.600    2.000    3.600    8.400    0.000 
#   14.400    0.000    4.400    0.000    0.000    0.000 
#    0.000    0.000    0.000    0.000    0.000    0.000 
#
# Total GULP energy -247787.010089 kJ/mol
# GULP energy per Si atom -12389.350504 kJ/mol
# Density = 2.336489 g / cm^3
# Si number density = 23.418187 Si / 1000 Ang^3
#
#
#
# Elastic Constant Matrix: (Units=GPa)
#
#
# Indices 1 2 3 4 5 6 
#
# 1 84.9200 5.1024 26.1248 0.0000 0.0000 0.0000
# 2 5.1024 34.1660 26.2645 0.0000 0.0000 0.0000
# 3 26.1248 26.2645 156.5272 0.0000 0.0000 0.0000
# 4 0.0000 0.0000 0.0000 34.5342 0.0000 0.0000
# 5 0.0000 0.0000 0.0000 0.0000 35.3513 0.0000
# 6 0.0000 0.0000 0.0000 0.0000 0.0000 15.0388
#
#
#
# Elastic Compliance Matrix: (Units=1/GPa)
#
#
# Indices 1 2 3 4 5 6 
#
# 1 0.012416 -0.000300 -0.002022 0.000000 0.000000 0.000000
# 2 -0.000300 0.033611 -0.005590 0.000000 0.000000 0.000000
# 3 -0.002022 -0.005590 0.007664 0.000000 0.000000 0.000000
# 4 0.000000 0.000000 0.000000 0.028957 0.000000 0.000000
# 5 0.000000 0.000000 0.000000 0.000000 0.028288 0.000000
# 6 0.000000 0.000000 0.000000 0.000000 0.000000 0.066495
#
#
# Mechanical properties :
#
#
# Convention : Reuss Voigt Hill
#
# Bulk Modulus (GPa) = 26.40783 43.39963 34.90373
# Shear Modulus (GPa) = 24.28658 31.52628 27.90643
#
# Velocity S-wave (km/s) = 3.22387 3.67308 3.45578
# Velocity P-wave (km/s) = 5.01586 6.04660 5.55519
#
# Compressibility (1/GPa) = 0.03786756
#
# Stress axis : x y z
#
# Youngs Moduli (GPa) = 80.54233 29.75254 130.47939
#
# Poissons Ratio (x) = 0.00892 0.26382
# Poissons Ratio (y) = 0.02415 0.72933
# Poissons Ratio (z) = 0.16285 0.16631
#
# Static dielectric constant tensor:
#      x y z
#    x 3.856470 0.000000 0.000000 
#    y 0.000000 4.083280 0.000000 
#    z 0.000000 0.000000 4.601640 
# 
# 
# High freq. dielectric constant tensor:
#      x y z
#    x 1.898230 0.000000 0.000000 
#    y 0.000000 1.907680 0.000000 
#    z 0.000000 0.000000 1.947400 
# 
# From -- ./inp_files/12352.got.cif
#   From: 2010.03.12/outbox.cif.g09.slc.cpg/sg24_7_cif.got.tgz:12352.got - 2010.04.14 03:06:53.
