data_PCOD8165264
_publ_section_title
;
Structure prediction by ZEFSAII (Michael W. Deem and Ramdas Pophale) SiO2 
 PCOD8165264
Probable space group: I 21 21 21
;
_chemical_formula_sum "Si O2"
_cell_formula_units_Z 44
_cell_length_a 9.179428
_cell_length_b 13.570115
_cell_length_c 16.356085
_cell_angle_alpha 90.000000
_cell_angle_beta 90.000000
_cell_angle_gamma 90.000000
_cell_volume 2037.410344
_symmetry_space_group_name_H-M "I 21 21 21"
_symmetry_group_IT_number 24
_symmetry_cell_setting 'orthorhombic'
loop_
_space_group_symop_operation_xyz
x,y,z
-x,1/2-y,z
x,-y,1/2-z
1/2-x,y,-z
1/2+x,1/2+y,1/2+z
1/2-x,-y,1/2+z
1/2+x,1/2-y,-z
-x,1/2+y,1/2-z
loop_
_atom_site_type_symbol
_atom_site_label
_atom_site_fract_x
_atom_site_fract_y
_atom_site_fract_z
Si Si1 0.512816 0.481671 0.061916
Si Si2 0.211021 0.387618 0.829402
Si Si3 0.017568 0.865957 0.801381
Si Si4 0.480182 0.050517 0.878282
Si Si5 0.755532 0.690789 0.588708
Si Si6 0.740423 0.500000 0.750000
O O1 0.361556 0.438166 0.092566
O O2 0.539343 0.584316 0.109938
O O3 0.641531 0.405589 0.083849
O O4 0.497608 0.503649 0.965469
O O5 0.373794 0.430438 0.826160
O O6 0.196707 0.269846 0.843823
O O7 0.127601 0.407851 0.743843
O O8 0.156633 0.901549 0.745691
O O9 0.000000 0.750000 0.813123
O O10 0.409046 0.157530 0.891916
O O11 0.364945 0.985899 0.827468
O O12 0.750000 0.743715 0.500000
#
# Coordination Sequence:
#
# PCOD8165264 Si02
#       6
#     8   8   8   8   8   4
#     4  11  22  42  65  96 134 181 216 266 334 402
#     4  12  22  37  65 104 136 167 219 278 337 394
#     4  12  25  44  71  96 132 181 229 271 331 411
#     4  11  24  38  67  94 139 170 217 277 333 391
#     4  10  20  38  65 101 136 171 213 270 339 401
#     4  12  24  46  68  96 128 178 228 280 340 390
#
# _framework density 21.596043000000002
#
# number of rings (size 3 to 8) (size 9 to 14) (size 15 to 20)
#    0.000    0.727    3.636    4.909    2.545    2.909 
#    0.000    0.000    8.000    0.000    0.000    0.000 
#    0.000    0.000    0.000    0.000    0.000    0.000 
#
# Total GULP energy -272679.970125 kJ/mol
# GULP energy per Si atom -12394.544097 kJ/mol
# Density = 2.154689 g / cm^3
# Si number density = 21.596043 Si / 1000 Ang^3
#
#
#
# Elastic Constant Matrix: (Units=GPa)
#
#
# Indices 1 2 3 4 5 6 
#
# 1 137.3650 35.8399 35.0482 0.0000 0.0000 0.0000
# 2 35.8399 112.2902 40.0494 0.0000 0.0000 0.0000
# 3 35.0482 40.0494 112.4532 0.0000 0.0000 0.0000
# 4 0.0000 0.0000 0.0000 32.7960 0.0000 0.0000
# 5 0.0000 0.0000 0.0000 0.0000 36.1908 0.0000
# 6 0.0000 0.0000 0.0000 0.0000 0.0000 21.6428
#
#
#
# Elastic Compliance Matrix: (Units=1/GPa)
#
#
# Indices 1 2 3 4 5 6 
#
# 1 0.008273 -0.001971 -0.001876 0.000000 0.000000 0.000000
# 2 -0.001971 0.010671 -0.003186 0.000000 0.000000 0.000000
# 3 -0.001876 -0.003186 0.010612 0.000000 0.000000 0.000000
# 4 0.000000 0.000000 0.000000 0.030492 0.000000 0.000000
# 5 0.000000 0.000000 0.000000 0.000000 0.027631 0.000000
# 6 0.000000 0.000000 0.000000 0.000000 0.000000 0.046205
#
#
# Mechanical properties :
#
#
# Convention : Reuss Voigt Hill
#
# Bulk Modulus (GPa) = 64.56317 64.88705 64.72511
# Shear Modulus (GPa) = 32.65542 34.87063 33.76303
#
# Velocity S-wave (km/s) = 3.89279 4.02266 3.95826
# Velocity P-wave (km/s) = 7.08279 7.18935 7.13627
#
# Compressibility (1/GPa) = 0.01548871
#
# Stress axis : x y z
#
# Youngs Moduli (GPa) = 120.87587 93.71195 94.23234
#
# Poissons Ratio (x) = 0.18473 0.17681
# Poissons Ratio (y) = 0.23828 0.30023
# Poissons Ratio (z) = 0.22681 0.29857
#
# Static dielectric constant tensor:
#      x y z
#    x 4.061590 0.000000 0.000000 
#    y 0.000000 3.621440 0.000000 
#    z 0.000000 0.000000 5.775590 
# 
# 
# High freq. dielectric constant tensor:
#      x y z
#    x 1.861300 0.000000 0.000000 
#    y 0.000000 1.820420 0.000000 
#    z 0.000000 0.000000 1.853550 
# 
# From -- ./inp_files/29408.got.cif
#   From: 2010.03.12/outbox.cif.g09.slc.cpg/sg24_15_cif.got.tgz:29408.got - 2010.04.14 03:06:53.
