data_PCOD8165201
_publ_section_title
;
Structure prediction by ZEFSAII (Michael W. Deem and Ramdas Pophale) SiO2 
 PCOD8165201
Probable space group: I 21 21 21
;
_chemical_formula_sum "Si O2"
_cell_formula_units_Z 48
_cell_length_a 9.470046
_cell_length_b 23.213038
_cell_length_c 11.641409
_cell_angle_alpha 90.000000
_cell_angle_beta 90.000000
_cell_angle_gamma 90.000000
_cell_volume 2559.113917
_symmetry_space_group_name_H-M "I 21 21 21"
_symmetry_group_IT_number 24
_symmetry_cell_setting 'orthorhombic'
loop_
_space_group_symop_operation_xyz
x,y,z
-x,1/2-y,z
x,-y,1/2-z
1/2-x,y,-z
1/2+x,1/2+y,1/2+z
1/2-x,-y,1/2+z
1/2+x,1/2-y,-z
-x,1/2+y,1/2-z
loop_
_atom_site_type_symbol
_atom_site_label
_atom_site_fract_x
_atom_site_fract_y
_atom_site_fract_z
Si Si1 0.380868 0.068482 0.422824
Si Si2 0.448483 0.500000 0.250000
Si Si3 0.500000 0.750000 0.409619
Si Si4 0.216444 0.615350 0.730976
Si Si5 0.500000 0.750000 0.016385
Si Si6 0.250000 0.679815 0.500000
Si Si7 0.389891 0.635312 0.934380
Si Si8 0.566772 0.327312 0.291633
O O1 0.250000 0.047306 0.500000
O O2 0.482088 0.099732 0.513349
O O3 0.342844 0.114460 0.318819
O O4 0.453688 0.014023 0.361076
O O5 0.348046 0.552263 0.285743
O O6 0.389608 0.718866 0.492118
O O7 0.590053 0.704349 0.330520
O O8 0.261806 0.639165 0.608902
O O9 0.361639 0.615961 0.803450
O O10 0.100357 0.655503 0.795686
O O11 0.604290 0.715675 0.103660
O O12 0.417618 0.704287 0.937352
O O13 0.250000 0.616851 0.000000
#
# Coordination Sequence:
#
# PCOD8165201 Si02
#       8
#     8   4   4   8   4   4   8   8
#     4  10  21  38  60  91 121 150 198 257 315 371
#     4  10  20  40  68  78 120 168 186 256 330 350
#     4   9  18  37  56  78 118 167 197 230 288 366
#     4  10  20  37  60  87 115 157 212 247 288 359
#     4   9  16  25  52  86 118 147 173 236 302 336
#     4  10  22  38  58  84 122 160 208 236 288 366
#     4  11  19  36  58  90 122 149 202 247 292 372
#     4   8  16  34  54  77 116 160 186 226 304 364
#
# _framework density 18.756492000000001
#
# number of rings (size 3 to 8) (size 9 to 14) (size 15 to 20)
#    0.000    2.333    5.000    0.000    0.000    4.667 
#    3.000    2.500   12.833    0.000    0.000    0.000 
#    0.000    0.000    0.000    0.000    0.000    0.000 
#
# Total GULP energy -297359.839987 kJ/mol
# GULP energy per Si atom -12389.993333 kJ/mol
# Density = 1.871380 g / cm^3
# Si number density = 18.756492 Si / 1000 Ang^3
#
#
#
# Elastic Constant Matrix: (Units=GPa)
#
#
# Indices 1 2 3 4 5 6 
#
# 1 74.3763 47.8911 58.7004 0.0000 0.0001 0.0000
# 2 47.8911 120.9266 63.6769 0.0001 0.0000 0.0001
# 3 58.7004 63.6769 119.9044 0.0003 -0.0001 0.0003
# 4 0.0000 0.0001 0.0003 24.2289 -0.0001 0.0002
# 5 0.0001 0.0000 -0.0001 -0.0001 41.6628 0.0000
# 6 0.0000 0.0001 0.0003 0.0002 0.0000 30.9496
#
#
#
# Elastic Compliance Matrix: (Units=1/GPa)
#
#
# Indices 1 2 3 4 5 6 
#
# 1 0.023568 -0.004523 -0.009136 0.000000 0.000000 0.000000
# 2 -0.004523 0.012348 -0.004343 0.000000 0.000000 0.000000
# 3 -0.009136 -0.004343 0.015119 0.000000 0.000000 0.000000
# 4 0.000000 0.000000 0.000000 0.041273 0.000000 0.000000
# 5 0.000000 0.000000 0.000000 0.000000 0.024002 0.000000
# 6 0.000000 0.000000 0.000000 0.000000 0.000000 0.032311
#
#
# Mechanical properties :
#
#
# Convention : Reuss Voigt Hill
#
# Bulk Modulus (GPa) = 66.53105 72.86045 69.69575
# Shear Modulus (GPa) = 26.36648 29.03086 27.69867
#
# Velocity S-wave (km/s) = 3.75337 3.93845 3.84702
# Velocity P-wave (km/s) = 7.37100 7.72086 7.54796
#
# Compressibility (1/GPa) = 0.01503058
#
# Stress axis : x y z
#
# Youngs Moduli (GPa) = 42.43069 80.98656 66.14167
#
# Poissons Ratio (x) = 0.36630 0.60426
# Poissons Ratio (y) = 0.19191 0.28726
# Poissons Ratio (z) = 0.38764 0.35174
#
# Static dielectric constant tensor:
#      x y z
#    x 3.227020 0.000000 0.000000 
#    y 0.000000 3.574590 0.000000 
#    z 0.000000 0.000000 3.596760 
# 
# 
# High freq. dielectric constant tensor:
#      x y z
#    x 1.692640 0.000000 0.000000 
#    y 0.000000 1.730100 0.000000 
#    z 0.000000 0.000000 1.723480 
# 
# From -- ./inp_files/18656.got.cif
#   From: 2010.03.12/outbox.cif.g09.slc.cpg/sg24_10_cif.got.tgz:18656.got - 2010.04.14 03:06:53.
