data_PCOD8165256
_publ_section_title
;
Structure prediction by ZEFSAII (Michael W. Deem and Ramdas Pophale) SiO2 
 PCOD8165256
Probable space group: I 21 21 21
;
_chemical_formula_sum "Si O2"
_cell_formula_units_Z 52
_cell_length_a 18.712131
_cell_length_b 7.673134
_cell_length_c 19.219401
_cell_angle_alpha 90.000000
_cell_angle_beta 90.000000
_cell_angle_gamma 90.000000
_cell_volume 2759.534830
_symmetry_space_group_name_H-M "I 21 21 21"
_symmetry_group_IT_number 24
_symmetry_cell_setting 'orthorhombic'
loop_
_space_group_symop_operation_xyz
x,y,z
-x,1/2-y,z
x,-y,1/2-z
1/2-x,y,-z
1/2+x,1/2+y,1/2+z
1/2-x,-y,1/2+z
1/2+x,1/2-y,-z
-x,1/2+y,1/2-z
loop_
_atom_site_type_symbol
_atom_site_label
_atom_site_fract_x
_atom_site_fract_y
_atom_site_fract_z
Si Si1 0.809764 0.303555 0.739344
Si Si2 0.316965 0.583457 0.600314
Si Si3 0.500000 0.250000 0.479405
Si Si4 0.750000 0.814306 0.000000
Si Si5 0.160377 0.733540 0.611326
Si Si6 0.637179 0.624803 0.092978
Si Si7 0.937679 0.890269 0.497381
Si Si8 0.202175 0.500000 0.250000
O O1 0.778534 0.500000 0.750000
O O2 0.855453 0.234277 0.805775
O O3 0.859470 0.307932 0.672074
O O4 0.746730 0.168210 0.726168
O O5 0.301983 0.418729 0.551435
O O6 0.244743 0.697156 0.600706
O O7 0.384993 0.677074 0.564345
O O8 0.342118 0.541887 0.679776
O O9 0.559615 0.324291 0.429986
O O10 0.468834 0.416821 0.522343
O O11 0.700506 0.699737 0.047900
O O12 0.109432 0.597759 0.569624
O O13 0.143437 0.920382 0.580871
O O14 0.000000 0.750000 0.505988
#
# Coordination Sequence:
#
# PCOD8165256 Si02
#       8
#     8   8   4   4   8   8   8   4
#     4   9  20  36  55  88 125 152 195 239 292 356
#     4  11  21  39  63  89 116 154 204 246 303 353
#     4  12  24  38  56  86 128 166 192 240 300 362
#     4  12  20  32  62  88 116 146 210 244 292 346
#     4  10  21  39  61  88 120 154 201 250 293 347
#     4  11  22  37  56  89 123 162 196 244 294 354
#     4  12  24  41  59  87 122 158 203 249 295 358
#     4  10  20  38  64  88 116 156 184 260 302 346
#
# _framework density 18.843755000000002
#
# number of rings (size 3 to 8) (size 9 to 14) (size 15 to 20)
#    0.000    1.231    6.154    0.000    4.308    0.000 
#    1.385    0.000    1.692    0.000    0.000    0.000 
#    0.000    0.000    0.000    0.000    0.000    0.000 
#
# Total GULP energy -322181.079159 kJ/mol
# GULP energy per Si atom -12391.579968 kJ/mol
# Density = 1.880087 g / cm^3
# Si number density = 18.843755 Si / 1000 Ang^3
#
#
#
# Elastic Constant Matrix: (Units=GPa)
#
#
# Indices 1 2 3 4 5 6 
#
# 1 97.9850 24.4918 44.6781 0.0000 0.0000 0.0000
# 2 24.4918 69.8576 17.3606 0.0000 0.0000 0.0000
# 3 44.6781 17.3606 98.5300 0.0000 0.0000 0.0000
# 4 0.0000 0.0000 0.0000 27.6186 0.0000 0.0000
# 5 0.0000 0.0000 0.0000 0.0000 19.4558 0.0000
# 6 0.0000 0.0000 0.0000 0.0000 0.0000 26.8981
#
#
#
# Elastic Compliance Matrix: (Units=1/GPa)
#
#
# Indices 1 2 3 4 5 6 
#
# 1 0.013589 -0.003381 -0.005566 0.000000 0.000000 0.000000
# 2 -0.003381 0.015812 -0.001253 0.000000 0.000000 0.000000
# 3 -0.005566 -0.001253 0.012894 0.000000 0.000000 0.000000
# 4 0.000000 0.000000 0.000000 0.036207 0.000000 0.000000
# 5 0.000000 0.000000 0.000000 0.000000 0.051399 0.000000
# 6 0.000000 0.000000 0.000000 0.000000 0.000000 0.037177
#
#
# Mechanical properties :
#
#
# Convention : Reuss Voigt Hill
#
# Bulk Modulus (GPa) = 45.67371 48.82594 47.24982
# Shear Modulus (GPa) = 25.67063 26.78398 26.22731
#
# Velocity S-wave (km/s) = 3.69492 3.77420 3.73477
# Velocity P-wave (km/s) = 6.51874 6.70522 6.61264
#
# Compressibility (1/GPa) = 0.02189443
#
# Stress axis : x y z
#
# Youngs Moduli (GPa) = 73.59089 63.24502 77.55644
#
# Poissons Ratio (x) = 0.21382 0.43168
# Poissons Ratio (y) = 0.24880 0.09717
# Poissons Ratio (z) = 0.40961 0.07924
#
# Static dielectric constant tensor:
#      x y z
#    x 3.264920 0.000000 0.000000 
#    y 0.000000 3.688200 0.000000 
#    z 0.000000 0.000000 3.625260 
# 
# 
# High freq. dielectric constant tensor:
#      x y z
#    x 1.707290 0.000000 0.000000 
#    y 0.000000 1.742980 0.000000 
#    z 0.000000 0.000000 1.735480 
# 
# From -- ./inp_files/29672.got.cif
#   From: 2010.03.12/outbox.cif.g09.slc.cpg/sg24_15_cif.got.tgz:29672.got - 2010.04.14 03:06:53.
