data_PCOD8165914
_publ_section_title
;
Structure prediction by ZEFSAII (Michael W. Deem and Ramdas Pophale) SiO2 
 PCOD8165914
Probable space group: I 21 21 21
;
_chemical_formula_sum "Si O2"
_cell_formula_units_Z 28
_cell_length_a 26.760627
_cell_length_b 5.107658
_cell_length_c 8.740812
_cell_angle_alpha 90.000000
_cell_angle_beta 90.000000
_cell_angle_gamma 90.000000
_cell_volume 1194.730289
_symmetry_space_group_name_H-M "I 21 21 21"
_symmetry_group_IT_number 24
_symmetry_cell_setting 'orthorhombic'
loop_
_space_group_symop_operation_xyz
x,y,z
-x,1/2-y,z
x,-y,1/2-z
1/2-x,y,-z
1/2+x,1/2+y,1/2+z
1/2-x,-y,1/2+z
1/2+x,1/2-y,-z
-x,1/2+y,1/2-z
loop_
_atom_site_type_symbol
_atom_site_label
_atom_site_fract_x
_atom_site_fract_y
_atom_site_fract_z
Si Si1 0.897454 0.087375 0.575635
Si Si2 0.702063 0.423962 0.424998
Si Si3 0.348218 0.253371 0.850730
Si Si4 0.000000 0.750000 0.855246
O O1 0.849021 0.266754 0.550981
O O2 0.949957 0.231814 0.540679
O O3 0.897555 0.000000 0.750000
O O4 0.894911 0.845071 0.456970
O O5 0.712069 0.500000 0.250000
O O6 0.750000 0.274497 0.500000
O O7 0.696371 0.683151 0.531057
O O8 0.330040 0.500000 0.750000
O O9 0.363857 0.000000 0.750000
O O10 0.993189 0.500000 0.750000
#
# Coordination Sequence:
#
# PCOD8165914 Si02
#       4
#     8   8   8   4
#     4  11  24  48  81 113 152 195 263 315 379 448
#     4  12  26  47  76 111 151 204 257 314 378 450
#     4  12  26  47  75 107 154 197 245 313 377 451
#     4  10  24  42  82 118 148 192 258 322 374 444
#
# _framework density 23.436254999999999
#
# number of rings (size 3 to 8) (size 9 to 14) (size 15 to 20)
#    0.000    0.571    5.714    1.714    4.000    1.143 
#    5.143    0.000    6.286    0.000    0.000    0.000 
#    0.000    0.000    0.000    0.000    0.000    0.000 
#
# Total GULP energy -173457.231971 kJ/mol
# GULP energy per Si atom -12389.802284 kJ/mol
# Density = 2.338291 g / cm^3
# Si number density = 23.436255 Si / 1000 Ang^3
#
#
#
# Elastic Constant Matrix: (Units=GPa)
#
#
# Indices 1 2 3 4 5 6 
#
# 1 226.6714 59.6607 66.7058 0.0000 0.0000 0.0000
# 2 59.6607 134.0793 67.6965 0.0000 0.0000 0.0000
# 3 66.7058 67.6965 185.3216 0.0000 0.0000 0.0000
# 4 0.0000 0.0000 0.0000 38.4569 0.0000 0.0000
# 5 0.0000 0.0000 0.0000 0.0000 34.3500 0.0000
# 6 0.0000 0.0000 0.0000 0.0000 0.0000 34.5178
#
#
#
# Elastic Compliance Matrix: (Units=1/GPa)
#
#
# Indices 1 2 3 4 5 6 
#
# 1 0.005228 -0.001687 -0.001265 0.000000 0.000000 0.000000
# 2 -0.001687 0.009690 -0.002932 0.000000 0.000000 0.000000
# 3 -0.001265 -0.002932 0.006923 0.000000 0.000000 0.000000
# 4 0.000000 0.000000 0.000000 0.026003 0.000000 0.000000
# 5 0.000000 0.000000 0.000000 0.000000 0.029112 0.000000
# 6 0.000000 0.000000 0.000000 0.000000 0.000000 0.028971
#
#
# Mechanical properties :
#
#
# Convention : Reuss Voigt Hill
#
# Bulk Modulus (GPa) = 99.30188 103.79981 101.55085
# Shear Modulus (GPa) = 41.30421 44.93223 43.11822
#
# Velocity S-wave (km/s) = 4.20266 4.38335 4.29395
# Velocity P-wave (km/s) = 8.12483 8.36688 8.24674
#
# Compressibility (1/GPa) = 0.01007030
#
# Stress axis : x y z
#
# Youngs Moduli (GPa) = 191.26968 103.20389 144.45421
#
# Poissons Ratio (x) = 0.17415 0.18280
# Poissons Ratio (y) = 0.32276 0.42356
# Poissons Ratio (z) = 0.24205 0.30261
#
# Static dielectric constant tensor:
#      x y z
#    x 4.740540 0.000000 0.000000 
#    y 0.000000 4.387110 0.000000 
#    z 0.000000 0.000000 4.798710 
# 
# 
# High freq. dielectric constant tensor:
#      x y z
#    x 1.919990 0.000000 0.000000 
#    y 0.000000 1.928650 0.000000 
#    z 0.000000 0.000000 1.940880 
# 
# From -- ./inp_files/996.got.cif
#   From: 2010.03.12/outbox.cif.g09.slc.cpg/sg24_1_cif.got.tgz:996.got - 2010.04.14 03:06:53.
