data_PCOD8165560
_publ_section_title
;
Structure prediction by ZEFSAII (Michael W. Deem and Ramdas Pophale) SiO2 
 PCOD8165560
Probable space group: I 21 21 21
;
_chemical_formula_sum "Si O2"
_cell_formula_units_Z 44
_cell_length_a 24.029377
_cell_length_b 9.452248
_cell_length_c 8.580937
_cell_angle_alpha 90.000000
_cell_angle_beta 90.000000
_cell_angle_gamma 90.000000
_cell_volume 1949.002214
_symmetry_space_group_name_H-M "I 21 21 21"
_symmetry_group_IT_number 24
_symmetry_cell_setting 'orthorhombic'
loop_
_space_group_symop_operation_xyz
x,y,z
-x,1/2-y,z
x,-y,1/2-z
1/2-x,y,-z
1/2+x,1/2+y,1/2+z
1/2-x,-y,1/2+z
1/2+x,1/2-y,-z
-x,1/2+y,1/2-z
loop_
_atom_site_type_symbol
_atom_site_label
_atom_site_fract_x
_atom_site_fract_y
_atom_site_fract_z
Si Si1 0.580276 0.242521 0.020610
Si Si2 0.520237 0.942874 0.003927
Si Si3 0.500000 0.250000 0.771870
Si Si4 0.082141 0.191705 0.635109
Si Si5 0.690123 0.640883 0.941755
Si Si6 0.193730 0.809327 0.412087
O O1 0.581984 0.333913 0.179009
O O2 0.543332 0.099740 0.023034
O O3 0.548545 0.324999 0.879075
O O4 0.644377 0.212557 0.980329
O O5 0.555910 0.846851 0.120167
O O6 0.455196 0.929719 0.053766
O O7 0.526575 0.876224 0.830427
O O8 0.143083 0.198920 0.558092
O O9 0.682742 0.473110 0.945492
O O10 0.690219 0.712750 0.772513
O O11 0.750000 0.687216 0.000000
O O12 0.250000 0.759719 0.500000
#
# Coordination Sequence:
#
# PCOD8165560 Si02
#       6
#     8   8   4   8   8   8
#     4  12  23  39  66  93 128 171 217 264 323 392
#     4  10  23  43  60  88 134 169 218 267 322 383
#     4  10  22  38  60  94 122 172 212 266 320 382
#     4  10  22  41  62  93 131 173 213 266 327 382
#     4  10  21  41  66  92 131 167 210 273 322 379
#     4  10  22  40  65  97 126 166 217 266 324 384
#
# _framework density 22.575654
#
# number of rings (size 3 to 8) (size 9 to 14) (size 15 to 20)
#    0.000    1.818    0.000    5.455    2.545    2.182 
#    3.273    0.909    0.000    2.182    0.000    0.000 
#    0.000    0.000    0.000    0.000    0.000    0.000 
#
# Total GULP energy -272616.908334 kJ/mol
# GULP energy per Si atom -12391.677652 kJ/mol
# Density = 2.252427 g / cm^3
# Si number density = 22.575654 Si / 1000 Ang^3
#
#
#
# Elastic Constant Matrix: (Units=GPa)
#
#
# Indices 1 2 3 4 5 6 
#
# 1 195.8219 19.0999 73.0260 0.0000 0.0000 0.0000
# 2 19.0999 38.9965 14.8790 0.0000 0.0000 0.0000
# 3 73.0260 14.8790 179.2309 0.0000 0.0000 0.0000
# 4 0.0000 0.0000 0.0000 26.4670 0.0000 0.0000
# 5 0.0000 0.0000 0.0000 0.0000 46.8051 0.0000
# 6 0.0000 0.0000 0.0000 0.0000 0.0000 23.9397
#
#
#
# Elastic Compliance Matrix: (Units=1/GPa)
#
#
# Indices 1 2 3 4 5 6 
#
# 1 0.006189 -0.002137 -0.002344 0.000000 0.000000 0.000000
# 2 -0.002137 0.027220 -0.001389 0.000000 0.000000 0.000000
# 3 -0.002344 -0.001389 0.006650 0.000000 0.000000 0.000000
# 4 0.000000 0.000000 0.000000 0.037783 0.000000 0.000000
# 5 0.000000 0.000000 0.000000 0.000000 0.021365 0.000000
# 6 0.000000 0.000000 0.000000 0.000000 0.000000 0.041772
#
#
# Mechanical properties :
#
#
# Convention : Reuss Voigt Hill
#
# Bulk Modulus (GPa) = 35.31263 69.78434 52.54848
# Shear Modulus (GPa) = 30.83388 39.91198 35.37293
#
# Velocity S-wave (km/s) = 3.69969 4.20923 3.96265
# Velocity P-wave (km/s) = 5.82461 7.38931 6.65312
#
# Compressibility (1/GPa) = 0.02831848
#
# Stress axis : x y z
#
# Youngs Moduli (GPa) = 161.56675 36.73780 150.37788
#
# Poissons Ratio (x) = 0.07851 0.35255
# Poissons Ratio (y) = 0.34526 0.20887
# Poissons Ratio (z) = 0.37878 0.05103
#
# Static dielectric constant tensor:
#      x y z
#    x 4.244870 0.000000 0.000000 
#    y 0.000000 3.687290 0.000000 
#    z 0.000000 0.000000 4.548900 
# 
# 
# High freq. dielectric constant tensor:
#      x y z
#    x 1.895530 0.000000 0.000000 
#    y 0.000000 1.857510 0.000000 
#    z 0.000000 0.000000 1.917310 
# 
# From -- ./inp_files/15785.got.cif
#   From: 2010.03.12/outbox.cif.g09.slc.cpg/sg24_8_cif.got.tgz:15785.got - 2010.04.14 03:06:53.
