data_PCOD8165109
_publ_section_title
;
Structure prediction by ZEFSAII (Michael W. Deem and Ramdas Pophale) SiO2 
 PCOD8165109
Probable space group: I 21 21 21
;
_chemical_formula_sum "Si O2"
_cell_formula_units_Z 40
_cell_length_a 11.806556
_cell_length_b 17.707109
_cell_length_c 9.750326
_cell_angle_alpha 90.000000
_cell_angle_beta 90.000000
_cell_angle_gamma 90.000000
_cell_volume 2038.402900
_symmetry_space_group_name_H-M "I 21 21 21"
_symmetry_group_IT_number 24
_symmetry_cell_setting 'orthorhombic'
loop_
_space_group_symop_operation_xyz
x,y,z
-x,1/2-y,z
x,-y,1/2-z
1/2-x,y,-z
1/2+x,1/2+y,1/2+z
1/2-x,-y,1/2+z
1/2+x,1/2-y,-z
-x,1/2+y,1/2-z
loop_
_atom_site_type_symbol
_atom_site_label
_atom_site_fract_x
_atom_site_fract_y
_atom_site_fract_z
Si Si1 0.074068 0.574913 0.322765
Si Si2 0.852643 0.173379 0.421615
Si Si3 0.222060 0.222492 0.766679
Si Si4 0.187985 0.062166 0.138471
Si Si5 0.750000 0.156534 0.000000
Si Si6 0.500000 0.750000 0.131204
O O1 0.122592 0.500000 0.250000
O O2 0.080448 0.635477 0.201906
O O3 0.148314 0.601509 0.452375
O O4 0.947476 0.563185 0.379082
O O5 0.750000 0.128036 0.500000
O O6 0.797546 0.250925 0.362542
O O7 0.945713 0.186032 0.536934
O O8 0.273331 0.146360 0.825756
O O9 0.093101 0.207061 0.722523
O O10 0.212926 0.290349 0.875656
O O11 0.224307 0.000000 0.250000
O O12 0.250000 0.036479 0.000000
#
# Coordination Sequence:
#
# PCOD8165109 Si02
#       6
#     8   8   8   8   4   4
#     4  10  23  40  63  90 128 173 204 267 327 388
#     4   9  19  36  58  91 121 158 205 262 326 379
#     4  10  21  37  63  91 121 164 213 269 312 386
#     4  11  25  43  62  92 133 176 218 265 332 396
#     4  10  22  40  64  96 122 162 220 266 322 370
#     4  10  20  34  62  90 118 156 214 260 316 378
#
# _framework density 19.623206
#
# number of rings (size 3 to 8) (size 9 to 14) (size 15 to 20)
#    0.000    2.000    1.000    1.200    4.200    8.000 
#    0.000    1.000    0.000    0.000    0.000    0.000 
#    0.000    0.000    0.000    0.000    0.000    0.000 
#
# Total GULP energy -247900.327467 kJ/mol
# GULP energy per Si atom -12395.016373 kJ/mol
# Density = 1.957854 g / cm^3
# Si number density = 19.623206 Si / 1000 Ang^3
#
#
#
# Elastic Constant Matrix: (Units=GPa)
#
#
# Indices 1 2 3 4 5 6 
#
# 1 118.5241 41.9248 62.4223 0.0000 0.0000 0.0000
# 2 41.9248 95.5113 38.6464 -0.0001 0.0000 0.0000
# 3 62.4223 38.6464 115.2572 -0.0005 0.0000 0.0000
# 4 0.0000 -0.0001 -0.0005 32.3566 0.0000 0.0000
# 5 0.0000 0.0000 0.0000 0.0000 37.0003 0.0000
# 6 0.0000 0.0000 0.0000 0.0000 0.0000 21.0608
#
#
#
# Elastic Compliance Matrix: (Units=1/GPa)
#
#
# Indices 1 2 3 4 5 6 
#
# 1 0.012598 -0.003204 -0.005749 0.000000 0.000000 0.000000
# 2 -0.003204 0.012928 -0.002600 0.000000 0.000000 0.000000
# 3 -0.005749 -0.002600 0.012661 0.000000 0.000000 0.000000
# 4 0.000000 0.000000 0.000000 0.030906 0.000000 0.000000
# 5 0.000000 0.000000 0.000000 0.000000 0.027027 0.000000
# 6 0.000000 0.000000 0.000000 0.000000 0.000000 0.047482
#
#
# Mechanical properties :
#
#
# Convention : Reuss Voigt Hill
#
# Bulk Modulus (GPa) = 66.29948 68.36439 67.33194
# Shear Modulus (GPa) = 29.11481 30.50348 29.80914
#
# Velocity S-wave (km/s) = 3.85605 3.94694 3.90176
# Velocity P-wave (km/s) = 7.32701 7.46226 7.39495
#
# Compressibility (1/GPa) = 0.01508307
#
# Stress axis : x y z
#
# Youngs Moduli (GPa) = 79.37764 77.35018 78.98024
#
# Poissons Ratio (x) = 0.24782 0.45403
# Poissons Ratio (y) = 0.25431 0.20533
# Poissons Ratio (z) = 0.45632 0.20109
#
# Static dielectric constant tensor:
#      x y z
#    x 3.845250 0.000000 0.000000 
#    y 0.000000 3.455620 0.000000 
#    z 0.000000 0.000000 3.820940 
# 
# 
# High freq. dielectric constant tensor:
#      x y z
#    x 1.774070 0.000000 0.000000 
#    y 0.000000 1.745340 0.000000 
#    z 0.000000 0.000000 1.779600 
# 
# From -- ./inp_files/10747.got.cif
#   From: 2010.03.12/outbox.cif.g09.slc.cpg/sg24_6_cif.got.tgz:10747.got - 2010.04.14 03:06:53.
