data_PCOD8165908
_publ_section_title
;
Structure prediction by ZEFSAII (Michael W. Deem and Ramdas Pophale) SiO2 
 PCOD8165908
Probable space group: I 21 21 21
;
_chemical_formula_sum "Si O2"
_cell_formula_units_Z 52
_cell_length_a 11.987995
_cell_length_b 13.868029
_cell_length_c 15.615456
_cell_angle_alpha 90.000000
_cell_angle_beta 90.000000
_cell_angle_gamma 90.000000
_cell_volume 2596.067410
_symmetry_space_group_name_H-M "I 21 21 21"
_symmetry_group_IT_number 24
_symmetry_cell_setting 'orthorhombic'
loop_
_space_group_symop_operation_xyz
x,y,z
-x,1/2-y,z
x,-y,1/2-z
1/2-x,y,-z
1/2+x,1/2+y,1/2+z
1/2-x,-y,1/2+z
1/2+x,1/2-y,-z
-x,1/2+y,1/2-z
loop_
_atom_site_type_symbol
_atom_site_label
_atom_site_fract_x
_atom_site_fract_y
_atom_site_fract_z
Si Si1 0.917586 0.482612 0.650639
Si Si2 0.664489 0.582138 0.873480
Si Si3 0.168342 0.703371 0.101456
Si Si4 0.000000 0.250000 0.107374
Si Si5 0.032244 0.393484 0.254016
Si Si6 0.623391 0.594853 0.507711
Si Si7 0.914212 0.835622 0.922900
O O1 0.938473 0.500000 0.750000
O O2 0.795768 0.434226 0.641057
O O3 0.923250 0.576093 0.588400
O O4 0.024583 0.424764 0.619137
O O5 0.652745 0.683688 0.923075
O O6 0.597706 0.591904 0.783129
O O7 0.605246 0.499062 0.930551
O O8 0.095068 0.675862 0.181596
O O9 0.297213 0.683780 0.125491
O O10 0.120451 0.643584 0.021290
O O11 0.952120 0.162392 0.164693
O O12 0.916077 0.303667 0.044734
O O13 0.087979 0.500000 0.250000
O O14 0.750000 0.615924 0.500000
O O15 0.000000 0.750000 0.911997
#
# Coordination Sequence:
#
# PCOD8165908 Si02
#       7
#     8   8   8   4   8   8   8
#     4  11  24  41  68  95 131 177 227 277 328 399
#     4  11  20  40  69 103 127 163 225 291 328 384
#     4  11  23  37  65  98 133 171 214 281 345 397
#     4  12  24  42  66  98 136 176 214 280 340 396
#     4  12  23  38  66 101 133 166 221 278 335 403
#     4  10  24  42  67  96 133 177 223 275 341 399
#     4  11  22  40  61  93 133 169 212 272 341 393
#
# _framework density 20.030296
#
# number of rings (size 3 to 8) (size 9 to 14) (size 15 to 20)
#    0.000    0.923    4.615    3.231    6.462    0.615 
#    1.385    1.538    0.000    0.000    0.000    0.000 
#    0.000    0.000    0.000    0.000    0.000    0.000 
#
# Total GULP energy -322146.563002 kJ/mol
# GULP energy per Si atom -12390.252423 kJ/mol
# Density = 1.998471 g / cm^3
# Si number density = 20.030296 Si / 1000 Ang^3
#
#
#
# Elastic Constant Matrix: (Units=GPa)
#
#
# Indices 1 2 3 4 5 6 
#
# 1 102.6841 46.4740 34.0676 0.0000 0.0000 0.0000
# 2 46.4740 130.0676 61.3311 0.0000 0.0000 0.0000
# 3 34.0676 61.3311 121.5882 0.0000 0.0000 0.0000
# 4 0.0000 0.0000 0.0000 32.7427 0.0000 0.0000
# 5 0.0000 0.0000 0.0000 0.0000 -17.8113 0.0000
# 6 0.0000 0.0000 0.0000 0.0000 0.0000 -111.5686
#
#
#
# Elastic Compliance Matrix: (Units=1/GPa)
#
#
# Indices 1 2 3 4 5 6 
#
# 1 0.011836 -0.003497 -0.001552 0.000000 0.000000 0.000000
# 2 -0.003497 0.011121 -0.004630 0.000000 0.000000 0.000000
# 3 -0.001552 -0.004630 0.010995 0.000000 0.000000 0.000000
# 4 0.000000 0.000000 0.000000 0.030541 0.000000 0.000000
# 5 0.000000 0.000000 0.000000 0.000000 -0.056144 0.000000
# 6 0.000000 0.000000 0.000000 0.000000 0.000000 -0.008963
#
#
# Mechanical properties :
#
#
# Convention : Reuss Voigt Hill
#
# Bulk Modulus (GPa) = 68.52359 70.89834 69.71097
# Shear Modulus (GPa) = 211.78175 -5.16296 103.30940
#
# Velocity S-wave (km/s) = 10.29370 -1.60722 7.18947
# Velocity P-wave (km/s) = 13.25008 5.65934 10.18805
#
# Compressibility (1/GPa) = 0.01459351
#
# Stress axis : x y z
#
# Youngs Moduli (GPa) = 84.48463 89.92027 90.95262
#
# Poissons Ratio (x) = 0.31447 0.14119
# Poissons Ratio (y) = 0.29546 0.42108
# Poissons Ratio (z) = 0.13115 0.41630
#
# Static dielectric constant tensor:
#      x y z
#    x 3.891950 0.000000 0.000000 
#    y 0.000000 17.269750 0.000000 
#    z 0.000000 0.000000 4.520540 
# 
# 
# High freq. dielectric constant tensor:
#      x y z
#    x 1.779890 0.000000 0.000000 
#    y 0.000000 1.776330 0.000000 
#    z 0.000000 0.000000 1.779150 
# 
# From -- ./inp_files/30311.got.cif
#   From: 2010.03.12/outbox.cif.g09.slc.cpg/sg24_16_cif.got.tgz:30311.got - 2010.04.14 03:06:53.
