data_PCOD8165198
_publ_section_title
;
Structure prediction by ZEFSAII (Michael W. Deem and Ramdas Pophale) SiO2 
 PCOD8165198
Probable space group: I 21 21 21
;
_chemical_formula_sum "Si O2"
_cell_formula_units_Z 44
_cell_length_a 7.864134
_cell_length_b 10.645874
_cell_length_c 24.031991
_cell_angle_alpha 90.000000
_cell_angle_beta 90.000000
_cell_angle_gamma 90.000000
_cell_volume 2011.972217
_symmetry_space_group_name_H-M "I 21 21 21"
_symmetry_group_IT_number 24
_symmetry_cell_setting 'orthorhombic'
loop_
_space_group_symop_operation_xyz
x,y,z
-x,1/2-y,z
x,-y,1/2-z
1/2-x,y,-z
1/2+x,1/2+y,1/2+z
1/2-x,-y,1/2+z
1/2+x,1/2-y,-z
-x,1/2+y,1/2-z
loop_
_atom_site_type_symbol
_atom_site_label
_atom_site_fract_x
_atom_site_fract_y
_atom_site_fract_z
Si Si1 0.500000 0.750000 0.799169
Si Si2 0.404625 0.975281 0.870208
Si Si3 0.022461 0.894526 0.894632
Si Si4 0.760809 0.684622 0.298507
Si Si5 0.555170 0.387390 0.516093
Si Si6 0.598975 0.064792 0.195382
O O1 0.521374 0.875584 0.836562
O O2 0.662671 0.718131 0.761400
O O3 0.214528 0.926100 0.878842
O O4 0.481009 0.985685 0.933273
O O5 0.395952 0.109144 0.837619
O O6 0.000000 0.750000 0.881659
O O7 0.964708 0.927334 0.958204
O O8 0.893289 0.970653 0.856127
O O9 0.709913 0.817255 0.326052
O O10 0.592804 0.603314 0.288029
O O11 0.500000 0.250000 0.537139
O O12 0.750000 0.378866 0.500000
O O13 0.680802 0.000000 0.250000
#
# Coordination Sequence:
#
# PCOD8165198 Si02
#       6
#     4   8   8   8   8   8
#     4  12  22  36  54  82 122 160 190 234 300 358
#     4  10  20  37  59  83 120 154 189 242 302 353
#     4   9  19  35  61  92 116 145 200 251 291 346
#     4  10  23  39  55  85 117 156 202 239 289 367
#     4   9  17  34  58  87 115 149 191 243 299 345
#     4  10  21  37  61  85 119 153 197 247 297 339
#
# _framework density 21.869091000000001
#
# number of rings (size 3 to 8) (size 9 to 14) (size 15 to 20)
#    0.000    2.182    0.909    2.727    5.091    1.455 
#    0.000    0.000    0.000   10.909    0.000    0.000 
#    0.000    0.000    0.000    0.000    0.000    0.000 
#
# Total GULP energy -272628.312583 kJ/mol
# GULP energy per Si atom -12392.196027 kJ/mol
# Density = 2.181932 g / cm^3
# Si number density = 21.869091 Si / 1000 Ang^3
#
#
#
# Elastic Constant Matrix: (Units=GPa)
#
#
# Indices 1 2 3 4 5 6 
#
# 1 21.8205 18.6032 26.4575 0.0000 0.0000 0.0000
# 2 18.6032 148.6517 96.8499 0.0000 0.0000 0.0000
# 3 26.4575 96.8499 184.9903 0.0000 0.0000 0.0000
# 4 0.0000 0.0000 0.0000 21.0122 0.0000 0.0000
# 5 0.0000 0.0000 0.0000 0.0000 23.0888 0.0000
# 6 0.0000 0.0000 0.0000 0.0000 0.0000 26.9893
#
#
#
# Elastic Compliance Matrix: (Units=1/GPa)
#
#
# Indices 1 2 3 4 5 6 
#
# 1 0.056161 -0.002724 -0.006606 0.000000 0.000000 0.000000
# 2 -0.002724 0.010342 -0.005025 0.000000 0.000000 0.000000
# 3 -0.006606 -0.005025 0.008981 0.000000 0.000000 0.000000
# 4 0.000000 0.000000 0.000000 0.047591 0.000000 0.000000
# 5 0.000000 0.000000 0.000000 0.000000 0.043311 0.000000
# 6 0.000000 0.000000 0.000000 0.000000 0.000000 0.037052
#
#
# Mechanical properties :
#
#
# Convention : Reuss Voigt Hill
#
# Bulk Modulus (GPa) = 21.37954 71.03153 46.20554
# Shear Modulus (GPa) = 20.18253 28.45484 24.31869
#
# Velocity S-wave (km/s) = 3.04119 3.61105 3.33830
# Velocity P-wave (km/s) = 4.70416 7.06662 6.00276
#
# Compressibility (1/GPa) = 0.04677369
#
# Stress axis : x y z
#
# Youngs Moduli (GPa) = 17.80603 96.69508 111.34509
#
# Poissons Ratio (x) = 0.26344 0.73552
# Poissons Ratio (y) = 0.04851 0.55947
# Poissons Ratio (z) = 0.11762 0.48586
#
# Static dielectric constant tensor:
#      x y z
#    x 3.787690 0.000000 0.000000 
#    y 0.000000 4.016890 0.000000 
#    z 0.000000 0.000000 4.634630 
# 
# 
# High freq. dielectric constant tensor:
#      x y z
#    x 1.846620 0.000000 0.000000 
#    y 0.000000 1.841320 0.000000 
#    z 0.000000 0.000000 1.868390 
# 
# From -- ./inp_files/35097.got.cif
#   From: 2010.03.12/outbox.cif.g09.slc.cpg/sg24_18_cif.got.tgz:35097.got - 2010.04.14 03:06:53.
