data_PCOD8165362
_publ_section_title
;
Structure prediction by ZEFSAII (Michael W. Deem and Ramdas Pophale) SiO2 
 PCOD8165362
Probable space group: I 21 21 21
;
_chemical_formula_sum "Si O2"
_cell_formula_units_Z 32
_cell_length_a 19.568465
_cell_length_b 5.285629
_cell_length_c 13.839677
_cell_angle_alpha 90.000000
_cell_angle_beta 90.000000
_cell_angle_gamma 90.000000
_cell_volume 1431.460573
_symmetry_space_group_name_H-M "I 21 21 21"
_symmetry_group_IT_number 24
_symmetry_cell_setting 'orthorhombic'
loop_
_space_group_symop_operation_xyz
x,y,z
-x,1/2-y,z
x,-y,1/2-z
1/2-x,y,-z
1/2+x,1/2+y,1/2+z
1/2-x,-y,1/2+z
1/2+x,1/2-y,-z
-x,1/2+y,1/2-z
loop_
_atom_site_type_symbol
_atom_site_label
_atom_site_fract_x
_atom_site_fract_y
_atom_site_fract_z
Si Si1 0.250000 0.718721 0.500000
Si Si2 0.204877 0.000000 0.250000
Si Si3 0.304649 0.365778 0.348154
Si Si4 0.120196 0.173372 0.086214
Si Si5 0.073674 0.310091 0.502867
O O1 0.253173 0.548684 0.404039
O O2 0.180770 0.877126 0.492178
O O3 0.255820 0.872747 0.172597
O O4 0.154291 0.807304 0.307193
O O5 0.330335 0.500000 0.250000
O O6 0.371024 0.296256 0.411436
O O7 0.077938 0.424250 0.056098
O O8 0.078269 0.914000 0.076865
O O9 0.000000 0.250000 0.551217
#
# Coordination Sequence:
#
# PCOD8165362 Si02
#       5
#     4   4   8   8   8
#     4  10  20  42  62 100 138 174 214 286 354 406
#     4  12  22  40  70 110 130 166 232 304 354 404
#     4  11  23  40  66 104 140 174 225 286 352 408
#     4  11  23  41  71  95 136 177 227 287 346 398
#     4  11  26  47  65  95 138 193 226 268 335 426
#
# _framework density 22.354789
#
# number of rings (size 3 to 8) (size 9 to 14) (size 15 to 20)
#    0.000    1.000    2.500    5.250    3.500    1.000 
#    2.250    2.500    0.000    0.000    0.000    0.000 
#    0.000    0.000    0.000    0.000    0.000    0.000 
#
# Total GULP energy -198222.775713 kJ/mol
# GULP energy per Si atom -12388.923482 kJ/mol
# Density = 2.230391 g / cm^3
# Si number density = 22.354789 Si / 1000 Ang^3
#
#
#
# Elastic Constant Matrix: (Units=GPa)
#
#
# Indices 1 2 3 4 5 6 
#
# 1 101.3244 40.6529 39.5820 0.0000 0.0000 0.0000
# 2 40.6529 131.3353 36.3688 0.0000 0.0000 0.0000
# 3 39.5820 36.3688 109.4386 0.0000 0.0000 0.0000
# 4 0.0000 0.0000 0.0000 41.0667 0.0000 0.0000
# 5 0.0000 0.0000 0.0000 0.0000 31.2767 0.0000
# 6 0.0000 0.0000 0.0000 0.0000 0.0000 40.9723
#
#
#
# Elastic Compliance Matrix: (Units=1/GPa)
#
#
# Indices 1 2 3 4 5 6 
#
# 1 0.012397 -0.002859 -0.003534 0.000000 0.000000 0.000000
# 2 -0.002859 0.009045 -0.001972 0.000000 0.000000 0.000000
# 3 -0.003534 -0.001972 0.011071 0.000000 0.000000 0.000000
# 4 0.000000 0.000000 0.000000 0.024351 0.000000 0.000000
# 5 0.000000 0.000000 0.000000 0.000000 0.031973 0.000000
# 6 0.000000 0.000000 0.000000 0.000000 0.000000 0.024407
#
#
# Mechanical properties :
#
#
# Convention : Reuss Voigt Hill
#
# Bulk Modulus (GPa) = 63.35494 63.92285 63.63889
# Shear Modulus (GPa) = 36.97336 37.69610 37.33473
#
# Velocity S-wave (km/s) = 4.07127 4.11087 4.09112
# Velocity P-wave (km/s) = 7.10651 7.15466 7.13063
#
# Compressibility (1/GPa) = 0.01578409
#
# Stress axis : x y z
#
# Youngs Moduli (GPa) = 80.66701 110.55809 90.32678
#
# Poissons Ratio (x) = 0.31605 0.31918
# Poissons Ratio (y) = 0.23060 0.17812
# Poissons Ratio (z) = 0.28505 0.21801
#
# Static dielectric constant tensor:
#      x y z
#    x 3.978440 0.000000 0.000000 
#    y 0.000000 4.089910 0.000000 
#    z 0.000000 0.000000 3.906110 
# 
# 
# High freq. dielectric constant tensor:
#      x y z
#    x 1.872730 0.000000 0.000000 
#    y 0.000000 1.888650 0.000000 
#    z 0.000000 0.000000 1.875170 
# 
# From -- ./inp_files/2175.got.cif
#   From: 2010.03.12/outbox.cif.g09.slc.cpg/sg24_2_cif.got.tgz:2175.got - 2010.04.14 03:06:53.
