data_PCOD8165639
_publ_section_title
;
Structure prediction by ZEFSAII (Michael W. Deem and Ramdas Pophale) SiO2 
 PCOD8165639
Probable space group: I 21 21 21
;
_chemical_formula_sum "Si O2"
_cell_formula_units_Z 60
_cell_length_a 27.154684
_cell_length_b 8.853834
_cell_length_c 12.958546
_cell_angle_alpha 90.000000
_cell_angle_beta 90.000000
_cell_angle_gamma 90.000000
_cell_volume 3115.533340
_symmetry_space_group_name_H-M "I 21 21 21"
_symmetry_group_IT_number 24
_symmetry_cell_setting 'orthorhombic'
loop_
_space_group_symop_operation_xyz
x,y,z
-x,1/2-y,z
x,-y,1/2-z
1/2-x,y,-z
1/2+x,1/2+y,1/2+z
1/2-x,-y,1/2+z
1/2+x,1/2-y,-z
-x,1/2+y,1/2-z
loop_
_atom_site_type_symbol
_atom_site_label
_atom_site_fract_x
_atom_site_fract_y
_atom_site_fract_z
Si Si1 0.548506 0.833793 0.783959
Si Si2 0.402991 0.366913 0.511257
Si Si3 0.721840 0.500000 0.250000
Si Si4 0.787659 0.364433 0.081143
Si Si5 0.344832 0.919385 0.066143
Si Si6 0.381967 0.317724 0.892468
Si Si7 0.966253 0.050063 0.862462
Si Si8 0.067887 0.852908 0.569475
O O1 0.500000 0.750000 0.747877
O O2 0.559229 0.798646 0.904481
O O3 0.598159 0.791500 0.722518
O O4 0.534694 0.000000 0.750000
O O5 0.363579 0.243449 0.472659
O O6 0.378346 0.509625 0.569036
O O7 0.432113 0.420929 0.410405
O O8 0.758015 0.393121 0.185877
O O9 0.688693 0.596737 0.169036
O O10 0.826724 0.237788 0.106482
O O11 0.750000 0.291823 0.000000
O O12 0.813298 0.511588 0.028826
O O13 0.389639 0.029352 0.100339
O O14 0.419738 0.218627 0.959380
O O15 0.936789 0.209707 0.852357
O O16 0.014975 0.064485 0.933922
O O17 0.983432 0.000000 0.750000
#
# Coordination Sequence:
#
# PCOD8165639 Si02
#       8
#     8   8   4   8   8   8   8   8
#     4  10  23  36  58  90 126 161 197 236 290 351
#     4  10  23  38  56  91 125 151 200 252 290 352
#     4  10  22  38  64  90 114 144 198 256 306 368
#     4   9  20  41  63  86 111 153 197 243 308 370
#     4  10  22  37  62  88 119 148 197 254 300 355
#     4   9  20  41  64  80 122 160 196 243 305 365
#     4  10  22  36  56  83 125 165 206 237 287 353
#     4   9  21  37  57  83 117 166 199 239 290 347
#
# _framework density 19.25834
#
# number of rings (size 3 to 8) (size 9 to 14) (size 15 to 20)
#    0.000    2.400    0.000    0.000   12.133    2.133 
#    0.000    2.000    0.000    1.600    0.000    0.000 
#    0.000    0.000    0.000    0.000    0.000    0.000 
#
# Total GULP energy -371801.847822 kJ/mol
# GULP energy per Si atom -12393.394927 kJ/mol
# Density = 1.921451 g / cm^3
# Si number density = 19.258340 Si / 1000 Ang^3
#
#
#
# Elastic Constant Matrix: (Units=GPa)
#
#
# Indices 1 2 3 4 5 6 
#
# 1 135.7898 66.1420 51.9870 0.0000 0.0000 0.0000
# 2 66.1420 82.7882 46.5090 0.0000 0.0000 0.0000
# 3 51.9870 46.5090 95.2241 0.0000 0.0000 0.0000
# 4 0.0000 0.0000 0.0000 17.5635 0.0000 0.0000
# 5 0.0000 0.0000 0.0000 0.0000 11.5242 0.0000
# 6 0.0000 0.0000 0.0000 0.0000 0.0000 48.9162
#
#
#
# Elastic Compliance Matrix: (Units=1/GPa)
#
#
# Indices 1 2 3 4 5 6 
#
# 1 0.012537 -0.008505 -0.002691 0.000000 0.000000 0.000000
# 2 -0.008505 0.022416 -0.006305 0.000000 0.000000 0.000000
# 3 -0.002691 -0.006305 0.015050 0.000000 0.000000 0.000000
# 4 0.000000 0.000000 0.000000 0.056936 0.000000 0.000000
# 5 0.000000 0.000000 0.000000 0.000000 0.086774 0.000000
# 6 0.000000 0.000000 0.000000 0.000000 0.000000 0.020443
#
#
# Mechanical properties :
#
#
# Convention : Reuss Voigt Hill
#
# Bulk Modulus (GPa) = 66.65853 71.45313 69.05583
# Shear Modulus (GPa) = 19.67283 25.54506 22.60894
#
# Velocity S-wave (km/s) = 3.19959 3.64599 3.43006
# Velocity P-wave (km/s) = 6.95254 7.40994 7.18488
#
# Compressibility (1/GPa) = 0.01500183
#
# Stress axis : x y z
#
# Youngs Moduli (GPa) = 79.76416 44.61161 66.44490
#
# Poissons Ratio (x) = 0.37940 0.17878
# Poissons Ratio (y) = 0.67836 0.41895
# Poissons Ratio (z) = 0.21462 0.28128
#
# Static dielectric constant tensor:
#      x y z
#    x 3.596310 0.000000 0.000000 
#    y 0.000000 3.446660 0.000000 
#    z 0.000000 0.000000 -0.675750 
# 
# 
# High freq. dielectric constant tensor:
#      x y z
#    x 1.752360 0.000000 0.000000 
#    y 0.000000 1.736770 0.000000 
#    z 0.000000 0.000000 1.752650 
# 
# From -- ./inp_files/22992.got.cif
#   From: 2010.03.12/outbox.cif.g09.slc.cpg/sg24_12_cif.got.tgz:22992.got - 2010.04.14 03:06:53.
