data_PCOD8165840
_publ_section_title
;
Structure prediction by ZEFSAII (Michael W. Deem and Ramdas Pophale) SiO2 
 PCOD8165840
Probable space group: I 21 21 21
;
_chemical_formula_sum "Si O2"
_cell_formula_units_Z 56
_cell_length_a 20.235411
_cell_length_b 8.372531
_cell_length_c 14.628806
_cell_angle_alpha 90.000000
_cell_angle_beta 90.000000
_cell_angle_gamma 90.000000
_cell_volume 2478.435805
_symmetry_space_group_name_H-M "I 21 21 21"
_symmetry_group_IT_number 24
_symmetry_cell_setting 'orthorhombic'
loop_
_space_group_symop_operation_xyz
x,y,z
-x,1/2-y,z
x,-y,1/2-z
1/2-x,y,-z
1/2+x,1/2+y,1/2+z
1/2-x,-y,1/2+z
1/2+x,1/2-y,-z
-x,1/2+y,1/2-z
loop_
_atom_site_type_symbol
_atom_site_label
_atom_site_fract_x
_atom_site_fract_y
_atom_site_fract_z
Si Si1 0.401284 0.245237 0.718870
Si Si2 0.250000 0.513410 0.500000
Si Si3 0.085605 0.089789 0.625942
Si Si4 0.634613 0.723329 0.304102
Si Si5 0.461930 0.592652 0.425354
Si Si6 0.000065 0.500000 0.250000
Si Si7 0.276942 0.658228 0.692180
Si Si8 0.880653 0.154365 0.481605
O O1 0.449744 0.359532 0.780504
O O2 0.444691 0.090078 0.686258
O O3 0.337028 0.218014 0.784004
O O4 0.374756 0.324252 0.626310
O O5 0.272018 0.625799 0.583969
O O6 0.188974 0.398905 0.525282
O O7 0.092496 0.208488 0.711292
O O8 0.097909 0.182676 0.531661
O O9 0.136427 0.941599 0.637688
O O10 0.012011 0.018449 0.630888
O O11 0.600356 0.863368 0.361889
O O12 0.708558 0.765801 0.275144
O O13 0.500000 0.750000 0.462678
O O14 0.434554 0.487004 0.508505
O O15 0.291770 0.500000 0.750000
#
# Coordination Sequence:
#
# PCOD8165840 Si02
#       8
#     8   4   8   8   8   4   8   8
#     4  11  25  48  74 102 139 177 236 290 359 420
#     4  12  24  44  74 100 132 184 236 278 356 424
#     4  10  24  40  67 104 143 187 230 291 349 420
#     4  10  23  44  66  99 148 185 235 284 354 420
#     4  10  23  42  67 105 143 186 233 286 347 418
#     4  10  24  48  72 102 130 182 224 294 348 418
#     4  12  23  47  71 101 137 186 233 292 353 426
#     4  12  24  45  71 103 135 185 231 295 344 426
#
# _framework density 22.594895000000001
#
# number of rings (size 3 to 8) (size 9 to 14) (size 15 to 20)
#    0.000    1.143    3.571    1.286    4.000    8.000 
#    7.714    0.000    0.000    0.000    0.000    0.000 
#    0.000    0.000    0.000    0.000    0.000    0.000 
#
# Total GULP energy -346884.760678 kJ/mol
# GULP energy per Si atom -12388.741453 kJ/mol
# Density = 2.254347 g / cm^3
# Si number density = 22.594895 Si / 1000 Ang^3
#
#
#
# Elastic Constant Matrix: (Units=GPa)
#
#
# Indices 1 2 3 4 5 6 
#
# 1 148.5402 46.2220 33.4212 0.0000 0.0000 0.0000
# 2 46.2220 72.2901 38.4955 0.0000 0.0000 0.0000
# 3 33.4212 38.4955 110.9993 0.0000 0.0000 0.0000
# 4 0.0000 0.0000 0.0000 25.1115 0.0000 0.0000
# 5 0.0000 0.0000 0.0000 0.0000 27.3277 0.0000
# 6 0.0000 0.0000 0.0000 0.0000 0.0000 33.8891
#
#
#
# Elastic Compliance Matrix: (Units=1/GPa)
#
#
# Indices 1 2 3 4 5 6 
#
# 1 0.008465 -0.004974 -0.000824 0.000000 0.000000 0.000000
# 2 -0.004974 0.019889 -0.005400 0.000000 0.000000 0.000000
# 3 -0.000824 -0.005400 0.011130 0.000000 0.000000 0.000000
# 4 0.000000 0.000000 0.000000 0.039822 0.000000 0.000000
# 5 0.000000 0.000000 0.000000 0.000000 0.036593 0.000000
# 6 0.000000 0.000000 0.000000 0.000000 0.000000 0.029508
#
#
# Mechanical properties :
#
#
# Convention : Reuss Voigt Hill
#
# Bulk Modulus (GPa) = 58.51874 63.12302 60.82088
# Shear Modulus (GPa) = 28.81850 31.51172 30.16511
#
# Velocity S-wave (km/s) = 3.57521 3.73854 3.65779
# Velocity P-wave (km/s) = 6.55730 6.82884 6.69445
#
# Compressibility (1/GPa) = 0.01708854
#
# Stress axis : x y z
#
# Youngs Moduli (GPa) = 118.12895 50.27876 89.84801
#
# Poissons Ratio (x) = 0.25009 0.07402
# Poissons Ratio (y) = 0.58757 0.48519
# Poissons Ratio (z) = 0.09732 0.27151
#
# Static dielectric constant tensor:
#      x y z
#    x 4.363860 0.000000 0.000000 
#    y 0.000000 4.331800 0.000000 
#    z 0.000000 0.000000 3.661820 
# 
# 
# High freq. dielectric constant tensor:
#      x y z
#    x 1.911730 0.000000 0.000000 
#    y 0.000000 1.890640 0.000000 
#    z 0.000000 0.000000 1.861960 
# 
# From -- ./inp_files/27593.got.cif
#   From: 2010.03.12/outbox.cif.g09.slc.cpg/sg24_14_cif.got.tgz:27593.got - 2010.04.14 03:06:53.
