data_PCOD8165563
_publ_section_title
;
Structure prediction by ZEFSAII (Michael W. Deem and Ramdas Pophale) SiO2 
 PCOD8165563
Probable space group: I 21 21 21
;
_chemical_formula_sum "Si O2"
_cell_formula_units_Z 56
_cell_length_a 18.401855
_cell_length_b 17.238996
_cell_length_c 8.445977
_cell_angle_alpha 90.000000
_cell_angle_beta 90.000000
_cell_angle_gamma 90.000000
_cell_volume 2679.313101
_symmetry_space_group_name_H-M "I 21 21 21"
_symmetry_group_IT_number 24
_symmetry_cell_setting 'orthorhombic'
loop_
_space_group_symop_operation_xyz
x,y,z
-x,1/2-y,z
x,-y,1/2-z
1/2-x,y,-z
1/2+x,1/2+y,1/2+z
1/2-x,-y,1/2+z
1/2+x,1/2-y,-z
-x,1/2+y,1/2-z
loop_
_atom_site_type_symbol
_atom_site_label
_atom_site_fract_x
_atom_site_fract_y
_atom_site_fract_z
Si Si1 0.547539 0.460401 0.586362
Si Si2 0.163886 0.793602 0.496306
Si Si3 0.925309 0.290415 0.315279
Si Si4 0.671844 0.871635 0.557385
Si Si5 0.401916 0.515975 0.069609
Si Si6 0.172995 0.335494 0.425856
Si Si7 0.673214 0.544265 0.413841
O O1 0.522244 0.500000 0.750000
O O2 0.554698 0.368763 0.597232
O O3 0.487458 0.472799 0.451413
O O4 0.622423 0.497277 0.531433
O O5 0.250000 0.787132 0.500000
O O6 0.128725 0.813269 0.326893
O O7 0.140416 0.704680 0.538818
O O8 0.142852 0.866585 0.610490
O O9 0.884010 0.235411 0.442604
O O10 0.000000 0.250000 0.253944
O O11 0.750000 0.900074 0.500000
O O12 0.679526 0.851549 0.740583
O O13 0.616718 0.941512 0.536357
O O14 0.381935 0.500000 0.250000
O O15 0.355625 0.589573 0.016630
O O16 0.250000 0.310310 0.500000
O O17 0.680251 0.500000 0.250000
O O18 0.750000 0.550226 0.500000
#
# Coordination Sequence:
#
# PCOD8165563 Si02
#       7
#     8   8   8   8   8   8   8
#     4  12  24  44  70  98 135 181 229 282 352 420
#     4   9  21  40  66  96 136 174 230 279 336 408
#     4  11  23  44  70 103 135 179 232 286 347 414
#     4  10  21  41  67  98 135 178 224 281 346 409
#     4  12  25  42  66  98 139 180 229 284 347 417
#     4  11  23  42  70 103 135 181 231 283 345 413
#     4  11  24  43  66  98 135 182 232 283 341 403
#
# _framework density 20.900880000000001
#
# number of rings (size 3 to 8) (size 9 to 14) (size 15 to 20)
#    0.000    1.143    2.857    3.429    4.000    0.571 
#   10.286    0.000    0.000    0.000    0.000    0.000 
#    0.000    0.000    0.000    0.000    0.000    0.000 
#
# Total GULP energy -347059.476554 kJ/mol
# GULP energy per Si atom -12394.981305 kJ/mol
# Density = 2.085331 g / cm^3
# Si number density = 20.900880 Si / 1000 Ang^3
#
#
#
# Elastic Constant Matrix: (Units=GPa)
#
#
# Indices 1 2 3 4 5 6 
#
# 1 106.2799 50.3381 31.1954 0.0000 0.0000 0.0000
# 2 50.3381 182.5556 47.6132 0.0000 0.0000 0.0000
# 3 31.1954 47.6132 79.6730 0.0000 0.0000 0.0000
# 4 0.0000 0.0000 0.0000 -0.5770 0.0000 0.0000
# 5 0.0000 0.0000 0.0000 0.0000 38.9680 0.0000
# 6 0.0000 0.0000 0.0000 0.0000 0.0000 36.8945
#
#
#
# Elastic Compliance Matrix: (Units=1/GPa)
#
#
# Indices 1 2 3 4 5 6 
#
# 1 0.011423 -0.002349 -0.003068 0.000000 0.000000 0.000000
# 2 -0.002349 0.006972 -0.003247 0.000000 0.000000 0.000000
# 3 -0.003068 -0.003247 0.015693 0.000000 0.000000 0.000000
# 4 0.000000 0.000000 0.000000 -1.733064 0.000000 0.000000
# 5 0.000000 0.000000 0.000000 0.000000 0.025662 0.000000
# 6 0.000000 0.000000 0.000000 0.000000 0.000000 0.027104
#
#
# Mechanical properties :
#
#
# Convention : Reuss Voigt Hill
#
# Bulk Modulus (GPa) = 59.67054 69.64465 64.65760
# Shear Modulus (GPa) = -3.08016 31.01456 13.96720
#
# Velocity S-wave (km/s) = -1.21528 3.85631 2.58787
# Velocity P-wave (km/s) = 5.16160 7.29533 6.31917
#
# Compressibility (1/GPa) = 0.01675869
#
# Stress axis : x y z
#
# Youngs Moduli (GPa) = 87.54642 143.42165 63.72231
#
# Poissons Ratio (x) = 0.33695 0.19553
# Poissons Ratio (y) = 0.20568 0.20690
# Poissons Ratio (z) = 0.26863 0.46568
#
# Static dielectric constant tensor:
#      x y z
#    x 3.922560 0.000000 0.000000 
#    y 0.000000 4.546830 0.000000 
#    z 0.000000 0.000000 3.610780 
# 
# 
# High freq. dielectric constant tensor:
#      x y z
#    x 1.824180 0.000000 0.000000 
#    y 0.000000 1.848370 0.000000 
#    z 0.000000 0.000000 1.794150 
# 
# From -- ./inp_files/15230.got.cif
#   From: 2010.03.12/outbox.cif.g09.slc.cpg/sg24_8_cif.got.tgz:15230.got - 2010.04.14 03:06:53.
