data_PCOD8165378
_publ_section_title
;
Structure prediction by ZEFSAII (Michael W. Deem and Ramdas Pophale) SiO2 
 PCOD8165378
Probable space group: I 21 21 21
;
_chemical_formula_sum "Si O2"
_cell_formula_units_Z 40
_cell_length_a 10.841064
_cell_length_b 8.513585
_cell_length_c 18.370254
_cell_angle_alpha 90.000000
_cell_angle_beta 90.000000
_cell_angle_gamma 90.000000
_cell_volume 1695.506839
_symmetry_space_group_name_H-M "I 21 21 21"
_symmetry_group_IT_number 24
_symmetry_cell_setting 'orthorhombic'
loop_
_space_group_symop_operation_xyz
x,y,z
-x,1/2-y,z
x,-y,1/2-z
1/2-x,y,-z
1/2+x,1/2+y,1/2+z
1/2-x,-y,1/2+z
1/2+x,1/2-y,-z
-x,1/2+y,1/2-z
loop_
_atom_site_type_symbol
_atom_site_label
_atom_site_fract_x
_atom_site_fract_y
_atom_site_fract_z
Si Si1 0.750000 0.820972 0.000000
Si Si2 0.000000 0.250000 0.697071
Si Si3 0.849087 0.939254 0.390909
Si Si4 0.572336 0.583529 0.825059
Si Si5 0.817245 0.000000 0.750000
Si Si6 0.750000 0.310587 0.000000
Si Si7 0.332253 0.076375 0.403921
O O1 0.646500 0.715043 0.038438
O O2 0.824548 0.915074 0.058619
O O3 0.104836 0.338863 0.742516
O O4 0.058261 0.101007 0.653539
O O5 0.764749 0.955740 0.319379
O O6 0.827751 0.786392 0.440646
O O7 0.990747 0.953608 0.367270
O O8 0.500000 0.750000 0.814137
O O9 0.607809 0.500000 0.750000
O O10 0.698510 0.605234 0.868279
O O11 0.657929 0.414214 0.050694
#
# Coordination Sequence:
#
# PCOD8165378 Si02
#       7
#     4   4   8   8   4   4   8
#     4  10  20  48  70 104 138 196 250 302 378 440
#     4  12  28  48  76 106 158 206 256 314 364 474
#     4  11  24  50  76 109 151 193 254 314 384 438
#     4  12  26  45  80 111 152 196 253 321 377 451
#     4  12  26  48  76 108 152 208 252 310 388 442
#     4  10  28  48  76 116 154 196 256 312 378 458
#     4  11  26  48  72 110 146 205 256 304 382 446
#
# _framework density 23.591764999999999
#
# number of rings (size 3 to 8) (size 9 to 14) (size 15 to 20)
#    0.000    0.800    5.000    0.000    7.000    3.200 
#    3.600    0.000    0.000    0.000    0.000    0.000 
#    0.000    0.000    0.000    0.000    0.000    0.000 
#
# Total GULP energy -247840.072978 kJ/mol
# GULP energy per Si atom -12392.003649 kJ/mol
# Density = 2.353807 g / cm^3
# Si number density = 23.591765 Si / 1000 Ang^3
#
#
#
# Elastic Constant Matrix: (Units=GPa)
#
#
# Indices 1 2 3 4 5 6 
#
# 1 106.0226 32.3674 54.4526 0.0000 0.0000 0.0000
# 2 32.3674 135.9540 59.7850 0.0000 0.0000 0.0000
# 3 54.4526 59.7850 149.1395 0.0000 0.0000 0.0000
# 4 0.0000 0.0000 0.0000 54.7091 0.0000 0.0000
# 5 0.0000 0.0000 0.0000 0.0000 -14.9223 0.0000
# 6 0.0000 0.0000 0.0000 0.0000 0.0000 0.6264
#
#
#
# Elastic Compliance Matrix: (Units=1/GPa)
#
#
# Indices 1 2 3 4 5 6 
#
# 1 0.011744 -0.001105 -0.003845 0.000000 0.000000 0.000000
# 2 -0.001105 0.009034 -0.003218 0.000000 0.000000 0.000000
# 3 -0.003845 -0.003218 0.009399 0.000000 0.000000 0.000000
# 4 0.000000 0.000000 0.000000 0.018278 0.000000 0.000000
# 5 0.000000 0.000000 0.000000 0.000000 -0.067014 0.000000
# 6 0.000000 0.000000 0.000000 0.000000 0.000000 1.596328
#
#
# Mechanical properties :
#
#
# Convention : Reuss Voigt Hill
#
# Bulk Modulus (GPa) = 72.25004 76.03623 74.14314
# Shear Modulus (GPa) = 3.12751 24.38337 13.75544
#
# Velocity S-wave (km/s) = 1.15263 3.21838 2.41729
# Velocity P-wave (km/s) = 5.69763 6.79048 6.26792
#
# Compressibility (1/GPa) = 0.01384082
#
# Stress axis : x y z
#
# Youngs Moduli (GPa) = 85.14942 110.69873 106.39652
#
# Poissons Ratio (x) = 0.12235 0.40908
# Poissons Ratio (y) = 0.09411 0.34235
# Poissons Ratio (z) = 0.32739 0.35620
#
# Static dielectric constant tensor:
#      x y z
#    x 4.000680 0.000000 0.000000 
#    y 0.000000 5.052630 0.000000 
#    z 0.000000 0.000000 4.698220 
# 
# 
# High freq. dielectric constant tensor:
#      x y z
#    x 1.919980 0.000000 0.000000 
#    y 0.000000 1.947560 0.000000 
#    z 0.000000 0.000000 1.958300 
# 
# From -- ./inp_files/30098.got.cif
#   From: 2010.03.12/outbox.cif.g09.slc.cpg/sg24_16_cif.got.tgz:30098.got - 2010.04.14 03:06:53.
