data_PCOD8165888
_publ_section_title
;
Structure prediction by ZEFSAII (Michael W. Deem and Ramdas Pophale) SiO2 
 PCOD8165888
Probable space group: I 21 21 21
;
_chemical_formula_sum "Si O2"
_cell_formula_units_Z 32
_cell_length_a 7.232855
_cell_length_b 25.852963
_cell_length_c 6.842060
_cell_angle_alpha 90.000000
_cell_angle_beta 90.000000
_cell_angle_gamma 90.000000
_cell_volume 1279.401813
_symmetry_space_group_name_H-M "I 21 21 21"
_symmetry_group_IT_number 24
_symmetry_cell_setting 'orthorhombic'
loop_
_space_group_symop_operation_xyz
x,y,z
-x,1/2-y,z
x,-y,1/2-z
1/2-x,y,-z
1/2+x,1/2+y,1/2+z
1/2-x,-y,1/2+z
1/2+x,1/2-y,-z
-x,1/2+y,1/2-z
loop_
_atom_site_type_symbol
_atom_site_label
_atom_site_fract_x
_atom_site_fract_y
_atom_site_fract_z
Si Si1 0.250000 0.168085 0.500000
Si Si2 0.544500 0.514467 0.534019
Si Si3 0.509435 0.118711 0.802959
Si Si4 0.000000 0.250000 0.694000
Si Si5 0.250000 0.299532 0.000000
Si Si6 0.250000 0.439898 0.500000
O O1 0.325370 0.131732 0.676432
O O2 0.072875 0.202530 0.562405
O O3 0.478383 0.500000 0.750000
O O4 0.750000 0.493882 0.500000
O O5 0.532576 0.576726 0.524105
O O6 0.408298 0.478162 0.404679
O O7 0.673964 0.097955 0.666565
O O8 0.576702 0.168396 0.920098
O O9 0.176524 0.264857 0.823544
#
# Coordination Sequence:
#
# PCOD8165888 Si02
#       6
#     4   8   8   4   4   4
#     4  12  26  47  72 102 144 194 236 293 374 448
#     4  10  24  40  66  97 138 184 227 286 340 413
#     4  11  25  43  70 102 137 188 238 290 349 434
#     4  12  26  46  72 102 142 184 234 308 380 426
#     4  12  25  44  72 106 134 180 242 310 355 428
#     4  10  23  47  62 102 144 194 222 289 357 418
#
# _framework density 25.011686999999998
#
# number of rings (size 3 to 8) (size 9 to 14) (size 15 to 20)
#    0.000    1.000    0.000    5.250   10.500    5.000 
#    0.000    0.000    0.000    0.000    0.000    0.000 
#    0.000    0.000    0.000    0.000    0.000    0.000 
#
# Total GULP energy -198362.885101 kJ/mol
# GULP energy per Si atom -12397.680319 kJ/mol
# Density = 2.495476 g / cm^3
# Si number density = 25.011687 Si / 1000 Ang^3
#
#
#
# Elastic Constant Matrix: (Units=GPa)
#
#
# Indices 1 2 3 4 5 6 
#
# 1 127.1312 23.2419 0.2598 0.0033 0.0001 0.0004
# 2 23.2419 90.5172 10.5403 0.0051 0.0001 0.0005
# 3 0.2598 10.5403 44.0249 0.0086 0.0018 0.0004
# 4 0.0033 0.0051 0.0086 30.3808 0.0001 0.0003
# 5 0.0001 0.0001 0.0018 0.0001 53.3907 0.0011
# 6 0.0004 0.0005 0.0004 0.0003 0.0011 53.9644
#
#
#
# Elastic Compliance Matrix: (Units=1/GPa)
#
#
# Indices 1 2 3 4 5 6 
#
# 1 0.008263 -0.002177 0.000472 -0.000001 0.000000 0.000000
# 2 -0.002177 0.011938 -0.002845 -0.000001 0.000000 0.000000
# 3 0.000472 -0.002845 0.023393 -0.000006 -0.000001 0.000000
# 4 -0.000001 -0.000001 -0.000006 0.032915 0.000000 0.000000
# 5 0.000000 0.000000 -0.000001 0.000000 0.018730 0.000000
# 6 0.000000 0.000000 0.000000 0.000000 0.000000 0.018531
#
#
# Mechanical properties :
#
#
# Convention : Reuss Voigt Hill
#
# Bulk Modulus (GPa) = 28.99020 36.63969 32.81495
# Shear Modulus (GPa) = 37.21157 42.72261 39.96709
#
# Velocity S-wave (km/s) = 3.86134 4.13741 4.00176
# Velocity P-wave (km/s) = 5.61211 6.12413 5.87370
#
# Compressibility (1/GPa) = 0.03449442
#
# Stress axis : x y z
#
# Youngs Moduli (GPa) = 121.02357 83.76726 42.74816
#
# Poissons Ratio (x) = 0.18233 -0.02019
# Poissons Ratio (y) = 0.26342 0.12163
# Poissons Ratio (z) = -0.05717 0.23834
#
# Static dielectric constant tensor:
#      x y z
#    x 4.370430 0.000000 0.000000 
#    y 0.000000 4.910850 0.000000 
#    z 0.000000 0.000000 4.517870 
# 
# 
# High freq. dielectric constant tensor:
#      x y z
#    x 2.000860 0.000000 0.000000 
#    y 0.000000 2.010080 0.000000 
#    z 0.000000 0.000000 1.987270 
# 
# From -- ./inp_files/8276.got.cif
#   From: 2010.03.12/outbox.cif.g09.slc.cpg/sg24_5_cif.got.tgz:8276.got - 2010.04.14 03:06:53.
