data_PCOD8165800
_publ_section_title
;
Structure prediction by ZEFSAII (Michael W. Deem and Ramdas Pophale) SiO2 
 PCOD8165800
Probable space group: I 21 21 21
;
_chemical_formula_sum "Si O2"
_cell_formula_units_Z 64
_cell_length_a 14.762960
_cell_length_b 16.748301
_cell_length_c 12.161937
_cell_angle_alpha 90.000000
_cell_angle_beta 90.000000
_cell_angle_gamma 90.000000
_cell_volume 3007.093624
_symmetry_space_group_name_H-M "I 21 21 21"
_symmetry_group_IT_number 24
_symmetry_cell_setting 'orthorhombic'
loop_
_space_group_symop_operation_xyz
x,y,z
-x,1/2-y,z
x,-y,1/2-z
1/2-x,y,-z
1/2+x,1/2+y,1/2+z
1/2-x,-y,1/2+z
1/2+x,1/2-y,-z
-x,1/2+y,1/2-z
loop_
_atom_site_type_symbol
_atom_site_label
_atom_site_fract_x
_atom_site_fract_y
_atom_site_fract_z
Si Si1 0.130144 0.919451 0.479057
Si Si2 0.722696 0.332067 0.788452
Si Si3 0.423978 0.179980 0.192071
Si Si4 0.352793 0.408665 0.535654
Si Si5 0.009824 0.156084 0.582173
Si Si6 0.667332 0.598471 0.938404
Si Si7 0.954576 0.048724 0.149781
Si Si8 0.908210 0.200915 0.274200
O O1 0.208698 0.875141 0.407214
O O2 0.100863 0.879166 0.593110
O O3 0.034406 0.918988 0.421943
O O4 0.164947 0.009424 0.487828
O O5 0.822340 0.292319 0.773804
O O6 0.687766 0.392659 0.691614
O O7 0.659211 0.256957 0.789214
O O8 0.500000 0.250000 0.164022
O O9 0.455093 0.127940 0.297855
O O10 0.250000 0.415834 0.500000
O O11 0.415956 0.391791 0.430346
O O12 0.381326 0.492586 0.589820
O O13 0.369195 0.330326 0.610381
O O14 0.072701 0.138229 0.475362
O O15 0.000000 0.250000 0.591831
O O16 0.750000 0.643087 0.000000
O O17 0.906764 0.127024 0.192532
O O18 0.999756 0.000000 0.250000
O O19 0.000000 0.250000 0.294279
#
# Coordination Sequence:
#
# PCOD8165800 Si02
#       8
#     8   8   8   8   8   8   8   8
#     4  12  25  44  69  98 140 182 237 288 347 419
#     4  12  24  43  72 107 131 181 234 292 353 416
#     4  11  28  47  63  98 149 192 225 278 356 433
#     4  11  24  43  70 104 139 184 232 289 354 430
#     4  11  24  44  66  99 143 178 230 288 354 425
#     4  12  23  42  72 104 133 173 228 300 359 411
#     4  10  22  45  67 100 136 170 229 290 343 402
#     4  11  23  41  72 103 133 172 231 297 349 400
#
# _framework density 21.283007999999999
#
# number of rings (size 3 to 8) (size 9 to 14) (size 15 to 20)
#    0.000    0.750    3.750    4.125    5.250    1.500 
#    2.250    1.250    0.000    0.000    0.000    0.000 
#    0.000    0.000    0.000    0.000    0.000    0.000 
#
# Total GULP energy -396419.872673 kJ/mol
# GULP energy per Si atom -12388.121021 kJ/mol
# Density = 2.123457 g / cm^3
# Si number density = 21.283008 Si / 1000 Ang^3
#
#
#
# Elastic Constant Matrix: (Units=GPa)
#
#
# Indices 1 2 3 4 5 6 
#
# 1 136.9148 23.8576 41.5422 0.0000 0.0000 0.0000
# 2 23.8576 95.0379 32.4724 0.0000 0.0000 0.0000
# 3 41.5422 32.4724 123.7197 0.0000 0.0000 0.0000
# 4 0.0000 0.0000 0.0000 36.0157 0.0000 0.0000
# 5 0.0000 0.0000 0.0000 0.0000 31.0192 0.0000
# 6 0.0000 0.0000 0.0000 0.0000 0.0000 31.9874
#
#
#
# Elastic Compliance Matrix: (Units=1/GPa)
#
#
# Indices 1 2 3 4 5 6 
#
# 1 0.008263 -0.001237 -0.002450 0.000000 0.000000 0.000000
# 2 -0.001237 0.011744 -0.002667 0.000000 0.000000 0.000000
# 3 -0.002450 -0.002667 0.009605 0.000000 0.000000 0.000000
# 4 0.000000 0.000000 0.000000 0.027766 0.000000 0.000000
# 5 0.000000 0.000000 0.000000 0.000000 0.032238 0.000000
# 6 0.000000 0.000000 0.000000 0.000000 0.000000 0.031262
#
#
# Mechanical properties :
#
#
# Convention : Reuss Voigt Hill
#
# Bulk Modulus (GPa) = 59.15684 61.26853 60.21269
# Shear Modulus (GPa) = 35.91426 36.99114 36.45270
#
# Velocity S-wave (km/s) = 4.11233 4.17353 4.14304
# Velocity P-wave (km/s) = 7.09958 7.21626 7.15816
#
# Compressibility (1/GPa) = 0.01690422
#
# Stress axis : x y z
#
# Youngs Moduli (GPa) = 121.02622 85.15021 104.10886
#
# Poissons Ratio (x) = 0.10535 0.25503
# Poissons Ratio (y) = 0.14973 0.27766
# Poissons Ratio (z) = 0.29648 0.22709
#
# Static dielectric constant tensor:
#      x y z
#    x 3.960870 0.000000 0.000000 
#    y 0.000000 3.921890 0.000000 
#    z 0.000000 0.000000 4.218550 
# 
# 
# High freq. dielectric constant tensor:
#      x y z
#    x 1.851230 0.000000 0.000000 
#    y 0.000000 1.829070 0.000000 
#    z 0.000000 0.000000 1.843040 
# 
# From -- ./inp_files/21064.got.cif
#   From: 2010.03.12/outbox.cif.g09.slc.cpg/sg24_11_cif.got.tgz:21064.got - 2010.04.14 03:06:53.
