data_PCOD8165474
_publ_section_title
;
Structure prediction by ZEFSAII (Michael W. Deem and Ramdas Pophale) SiO2 
 PCOD8165474
Probable space group: I 21 21 21
;
_chemical_formula_sum "Si O2"
_cell_formula_units_Z 28
_cell_length_a 7.935685
_cell_length_b 27.322976
_cell_length_c 5.272379
_cell_angle_alpha 90.000000
_cell_angle_beta 90.000000
_cell_angle_gamma 90.000000
_cell_volume 1143.191648
_symmetry_space_group_name_H-M "I 21 21 21"
_symmetry_group_IT_number 24
_symmetry_cell_setting 'orthorhombic'
loop_
_space_group_symop_operation_xyz
x,y,z
-x,1/2-y,z
x,-y,1/2-z
1/2-x,y,-z
1/2+x,1/2+y,1/2+z
1/2-x,-y,1/2+z
1/2+x,1/2-y,-z
-x,1/2+y,1/2-z
loop_
_atom_site_type_symbol
_atom_site_label
_atom_site_fract_x
_atom_site_fract_y
_atom_site_fract_z
Si Si1 0.593947 0.555874 0.329045
Si Si2 0.050853 0.805347 0.475476
Si Si3 0.750000 0.967868 0.500000
Si Si4 0.063274 0.147895 0.524371
O O1 0.626595 0.500000 0.250000
O O2 0.750000 0.575192 0.500000
O O3 0.422475 0.563227 0.491741
O O4 0.574457 0.589248 0.077077
O O5 0.250000 0.811734 0.500000
O O6 0.969838 0.825823 0.737453
O O7 0.000000 0.750000 0.426230
O O8 0.975100 0.838239 0.242642
O O9 0.754262 0.000000 0.250000
O O10 0.250000 0.170238 0.500000
#
# Coordination Sequence:
#
# PCOD8165474 Si02
#       4
#     8   8   4   8
#     4  11  22  40  70  98 136 183 223 265 330 400
#     4  10  21  40  66  89 129 164 213 271 333 386
#     4  10  24  42  62  94 136 176 224 278 316 374
#     4  10  21  38  64  95 125 170 213 269 322 389
#
# _framework density 24.492833000000001
#
# number of rings (size 3 to 8) (size 9 to 14) (size 15 to 20)
#    0.000    1.714    0.000    5.143    0.000    6.857 
#    2.571    0.000   12.571    0.000    0.000    0.000 
#    0.000    0.000    0.000    0.000    0.000    0.000 
#
# Total GULP energy -173496.473895 kJ/mol
# GULP energy per Si atom -12392.605278 kJ/mol
# Density = 2.443709 g / cm^3
# Si number density = 24.492833 Si / 1000 Ang^3
#
#
#
# Elastic Constant Matrix: (Units=GPa)
#
#
# Indices 1 2 3 4 5 6 
#
# 1 109.1991 -0.1342 33.6217 -0.1188 0.0079 -0.0199
# 2 -0.1342 172.5482 82.6729 -0.2038 0.0061 -0.0075
# 3 33.6217 82.6729 216.8428 -0.2266 0.0497 -0.1064
# 4 -0.1188 -0.2038 -0.2266 41.0070 -0.0145 0.0300
# 5 0.0079 0.0061 0.0497 -0.0145 18.8805 -0.0526
# 6 -0.0199 -0.0075 -0.1064 0.0300 -0.0526 11.0772
#
#
#
# Elastic Compliance Matrix: (Units=1/GPa)
#
#
# Indices 1 2 3 4 5 6 
#
# 1 0.009728 0.000893 -0.001849 0.000022 0.000001 0.000000
# 2 0.000893 0.007173 -0.002873 0.000022 0.000005 -0.000021
# 3 -0.001849 -0.002873 0.005994 0.000013 -0.000014 0.000052
# 4 0.000022 0.000022 0.000013 0.024386 0.000018 -0.000066
# 5 0.000001 0.000005 -0.000014 0.000018 0.052965 0.000251
# 6 0.000000 -0.000021 0.000052 -0.000066 0.000251 0.090278
#
#
# Mechanical properties :
#
#
# Convention : Reuss Voigt Hill
#
# Bulk Modulus (GPa) = 65.62869 81.21231 73.42050
# Shear Modulus (GPa) = 24.59897 39.68825 32.14361
#
# Velocity S-wave (km/s) = 3.17256 4.02979 3.62659
# Velocity P-wave (km/s) = 6.34613 7.40823 6.89765
#
# Compressibility (1/GPa) = 0.01523724
#
# Stress axis : x y z
#
# Youngs Moduli (GPa) = 102.79614 139.41462 166.83906
#
# Poissons Ratio (x) = -0.12456 0.30848
# Poissons Ratio (y) = -0.09185 0.47937
# Poissons Ratio (z) = 0.19007 0.40057
#
# Static dielectric constant tensor:
#      x y z
#    x 4.546300 0.000020 0.000040 
#    y 0.000020 4.241910 -0.000040 
#    z 0.000040 -0.000040 4.966370 
# 
# 
# High freq. dielectric constant tensor:
#      x y z
#    x 1.940220 0.000000 0.000000 
#    y 0.000000 1.966330 0.000000 
#    z 0.000000 0.000000 1.995550 
# 
# From -- ./inp_files/995.got.cif
#   From: 2010.03.12/outbox.cif.g09.slc.cpg/sg24_1_cif.got.tgz:995.got - 2010.04.14 03:06:53.
