data_PCOD8165759
_publ_section_title
;
Structure prediction by ZEFSAII (Michael W. Deem and Ramdas Pophale) SiO2 
 PCOD8165759
Probable space group: I 21 21 21
;
_chemical_formula_sum "Si O2"
_cell_formula_units_Z 40
_cell_length_a 17.491572
_cell_length_b 12.884421
_cell_length_c 7.960470
_cell_angle_alpha 90.000000
_cell_angle_beta 90.000000
_cell_angle_gamma 90.000000
_cell_volume 1794.041393
_symmetry_space_group_name_H-M "I 21 21 21"
_symmetry_group_IT_number 24
_symmetry_cell_setting 'orthorhombic'
loop_
_space_group_symop_operation_xyz
x,y,z
-x,1/2-y,z
x,-y,1/2-z
1/2-x,y,-z
1/2+x,1/2+y,1/2+z
1/2-x,-y,1/2+z
1/2+x,1/2-y,-z
-x,1/2+y,1/2-z
loop_
_atom_site_type_symbol
_atom_site_label
_atom_site_fract_x
_atom_site_fract_y
_atom_site_fract_z
Si Si1 0.500000 0.250000 0.431865
Si Si2 0.588857 0.271272 0.992223
Si Si3 0.124812 0.151505 0.370859
Si Si4 0.250000 0.693638 0.000000
Si Si5 0.672737 0.545926 0.429228
Si Si6 0.130131 0.380359 0.751500
O O1 0.458949 0.167611 0.551894
O O2 0.439557 0.311637 0.319222
O O3 0.500000 0.250000 0.971629
O O4 0.622915 0.325558 0.826161
O O5 0.608043 0.367453 0.116986
O O6 0.634812 0.167916 0.057915
O O7 0.182510 0.236899 0.435189
O O8 0.148886 0.037029 0.427556
O O9 0.210410 0.625672 0.851361
O O10 0.693417 0.500000 0.250000
O O11 0.750000 0.599436 0.500000
O O12 0.105267 0.500000 0.750000
#
# Coordination Sequence:
#
# PCOD8165759 Si02
#       6
#     4   8   8   4   8   8
#     4  10  22  42  70 100 144 188 242 302 364 462
#     4  12  27  44  68 109 147 193 246 306 368 457
#     4  11  23  45  71 105 147 186 246 302 374 436
#     4  10  24  46  68 102 138 194 242 310 358 454
#     4  12  26  45  77 112 147 193 245 311 385 450
#     4  11  26  46  74 102 147 201 251 310 381 445
#
# _framework density 22.296029000000001
#
# number of rings (size 3 to 8) (size 9 to 14) (size 15 to 20)
#    0.000    0.800    3.000    4.200    5.600    1.600 
#    0.000    3.000    0.000    0.000    0.000    0.000 
#    0.000    0.000    0.000    0.000    0.000    0.000 
#
# Total GULP energy -247782.219582 kJ/mol
# GULP energy per Si atom -12389.110979 kJ/mol
# Density = 2.224528 g / cm^3
# Si number density = 22.296029 Si / 1000 Ang^3
#
#
#
# Elastic Constant Matrix: (Units=GPa)
#
#
# Indices 1 2 3 4 5 6 
#
# 1 100.7860 34.7079 25.1777 0.0000 0.0000 0.0000
# 2 34.7079 147.7569 41.2232 0.0000 0.0000 0.0000
# 3 25.1777 41.2232 97.4280 0.0000 0.0000 0.0000
# 4 0.0000 0.0000 0.0000 36.0151 0.0000 0.0000
# 5 0.0000 0.0000 0.0000 0.0000 17.9098 0.0000
# 6 0.0000 0.0000 0.0000 0.0000 0.0000 34.7978
#
#
#
# Elastic Compliance Matrix: (Units=1/GPa)
#
#
# Indices 1 2 3 4 5 6 
#
# 1 0.011131 -0.002055 -0.002007 0.000000 0.000000 0.000000
# 2 -0.002055 0.008053 -0.002876 0.000000 0.000000 0.000000
# 3 -0.002007 -0.002876 0.012000 0.000000 0.000000 0.000000
# 4 0.000000 0.000000 0.000000 0.027766 0.000000 0.000000
# 5 0.000000 0.000000 0.000000 0.000000 0.055835 0.000000
# 6 0.000000 0.000000 0.000000 0.000000 0.000000 0.028737
#
#
# Mechanical properties :
#
#
# Convention : Reuss Voigt Hill
#
# Bulk Modulus (GPa) = 57.77897 60.90984 59.34440
# Shear Modulus (GPa) = 30.64326 34.06870 32.35598
#
# Velocity S-wave (km/s) = 3.71129 3.91323 3.81359
# Velocity P-wave (km/s) = 6.65850 6.91345 6.78717
#
# Compressibility (1/GPa) = 0.01730733
#
# Stress axis : x y z
#
# Youngs Moduli (GPa) = 89.83921 124.17732 83.33535
#
# Poissons Ratio (x) = 0.25514 0.16727
# Poissons Ratio (y) = 0.18459 0.23970
# Poissons Ratio (z) = 0.18032 0.35718
#
# Static dielectric constant tensor:
#      x y z
#    x 4.215410 0.000000 0.000000 
#    y 0.000000 4.107060 0.000000 
#    z 0.000000 0.000000 4.492200 
# 
# 
# High freq. dielectric constant tensor:
#      x y z
#    x 1.886530 0.000000 0.000000 
#    y 0.000000 1.869310 0.000000 
#    z 0.000000 0.000000 1.894100 
# 
# From -- ./inp_files/13874.got.cif
#   From: 2010.03.12/outbox.cif.g09.slc.cpg/sg24_7_cif.got.tgz:13874.got - 2010.04.14 03:06:53.
