data_PCOD8165381
_publ_section_title
;
Structure prediction by ZEFSAII (Michael W. Deem and Ramdas Pophale) SiO2 
 PCOD8165381
Probable space group: I 21 21 21
;
_chemical_formula_sum "Si O2"
_cell_formula_units_Z 28
_cell_length_a 4.911096
_cell_length_b 19.985926
_cell_length_c 13.780870
_cell_angle_alpha 90.000000
_cell_angle_beta 90.000000
_cell_angle_gamma 90.000000
_cell_volume 1352.630994
_symmetry_space_group_name_H-M "I 21 21 21"
_symmetry_group_IT_number 24
_symmetry_cell_setting 'orthorhombic'
loop_
_space_group_symop_operation_xyz
x,y,z
-x,1/2-y,z
x,-y,1/2-z
1/2-x,y,-z
1/2+x,1/2+y,1/2+z
1/2-x,-y,1/2+z
1/2+x,1/2-y,-z
-x,1/2+y,1/2-z
loop_
_atom_site_type_symbol
_atom_site_label
_atom_site_fract_x
_atom_site_fract_y
_atom_site_fract_z
Si Si1 0.431812 0.903848 0.095611
Si Si2 0.349567 0.074230 0.781147
Si Si3 0.636293 0.948835 0.396162
Si Si4 0.750000 0.205165 0.500000
O O1 0.233314 0.883539 0.185642
O O2 0.614390 0.970449 0.110742
O O3 0.639205 0.841931 0.086267
O O4 0.250000 0.914304 0.000000
O O5 0.274924 0.000000 0.750000
O O6 0.661116 0.080373 0.813388
O O7 0.151373 0.087536 0.874168
O O8 0.750000 0.926710 0.500000
O O9 0.500000 0.250000 0.540167
#
# Coordination Sequence:
#
# PCOD8165381 Si02
#       4
#     8   8   8   4
#     4  11  23  37  59  78 122 161 200 249 299 345
#     4  10  21  31  51  80 108 151 196 222 281 366
#     4  11  20  33  52  80 114 153 189 227 283 359
#     4  12  26  40  58  82 114 168 222 254 288 340
#
# _framework density 20.700399000000001
#
# number of rings (size 3 to 8) (size 9 to 14) (size 15 to 20)
#    0.000    1.143    2.857    6.857    4.000    0.000 
#    0.000    0.000    0.000    0.000    0.000    0.000 
#    0.000    6.857    1.714    0.857    1.143    0.000 
#
# Total GULP energy -173482.637264 kJ/mol
# GULP energy per Si atom -12391.616947 kJ/mol
# Density = 2.065328 g / cm^3
# Si number density = 20.700399 Si / 1000 Ang^3
#
#
#
# Elastic Constant Matrix: (Units=GPa)
#
#
# Indices 1 2 3 4 5 6 
#
# 1 123.2079 28.0849 25.1380 0.0000 0.0000 0.0000
# 2 28.0849 49.4401 14.2668 0.0000 0.0000 0.0000
# 3 25.1380 14.2668 90.3886 0.0000 0.0000 0.0000
# 4 0.0000 0.0000 0.0000 4.0691 0.0000 0.0000
# 5 0.0000 0.0000 0.0000 0.0000 48.6308 0.0000
# 6 0.0000 0.0000 0.0000 0.0000 0.0000 22.4894
#
#
#
# Elastic Compliance Matrix: (Units=1/GPa)
#
#
# Indices 1 2 3 4 5 6 
#
# 1 0.009625 -0.004919 -0.001900 0.000000 0.000000 0.000000
# 2 -0.004919 0.023706 -0.002374 0.000000 0.000000 0.000000
# 3 -0.001900 -0.002374 0.011967 0.000000 0.000000 0.000000
# 4 0.000000 0.000000 0.000000 0.245757 0.000000 0.000000
# 5 0.000000 0.000000 0.000000 0.000000 0.020563 0.000000
# 6 0.000000 0.000000 0.000000 0.000000 0.000000 0.044465
#
#
# Mechanical properties :
#
#
# Convention : Reuss Voigt Hill
#
# Bulk Modulus (GPa) = 37.15948 44.22399 40.69174
# Shear Modulus (GPa) = 13.03982 28.07433 20.55707
#
# Velocity S-wave (km/s) = 2.51256 3.68669 3.15473
# Velocity P-wave (km/s) = 5.13881 6.28748 5.74194
#
# Compressibility (1/GPa) = 0.02691103
#
# Stress axis : x y z
#
# Youngs Moduli (GPa) = 103.89084 42.18352 83.56651
#
# Poissons Ratio (x) = 0.20752 0.15882
# Poissons Ratio (y) = 0.51108 0.19835
# Poissons Ratio (z) = 0.19744 0.10012
#
# Static dielectric constant tensor:
#      x y z
#    x 4.040710 0.000000 0.000000 
#    y 0.000000 3.298040 0.000000 
#    z 0.000000 0.000000 4.181550 
# 
# 
# High freq. dielectric constant tensor:
#      x y z
#    x 1.842210 0.000000 0.000000 
#    y 0.000000 1.720570 0.000000 
#    z 0.000000 0.000000 1.814670 
# 
# From -- ./inp_files/23561.got.cif
#   From: 2010.03.12/outbox.cif.g09.slc.cpg/sg24_12_cif.got.tgz:23561.got - 2010.04.14 03:06:53.
