data_PCOD8165035
_publ_section_title
;
Structure prediction by ZEFSAII (Michael W. Deem and Ramdas Pophale) SiO2 
 PCOD8165035
Probable space group: I 21 21 21
;
_chemical_formula_sum "Si O2"
_cell_formula_units_Z 48
_cell_length_a 14.919175
_cell_length_b 9.139117
_cell_length_c 17.367251
_cell_angle_alpha 90.000000
_cell_angle_beta 90.000000
_cell_angle_gamma 90.000000
_cell_volume 2367.991431
_symmetry_space_group_name_H-M "I 21 21 21"
_symmetry_group_IT_number 24
_symmetry_cell_setting 'orthorhombic'
loop_
_space_group_symop_operation_xyz
x,y,z
-x,1/2-y,z
x,-y,1/2-z
1/2-x,y,-z
1/2+x,1/2+y,1/2+z
1/2-x,-y,1/2+z
1/2+x,1/2-y,-z
-x,1/2+y,1/2-z
loop_
_atom_site_type_symbol
_atom_site_label
_atom_site_fract_x
_atom_site_fract_y
_atom_site_fract_z
Si Si1 0.820514 0.499563 0.070090
Si Si2 0.726582 0.719658 0.334380
Si Si3 0.681694 0.025622 0.062007
Si Si4 0.081989 0.968660 0.828863
Si Si5 0.729851 0.250291 0.337889
Si Si6 0.498690 0.076628 0.484862
O O1 0.810564 0.345501 0.116195
O O2 0.801324 0.638707 0.124492
O O3 0.750000 0.505766 0.000000
O O4 0.923378 0.508641 0.040803
O O5 0.663226 0.581213 0.325421
O O6 0.759983 0.778834 0.250917
O O7 0.668480 0.842891 0.377723
O O8 0.725088 0.892226 0.109406
O O9 0.598289 0.985355 0.005864
O O10 0.750000 0.086525 0.000000
O O11 0.127571 0.809223 0.835833
O O12 0.016166 0.984489 0.899028
O O13 0.026234 0.000000 0.750000
O O14 0.500000 0.250000 0.493462
#
# Coordination Sequence:
#
# PCOD8165035 Si02
#       6
#     8   8   8   8   8   8
#     4  11  19  39  65  88 125 161 212 255 312 384
#     4  10  22  39  61  91 126 167 200 258 325 373
#     4  12  25  39  59  92 127 162 211 264 324 376
#     4   9  19  36  58  88 122 157 199 242 309 382
#     4  10  19  39  65  88 121 166 211 257 308 380
#     4  12  22  38  63  93 124 168 213 260 315 379
#
# _framework density 20.270343
#
# number of rings (size 3 to 8) (size 9 to 14) (size 15 to 20)
#    0.000    1.333    5.000    4.000    0.000    2.000 
#    0.000    0.000    0.000   10.000    0.000    0.000 
#    0.000    0.000    0.000    0.000    0.000    0.000 
#
# Total GULP energy -297378.438417 kJ/mol
# GULP energy per Si atom -12390.768267 kJ/mol
# Density = 2.022421 g / cm^3
# Si number density = 20.270343 Si / 1000 Ang^3
#
#
#
# Elastic Constant Matrix: (Units=GPa)
#
#
# Indices 1 2 3 4 5 6 
#
# 1 90.6255 12.9514 36.0600 0.0000 0.0000 0.0000
# 2 12.9514 65.4286 15.0450 0.0000 0.0000 0.0000
# 3 36.0600 15.0450 81.5124 0.0000 0.0000 0.0000
# 4 0.0000 0.0000 0.0000 32.5915 0.0000 0.0000
# 5 0.0000 0.0000 0.0000 0.0000 22.3303 0.0000
# 6 0.0000 0.0000 0.0000 0.0000 0.0000 20.3828
#
#
#
# Elastic Compliance Matrix: (Units=1/GPa)
#
#
# Indices 1 2 3 4 5 6 
#
# 1 0.013506 -0.001357 -0.005724 0.000000 0.000000 0.000000
# 2 -0.001357 0.016098 -0.002371 0.000000 0.000000 0.000000
# 3 -0.005724 -0.002371 0.015238 0.000000 0.000000 0.000000
# 4 0.000000 0.000000 0.000000 0.030683 0.000000 0.000000
# 5 0.000000 0.000000 0.000000 0.000000 0.044782 0.000000
# 6 0.000000 0.000000 0.000000 0.000000 0.000000 0.049061
#
#
# Mechanical properties :
#
#
# Convention : Reuss Voigt Hill
#
# Bulk Modulus (GPa) = 38.55494 40.63105 39.59300
# Shear Modulus (GPa) = 25.39123 26.62826 26.00975
#
# Velocity S-wave (km/s) = 3.54309 3.62837 3.58598
# Velocity P-wave (km/s) = 5.98328 6.13527 6.05975
#
# Compressibility (1/GPa) = 0.02593701
#
# Stress axis : x y z
#
# Youngs Moduli (GPa) = 74.04036 62.12087 65.62510
#
# Poissons Ratio (x) = 0.08431 0.37567
# Poissons Ratio (y) = 0.10049 0.15558
# Poissons Ratio (z) = 0.42384 0.14728
#
# Static dielectric constant tensor:
#      x y z
#    x 3.550960 0.000000 0.000000 
#    y 0.000000 3.694410 0.000000 
#    z 0.000000 0.000000 4.486350 
# 
# 
# High freq. dielectric constant tensor:
#      x y z
#    x 1.756180 0.000000 0.000000 
#    y 0.000000 1.793670 0.000000 
#    z 0.000000 0.000000 1.804600 
# 
# From -- ./inp_files/14152.got.cif
#   From: 2010.03.12/outbox.cif.g09.slc.cpg/sg24_8_cif.got.tgz:14152.got - 2010.04.14 03:06:53.
