data_PCOD8165191
_publ_section_title
;
Structure prediction by ZEFSAII (Michael W. Deem and Ramdas Pophale) SiO2 
 PCOD8165191
Probable space group: I 21 21 21
;
_chemical_formula_sum "Si O2"
_cell_formula_units_Z 56
_cell_length_a 21.795687
_cell_length_b 13.830361
_cell_length_c 9.399380
_cell_angle_alpha 90.000000
_cell_angle_beta 90.000000
_cell_angle_gamma 90.000000
_cell_volume 2833.369969
_symmetry_space_group_name_H-M "I 21 21 21"
_symmetry_group_IT_number 24
_symmetry_cell_setting 'orthorhombic'
loop_
_space_group_symop_operation_xyz
x,y,z
-x,1/2-y,z
x,-y,1/2-z
1/2-x,y,-z
1/2+x,1/2+y,1/2+z
1/2-x,-y,1/2+z
1/2+x,1/2-y,-z
-x,1/2+y,1/2-z
loop_
_atom_site_type_symbol
_atom_site_label
_atom_site_fract_x
_atom_site_fract_y
_atom_site_fract_z
Si Si1 0.224479 0.099429 0.295098
Si Si2 0.878359 0.413271 0.503228
Si Si3 0.375523 0.872465 0.550225
Si Si4 0.831339 0.905084 0.162237
Si Si5 0.429958 0.767865 0.785652
Si Si6 0.658993 0.294858 0.246469
Si Si7 0.689807 0.094492 0.333629
O O1 0.192985 0.091222 0.450889
O O2 0.173695 0.114738 0.174475
O O3 0.270886 0.187460 0.293182
O O4 0.259713 0.000000 0.250000
O O5 0.901053 0.524321 0.504226
O O6 0.918323 0.354270 0.393907
O O7 0.884124 0.365743 0.659682
O O8 0.428010 0.807054 0.623016
O O9 0.348689 0.812894 0.419401
O O10 0.880505 0.819309 0.192526
O O11 0.760965 0.878924 0.202879
O O12 0.852871 0.000000 0.250000
O O13 0.827516 0.927921 0.995658
O O14 0.500000 0.750000 0.820733
O O15 0.646896 0.182905 0.281272
O O16 0.669032 0.000000 0.250000
#
# Coordination Sequence:
#
# PCOD8165191 Si02
#       7
#     8   8   8   8   8   8   8
#     4   9  18  31  51  85 123 160 190 219 274 354
#     4  10  20  37  57  85 121 153 195 240 289 354
#     4  10  22  35  55  88 123 151 191 242 290 353
#     4  10  22  40  62  89 119 160 211 247 303 366
#     4  11  23  42  64  85 112 158 209 255 298 357
#     4  12  20  32  59  85 124 157 189 229 301 359
#     4  10  22  38  59  90 127 158 191 256 309 365
#
# _framework density 19.764448999999999
#
# number of rings (size 3 to 8) (size 9 to 14) (size 15 to 20)
#    0.000    1.714    1.429    5.143    4.000    3.429 
#    2.571    0.714    0.000    0.000    0.000    0.000 
#    0.000    0.000    0.000    0.000    0.000    0.000 
#
# Total GULP energy -346982.752508 kJ/mol
# GULP energy per Si atom -12392.241161 kJ/mol
# Density = 1.971946 g / cm^3
# Si number density = 19.764449 Si / 1000 Ang^3
#
#
#
# Elastic Constant Matrix: (Units=GPa)
#
#
# Indices 1 2 3 4 5 6 
#
# 1 59.0804 29.5943 5.9448 0.0000 0.0000 0.0000
# 2 29.5943 136.8185 44.9171 0.0000 0.0000 0.0000
# 3 5.9448 44.9171 63.6851 0.0000 0.0000 0.0000
# 4 0.0000 0.0000 0.0000 38.2058 0.0000 0.0000
# 5 0.0000 0.0000 0.0000 0.0000 12.1388 0.0000
# 6 0.0000 0.0000 0.0000 0.0000 0.0000 11.8972
#
#
#
# Elastic Compliance Matrix: (Units=1/GPa)
#
#
# Indices 1 2 3 4 5 6 
#
# 1 0.019088 -0.004612 0.001471 0.000000 0.000000 0.000000
# 2 -0.004612 0.010625 -0.007064 0.000000 0.000000 0.000000
# 3 0.001471 -0.007064 0.020547 0.000000 0.000000 0.000000
# 4 0.000000 0.000000 0.000000 0.026174 0.000000 0.000000
# 5 0.000000 0.000000 0.000000 0.000000 0.082381 0.000000
# 6 0.000000 0.000000 0.000000 0.000000 0.000000 0.084053
#
#
# Mechanical properties :
#
#
# Convention : Reuss Voigt Hill
#
# Bulk Modulus (GPa) = 33.49913 46.72181 40.11047
# Shear Modulus (GPa) = 18.29973 24.39021 21.34497
#
# Velocity S-wave (km/s) = 3.04615 3.51671 3.28985
# Velocity P-wave (km/s) = 5.41830 6.33879 5.89654
#
# Compressibility (1/GPa) = 0.02985152
#
# Stress axis : x y z
#
# Youngs Moduli (GPa) = 52.38849 94.11361 48.66898
#
# Poissons Ratio (x) = 0.43402 -0.07158
# Poissons Ratio (y) = 0.24160 0.34378
# Poissons Ratio (z) = -0.07705 0.66479
#
# Static dielectric constant tensor:
#      x y z
#    x 3.190230 0.000000 0.000000 
#    y 0.000000 3.922230 0.000000 
#    z 0.000000 0.000000 3.756610 
# 
# 
# High freq. dielectric constant tensor:
#      x y z
#    x 1.713530 0.000000 0.000000 
#    y 0.000000 1.785200 0.000000 
#    z 0.000000 0.000000 1.784010 
# 
# From -- ./inp_files/15265.got.cif
#   From: 2010.03.12/outbox.cif.g09.slc.cpg/sg24_8_cif.got.tgz:15265.got - 2010.04.14 03:06:53.
