data_PCOD8165179
_publ_section_title
;
Structure prediction by ZEFSAII (Michael W. Deem and Ramdas Pophale) SiO2 
 PCOD8165179
Probable space group: I 21 21 21
;
_chemical_formula_sum "Si O2"
_cell_formula_units_Z 32
_cell_length_a 12.782185
_cell_length_b 14.569709
_cell_length_c 7.459961
_cell_angle_alpha 90.000000
_cell_angle_beta 90.000000
_cell_angle_gamma 90.000000
_cell_volume 1389.288797
_symmetry_space_group_name_H-M "I 21 21 21"
_symmetry_group_IT_number 24
_symmetry_cell_setting 'orthorhombic'
loop_
_space_group_symop_operation_xyz
x,y,z
-x,1/2-y,z
x,-y,1/2-z
1/2-x,y,-z
1/2+x,1/2+y,1/2+z
1/2-x,-y,1/2+z
1/2+x,1/2-y,-z
-x,1/2+y,1/2-z
loop_
_atom_site_type_symbol
_atom_site_label
_atom_site_fract_x
_atom_site_fract_y
_atom_site_fract_z
Si Si1 0.961904 0.605362 0.570045
Si Si2 0.881254 0.833831 0.297312
Si Si3 0.443230 0.413419 0.437996
Si Si4 0.750000 0.690813 0.500000
Si Si5 0.242774 0.500000 0.750000
O O1 0.838852 0.625769 0.583265
O O2 0.017486 0.670553 0.424742
O O3 0.978047 0.498069 0.517631
O O4 0.014317 0.634350 0.758707
O O5 0.801786 0.750208 0.338291
O O6 0.817648 0.925685 0.342467
O O7 0.928770 0.838060 0.095110
O O8 0.328158 0.454559 0.404142
#
# Coordination Sequence:
#
# PCOD8165179 Si02
#       5
#     8   8   8   4   4
#     4  10  23  45  67  99 141 180 236 296 353 429
#     4  12  22  41  69 101 135 179 235 292 354 427
#     4  10  22  42  71  99 132 185 243 288 343 448
#     4  12  26  44  68 104 152 186 222 314 386 404
#     4  10  20  36  70 100 122 176 244 290 336 422
#
# _framework density 23.033367999999999
#
# number of rings (size 3 to 8) (size 9 to 14) (size 15 to 20)
#    0.000    1.500    2.500    4.500    3.500    0.000 
#    9.000   17.500    0.000    0.000    0.000    0.000 
#    0.000    0.000    0.000    0.000    0.000    0.000 
#
# Total GULP energy -198347.850837 kJ/mol
# GULP energy per Si atom -12396.740677 kJ/mol
# Density = 2.298094 g / cm^3
# Si number density = 23.033368 Si / 1000 Ang^3
#
#
#
# Elastic Constant Matrix: (Units=GPa)
#
#
# Indices 1 2 3 4 5 6 
#
# 1 162.9677 36.1414 47.0105 0.0000 0.0000 0.0000
# 2 36.1414 55.9516 23.5299 0.0000 0.0000 0.0000
# 3 47.0105 23.5299 156.8225 0.0000 0.0000 0.0000
# 4 0.0000 0.0000 0.0000 12.4272 0.0000 0.0000
# 5 0.0000 0.0000 0.0000 0.0000 16.0283 0.0000
# 6 0.0000 0.0000 0.0000 0.0000 0.0000 42.7200
#
#
#
# Elastic Compliance Matrix: (Units=1/GPa)
#
#
# Indices 1 2 3 4 5 6 
#
# 1 0.007534 -0.004180 -0.001631 0.000000 0.000000 0.000000
# 2 -0.004180 0.021396 -0.001957 0.000000 0.000000 0.000000
# 3 -0.001631 -0.001957 0.007159 0.000000 0.000000 0.000000
# 4 0.000000 0.000000 0.000000 0.080469 0.000000 0.000000
# 5 0.000000 0.000000 0.000000 0.000000 0.062390 0.000000
# 6 0.000000 0.000000 0.000000 0.000000 0.000000 0.023408
#
#
# Mechanical properties :
#
#
# Convention : Reuss Voigt Hill
#
# Bulk Modulus (GPa) = 48.65802 65.45616 57.05709
# Shear Modulus (GPa) = 22.24757 32.17243 27.21000
#
# Velocity S-wave (km/s) = 3.11124 3.74140 3.44078
# Velocity P-wave (km/s) = 5.83758 6.86613 6.37264
#
# Compressibility (1/GPa) = 0.02055160
#
# Stress axis : x y z
#
# Youngs Moduli (GPa) = 132.73487 46.73781 139.67926
#
# Poissons Ratio (x) = 0.19538 0.22784
# Poissons Ratio (y) = 0.55489 0.27337
# Poissons Ratio (z) = 0.21651 0.09147
#
# Static dielectric constant tensor:
#      x y z
#    x 4.191540 0.000000 0.000000 
#    y 0.000000 3.867710 0.000000 
#    z 0.000000 0.000000 4.062540 
# 
# 
# High freq. dielectric constant tensor:
#      x y z
#    x 1.915970 0.000000 0.000000 
#    y 0.000000 1.890000 0.000000 
#    z 0.000000 0.000000 1.910870 
# 
# From -- ./inp_files/10313.got.cif
#   From: 2010.03.12/outbox.cif.g09.slc.cpg/sg24_6_cif.got.tgz:10313.got - 2010.04.14 03:06:53.
