data_PCOD8165599
_publ_section_title
;
Structure prediction by ZEFSAII (Michael W. Deem and Ramdas Pophale) SiO2 
 PCOD8165599
Probable space group: I 21 21 21
;
_chemical_formula_sum "Si O2"
_cell_formula_units_Z 48
_cell_length_a 10.360172
_cell_length_b 8.561769
_cell_length_c 25.044799
_cell_angle_alpha 90.000000
_cell_angle_beta 90.000000
_cell_angle_gamma 90.000000
_cell_volume 2221.508721
_symmetry_space_group_name_H-M "I 21 21 21"
_symmetry_group_IT_number 24
_symmetry_cell_setting 'orthorhombic'
loop_
_space_group_symop_operation_xyz
x,y,z
-x,1/2-y,z
x,-y,1/2-z
1/2-x,y,-z
1/2+x,1/2+y,1/2+z
1/2-x,-y,1/2+z
1/2+x,1/2-y,-z
-x,1/2+y,1/2-z
loop_
_atom_site_type_symbol
_atom_site_label
_atom_site_fract_x
_atom_site_fract_y
_atom_site_fract_z
Si Si1 0.941808 0.089158 0.405070
Si Si2 0.617378 0.649464 0.635596
Si Si3 0.724194 0.085798 0.696373
Si Si4 0.541676 0.921584 0.359861
Si Si5 0.687890 0.439346 0.305575
Si Si6 0.235321 0.621556 0.558883
O O1 0.896809 0.097401 0.343399
O O2 0.000000 0.250000 0.426535
O O3 0.821653 0.036492 0.441761
O O4 0.056125 0.963182 0.409272
O O5 0.500000 0.750000 0.662258
O O6 0.688104 0.545883 0.680263
O O7 0.716683 0.759518 0.604418
O O8 0.776830 0.260182 0.703081
O O9 0.675223 0.000000 0.750000
O O10 0.836713 0.975480 0.674570
O O11 0.500000 0.750000 0.340257
O O12 0.588083 0.918788 0.422603
O O13 0.421593 0.040234 0.351501
O O14 0.628552 0.500000 0.250000
O O15 0.250000 0.695719 0.500000
#
# Coordination Sequence:
#
# PCOD8165599 Si02
#       6
#     8   8   8   8   8   8
#     4  10  21  43  64  90 137 168 214 285 338 398
#     4  10  22  42  65  93 136 172 225 278 337 410
#     4  11  24  40  62  93 131 180 228 269 335 406
#     4  11  22  41  65  91 135 169 220 282 336 406
#     4  12  24  40  64  97 136 181 224 278 342 408
#     4  10  23  44  72  98 126 175 229 285 349 406
#
# _framework density 21.606938
#
# number of rings (size 3 to 8) (size 9 to 14) (size 15 to 20)
#    0.000    1.333    3.333    2.000    4.667    2.667 
#    0.000    4.167    0.000    0.000    0.000    0.000 
#    0.000    0.000    0.000    0.000    0.000    0.000 
#
# Total GULP energy -297489.541877 kJ/mol
# GULP energy per Si atom -12395.397578 kJ/mol
# Density = 2.155776 g / cm^3
# Si number density = 21.606938 Si / 1000 Ang^3
#
#
#
# Elastic Constant Matrix: (Units=GPa)
#
#
# Indices 1 2 3 4 5 6 
#
# 1 88.6319 33.7643 22.1647 0.0000 0.0000 0.0000
# 2 33.7643 142.1545 22.9840 0.0000 0.0000 0.0000
# 3 22.1647 22.9840 82.1260 0.0000 0.0000 0.0000
# 4 0.0000 0.0000 0.0000 16.3377 0.0000 0.0000
# 5 0.0000 0.0000 0.0000 0.0000 21.2234 0.0000
# 6 0.0000 0.0000 0.0000 0.0000 0.0000 35.4639
#
#
#
# Elastic Compliance Matrix: (Units=1/GPa)
#
#
# Indices 1 2 3 4 5 6 
#
# 1 0.012978 -0.002635 -0.002765 0.000000 0.000000 0.000000
# 2 -0.002635 0.007903 -0.001501 0.000000 0.000000 0.000000
# 3 -0.002765 -0.001501 0.013343 0.000000 0.000000 0.000000
# 4 0.000000 0.000000 0.000000 0.061208 0.000000 0.000000
# 5 0.000000 0.000000 0.000000 0.000000 0.047118 0.000000
# 6 0.000000 0.000000 0.000000 0.000000 0.000000 0.028198
#
#
# Mechanical properties :
#
#
# Convention : Reuss Voigt Hill
#
# Bulk Modulus (GPa) = 48.96732 52.30428 50.63580
# Shear Modulus (GPa) = 26.12919 30.20497 28.16708
#
# Velocity S-wave (km/s) = 3.48127 3.74295 3.61447
# Velocity P-wave (km/s) = 6.23466 6.55280 6.39571
#
# Compressibility (1/GPa) = 0.02042178
#
# Stress axis : x y z
#
# Youngs Moduli (GPa) = 77.05308 126.53131 74.94795
#
# Poissons Ratio (x) = 0.33347 0.20723
# Poissons Ratio (y) = 0.20307 0.11246
# Poissons Ratio (z) = 0.21305 0.18986
#
# Static dielectric constant tensor:
#      x y z
#    x 4.091240 0.000000 0.000000 
#    y 0.000000 4.134340 0.000000 
#    z 0.000000 0.000000 3.592870 
# 
# 
# High freq. dielectric constant tensor:
#      x y z
#    x 1.858950 0.000000 0.000000 
#    y 0.000000 1.861360 0.000000 
#    z 0.000000 0.000000 1.808460 
# 
# From -- ./inp_files/11256.got.cif
#   From: 2010.03.12/outbox.cif.g09.slc.cpg/sg24_6_cif.got.tgz:11256.got - 2010.04.14 03:06:53.
