data_PCOD8165053
_publ_section_title
;
Structure prediction by ZEFSAII (Michael W. Deem and Ramdas Pophale) SiO2 
 PCOD8165053
Probable space group: I 21 21 21
;
_chemical_formula_sum "Si O2"
_cell_formula_units_Z 56
_cell_length_a 25.668908
_cell_length_b 16.993809
_cell_length_c 7.659736
_cell_angle_alpha 90.000000
_cell_angle_beta 90.000000
_cell_angle_gamma 90.000000
_cell_volume 3341.272741
_symmetry_space_group_name_H-M "I 21 21 21"
_symmetry_group_IT_number 24
_symmetry_cell_setting 'orthorhombic'
loop_
_space_group_symop_operation_xyz
x,y,z
-x,1/2-y,z
x,-y,1/2-z
1/2-x,y,-z
1/2+x,1/2+y,1/2+z
1/2-x,-y,1/2+z
1/2+x,1/2-y,-z
-x,1/2+y,1/2-z
loop_
_atom_site_type_symbol
_atom_site_label
_atom_site_fract_x
_atom_site_fract_y
_atom_site_fract_z
Si Si1 0.594612 0.583979 0.340247
Si Si2 0.441649 0.765771 0.156520
Si Si3 0.185223 0.910220 0.187626
Si Si4 0.592712 0.298043 0.706211
Si Si5 0.478581 0.919023 0.656662
Si Si6 0.449217 0.695910 0.502689
Si Si7 0.701769 0.588102 0.215009
O O1 0.594259 0.500000 0.250000
O O2 0.560026 0.646168 0.235172
O O3 0.571218 0.571734 0.530836
O O4 0.655239 0.615059 0.346208
O O5 0.500000 0.750000 0.091853
O O6 0.423762 0.702800 0.307994
O O7 0.403936 0.759334 0.987281
O O8 0.141800 0.851197 0.259795
O O9 0.241487 0.871853 0.243520
O O10 0.174722 0.000000 0.250000
O O11 0.179733 0.905838 0.979405
O O12 0.539954 0.352094 0.706218
O O13 0.590052 0.229340 0.851428
O O14 0.531235 0.891629 0.554779
O O15 0.492498 0.000000 0.750000
O O16 0.500000 0.750000 0.489736
O O17 0.718565 0.500000 0.250000
#
# Coordination Sequence:
#
# PCOD8165053 Si02
#       7
#     8   8   8   8   8   8   8
#     4  11  20  31  49  71  92 132 177 208 247 297
#     4  11  18  33  49  65  95 127 165 206 253 302
#     4  10  20  32  45  64  94 129 168 217 249 284
#     4  11  20  30  51  70  90 132 169 204 250 301
#     4  11  21  34  48  72 101 126 172 218 251 302
#     4   9  19  35  47  67  96 126 160 208 255 297
#     4   9  20  33  43  64  92 126 172 209 252 286
#
# _framework density 16.760081
#
# number of rings (size 3 to 8) (size 9 to 14) (size 15 to 20)
#    0.000    1.714    5.714    2.571    6.000    0.000 
#    0.000    0.000    0.000    0.000    0.000    0.000 
#    0.000    0.000    0.000    6.429    0.286    0.571 
#
# Total GULP energy -346879.574531 kJ/mol
# GULP energy per Si atom -12388.556233 kJ/mol
# Density = 1.672193 g / cm^3
# Si number density = 16.760081 Si / 1000 Ang^3
#
#
#
# Elastic Constant Matrix: (Units=GPa)
#
#
# Indices 1 2 3 4 5 6 
#
# 1 81.5467 43.9703 33.8158 0.0000 0.0000 0.0000
# 2 43.9703 53.4105 32.5641 0.0000 0.0000 0.0000
# 3 33.8158 32.5641 101.0290 0.0000 0.0000 0.0000
# 4 0.0000 0.0000 0.0000 24.3676 0.0000 0.0000
# 5 0.0000 0.0000 0.0000 0.0000 25.1091 0.0000
# 6 0.0000 0.0000 0.0000 0.0000 0.0000 22.6914
#
#
#
# Elastic Compliance Matrix: (Units=1/GPa)
#
#
# Indices 1 2 3 4 5 6 
#
# 1 0.022350 -0.017223 -0.001929 0.000000 0.000000 0.000000
# 2 -0.017223 0.036575 -0.006024 0.000000 0.000000 0.000000
# 3 -0.001929 -0.006024 0.012486 0.000000 0.000000 0.000000
# 4 0.000000 0.000000 0.000000 0.041038 0.000000 0.000000
# 5 0.000000 0.000000 0.000000 0.000000 0.039826 0.000000
# 6 0.000000 0.000000 0.000000 0.000000 0.000000 0.044069
#
#
# Mechanical properties :
#
#
# Convention : Reuss Voigt Hill
#
# Bulk Modulus (GPa) = 47.49024 50.74295 49.11659
# Shear Modulus (GPa) = 19.70707 22.80937 21.25822
#
# Velocity S-wave (km/s) = 3.43276 3.69309 3.56530
# Velocity P-wave (km/s) = 6.64144 6.96613 6.80572
#
# Compressibility (1/GPa) = 0.02105696
#
# Stress axis : x y z
#
# Youngs Moduli (GPa) = 44.74319 27.34127 80.09202
#
# Poissons Ratio (x) = 0.47090 0.15452
# Poissons Ratio (y) = 0.77062 0.48248
# Poissons Ratio (z) = 0.08632 0.16471
#
# Static dielectric constant tensor:
#      x y z
#    x 3.210830 0.000000 0.000000 
#    y 0.000000 2.960250 0.000000 
#    z 0.000000 0.000000 3.462390 
# 
# 
# High freq. dielectric constant tensor:
#      x y z
#    x 1.621830 0.000000 0.000000 
#    y 0.000000 1.593110 0.000000 
#    z 0.000000 0.000000 1.668270 
# 
# From -- ./inp_files/16087.got.cif
#   From: 2010.03.12/outbox.cif.g09.slc.cpg/sg24_9_cif.got.tgz:16087.got - 2010.04.14 03:06:53.
