data_PCOD8165195
_publ_section_title
;
Structure prediction by ZEFSAII (Michael W. Deem and Ramdas Pophale) SiO2 
 PCOD8165195
Probable space group: I 21 21 21
;
_chemical_formula_sum "Si O2"
_cell_formula_units_Z 60
_cell_length_a 23.185438
_cell_length_b 11.033771
_cell_length_c 11.275877
_cell_angle_alpha 90.000000
_cell_angle_beta 90.000000
_cell_angle_gamma 90.000000
_cell_volume 2884.626578
_symmetry_space_group_name_H-M "I 21 21 21"
_symmetry_group_IT_number 24
_symmetry_cell_setting 'orthorhombic'
loop_
_space_group_symop_operation_xyz
x,y,z
-x,1/2-y,z
x,-y,1/2-z
1/2-x,y,-z
1/2+x,1/2+y,1/2+z
1/2-x,-y,1/2+z
1/2+x,1/2-y,-z
-x,1/2+y,1/2-z
loop_
_atom_site_type_symbol
_atom_site_label
_atom_site_fract_x
_atom_site_fract_y
_atom_site_fract_z
Si Si1 0.151999 0.861098 0.488474
Si Si2 0.483452 0.620933 0.879024
Si Si3 0.183578 0.128395 0.498700
Si Si4 0.472146 0.870518 0.610619
Si Si5 0.649153 0.849738 0.876315
Si Si6 0.685541 0.364362 0.244282
Si Si7 0.722995 0.183615 0.839229
Si Si8 0.750000 0.017799 0.500000
O O1 0.095060 0.851788 0.410904
O O2 0.142661 0.847847 0.631480
O O3 0.195595 0.755128 0.450577
O O4 0.181097 0.989208 0.459650
O O5 0.500000 0.750000 0.942198
O O6 0.511422 0.626731 0.748672
O O7 0.508671 0.500857 0.945919
O O8 0.415014 0.597665 0.878685
O O9 0.250000 0.170196 0.500000
O O10 0.146995 0.205968 0.404330
O O11 0.154473 0.154066 0.628699
O O12 0.500000 0.750000 0.550911
O O13 0.672594 0.869787 0.743859
O O14 0.691282 0.906774 0.977580
O O15 0.712224 0.500000 0.250000
O O16 0.738177 0.271118 0.239503
O O17 0.759522 0.068834 0.885766
#
# Coordination Sequence:
#
# PCOD8165195 Si02
#       8
#     8   8   8   8   8   8   8   4
#     4  11  22  36  63  92 125 169 210 278 323 388
#     4  10  22  41  60  92 125 162 213 276 328 379
#     4  11  21  40  61  94 130 166 215 258 330 399
#     4  10  22  38  59  89 121 159 218 264 327 374
#     4  12  25  40  66  91 135 178 210 273 324 397
#     4  10  20  37  58  90 129 163 208 261 325 398
#     4  12  22  37  61  91 129 171 217 260 331 396
#     4  12  26  38  54  96 130 182 212 242 336 414
#
# _framework density 20.799918999999999
#
# number of rings (size 3 to 8) (size 9 to 14) (size 15 to 20)
#    0.000    1.067    3.333    4.400    5.600    1.067 
#    0.000    0.000    0.000    5.600    0.000    0.000 
#    0.000    0.000    0.000    0.000    0.000    0.000 
#
# Total GULP energy -371787.522944 kJ/mol
# GULP energy per Si atom -12392.917431 kJ/mol
# Density = 2.075258 g / cm^3
# Si number density = 20.799919 Si / 1000 Ang^3
#
#
#
# Elastic Constant Matrix: (Units=GPa)
#
#
# Indices 1 2 3 4 5 6 
#
# 1 98.4818 21.6475 21.5522 0.0000 0.0000 0.0000
# 2 21.6475 118.0580 15.1918 0.0000 0.0000 0.0000
# 3 21.5522 15.1918 74.9311 0.0000 0.0000 0.0000
# 4 0.0000 0.0000 0.0000 26.0757 0.0000 0.0000
# 5 0.0000 0.0000 0.0000 0.0000 29.4870 0.0000
# 6 0.0000 0.0000 0.0000 0.0000 0.0000 18.0392
#
#
#
# Elastic Compliance Matrix: (Units=1/GPa)
#
#
# Indices 1 2 3 4 5 6 
#
# 1 0.011150 -0.001676 -0.002867 0.000000 0.000000 0.000000
# 2 -0.001676 0.008949 -0.001332 0.000000 0.000000 0.000000
# 3 -0.002867 -0.001332 0.014440 0.000000 0.000000 0.000000
# 4 0.000000 0.000000 0.000000 0.038350 0.000000 0.000000
# 5 0.000000 0.000000 0.000000 0.000000 0.033913 0.000000
# 6 0.000000 0.000000 0.000000 0.000000 0.000000 0.055435
#
#
# Mechanical properties :
#
#
# Convention : Reuss Voigt Hill
#
# Bulk Modulus (GPa) = 43.88096 45.36155 44.62125
# Shear Modulus (GPa) = 27.53541 30.25900 28.89720
#
# Velocity S-wave (km/s) = 3.64238 3.81828 3.73137
# Velocity P-wave (km/s) = 6.23152 6.42611 6.32956
#
# Compressibility (1/GPa) = 0.02278893
#
# Stress axis : x y z
#
# Youngs Moduli (GPa) = 89.68648 111.74303 69.24987
#
# Poissons Ratio (x) = 0.18723 0.19856
# Poissons Ratio (y) = 0.15027 0.09227
# Poissons Ratio (z) = 0.25716 0.14889
#
# Static dielectric constant tensor:
#      x y z
#    x 3.519640 0.000000 0.000000 
#    y 0.000000 4.571520 0.000000 
#    z 0.000000 0.000000 3.691430 
# 
# 
# High freq. dielectric constant tensor:
#      x y z
#    x 1.781440 0.000000 0.000000 
#    y 0.000000 1.846210 0.000000 
#    z 0.000000 0.000000 1.788520 
# 
# From -- ./inp_files/22250.got.cif
#   From: 2010.03.12/outbox.cif.g09.slc.cpg/sg24_12_cif.got.tgz:22250.got - 2010.04.14 03:06:53.
