data_PCOD8165096
_publ_section_title
;
Structure prediction by ZEFSAII (Michael W. Deem and Ramdas Pophale) SiO2 
 PCOD8165096
Probable space group: I 21 21 21
;
_chemical_formula_sum "Si O2"
_cell_formula_units_Z 32
_cell_length_a 9.488455
_cell_length_b 11.721409
_cell_length_c 16.962537
_cell_angle_alpha 90.000000
_cell_angle_beta 90.000000
_cell_angle_gamma 90.000000
_cell_volume 1886.540489
_symmetry_space_group_name_H-M "I 21 21 21"
_symmetry_group_IT_number 24
_symmetry_cell_setting 'orthorhombic'
loop_
_space_group_symop_operation_xyz
x,y,z
-x,1/2-y,z
x,-y,1/2-z
1/2-x,y,-z
1/2+x,1/2+y,1/2+z
1/2-x,-y,1/2+z
1/2+x,1/2-y,-z
-x,1/2+y,1/2-z
loop_
_atom_site_type_symbol
_atom_site_label
_atom_site_fract_x
_atom_site_fract_y
_atom_site_fract_z
Si Si1 0.652105 0.695758 0.433703
Si Si2 0.595143 0.000000 0.750000
Si Si3 0.834355 0.238511 0.211295
Si Si4 0.250000 0.022061 0.500000
Si Si5 0.593017 0.644162 0.860978
O O1 0.500000 0.750000 0.430084
O O2 0.750000 0.757646 0.500000
O O3 0.730047 0.706890 0.350908
O O4 0.637258 0.561226 0.455903
O O5 0.695406 0.103299 0.778902
O O6 0.499398 0.041884 0.676473
O O7 0.804628 0.306873 0.292327
O O8 0.000000 0.250000 0.187852
O O9 0.177763 0.101303 0.435799
O O10 0.500000 0.750000 0.891357
#
# Coordination Sequence:
#
# PCOD8165096 Si02
#       5
#     8   4   8   4   8
#     4  10  22  34  54  83 110 139 176 226 274 323
#     4   8  16  30  58  74  96 140 184 228 258 320
#     4   9  17  34  56  79 103 140 188 223 263 324
#     4  10  20  34  54  80 114 140 180 222 272 314
#     4   9  18  32  54  78 104 146 185 217 266 324
#
# _framework density 16.962264000000001
#
# number of rings (size 3 to 8) (size 9 to 14) (size 15 to 20)
#    0.750    2.500    0.000    3.750    3.500    0.000 
#    0.000    8.750    0.000    0.000    0.000    0.000 
#    0.000    0.000    0.000    0.000    0.000    0.000 
#
# Total GULP energy -198217.817650 kJ/mol
# GULP energy per Si atom -12388.613603 kJ/mol
# Density = 1.692366 g / cm^3
# Si number density = 16.962264 Si / 1000 Ang^3
#
#
#
# Elastic Constant Matrix: (Units=GPa)
#
#
# Indices 1 2 3 4 5 6 
#
# 1 86.7180 37.1506 69.0159 0.0000 0.0000 0.0000
# 2 37.1506 114.1095 72.0883 0.0000 0.0000 0.0000
# 3 69.0159 72.0883 146.4667 0.0000 0.0000 0.0000
# 4 0.0000 0.0000 0.0000 23.3500 0.0000 0.0000
# 5 0.0000 0.0000 0.0000 0.0000 19.6654 0.0000
# 6 0.0000 0.0000 0.0000 0.0000 0.0000 20.6797
#
#
#
# Elastic Compliance Matrix: (Units=1/GPa)
#
#
# Indices 1 2 3 4 5 6 
#
# 1 0.018495 -0.000749 -0.008347 0.000000 0.000000 0.000000
# 2 -0.000749 0.012748 -0.005922 0.000000 0.000000 0.000000
# 3 -0.008347 -0.005922 0.013675 0.000000 0.000000 0.000000
# 4 0.000000 0.000000 0.000000 0.042827 0.000000 0.000000
# 5 0.000000 0.000000 0.000000 0.000000 0.050851 0.000000
# 6 0.000000 0.000000 0.000000 0.000000 0.000000 0.048357
#
#
# Mechanical properties :
#
#
# Convention : Reuss Voigt Hill
#
# Bulk Modulus (GPa) = 67.18330 78.20040 72.69185
# Shear Modulus (GPa) = 22.52786 24.00832 23.26809
#
# Velocity S-wave (km/s) = 3.64829 3.76626 3.70774
# Velocity P-wave (km/s) = 7.57893 8.06942 7.82802
#
# Compressibility (1/GPa) = 0.01488465
#
# Stress axis : x y z
#
# Youngs Moduli (GPa) = 54.06858 78.44210 73.12607
#
# Poissons Ratio (x) = 0.05872 0.61035
# Poissons Ratio (y) = 0.04047 0.43303
# Poissons Ratio (z) = 0.45129 0.46452
#
# Static dielectric constant tensor:
#      x y z
#    x 2.800720 0.000000 0.000000 
#    y 0.000000 3.391290 0.000000 
#    z 0.000000 0.000000 3.165230 
# 
# 
# High freq. dielectric constant tensor:
#      x y z
#    x 1.607300 0.000000 0.000000 
#    y 0.000000 1.667170 0.000000 
#    z 0.000000 0.000000 1.657630 
# 
# From -- ./inp_files/21984.got.cif
#   From: 2010.03.12/outbox.cif.g09.slc.cpg/sg24_11_cif.got.tgz:21984.got - 2010.04.14 03:06:53.
