data_PCOD8165478
_publ_section_title
;
Structure prediction by ZEFSAII (Michael W. Deem and Ramdas Pophale) SiO2 
 PCOD8165478
Probable space group: I 21 21 21
;
_chemical_formula_sum "Si O2"
_cell_formula_units_Z 60
_cell_length_a 27.601584
_cell_length_b 20.055945
_cell_length_c 5.184970
_cell_angle_alpha 90.000000
_cell_angle_beta 90.000000
_cell_angle_gamma 90.000000
_cell_volume 2870.274178
_symmetry_space_group_name_H-M "I 21 21 21"
_symmetry_group_IT_number 24
_symmetry_cell_setting 'orthorhombic'
loop_
_space_group_symop_operation_xyz
x,y,z
-x,1/2-y,z
x,-y,1/2-z
1/2-x,y,-z
1/2+x,1/2+y,1/2+z
1/2-x,-y,1/2+z
1/2+x,1/2-y,-z
-x,1/2+y,1/2-z
loop_
_atom_site_type_symbol
_atom_site_label
_atom_site_fract_x
_atom_site_fract_y
_atom_site_fract_z
Si Si1 0.468696 0.609090 0.588844
Si Si2 0.102594 0.146242 0.817686
Si Si3 0.194860 0.704540 0.002091
Si Si4 0.064509 0.500000 0.750000
Si Si5 0.194204 0.789227 0.505730
Si Si6 0.389882 0.612171 0.943245
Si Si7 0.047347 0.721017 0.778715
Si Si8 0.062544 0.923563 0.188890
O O1 0.474469 0.547301 0.393148
O O2 0.411219 0.602991 0.657205
O O3 0.476153 0.682114 0.466463
O O4 0.504744 0.593563 0.833767
O O5 0.159186 0.149170 0.911051
O O6 0.085390 0.221967 0.792623
O O7 0.093609 0.104124 0.553286
O O8 0.073095 0.113557 0.045043
O O9 0.181936 0.759481 0.222286
O O10 0.165217 0.636670 0.051651
O O11 0.250000 0.681689 0.000000
O O12 0.184469 0.732720 0.718829
O O13 0.102759 0.457185 0.585706
O O14 0.250000 0.814518 0.500000
O O15 0.424742 0.670410 0.043730
O O16 0.000000 0.750000 0.926906
O O17 0.074930 0.000000 0.250000
#
# Coordination Sequence:
#
# PCOD8165478 Si02
#       8
#     8   8   8   4   8   8   8   8
#     4  11  24  39  62  87 129 182 225 266 319 391
#     4  12  24  42  65  98 130 166 214 272 323 382
#     4  10  21  38  66  95 128 165 209 270 335 392
#     4  10  24  40  58  84 120 182 236 258 312 386
#     4  10  21  41  66  99 129 162 206 263 338 399
#     4  11  22  38  61  85 128 166 221 266 322 387
#     4  11  22  36  59  96 129 163 206 274 326 374
#     4  12  27  43  65  89 136 179 220 255 317 398
#
# _framework density 20.903924
#
# number of rings (size 3 to 8) (size 9 to 14) (size 15 to 20)
#    0.000    1.067    2.667    4.000    7.467    0.533 
#    0.000    0.000    2.933    1.600    0.000    0.000 
#    0.000    0.000    0.000    0.000    0.000    0.000 
#
# Total GULP energy -371732.877748 kJ/mol
# GULP energy per Si atom -12391.095925 kJ/mol
# Density = 2.085635 g / cm^3
# Si number density = 20.903924 Si / 1000 Ang^3
#
#
#
# Elastic Constant Matrix: (Units=GPa)
#
#
# Indices 1 2 3 4 5 6 
#
# 1 107.7003 38.0016 17.3075 0.0000 0.0000 0.0000
# 2 38.0016 104.3894 26.0643 0.0000 0.0000 0.0000
# 3 17.3075 26.0643 88.3238 0.0000 0.0000 0.0000
# 4 0.0000 0.0000 0.0000 15.1854 0.0000 0.0000
# 5 0.0000 0.0000 0.0000 0.0000 26.7696 0.0000
# 6 0.0000 0.0000 0.0000 0.0000 0.0000 14.6827
#
#
#
# Elastic Compliance Matrix: (Units=1/GPa)
#
#
# Indices 1 2 3 4 5 6 
#
# 1 0.010739 -0.003653 -0.001026 0.000000 0.000000 0.000000
# 2 -0.003653 0.011584 -0.002703 0.000000 0.000000 0.000000
# 3 -0.001026 -0.002703 0.012321 0.000000 0.000000 0.000000
# 4 0.000000 0.000000 0.000000 0.065853 0.000000 0.000000
# 5 0.000000 0.000000 0.000000 0.000000 0.037356 0.000000
# 6 0.000000 0.000000 0.000000 0.000000 0.000000 0.068107
#
#
# Mechanical properties :
#
#
# Convention : Reuss Voigt Hill
#
# Bulk Modulus (GPa) = 50.30278 51.46225 50.88251
# Shear Modulus (GPa) = 21.99247 25.93021 23.96134
#
# Velocity S-wave (km/s) = 3.24709 3.52582 3.38932
# Velocity P-wave (km/s) = 6.17852 6.42239 6.30164
#
# Compressibility (1/GPa) = 0.01987962
#
# Stress axis : x y z
#
# Youngs Moduli (GPa) = 93.11909 86.32453 81.16464
#
# Poissons Ratio (x) = 0.31535 0.08330
# Poissons Ratio (y) = 0.34017 0.21936
# Poissons Ratio (z) = 0.09557 0.23330
#
# Static dielectric constant tensor:
#      x y z
#    x 4.071390 0.000000 0.000000 
#    y 0.000000 4.256740 0.000000 
#    z 0.000000 0.000000 3.995520 
# 
# 
# High freq. dielectric constant tensor:
#      x y z
#    x 1.811410 0.000000 0.000000 
#    y 0.000000 1.809970 0.000000 
#    z 0.000000 0.000000 1.829210 
# 
# From -- ./inp_files/7295.got.cif
#   From: 2010.03.12/outbox.cif.g09.slc.cpg/sg24_4_cif.got.tgz:7295.got - 2010.04.14 03:06:53.
