data_PCOD8165086
_publ_section_title
;
Structure prediction by ZEFSAII (Michael W. Deem and Ramdas Pophale) SiO2 
 PCOD8165086
Probable space group: I 21 21 21
;
_chemical_formula_sum "Si O2"
_cell_formula_units_Z 28
_cell_length_a 5.136313
_cell_length_b 27.301282
_cell_length_c 8.887078
_cell_angle_alpha 90.000000
_cell_angle_beta 90.000000
_cell_angle_gamma 90.000000
_cell_volume 1246.216549
_symmetry_space_group_name_H-M "I 21 21 21"
_symmetry_group_IT_number 24
_symmetry_cell_setting 'orthorhombic'
loop_
_space_group_symop_operation_xyz
x,y,z
-x,1/2-y,z
x,-y,1/2-z
1/2-x,y,-z
1/2+x,1/2+y,1/2+z
1/2-x,-y,1/2+z
1/2+x,1/2-y,-z
-x,1/2+y,1/2-z
loop_
_atom_site_type_symbol
_atom_site_label
_atom_site_fract_x
_atom_site_fract_y
_atom_site_fract_z
Si Si1 0.988580 0.805745 0.723412
Si Si2 0.750000 0.657960 0.000000
Si Si3 0.002274 0.472453 0.093767
Si Si4 0.968302 0.635562 0.297132
O O1 0.710694 0.828206 0.681192
O O2 0.000000 0.750000 0.668062
O O3 0.050868 0.808222 0.903157
O O4 0.210745 0.837423 0.636789
O O5 0.582339 0.624941 0.882305
O O6 0.994915 0.500000 0.250000
O O7 0.020527 0.414476 0.117730
O O8 0.750000 0.487121 0.000000
O O9 0.250000 0.490447 0.000000
#
# Coordination Sequence:
#
# PCOD8165086 Si02
#       4
#     8   4   8   8
#     4  10  20  33  59  98 138 181 232 284 332 393
#     4   8  22  28  62  92 138 178 226 288 322 404
#     4  12  28  50  78 104 140 182 234 295 357 431
#     4  10  22  37  61  96 135 175 224 287 343 397
#
# _framework density 22.468008000000001
#
# number of rings (size 3 to 8) (size 9 to 14) (size 15 to 20)
#    1.714    0.000    0.000    4.286    6.000    2.286 
#    0.000    0.000    0.000   17.143    0.000    0.000 
#    0.000    0.000    0.000    0.000    0.000    0.000 
#
# Total GULP energy -173507.728326 kJ/mol
# GULP energy per Si atom -12393.409166 kJ/mol
# Density = 2.241687 g / cm^3
# Si number density = 22.468008 Si / 1000 Ang^3
#
#
#
# Elastic Constant Matrix: (Units=GPa)
#
#
# Indices 1 2 3 4 5 6 
#
# 1 188.2741 40.8797 37.4506 0.0003 0.0000 -0.0002
# 2 40.8797 76.4831 36.2718 0.0011 -0.0001 -0.0005
# 3 37.4506 36.2718 92.0250 0.0011 -0.0001 -0.0004
# 4 0.0003 0.0011 0.0011 32.1383 -0.0002 -0.0007
# 5 0.0000 -0.0001 -0.0001 -0.0002 16.5825 0.0001
# 6 -0.0002 -0.0005 -0.0004 -0.0007 0.0001 150.3742
#
#
#
# Elastic Compliance Matrix: (Units=1/GPa)
#
#
# Indices 1 2 3 4 5 6 
#
# 1 0.006170 -0.002592 -0.001490 0.000000 0.000000 0.000000
# 2 -0.002592 0.017169 -0.005713 0.000000 0.000000 0.000000
# 3 -0.001490 -0.005713 0.013724 0.000000 0.000000 0.000000
# 4 0.000000 0.000000 0.000000 0.031115 0.000000 0.000000
# 5 0.000000 0.000000 0.000000 0.000000 0.060304 0.000000
# 6 0.000000 0.000000 0.000000 0.000000 0.000000 0.006650
#
#
# Mechanical properties :
#
#
# Convention : Reuss Voigt Hill
#
# Bulk Modulus (GPa) = 57.21996 65.10959 61.16477
# Shear Modulus (GPa) = 31.14353 55.96436 43.55394
#
# Velocity S-wave (km/s) = 3.72711 4.99625 4.40760
# Velocity P-wave (km/s) = 6.63660 7.89462 7.29279
#
# Compressibility (1/GPa) = 0.01747642
#
# Stress axis : x y z
#
# Youngs Moduli (GPa) = 162.06339 58.24413 72.86268
#
# Poissons Ratio (x) = 0.15094 0.10854
# Poissons Ratio (y) = 0.42000 0.41623
# Poissons Ratio (z) = 0.24142 0.33272
#
# Static dielectric constant tensor:
#      x y z
#    x 4.037310 0.000000 0.000000 
#    y 0.000000 3.666320 0.000000 
#    z 0.000000 0.000000 4.031810 
# 
# 
# High freq. dielectric constant tensor:
#      x y z
#    x 1.896520 0.000000 0.000000 
#    y 0.000000 1.862780 0.000000 
#    z 0.000000 0.000000 1.894270 
# 
# From -- ./inp_files/8213.got.cif
#   From: 2010.03.12/outbox.cif.g09.slc.cpg/sg24_5_cif.got.tgz:8213.got - 2010.04.14 03:06:53.
