data_PCOD8165804
_publ_section_title
;
Structure prediction by ZEFSAII (Michael W. Deem and Ramdas Pophale) SiO2 
 PCOD8165804
Probable space group: I 21 21 21
;
_chemical_formula_sum "Si O2"
_cell_formula_units_Z 56
_cell_length_a 14.263293
_cell_length_b 13.782798
_cell_length_c 12.827148
_cell_angle_alpha 90.000000
_cell_angle_beta 90.000000
_cell_angle_gamma 90.000000
_cell_volume 2521.664477
_symmetry_space_group_name_H-M "I 21 21 21"
_symmetry_group_IT_number 24
_symmetry_cell_setting 'orthorhombic'
loop_
_space_group_symop_operation_xyz
x,y,z
-x,1/2-y,z
x,-y,1/2-z
1/2-x,y,-z
1/2+x,1/2+y,1/2+z
1/2-x,-y,1/2+z
1/2+x,1/2-y,-z
-x,1/2+y,1/2-z
loop_
_atom_site_type_symbol
_atom_site_label
_atom_site_fract_x
_atom_site_fract_y
_atom_site_fract_z
Si Si1 0.401409 0.937358 0.540746
Si Si2 0.394089 0.631187 0.550686
Si Si3 0.901387 0.163887 0.552281
Si Si4 0.089774 0.844870 0.061230
Si Si5 0.639841 0.290825 0.793143
Si Si6 0.158697 0.210812 0.881905
Si Si7 0.250000 0.516664 0.000000
Si Si8 0.000000 0.250000 0.733804
O O1 0.511310 0.922155 0.513060
O O2 0.387761 0.892183 0.654624
O O3 0.335752 0.883817 0.455788
O O4 0.367719 0.048337 0.546232
O O5 0.412650 0.698708 0.652131
O O6 0.356722 0.695917 0.454962
O O7 0.314861 0.549763 0.575018
O O8 0.862767 0.272288 0.523850
O O9 0.819264 0.085777 0.565348
O O10 0.951597 0.166560 0.664157
O O11 0.977470 0.144241 0.459873
O O12 0.110950 0.798157 0.173614
O O13 0.750214 0.273676 0.811339
O O14 0.073513 0.193447 0.804352
#
# Coordination Sequence:
#
# PCOD8165804 Si02
#       8
#     8   8   8   8   8   8   4   4
#     4  11  21  41  68  99 141 179 219 286 353 409
#     4  11  21  40  72 107 139 166 224 301 353 392
#     4  10  26  45  62  91 138 184 223 281 342 415
#     4  10  23  45  62  91 139 186 217 269 348 416
#     4  11  23  39  67 106 135 174 233 279 341 422
#     4  11  21  42  70 102 133 173 232 292 341 407
#     4  12  22  48  72 100 130 178 230 284 354 402
#     4  10  22  46  66  92 138 178 224 284 352 390
#
# _framework density 22.207553000000001
#
# number of rings (size 3 to 8) (size 9 to 14) (size 15 to 20)
#    0.000    1.429    4.286    3.000    6.000    0.000 
#    2.571   11.429    0.000    0.000    0.000    0.000 
#    0.000    0.000    0.000    0.000    0.000    0.000 
#
# Total GULP energy -347074.051295 kJ/mol
# GULP energy per Si atom -12395.501832 kJ/mol
# Density = 2.215701 g / cm^3
# Si number density = 22.207553 Si / 1000 Ang^3
#
#
#
# Elastic Constant Matrix: (Units=GPa)
#
#
# Indices 1 2 3 4 5 6 
#
# 1 76.3759 21.1523 33.8211 0.0000 0.0000 0.0000
# 2 21.1523 138.1653 34.2803 0.0000 0.0000 0.0000
# 3 33.8211 34.2803 107.2996 0.0000 0.0000 0.0000
# 4 0.0000 0.0000 0.0000 10.0168 0.0000 0.0000
# 5 0.0000 0.0000 0.0000 0.0000 24.0000 0.0000
# 6 0.0000 0.0000 0.0000 0.0000 0.0000 46.2448
#
#
#
# Elastic Compliance Matrix: (Units=1/GPa)
#
#
# Indices 1 2 3 4 5 6 
#
# 1 0.015415 -0.001254 -0.004458 0.000000 0.000000 0.000000
# 2 -0.001254 0.007963 -0.002149 0.000000 0.000000 0.000000
# 3 -0.004458 -0.002149 0.011411 0.000000 0.000000 0.000000
# 4 0.000000 0.000000 0.000000 0.099832 0.000000 0.000000
# 5 0.000000 0.000000 0.000000 0.000000 0.041667 0.000000
# 6 0.000000 0.000000 0.000000 0.000000 0.000000 0.021624
#
#
# Mechanical properties :
#
#
# Convention : Reuss Voigt Hill
#
# Bulk Modulus (GPa) = 52.44563 55.59424 54.01993
# Shear Modulus (GPa) = 22.72846 31.55815 27.14330
#
# Velocity S-wave (km/s) = 3.20262 3.77378 3.49987
# Velocity P-wave (km/s) = 6.11090 6.63904 6.38044
#
# Compressibility (1/GPa) = 0.01906737
#
# Stress axis : x y z
#
# Youngs Moduli (GPa) = 64.87384 125.58419 87.63163
#
# Poissons Ratio (x) = 0.15745 0.39067
# Poissons Ratio (y) = 0.08134 0.18830
# Poissons Ratio (z) = 0.28922 0.26985
#
# Static dielectric constant tensor:
#      x y z
#    x 4.123030 0.000000 0.000000 
#    y 0.000000 4.172270 0.000000 
#    z 0.000000 0.000000 3.770250 
# 
# 
# High freq. dielectric constant tensor:
#      x y z
#    x 1.885860 0.000000 0.000000 
#    y 0.000000 1.872410 0.000000 
#    z 0.000000 0.000000 1.849120 
# 
# From -- ./inp_files/20885.got.cif
#   From: 2010.03.12/outbox.cif.g09.slc.cpg/sg24_11_cif.got.tgz:20885.got - 2010.04.14 03:06:53.
