data_PCOD8165813
_publ_section_title
;
Structure prediction by ZEFSAII (Michael W. Deem and Ramdas Pophale) SiO2 
 PCOD8165813
Probable space group: I 21 21 21
;
_chemical_formula_sum "Si O2"
_cell_formula_units_Z 64
_cell_length_a 8.641989
_cell_length_b 31.153454
_cell_length_c 11.854954
_cell_angle_alpha 90.000000
_cell_angle_beta 90.000000
_cell_angle_gamma 90.000000
_cell_volume 3191.683265
_symmetry_space_group_name_H-M "I 21 21 21"
_symmetry_group_IT_number 24
_symmetry_cell_setting 'orthorhombic'
loop_
_space_group_symop_operation_xyz
x,y,z
-x,1/2-y,z
x,-y,1/2-z
1/2-x,y,-z
1/2+x,1/2+y,1/2+z
1/2-x,-y,1/2+z
1/2+x,1/2-y,-z
-x,1/2+y,1/2-z
loop_
_atom_site_type_symbol
_atom_site_label
_atom_site_fract_x
_atom_site_fract_y
_atom_site_fract_z
Si Si1 0.874439 0.966137 0.169849
Si Si2 0.452867 0.384354 0.780564
Si Si3 0.429986 0.012112 0.018415
Si Si4 0.902287 0.140255 0.761867
Si Si5 0.587670 0.205601 0.433003
Si Si6 0.568701 0.389910 0.022400
Si Si7 0.583571 0.631837 0.945770
Si Si8 0.436067 0.567480 0.098614
O O1 0.969214 0.934814 0.253443
O O2 0.747026 0.940713 0.097989
O O3 0.985750 0.993986 0.091391
O O4 0.786025 0.000000 0.250000
O O5 0.277062 0.369379 0.773980
O O6 0.570553 0.362214 0.689909
O O7 0.498756 0.372933 0.906430
O O8 0.250000 0.012260 0.000000
O O9 0.472927 0.977664 0.116750
O O10 0.482738 0.060730 0.048406
O O11 0.904173 0.184967 0.692641
O O12 0.986140 0.101930 0.692603
O O13 0.998567 0.141044 0.879518
O O14 0.500000 0.250000 0.418634
O O15 0.750000 0.210735 0.500000
O O16 0.480216 0.175858 0.507459
O O17 0.750000 0.385209 0.000000
O O18 0.750000 0.623046 0.000000
O O19 0.478910 0.589905 0.977633
#
# Coordination Sequence:
#
# PCOD8165813 Si02
#       8
#     8   8   8   8   8   8   8   8
#     4  11  22  36  54  85 117 171 226 280 322 378
#     4  11  22  39  64  88 128 176 220 272 323 387
#     4  11  23  37  53  83 124 169 225 285 330 375
#     4  10  24  42  64  94 128 171 216 266 323 402
#     4  11  23  45  74 110 139 158 196 254 328 402
#     4  11  26  41  58  87 130 181 232 272 320 380
#     4  11  23  40  67 101 130 164 205 268 335 387
#     4  10  23  35  59  86 122 164 222 274 337 375
#
# _framework density 20.052115000000001
#
# number of rings (size 3 to 8) (size 9 to 14) (size 15 to 20)
#    0.000    1.250    3.750    1.500    8.750    1.000 
#    0.000    0.000    0.000    2.250    0.000    0.000 
#    0.000    0.000    0.000    0.000    0.000    0.000 
#
# Total GULP energy -396473.845996 kJ/mol
# GULP energy per Si atom -12389.807687 kJ/mol
# Density = 2.000648 g / cm^3
# Si number density = 20.052115 Si / 1000 Ang^3
#
#
#
# Elastic Constant Matrix: (Units=GPa)
#
#
# Indices 1 2 3 4 5 6 
#
# 1 100.4587 51.7817 52.1652 0.0012 -0.0003 -0.0003
# 2 51.7817 105.6949 47.5395 -0.0017 -0.0001 -0.0002
# 3 52.1652 47.5395 142.8361 0.0016 0.0002 -0.0004
# 4 0.0012 -0.0017 0.0016 14.7367 -0.0001 -0.0007
# 5 -0.0003 -0.0001 0.0002 -0.0001 33.7363 0.0001
# 6 -0.0003 -0.0002 -0.0004 -0.0007 0.0001 24.2643
#
#
#
# Elastic Compliance Matrix: (Units=1/GPa)
#
#
# Indices 1 2 3 4 5 6 
#
# 1 0.014657 -0.005614 -0.003485 -0.000001 0.000000 0.000000
# 2 -0.005614 0.013277 -0.002369 0.000002 0.000000 0.000000
# 3 -0.003485 -0.002369 0.009062 -0.000001 0.000000 0.000000
# 4 -0.000001 0.000002 -0.000001 0.067858 0.000000 0.000002
# 5 0.000000 0.000000 0.000000 0.000000 0.029642 0.000000
# 6 0.000000 0.000000 0.000000 0.000002 0.000000 0.041213
#
#
# Mechanical properties :
#
#
# Convention : Reuss Voigt Hill
#
# Bulk Modulus (GPa) = 71.11231 72.44028 71.77630
# Shear Modulus (GPa) = 24.59061 27.71436 26.15248
#
# Velocity S-wave (km/s) = 3.50571 3.72172 3.61532
# Velocity P-wave (km/s) = 7.20606 7.39410 7.30069
#
# Compressibility (1/GPa) = 0.01406226
#
# Stress axis : x y z
#
# Youngs Moduli (GPa) = 68.22518 75.31956 110.35045
#
# Poissons Ratio (x) = 0.42281 0.38454
# Poissons Ratio (y) = 0.38298 0.26139
# Poissons Ratio (z) = 0.23774 0.17841
#
# Static dielectric constant tensor:
#      x y z
#    x 3.694770 0.000000 0.000000 
#    y 0.000000 3.594410 0.000000 
#    z 0.000000 0.000000 3.957940 
# 
# 
# High freq. dielectric constant tensor:
#      x y z
#    x 1.787170 0.000000 0.000000 
#    y 0.000000 1.754970 0.000000 
#    z 0.000000 0.000000 1.789150 
# 
# From -- ./inp_files/18905.got.cif
#   From: 2010.03.12/outbox.cif.g09.slc.cpg/sg24_10_cif.got.tgz:18905.got - 2010.04.14 03:06:53.
