data_PCOD8165638
_publ_section_title
;
Structure prediction by ZEFSAII (Michael W. Deem and Ramdas Pophale) SiO2 
 PCOD8165638
Probable space group: I 21 21 21
;
_chemical_formula_sum "Si O2"
_cell_formula_units_Z 64
_cell_length_a 12.215225
_cell_length_b 13.606303
_cell_length_c 18.662299
_cell_angle_alpha 90.000000
_cell_angle_beta 90.000000
_cell_angle_gamma 90.000000
_cell_volume 3101.749724
_symmetry_space_group_name_H-M "I 21 21 21"
_symmetry_group_IT_number 24
_symmetry_cell_setting 'orthorhombic'
loop_
_space_group_symop_operation_xyz
x,y,z
-x,1/2-y,z
x,-y,1/2-z
1/2-x,y,-z
1/2+x,1/2+y,1/2+z
1/2-x,-y,1/2+z
1/2+x,1/2-y,-z
-x,1/2+y,1/2-z
loop_
_atom_site_type_symbol
_atom_site_label
_atom_site_fract_x
_atom_site_fract_y
_atom_site_fract_z
Si Si1 0.487658 0.980909 0.582798
Si Si2 0.218785 0.811699 0.202619
Si Si3 0.383325 0.752108 0.322123
Si Si4 0.659513 0.903335 0.839940
Si Si5 0.255386 0.069448 0.575696
Si Si6 0.990519 0.634469 0.274016
Si Si7 0.878676 0.028081 0.828330
Si Si8 0.064810 0.922605 0.571375
O O1 0.490218 0.901027 0.645119
O O2 0.489308 0.920087 0.507955
O O3 0.589972 0.057275 0.591618
O O4 0.380530 0.045525 0.590797
O O5 0.292732 0.799532 0.272412
O O6 0.179965 0.713343 0.161459
O O7 0.288971 0.867147 0.141989
O O8 0.120756 0.883101 0.229159
O O9 0.500000 0.750000 0.280098
O O10 0.341843 0.641894 0.338721
O O11 0.409471 0.815141 0.394648
O O12 0.588813 0.921498 0.767359
O O13 0.774700 0.959344 0.842454
O O14 0.250000 0.128312 0.500000
O O15 0.182537 0.972696 0.567344
O O16 0.000000 0.750000 0.277747
O O17 0.980779 0.011769 0.881417
O O18 0.923311 0.000000 0.750000
#
# Coordination Sequence:
#
# PCOD8165638 Si02
#       8
#     8   8   8   8   8   8   8   8
#     4  11  22  42  64  92 134 175 215 276 338 407
#     4  11  22  39  65  98 127 170 223 279 332 402
#     4  10  23  40  66  97 130 172 224 282 338 405
#     4  11  23  40  66  97 132 169 225 279 340 404
#     4  10  23  42  63  92 126 173 216 271 335 394
#     4  10  22  35  63  97 126 167 215 273 331 391
#     4  11  22  42  66  93 132 173 216 286 334 405
#     4  10  25  42  65  93 134 175 225 268 343 419
#
# _framework density 20.633516
#
# number of rings (size 3 to 8) (size 9 to 14) (size 15 to 20)
#    0.000    1.500    2.500    1.875    5.250    3.000 
#    2.250    0.000   13.750    0.000    0.000    0.000 
#    0.000    0.000    0.000    0.000    0.000    0.000 
#
# Total GULP energy -396459.934831 kJ/mol
# GULP energy per Si atom -12389.372963 kJ/mol
# Density = 2.058655 g / cm^3
# Si number density = 20.633516 Si / 1000 Ang^3
#
#
#
# Elastic Constant Matrix: (Units=GPa)
#
#
# Indices 1 2 3 4 5 6 
#
# 1 82.7100 11.6549 25.7173 0.0000 0.0000 0.0000
# 2 11.6549 67.4946 40.6665 0.0000 0.0000 0.0000
# 3 25.7173 40.6665 139.7218 0.0000 0.0000 0.0000
# 4 0.0000 0.0000 0.0000 35.4962 0.0000 0.0000
# 5 0.0000 0.0000 0.0000 0.0000 31.2190 0.0000
# 6 0.0000 0.0000 0.0000 0.0000 0.0000 26.3426
#
#
#
# Elastic Compliance Matrix: (Units=1/GPa)
#
#
# Indices 1 2 3 4 5 6 
#
# 1 0.012876 -0.000965 -0.002089 0.000000 0.000000 0.000000
# 2 -0.000965 0.018039 -0.005073 0.000000 0.000000 0.000000
# 3 -0.002089 -0.005073 0.009018 0.000000 0.000000 0.000000
# 4 0.000000 0.000000 0.000000 0.028172 0.000000 0.000000
# 5 0.000000 0.000000 0.000000 0.000000 0.032032 0.000000
# 6 0.000000 0.000000 0.000000 0.000000 0.000000 0.037961
#
#
# Mechanical properties :
#
#
# Convention : Reuss Voigt Hill
#
# Bulk Modulus (GPa) = 42.23003 49.55598 45.89301
# Shear Modulus (GPa) = 30.81768 32.73742 31.77755
#
# Velocity S-wave (km/s) = 3.86887 3.98755 3.92866
# Velocity P-wave (km/s) = 6.36150 6.72831 6.54747
#
# Compressibility (1/GPa) = 0.02367983
#
# Stress axis : x y z
#
# Youngs Moduli (GPa) = 77.66403 55.43545 110.88856
#
# Poissons Ratio (x) = 0.05348 0.23167
# Poissons Ratio (y) = 0.07492 0.56251
# Poissons Ratio (z) = 0.16226 0.28121
#
# Static dielectric constant tensor:
#      x y z
#    x 2.413850 0.000000 0.000000 
#    y 0.000000 4.038660 0.000000 
#    z 0.000000 0.000000 3.986480 
# 
# 
# High freq. dielectric constant tensor:
#      x y z
#    x 1.816040 0.000000 0.000000 
#    y 0.000000 1.805360 0.000000 
#    z 0.000000 0.000000 1.802300 
# 
# From -- ./inp_files/30367.got.cif
#   From: 2010.03.12/outbox.cif.g09.slc.cpg/sg24_16_cif.got.tgz:30367.got - 2010.04.14 03:06:53.
