data_PCOD8165361
_publ_section_title
;
Structure prediction by ZEFSAII (Michael W. Deem and Ramdas Pophale) SiO2 
 PCOD8165361
Probable space group: I 21 21 21
;
_chemical_formula_sum "Si O2"
_cell_formula_units_Z 56
_cell_length_a 12.026219
_cell_length_b 11.057411
_cell_length_c 20.705733
_cell_angle_alpha 90.000000
_cell_angle_beta 90.000000
_cell_angle_gamma 90.000000
_cell_volume 2753.424485
_symmetry_space_group_name_H-M "I 21 21 21"
_symmetry_group_IT_number 24
_symmetry_cell_setting 'orthorhombic'
loop_
_space_group_symop_operation_xyz
x,y,z
-x,1/2-y,z
x,-y,1/2-z
1/2-x,y,-z
1/2+x,1/2+y,1/2+z
1/2-x,-y,1/2+z
1/2+x,1/2-y,-z
-x,1/2+y,1/2-z
loop_
_atom_site_type_symbol
_atom_site_label
_atom_site_fract_x
_atom_site_fract_y
_atom_site_fract_z
Si Si1 0.401957 0.621761 0.318060
Si Si2 0.335676 0.360376 0.325149
Si Si3 0.617128 0.276320 0.683403
Si Si4 0.369113 0.867746 0.375270
Si Si5 0.624443 0.537866 0.636798
Si Si6 0.000000 0.250000 0.195100
Si Si7 0.876546 0.465235 0.505609
Si Si8 0.500000 0.750000 0.073327
O O1 0.324576 0.505459 0.329249
O O2 0.381479 0.675604 0.246059
O O3 0.372260 0.721279 0.372646
O O4 0.533011 0.585156 0.326658
O O5 0.219519 0.298038 0.344837
O O6 0.414361 0.316458 0.381119
O O7 0.500000 0.250000 0.646020
O O8 0.632508 0.420488 0.682146
O O9 0.606957 0.230829 0.757948
O O10 0.246352 0.905861 0.354254
O O11 0.392234 0.920058 0.446680
O O12 0.525410 0.630203 0.654443
O O13 0.586293 0.504660 0.565019
O O14 0.750000 0.422499 0.500000
O O15 0.945171 0.349830 0.528012
#
# Coordination Sequence:
#
# PCOD8165361 Si02
#       8
#     8   8   8   8   8   4   8   4
#     4  10  22  36  65 100 139 169 210 284 332 398
#     4  11  22  40  63 104 132 171 215 276 335 397
#     4  10  25  42  65  96 134 172 215 277 331 400
#     4  10  20  42  60  96 133 172 221 267 342 386
#     4  11  23  44  67  91 127 183 223 276 325 409
#     4  10  24  41  64  99 118 180 220 268 336 396
#     4  10  23  41  68  92 131 176 224 275 324 403
#     4  12  22  41  70  97 128 172 224 274 342 382
#
# _framework density 20.338308000000001
#
# number of rings (size 3 to 8) (size 9 to 14) (size 15 to 20)
#    0.429    1.143    1.429    3.857    1.000    4.571 
#    2.571    0.000    0.000    0.000    0.000    0.000 
#    0.000    0.000    0.000    0.000    0.000    0.000 
#
# Total GULP energy -346947.358768 kJ/mol
# GULP energy per Si atom -12390.977099 kJ/mol
# Density = 2.029202 g / cm^3
# Si number density = 20.338308 Si / 1000 Ang^3
#
#
#
# Elastic Constant Matrix: (Units=GPa)
#
#
# Indices 1 2 3 4 5 6 
#
# 1 104.8681 69.6299 52.8846 0.0000 0.0000 0.0000
# 2 69.6299 172.5985 59.5705 0.0000 0.0000 0.0000
# 3 52.8846 59.5705 91.8549 0.0000 0.0000 0.0000
# 4 0.0000 0.0000 0.0000 22.7808 0.0000 0.0000
# 5 0.0000 0.0000 0.0000 0.0000 15.4709 0.0000
# 6 0.0000 0.0000 0.0000 0.0000 0.0000 37.6287
#
#
#
# Elastic Compliance Matrix: (Units=1/GPa)
#
#
# Indices 1 2 3 4 5 6 
#
# 1 0.015361 -0.004051 -0.006216 0.000000 0.000000 0.000000
# 2 -0.004051 0.008533 -0.003201 0.000000 0.000000 0.000000
# 3 -0.006216 -0.003201 0.016542 0.000000 0.000000 0.000000
# 4 0.000000 0.000000 0.000000 0.043897 0.000000 0.000000
# 5 0.000000 0.000000 0.000000 0.000000 0.064638 0.000000
# 6 0.000000 0.000000 0.000000 0.000000 0.000000 0.026575
#
#
# Mechanical properties :
#
#
# Convention : Reuss Voigt Hill
#
# Bulk Modulus (GPa) = 74.08786 81.49905 77.79346
# Shear Modulus (GPa) = 24.15658 27.65850 25.90754
#
# Velocity S-wave (km/s) = 3.45010 3.69171 3.57295
# Velocity P-wave (km/s) = 7.23724 7.63743 7.44003
#
# Compressibility (1/GPa) = 0.01349749
#
# Stress axis : x y z
#
# Youngs Moduli (GPa) = 65.10137 117.19036 60.45215
#
# Poissons Ratio (x) = 0.47477 0.37579
# Poissons Ratio (y) = 0.26375 0.19354
# Poissons Ratio (z) = 0.40469 0.37518
#
# Static dielectric constant tensor:
#      x y z
#    x 3.773890 0.000000 0.000000 
#    y 0.000000 3.777830 0.000000 
#    z 0.000000 0.000000 3.719310 
# 
# 
# High freq. dielectric constant tensor:
#      x y z
#    x 1.796610 0.000000 0.000000 
#    y 0.000000 1.801520 0.000000 
#    z 0.000000 0.000000 1.783500 
# 
# From -- ./inp_files/33398.got.cif
#   From: 2010.03.12/outbox.cif.g09.slc.cpg/sg24_17_cif.got.tgz:33398.got - 2010.04.14 03:06:53.
