data_PCOD8165862
_publ_section_title
;
Structure prediction by ZEFSAII (Michael W. Deem and Ramdas Pophale) SiO2 
 PCOD8165862
Probable space group: I 21 21 21
;
_chemical_formula_sum "Si O2"
_cell_formula_units_Z 32
_cell_length_a 12.029566
_cell_length_b 25.837126
_cell_length_c 4.964862
_cell_angle_alpha 90.000000
_cell_angle_beta 90.000000
_cell_angle_gamma 90.000000
_cell_volume 1543.125841
_symmetry_space_group_name_H-M "I 21 21 21"
_symmetry_group_IT_number 24
_symmetry_cell_setting 'orthorhombic'
loop_
_space_group_symop_operation_xyz
x,y,z
-x,1/2-y,z
x,-y,1/2-z
1/2-x,y,-z
1/2+x,1/2+y,1/2+z
1/2-x,-y,1/2+z
1/2+x,1/2-y,-z
-x,1/2+y,1/2-z
loop_
_atom_site_type_symbol
_atom_site_label
_atom_site_fract_x
_atom_site_fract_y
_atom_site_fract_z
Si Si1 0.750000 0.832886 0.500000
Si Si2 0.546756 0.301941 0.360901
Si Si3 0.250000 0.257960 0.500000
Si Si4 0.174814 0.060467 0.248359
Si Si5 0.013580 0.638384 0.358720
O O1 0.771327 0.794542 0.746401
O O2 0.641182 0.869929 0.538678
O O3 0.500000 0.250000 0.226324
O O4 0.654495 0.284964 0.525990
O O5 0.469153 0.324908 0.598426
O O6 0.560328 0.340129 0.107273
O O7 0.250000 0.077647 0.500000
O O8 0.053741 0.087946 0.243552
O O9 0.146907 0.000000 0.250000
O O10 0.250000 0.076753 0.000000
#
# Coordination Sequence:
#
# PCOD8165862 Si02
#       5
#     4   8   4   8   8
#     4  12  22  40  58  83 128 169 202 246 300 354
#     4  12  23  39  56  88 127 167 207 244 295 362
#     4  12  24  36  56  83 128 169 204 252 292 346
#     4  10  23  44  67  92 121 152 197 264 323 364
#     4  12  24  39  62  90 122 165 208 248 305 368
#
# _framework density 20.737131000000002
#
# number of rings (size 3 to 8) (size 9 to 14) (size 15 to 20)
#    0.000    0.500    5.000    3.750    5.250    0.000 
#    0.000    0.000    0.000    9.000    0.000    0.000 
#    0.000    0.000    0.000    0.000    0.000    0.000 
#
# Total GULP energy -198211.034724 kJ/mol
# GULP energy per Si atom -12388.189670 kJ/mol
# Density = 2.068993 g / cm^3
# Si number density = 20.737131 Si / 1000 Ang^3
#
#
#
# Elastic Constant Matrix: (Units=GPa)
#
#
# Indices 1 2 3 4 5 6 
#
# 1 148.2610 64.1039 35.2077 2.9565 -0.0945 0.1145
# 2 64.1039 75.9885 36.4054 0.2847 -0.1235 -0.6332
# 3 35.2077 36.4054 145.0781 1.2387 -0.7998 -3.7745
# 4 2.9565 0.2847 1.2387 -349.8411 3.8940 13.8740
# 5 -0.0945 -0.1235 -0.7998 3.8940 25.5108 0.5885
# 6 0.1145 -0.6332 -3.7745 13.8740 0.5885 58.7491
#
#
#
# Elastic Compliance Matrix: (Units=1/GPa)
#
#
# Indices 1 2 3 4 5 6 
#
# 1 0.010635 -0.008791 -0.000380 0.000075 -0.000023 -0.000157
# 2 -0.008791 0.022226 -0.003442 -0.000067 -0.000024 0.000052
# 3 -0.000380 -0.003442 0.007861 0.000042 0.000211 0.000457
# 4 0.000075 -0.000067 0.000042 -0.002827 0.000417 0.000665
# 5 -0.000023 -0.000024 0.000211 0.000417 0.039153 -0.000477
# 6 -0.000157 0.000052 0.000457 0.000665 -0.000477 0.016899
#
#
# Mechanical properties :
#
#
# Convention : Reuss Voigt Hill
#
# Bulk Modulus (GPa) = 64.53221 71.19574 67.86397
# Shear Modulus (GPa) = 40.21282 -37.54219 1.33531
#
# Velocity S-wave (km/s) = 4.40838 -4.25948 0.80332
# Velocity P-wave (km/s) = 7.55635 3.19627 5.80149
#
# Compressibility (1/GPa) = 0.01549614
#
# Stress axis : x y z
#
# Youngs Moduli (GPa) = 94.03197 44.99280 127.20382
#
# Poissons Ratio (x) = 0.39554 0.04830
# Poissons Ratio (y) = 0.82665 0.43784
# Poissons Ratio (z) = 0.03570 0.15487
#
# Static dielectric constant tensor:
#      x y z
#    x 4.342490 -0.005640 -0.105260 
#    y -0.005640 3.441450 0.013840 
#    z -0.105260 0.013840 1.935640 
# 
# 
# High freq. dielectric constant tensor:
#      x y z
#    x 1.821180 0.000010 0.000030 
#    y 0.000010 1.773550 -0.000040 
#    z 0.000030 -0.000040 1.835000 
# 
# From -- ./inp_files/2204.got.cif
#   From: 2010.03.12/outbox.cif.g09.slc.cpg/sg24_2_cif.got.tgz:2204.got - 2010.04.14 03:06:53.
