data_PCOD8165771
_publ_section_title
;
Structure prediction by ZEFSAII (Michael W. Deem and Ramdas Pophale) SiO2 
 PCOD8165771
Probable space group: I 21 21 21
;
_chemical_formula_sum "Si O2"
_cell_formula_units_Z 56
_cell_length_a 8.275614
_cell_length_b 17.246533
_cell_length_c 20.038651
_cell_angle_alpha 90.000000
_cell_angle_beta 90.000000
_cell_angle_gamma 90.000000
_cell_volume 2860.029488
_symmetry_space_group_name_H-M "I 21 21 21"
_symmetry_group_IT_number 24
_symmetry_cell_setting 'orthorhombic'
loop_
_space_group_symop_operation_xyz
x,y,z
-x,1/2-y,z
x,-y,1/2-z
1/2-x,y,-z
1/2+x,1/2+y,1/2+z
1/2-x,-y,1/2+z
1/2+x,1/2-y,-z
-x,1/2+y,1/2-z
loop_
_atom_site_type_symbol
_atom_site_label
_atom_site_fract_x
_atom_site_fract_y
_atom_site_fract_z
Si Si1 0.825201 0.513475 0.567825
Si Si2 0.685775 0.908141 0.246378
Si Si3 0.848700 0.790997 0.640612
Si Si4 0.109166 0.153428 0.116248
Si Si5 0.513206 0.658797 0.759881
Si Si6 0.077390 0.378077 0.985546
Si Si7 0.337928 0.073518 0.298976
O O1 0.750000 0.478176 0.500000
O O2 0.734624 0.586324 0.600215
O O3 0.841425 0.448140 0.623163
O O4 0.994710 0.546572 0.544593
O O5 0.695046 0.868517 0.319169
O O6 0.511870 0.884889 0.213839
O O7 0.849418 0.879190 0.207632
O O8 0.694325 0.000000 0.250000
O O9 0.694676 0.734791 0.634417
O O10 0.912487 0.809106 0.567036
O O11 0.000000 0.750000 0.678032
O O12 0.008266 0.132708 0.182182
O O13 0.995639 0.160948 0.052019
O O14 0.500000 0.750000 0.771790
O O15 0.683711 0.629807 0.790448
O O16 0.250000 0.413575 0.000000
O O17 0.318021 0.000000 0.250000
#
# Coordination Sequence:
#
# PCOD8165771 Si02
#       7
#     8   8   8   8   8   8   8
#     4  10  22  43  64  91 130 175 210 259 334 386
#     4  11  25  39  62  92 125 170 229 271 321 378
#     4  12  23  36  58  86 131 179 219 258 307 373
#     4  11  23  39  56  85 134 176 209 254 316 378
#     4  12  24  41  64  94 126 169 221 278 331 384
#     4  11  24  34  54  88 130 176 218 248 293 385
#     4  11  22  42  66  90 133 172 211 277 331 384
#
# _framework density 19.580219
#
# number of rings (size 3 to 8) (size 9 to 14) (size 15 to 20)
#    0.000    0.857    4.286    3.857    2.000    0.000 
#    2.571    0.000    0.000    0.000    3.714    0.000 
#    0.000    0.000    0.000    0.000    0.000    0.000 
#
# Total GULP energy -346956.993377 kJ/mol
# GULP energy per Si atom -12391.321192 kJ/mol
# Density = 1.953565 g / cm^3
# Si number density = 19.580219 Si / 1000 Ang^3
#
#
#
# Elastic Constant Matrix: (Units=GPa)
#
#
# Indices 1 2 3 4 5 6 
#
# 1 186.9491 62.1728 48.6653 0.0000 0.0000 0.0000
# 2 62.1728 82.3784 50.6210 0.0000 0.0000 0.0000
# 3 48.6653 50.6210 106.2342 0.0000 0.0000 0.0000
# 4 0.0000 0.0000 0.0000 30.7086 0.0000 0.0000
# 5 0.0000 0.0000 0.0000 0.0000 20.8608 0.0000
# 6 0.0000 0.0000 0.0000 0.0000 0.0000 29.6885
#
#
#
# Elastic Compliance Matrix: (Units=1/GPa)
#
#
# Indices 1 2 3 4 5 6 
#
# 1 0.007217 -0.004829 -0.001005 0.000000 0.000000 0.000000
# 2 -0.004829 0.020397 -0.007507 0.000000 0.000000 0.000000
# 3 -0.001005 -0.007507 0.013451 0.000000 0.000000 0.000000
# 4 0.000000 0.000000 0.000000 0.032564 0.000000 0.000000
# 5 0.000000 0.000000 0.000000 0.000000 0.047937 0.000000
# 6 0.000000 0.000000 0.000000 0.000000 0.000000 0.033683
#
#
# Mechanical properties :
#
#
# Convention : Reuss Voigt Hill
#
# Bulk Modulus (GPa) = 69.53041 77.60889 73.56965
# Shear Modulus (GPa) = 26.77755 30.52507 28.65131
#
# Velocity S-wave (km/s) = 3.70209 3.95267 3.82943
# Velocity P-wave (km/s) = 7.33905 7.78164 7.56358
#
# Compressibility (1/GPa) = 0.01438220
#
# Stress axis : x y z
#
# Youngs Moduli (GPa) = 138.56938 49.02758 74.34647
#
# Poissons Ratio (x) = 0.23676 0.07470
# Poissons Ratio (y) = 0.66916 0.55811
# Poissons Ratio (z) = 0.13924 0.36805
#
# Static dielectric constant tensor:
#      x y z
#    x 4.191610 0.000000 0.000000 
#    y 0.000000 3.308130 0.000000 
#    z 0.000000 0.000000 3.709090 
# 
# 
# High freq. dielectric constant tensor:
#      x y z
#    x 1.800390 0.000000 0.000000 
#    y 0.000000 1.733130 0.000000 
#    z 0.000000 0.000000 1.737690 
# 
# From -- ./inp_files/32839.got.cif
#   From: 2010.03.12/outbox.cif.g09.slc.cpg/sg24_17_cif.got.tgz:32839.got - 2010.04.14 03:06:53.
