data_PCOD8165365
_publ_section_title
;
Structure prediction by ZEFSAII (Michael W. Deem and Ramdas Pophale) SiO2 
 PCOD8165365
Probable space group: I 21 21 21
;
_chemical_formula_sum "Si O2"
_cell_formula_units_Z 56
_cell_length_a 6.584905
_cell_length_b 23.460304
_cell_length_c 16.684841
_cell_angle_alpha 90.000000
_cell_angle_beta 90.000000
_cell_angle_gamma 90.000000
_cell_volume 2577.538860
_symmetry_space_group_name_H-M "I 21 21 21"
_symmetry_group_IT_number 24
_symmetry_cell_setting 'orthorhombic'
loop_
_space_group_symop_operation_xyz
x,y,z
-x,1/2-y,z
x,-y,1/2-z
1/2-x,y,-z
1/2+x,1/2+y,1/2+z
1/2-x,-y,1/2+z
1/2+x,1/2-y,-z
-x,1/2+y,1/2-z
loop_
_atom_site_type_symbol
_atom_site_label
_atom_site_fract_x
_atom_site_fract_y
_atom_site_fract_z
Si Si1 0.217001 0.108925 0.639070
Si Si2 0.939703 0.688355 0.361588
Si Si3 0.918622 0.613852 0.682150
Si Si4 0.570391 0.811696 0.815741
Si Si5 0.312731 0.981404 0.591191
Si Si6 0.089943 0.687734 0.931532
Si Si7 0.819721 0.910562 0.412541
O O1 0.091302 0.111181 0.721949
O O2 0.432055 0.140072 0.645119
O O3 0.087644 0.140699 0.570021
O O4 0.262971 0.045878 0.610852
O O5 0.065659 0.683193 0.279430
O O6 0.024564 0.641985 0.423196
O O7 0.000000 0.750000 0.398115
O O8 0.700435 0.672218 0.347195
O O9 0.816522 0.557032 0.650269
O O10 0.149342 0.609640 0.650600
O O11 0.500000 0.750000 0.846163
O O12 0.801410 0.817015 0.844942
O O13 0.250000 0.967300 0.500000
O O14 0.548903 0.966428 0.612525
O O15 0.000000 0.750000 0.947037
O O16 0.250000 0.671625 0.000000
O O17 0.750000 0.926678 0.500000
#
# Coordination Sequence:
#
# PCOD8165365 Si02
#       7
#     8   8   8   8   8   8   8
#     4  11  25  43  69  99 131 176 234 286 335 416
#     4   9  21  39  66 103 133 169 215 268 329 410
#     4  10  22  45  70  97 136 176 222 277 345 402
#     4  10  20  42  65  92 133 175 216 270 341 409
#     4  11  24  43  69  95 134 174 224 287 342 403
#     4  12  26  40  64  95 138 182 223 280 351 419
#     4  11  22  43  69  93 133 181 214 275 347 404
#
# _framework density 21.726153
#
# number of rings (size 3 to 8) (size 9 to 14) (size 15 to 20)
#    0.000    1.429    2.857    1.714    2.000    1.714 
#    2.571    4.286    0.000    0.000    0.000    0.000 
#    0.000    0.000    0.000    0.000    0.000    0.000 
#
# Total GULP energy -347036.799845 kJ/mol
# GULP energy per Si atom -12394.171423 kJ/mol
# Density = 2.167670 g / cm^3
# Si number density = 21.726153 Si / 1000 Ang^3
#
#
#
# Elastic Constant Matrix: (Units=GPa)
#
#
# Indices 1 2 3 4 5 6 
#
# 1 99.6922 49.8541 24.7783 0.0000 0.0000 0.0000
# 2 49.8541 157.0914 21.9489 0.0000 0.0000 0.0000
# 3 24.7783 21.9489 48.8158 0.0000 0.0000 0.0000
# 4 0.0000 0.0000 0.0000 18.7182 0.0000 0.0000
# 5 0.0000 0.0000 0.0000 0.0000 36.6565 0.0000
# 6 0.0000 0.0000 0.0000 0.0000 0.0000 39.5182
#
#
#
# Elastic Compliance Matrix: (Units=1/GPa)
#
#
# Indices 1 2 3 4 5 6 
#
# 1 0.012998 -0.003418 -0.005061 0.000000 0.000000 0.000000
# 2 -0.003418 0.007691 -0.001723 0.000000 0.000000 0.000000
# 3 -0.005061 -0.001723 0.023829 0.000000 0.000000 0.000000
# 4 0.000000 0.000000 0.000000 0.053424 0.000000 0.000000
# 5 0.000000 0.000000 0.000000 0.000000 0.027280 0.000000
# 6 0.000000 0.000000 0.000000 0.000000 0.000000 0.025305
#
#
# Mechanical properties :
#
#
# Convention : Reuss Voigt Hill
#
# Bulk Modulus (GPa) = 41.46975 55.41799 48.44387
# Shear Modulus (GPa) = 27.93781 32.91313 30.42547
#
# Velocity S-wave (km/s) = 3.58984 3.89640 3.74626
# Velocity P-wave (km/s) = 6.02591 6.76798 6.40769
#
# Compressibility (1/GPa) = 0.02411396
#
# Stress axis : x y z
#
# Youngs Moduli (GPa) = 76.93514 130.01889 41.96597
#
# Poissons Ratio (x) = 0.44439 0.21238
# Poissons Ratio (y) = 0.26296 0.07232
# Poissons Ratio (z) = 0.38936 0.22406
#
# Static dielectric constant tensor:
#      x y z
#    x 4.960530 0.000000 0.000000 
#    y 0.000000 3.952960 0.000000 
#    z 0.000000 0.000000 3.847380 
# 
# 
# High freq. dielectric constant tensor:
#      x y z
#    x 1.859780 0.000000 0.000000 
#    y 0.000000 1.853010 0.000000 
#    z 0.000000 0.000000 1.850880 
# 
# From -- ./inp_files/32262.got.cif
#   From: 2010.03.12/outbox.cif.g09.slc.cpg/sg24_17_cif.got.tgz:32262.got - 2010.04.14 03:06:53.
