data_PCOD8165110
_publ_section_title
;
Structure prediction by ZEFSAII (Michael W. Deem and Ramdas Pophale) SiO2 
 PCOD8165110
Probable space group: I 21 21 21
;
_chemical_formula_sum "Si O2"
_cell_formula_units_Z 44
_cell_length_a 21.792855
_cell_length_b 11.215395
_cell_length_c 9.286192
_cell_angle_alpha 90.000000
_cell_angle_beta 90.000000
_cell_angle_gamma 90.000000
_cell_volume 2269.689047
_symmetry_space_group_name_H-M "I 21 21 21"
_symmetry_group_IT_number 24
_symmetry_cell_setting 'orthorhombic'
loop_
_space_group_symop_operation_xyz
x,y,z
-x,1/2-y,z
x,-y,1/2-z
1/2-x,y,-z
1/2+x,1/2+y,1/2+z
1/2-x,-y,1/2+z
1/2+x,1/2-y,-z
-x,1/2+y,1/2-z
loop_
_atom_site_type_symbol
_atom_site_label
_atom_site_fract_x
_atom_site_fract_y
_atom_site_fract_z
Si Si1 0.250000 0.353380 0.500000
Si Si2 0.083399 0.871844 0.715834
Si Si3 0.177145 0.921566 0.492725
Si Si4 0.304618 0.500000 0.750000
Si Si5 0.000000 0.750000 0.490620
Si Si6 0.114848 0.720308 0.307912
Si Si7 0.865743 0.691474 0.002989
O O1 0.260721 0.438447 0.635102
O O2 0.306724 0.268965 0.464550
O O3 0.151631 0.876078 0.646414
O O4 0.034073 0.837617 0.597394
O O5 0.057684 0.000000 0.750000
O O6 0.088717 0.797081 0.864495
O O7 0.250000 0.918389 0.500000
O O8 0.152523 0.833057 0.369507
O O9 0.152853 0.055006 0.463709
O O10 0.346231 0.600137 0.673809
O O11 0.948856 0.809166 0.388263
O O12 0.100605 0.751500 0.141259
#
# Coordination Sequence:
#
# PCOD8165110 Si02
#       7
#     4   8   8   4   4   8   8
#     4  10  22  38  60  86 132 156 194 244 300 388
#     4   9  21  38  59  90 116 150 197 249 304 353
#     4  10  20  34  64  94 124 151 188 249 312 361
#     4  10  24  40  56  90 124 168 200 232 306 380
#     4  10  22  46  58  80 118 158 214 254 290 352
#     4  10  23  40  60  87 120 165 205 245 301 363
#     4  10  20  37  60  97 116 152 197 253 311 359
#
# _framework density 19.385915000000001
#
# number of rings (size 3 to 8) (size 9 to 14) (size 15 to 20)
#    0.000    2.182    0.909    0.545    6.364    3.636 
#   16.364    0.000    0.000    0.000    0.000    0.000 
#    0.000    0.000    0.000    0.000    0.000    0.000 
#
# Total GULP energy -272653.740754 kJ/mol
# GULP energy per Si atom -12393.351852 kJ/mol
# Density = 1.934179 g / cm^3
# Si number density = 19.385915 Si / 1000 Ang^3
#
#
#
# Elastic Constant Matrix: (Units=GPa)
#
#
# Indices 1 2 3 4 5 6 
#
# 1 113.2849 42.0051 65.6736 0.0000 0.0000 0.0000
# 2 42.0051 109.1355 58.2040 0.0000 0.0000 0.0000
# 3 65.6736 58.2040 141.7457 0.0000 0.0000 0.0000
# 4 0.0000 0.0000 0.0000 32.3592 0.0000 0.0000
# 5 0.0000 0.0000 0.0000 0.0000 18.1887 0.0000
# 6 0.0000 0.0000 0.0000 0.0000 0.0000 -7.9988
#
#
#
# Elastic Compliance Matrix: (Units=1/GPa)
#
#
# Indices 1 2 3 4 5 6 
#
# 1 0.012468 -0.002200 -0.004874 0.000000 0.000000 0.000000
# 2 -0.002200 0.012120 -0.003958 0.000000 0.000000 0.000000
# 3 -0.004874 -0.003958 0.010938 0.000000 0.000000 0.000000
# 4 0.000000 0.000000 0.000000 0.030903 0.000000 0.000000
# 5 0.000000 0.000000 0.000000 0.000000 0.054979 0.000000
# 6 0.000000 0.000000 0.000000 0.000000 0.000000 -0.125018
#
#
# Mechanical properties :
#
#
# Convention : Reuss Voigt Hill
#
# Bulk Modulus (GPa) = 74.26868 77.32574 75.79721
# Shear Modulus (GPa) = 217.95370 21.72871 119.84120
#
# Velocity S-wave (km/s) = 10.61475 3.35154 7.87102
# Velocity P-wave (km/s) = 13.73406 7.41291 11.03575
#
# Compressibility (1/GPa) = 0.01346463
#
# Stress axis : x y z
#
# Youngs Moduli (GPa) = 80.20385 82.50630 91.42441
#
# Poissons Ratio (x) = 0.18149 0.44556
# Poissons Ratio (y) = 0.17643 0.36183
# Poissons Ratio (z) = 0.39087 0.32653
#
# Static dielectric constant tensor:
#      x y z
#    x 3.613270 0.000000 0.000000 
#    y 0.000000 3.798330 0.000000 
#    z 0.000000 0.000000 3.900710 
# 
# 
# High freq. dielectric constant tensor:
#      x y z
#    x 1.742850 0.000000 0.000000 
#    y 0.000000 1.754180 0.000000 
#    z 0.000000 0.000000 1.773460 
# 
# From -- ./inp_files/15801.got.cif
#   From: 2010.03.12/outbox.cif.g09.slc.cpg/sg24_8_cif.got.tgz:15801.got - 2010.04.14 03:06:53.
