data_PCOD8165200
_publ_section_title
;
Structure prediction by ZEFSAII (Michael W. Deem and Ramdas Pophale) SiO2 
 PCOD8165200
Probable space group: I 21 21 21
;
_chemical_formula_sum "Si O2"
_cell_formula_units_Z 48
_cell_length_a 16.351174
_cell_length_b 9.612666
_cell_length_c 16.056323
_cell_angle_alpha 90.000000
_cell_angle_beta 90.000000
_cell_angle_gamma 90.000000
_cell_volume 2523.706747
_symmetry_space_group_name_H-M "I 21 21 21"
_symmetry_group_IT_number 24
_symmetry_cell_setting 'orthorhombic'
loop_
_space_group_symop_operation_xyz
x,y,z
-x,1/2-y,z
x,-y,1/2-z
1/2-x,y,-z
1/2+x,1/2+y,1/2+z
1/2-x,-y,1/2+z
1/2+x,1/2-y,-z
-x,1/2+y,1/2-z
loop_
_atom_site_type_symbol
_atom_site_label
_atom_site_fract_x
_atom_site_fract_y
_atom_site_fract_z
Si Si1 0.319576 0.889316 0.686115
Si Si2 0.671586 0.970501 0.453848
Si Si3 0.313909 0.990253 0.070452
Si Si4 0.404636 0.276954 0.363236
Si Si5 0.593561 0.282338 0.970621
Si Si6 0.785866 0.853495 0.719497
O O1 0.388468 0.850048 0.619214
O O2 0.288868 0.752437 0.734590
O O3 0.359274 0.000000 0.750000
O O4 0.236825 0.954117 0.648506
O O5 0.750000 0.038737 0.500000
O O6 0.635457 0.868387 0.523775
O O7 0.691391 0.867179 0.377257
O O8 0.610572 0.092957 0.425467
O O9 0.366695 0.858714 0.095729
O O10 0.250000 0.944818 0.000000
O O11 0.374800 0.111455 0.040633
O O12 0.500000 0.250000 0.349662
O O13 0.365129 0.309304 0.273496
O O14 0.500000 0.250000 0.984296
O O15 0.750893 0.000000 0.750000
#
# Coordination Sequence:
#
# PCOD8165200 Si02
#       6
#     8   8   8   8   8   8
#     4  11  20  40  63  82 116 158 206 243 292 368
#     4  11  20  39  63  85 120 163 205 238 293 378
#     4  10  20  37  60  87 114 155 199 238 297 364
#     4  11  23  37  55  92 128 153 191 250 312 356
#     4  11  22  37  61  90 117 151 201 255 301 352
#     4  10  21  37  57  87 115 159 198 236 297 363
#
# _framework density 19.019642999999999
#
# number of rings (size 3 to 8) (size 9 to 14) (size 15 to 20)
#    0.000    1.333    5.000    2.000    0.000    0.667 
#    9.000    0.833    0.000    4.000    0.000    0.000 
#    0.000    0.000    0.000    0.000    0.000    0.000 
#
# Total GULP energy -297577.157761 kJ/mol
# GULP energy per Si atom -12399.048240 kJ/mol
# Density = 1.897635 g / cm^3
# Si number density = 19.019643 Si / 1000 Ang^3
#
#
#
# Elastic Constant Matrix: (Units=GPa)
#
#
# Indices 1 2 3 4 5 6 
#
# 1 60.7825 15.5054 20.1770 0.0000 0.0000 0.0000
# 2 15.5054 90.2871 23.4607 0.0000 0.0000 0.0000
# 3 20.1770 23.4607 81.1566 0.0000 0.0000 0.0000
# 4 0.0000 0.0000 0.0000 34.4773 0.0000 0.0000
# 5 0.0000 0.0000 0.0000 0.0000 18.6652 0.0000
# 6 0.0000 0.0000 0.0000 0.0000 0.0000 30.1518
#
#
#
# Elastic Compliance Matrix: (Units=1/GPa)
#
#
# Indices 1 2 3 4 5 6 
#
# 1 0.018300 -0.002120 -0.003937 0.000000 0.000000 0.000000
# 2 -0.002120 0.012221 -0.003006 0.000000 0.000000 0.000000
# 3 -0.003937 -0.003006 0.014170 0.000000 0.000000 0.000000
# 4 0.000000 0.000000 0.000000 0.029005 0.000000 0.000000
# 5 0.000000 0.000000 0.000000 0.000000 0.053576 0.000000
# 6 0.000000 0.000000 0.000000 0.000000 0.000000 0.033165
#
#
# Mechanical properties :
#
#
# Convention : Reuss Voigt Hill
#
# Bulk Modulus (GPa) = 37.64302 38.94581 38.29441
# Shear Modulus (GPa) = 26.67868 28.19774 27.43821
#
# Velocity S-wave (km/s) = 3.74931 3.85458 3.80231
# Velocity P-wave (km/s) = 6.21110 6.35070 6.28129
#
# Compressibility (1/GPa) = 0.02656535
#
# Stress axis : x y z
#
# Youngs Moduli (GPa) = 54.64575 81.82737 70.57391
#
# Poissons Ratio (x) = 0.17345 0.27784
# Poissons Ratio (y) = 0.11583 0.21213
# Poissons Ratio (z) = 0.21513 0.24596
#
# Static dielectric constant tensor:
#      x y z
#    x 3.260780 0.000000 0.000000 
#    y 0.000000 3.710240 0.000000 
#    z 0.000000 0.000000 3.495990 
# 
# 
# High freq. dielectric constant tensor:
#      x y z
#    x 1.713990 0.000000 0.000000 
#    y 0.000000 1.759440 0.000000 
#    z 0.000000 0.000000 1.740000 
# 
# From -- ./inp_files/14147.got.cif
#   From: 2010.03.12/outbox.cif.g09.slc.cpg/sg24_8_cif.got.tgz:14147.got - 2010.04.14 03:06:53.
