data_PCOD8165809
_publ_section_title
;
Structure prediction by ZEFSAII (Michael W. Deem and Ramdas Pophale) SiO2 
 PCOD8165809
Probable space group: I 21 21 21
;
_chemical_formula_sum "Si O2"
_cell_formula_units_Z 52
_cell_length_a 8.773362
_cell_length_b 10.991310
_cell_length_c 27.316835
_cell_angle_alpha 90.000000
_cell_angle_beta 90.000000
_cell_angle_gamma 90.000000
_cell_volume 2634.182654
_symmetry_space_group_name_H-M "I 21 21 21"
_symmetry_group_IT_number 24
_symmetry_cell_setting 'orthorhombic'
loop_
_space_group_symop_operation_xyz
x,y,z
-x,1/2-y,z
x,-y,1/2-z
1/2-x,y,-z
1/2+x,1/2+y,1/2+z
1/2-x,-y,1/2+z
1/2+x,1/2-y,-z
-x,1/2+y,1/2-z
loop_
_atom_site_type_symbol
_atom_site_label
_atom_site_fract_x
_atom_site_fract_y
_atom_site_fract_z
Si Si1 0.500000 0.750000 0.351399
Si Si2 0.000000 0.250000 0.471509
Si Si3 0.280479 0.051071 0.555304
Si Si4 0.292174 0.049665 0.195537
Si Si5 0.750000 0.934016 0.000000
Si Si6 0.540068 0.385087 0.373260
Si Si7 0.713995 0.056643 0.103262
Si Si8 0.539486 0.612757 0.627045
O O1 0.416065 0.844751 0.315237
O O2 0.625051 0.814884 0.387157
O O3 0.889637 0.331814 0.438118
O O4 0.897241 0.155075 0.502580
O O5 0.250000 0.010073 0.500000
O O6 0.114250 0.093177 0.573561
O O7 0.349836 0.937268 0.584372
O O8 0.125160 0.097963 0.179115
O O9 0.288250 0.000000 0.250000
O O10 0.334104 0.930479 0.164873
O O11 0.759782 0.025132 0.953864
O O12 0.500000 0.250000 0.360271
O O13 0.381759 0.454749 0.369256
O O14 0.877166 0.046539 0.129673
O O15 0.500000 0.750000 0.613290
#
# Coordination Sequence:
#
# PCOD8165809 Si02
#       8
#     4   4   8   8   4   8   8   8
#     4  10  22  46  70  93 134 164 213 278 318 390
#     4  12  22  36  58  87 130 178 221 276 310 364
#     4  11  23  38  59  92 132 178 219 261 318 377
#     4  10  23  44  72  96 125 166 212 266 337 390
#     4  12  24  38  60  96 130 186 226 254 318 384
#     4  10  23  40  62  95 132 164 215 266 319 387
#     4  11  23  42  64  95 130 178 218 260 325 374
#     4  11  23  46  64  91 134 170 218 273 317 383
#
# _framework density 19.740469999999998
#
# number of rings (size 3 to 8) (size 9 to 14) (size 15 to 20)
#    0.000    1.231    3.846    1.846    3.231    0.000 
#    2.769    4.615    0.000    0.000    0.000    0.000 
#    0.000    0.000    0.000    0.000    0.000    0.000 
#
# Total GULP energy -322270.719516 kJ/mol
# GULP energy per Si atom -12395.027674 kJ/mol
# Density = 1.969554 g / cm^3
# Si number density = 19.740470 Si / 1000 Ang^3
#
#
#
# Elastic Constant Matrix: (Units=GPa)
#
#
# Indices 1 2 3 4 5 6 
#
# 1 137.0285 50.5790 44.5383 0.0000 0.0000 0.0000
# 2 50.5790 126.8701 47.5878 0.0000 0.0000 0.0000
# 3 44.5383 47.5878 109.2400 0.0000 0.0000 0.0000
# 4 0.0000 0.0000 0.0000 23.4530 0.0000 0.0000
# 5 0.0000 0.0000 0.0000 0.0000 19.9865 0.0000
# 6 0.0000 0.0000 0.0000 0.0000 0.0000 35.3878
#
#
#
# Elastic Compliance Matrix: (Units=1/GPa)
#
#
# Indices 1 2 3 4 5 6 
#
# 1 0.009115 -0.002677 -0.002550 0.000000 0.000000 0.000000
# 2 -0.002677 0.010208 -0.003355 0.000000 0.000000 0.000000
# 3 -0.002550 -0.003355 0.011655 0.000000 0.000000 0.000000
# 4 0.000000 0.000000 0.000000 0.042638 0.000000 0.000000
# 5 0.000000 0.000000 0.000000 0.000000 0.050034 0.000000
# 6 0.000000 0.000000 0.000000 0.000000 0.000000 0.028258
#
#
# Mechanical properties :
#
#
# Convention : Reuss Voigt Hill
#
# Bulk Modulus (GPa) = 72.39461 73.17211 72.78336
# Shear Modulus (GPa) = 28.78890 31.12769 29.95830
#
# Velocity S-wave (km/s) = 3.82300 3.97526 3.89988
# Velocity P-wave (km/s) = 7.49933 7.63006 7.56498
#
# Compressibility (1/GPa) = 0.01381318
#
# Stress axis : x y z
#
# Youngs Moduli (GPa) = 109.71193 97.96259 85.79701
#
# Poissons Ratio (x) = 0.26228 0.21877
# Poissons Ratio (y) = 0.29374 0.28787
# Poissons Ratio (z) = 0.27975 0.32869
#
# Static dielectric constant tensor:
#      x y z
#    x 4.154740 0.000000 0.000000 
#    y 0.000000 3.823440 0.000000 
#    z 0.000000 0.000000 3.340960 
# 
# 
# High freq. dielectric constant tensor:
#      x y z
#    x 1.796200 0.000000 0.000000 
#    y 0.000000 1.776880 0.000000 
#    z 0.000000 0.000000 1.735250 
# 
# From -- ./inp_files/38372.got.cif
#   From: 2010.03.12/outbox.cif.g09.slc.cpg/sg24_20_cif.got.tgz:38372.got - 2010.04.14 03:06:53.
