data_PCOD8165136
_publ_section_title
;
Structure prediction by ZEFSAII (Michael W. Deem and Ramdas Pophale) SiO2 
 PCOD8165136
Probable space group: I 21 21 21
;
_chemical_formula_sum "Si O2"
_cell_formula_units_Z 64
_cell_length_a 29.908899
_cell_length_b 8.673021
_cell_length_c 11.920612
_cell_angle_alpha 90.000000
_cell_angle_beta 90.000000
_cell_angle_gamma 90.000000
_cell_volume 3092.212822
_symmetry_space_group_name_H-M "I 21 21 21"
_symmetry_group_IT_number 24
_symmetry_cell_setting 'orthorhombic'
loop_
_space_group_symop_operation_xyz
x,y,z
-x,1/2-y,z
x,-y,1/2-z
1/2-x,y,-z
1/2+x,1/2+y,1/2+z
1/2-x,-y,1/2+z
1/2+x,1/2-y,-z
-x,1/2+y,1/2-z
loop_
_atom_site_type_symbol
_atom_site_label
_atom_site_fract_x
_atom_site_fract_y
_atom_site_fract_z
Si Si1 0.451838 0.819651 0.746783
Si Si2 0.169159 0.822944 0.835664
Si Si3 0.293141 0.700307 0.556237
Si Si4 0.321481 0.628028 0.957239
Si Si5 0.915378 0.065957 0.371392
Si Si6 0.634727 0.344376 0.100563
Si Si7 0.552167 0.214031 0.986792
Si Si8 0.773413 0.334630 0.287161
O O1 0.500000 0.750000 0.732191
O O2 0.429901 0.746845 0.860156
O O3 0.427390 0.779655 0.629835
O O4 0.453526 0.000000 0.750000
O O5 0.148171 0.766043 0.718419
O O6 0.221224 0.854640 0.812708
O O7 0.143733 0.973001 0.885318
O O8 0.161947 0.683814 0.921504
O O9 0.250000 0.781709 0.500000
O O10 0.289712 0.518759 0.528440
O O11 0.337193 0.778095 0.504323
O O12 0.287668 0.717228 0.689575
O O13 0.362638 0.562094 0.886502
O O14 0.296706 0.772305 0.899589
O O15 0.929352 0.000000 0.250000
O O16 0.940399 0.972719 0.472433
O O17 0.582772 0.296260 0.081451
O O18 0.500000 0.250000 0.012387
O O19 0.793151 0.500000 0.250000
#
# Coordination Sequence:
#
# PCOD8165136 Si02
#       8
#     8   8   8   8   8   8   8   8
#     4  10  20  35  62  96 132 172 207 265 345 413
#     4  11  24  45  62  90 127 178 226 276 319 396
#     4  12  22  40  64  94 127 171 213 269 331 394
#     4  12  26  38  63  95 132 171 218 271 325 392
#     4  10  21  40  59  95 140 164 211 274 336 406
#     4  11  23  44  69  89 127 176 226 274 338 384
#     4  10  21  41  69  95 129 175 225 285 338 403
#     4  12  23  41  64  94 131 173 223 267 323 389
#
# _framework density 20.697151999999999
#
# number of rings (size 3 to 8) (size 9 to 14) (size 15 to 20)
#    0.000    1.000    3.750    4.875    3.500    1.000 
#    0.000    0.000    5.500    0.000    0.000    0.000 
#    0.000    0.000    0.000    0.000    0.000    0.000 
#
# Total GULP energy -396609.959640 kJ/mol
# GULP energy per Si atom -12394.061239 kJ/mol
# Density = 2.065004 g / cm^3
# Si number density = 20.697152 Si / 1000 Ang^3
#
#
#
# Elastic Constant Matrix: (Units=GPa)
#
#
# Indices 1 2 3 4 5 6 
#
# 1 123.5398 36.8999 34.2359 0.0000 0.0000 0.0000
# 2 36.8999 116.7530 29.0587 0.0000 0.0000 0.0000
# 3 34.2359 29.0587 82.9749 0.0000 0.0000 0.0000
# 4 0.0000 0.0000 0.0000 31.6483 0.0000 0.0000
# 5 0.0000 0.0000 0.0000 0.0000 14.5171 0.0000
# 6 0.0000 0.0000 0.0000 0.0000 0.0000 25.9870
#
#
#
# Elastic Compliance Matrix: (Units=1/GPa)
#
#
# Indices 1 2 3 4 5 6 
#
# 1 0.009653 -0.002256 -0.003193 0.000000 0.000000 0.000000
# 2 -0.002256 0.009910 -0.002540 0.000000 0.000000 0.000000
# 3 -0.003193 -0.002540 0.014259 0.000000 0.000000 0.000000
# 4 0.000000 0.000000 0.000000 0.031597 0.000000 0.000000
# 5 0.000000 0.000000 0.000000 0.000000 0.068884 0.000000
# 6 0.000000 0.000000 0.000000 0.000000 0.000000 0.038481
#
#
# Mechanical properties :
#
#
# Convention : Reuss Voigt Hill
#
# Bulk Modulus (GPa) = 56.03946 58.18408 57.11177
# Shear Modulus (GPa) = 25.67918 29.30204 27.49061
#
# Velocity S-wave (km/s) = 3.52619 3.76673 3.64844
# Velocity P-wave (km/s) = 6.61161 6.86228 6.73811
#
# Compressibility (1/GPa) = 0.01784457
#
# Stress axis : x y z
#
# Youngs Moduli (GPa) = 103.59166 100.90507 70.13285
#
# Poissons Ratio (x) = 0.22767 0.22392
# Poissons Ratio (y) = 0.23373 0.17812
# Poissons Ratio (z) = 0.33075 0.25627
#
# Static dielectric constant tensor:
#      x y z
#    x 3.624200 0.000000 0.000000 
#    y 0.000000 3.962080 0.000000 
#    z 0.000000 0.000000 3.905450 
# 
# 
# High freq. dielectric constant tensor:
#      x y z
#    x 1.804270 0.000000 0.000000 
#    y 0.000000 1.815330 0.000000 
#    z 0.000000 0.000000 1.796680 
# 
# From -- ./inp_files/23187.got.cif
#   From: 2010.03.12/outbox.cif.g09.slc.cpg/sg24_12_cif.got.tgz:23187.got - 2010.04.14 03:06:53.
