data_PCOD8165386
_publ_section_title
;
Structure prediction by ZEFSAII (Michael W. Deem and Ramdas Pophale) SiO2 
 PCOD8165386
Probable space group: I 21 21 21
;
_chemical_formula_sum "Si O2"
_cell_formula_units_Z 48
_cell_length_a 8.994600
_cell_length_b 8.788876
_cell_length_c 27.671264
_cell_angle_alpha 90.000000
_cell_angle_beta 90.000000
_cell_angle_gamma 90.000000
_cell_volume 2187.480496
_symmetry_space_group_name_H-M "I 21 21 21"
_symmetry_group_IT_number 24
_symmetry_cell_setting 'orthorhombic'
loop_
_space_group_symop_operation_xyz
x,y,z
-x,1/2-y,z
x,-y,1/2-z
1/2-x,y,-z
1/2+x,1/2+y,1/2+z
1/2-x,-y,1/2+z
1/2+x,1/2-y,-z
-x,1/2+y,1/2-z
loop_
_atom_site_type_symbol
_atom_site_label
_atom_site_fract_x
_atom_site_fract_y
_atom_site_fract_z
Si Si1 0.160189 0.994111 0.803751
Si Si2 0.442297 0.418116 0.603578
Si Si3 0.499046 0.070001 0.799264
Si Si4 0.574369 0.416004 0.510185
Si Si5 0.500000 0.750000 0.365692
Si Si6 0.625361 0.999053 0.076277
Si Si7 0.500000 0.250000 0.354887
O O1 0.335266 0.007060 0.804967
O O2 0.087372 0.130163 0.833333
O O3 0.094810 0.000000 0.750000
O O4 0.129973 0.822798 0.822496
O O5 0.500000 0.250000 0.618211
O O6 0.415840 0.515888 0.652245
O O7 0.560889 0.486038 0.564679
O O8 0.290865 0.430561 0.571317
O O9 0.500000 0.250000 0.795163
O O10 0.571498 0.000000 0.750000
O O11 0.500000 0.250000 0.511472
O O12 0.750000 0.413098 0.500000
O O13 0.474629 0.510518 0.472215
O O14 0.378189 0.666274 0.399635
O O15 0.548588 0.886844 0.112760
#
# Coordination Sequence:
#
# PCOD8165386 Si02
#       7
#     8   8   8   8   4   8   4
#     4  10  21  39  61  94 127 175 224 280 331 399
#     4  11  23  40  67  97 131 175 224 279 339 403
#     4  11  24  42  65  95 134 176 227 281 340 405
#     4  11  23  39  66  99 131 172 221 275 333 404
#     4  10  23  38  64  88 138 172 221 274 350 394
#     4  11  22  41  61  95 129 175 217 274 330 405
#     4  10  21  34  66  84 128 168 221 268 330 388
#
# _framework density 21.943055000000001
#
# number of rings (size 3 to 8) (size 9 to 14) (size 15 to 20)
#    0.000    1.333    0.833    5.500    4.667    1.333 
#    1.500    4.167    0.000    0.000    0.000    0.000 
#    0.000    0.000    0.000    0.000    0.000    0.000 
#
# Total GULP energy -297347.698417 kJ/mol
# GULP energy per Si atom -12389.487434 kJ/mol
# Density = 2.189311 g / cm^3
# Si number density = 21.943055 Si / 1000 Ang^3
#
#
#
# Elastic Constant Matrix: (Units=GPa)
#
#
# Indices 1 2 3 4 5 6 
#
# 1 95.5300 5.8357 28.6053 0.0000 0.0000 0.0000
# 2 5.8357 92.5235 43.4139 0.0000 0.0000 0.0000
# 3 28.6053 43.4139 165.1708 0.0000 0.0000 0.0000
# 4 0.0000 0.0000 0.0000 30.6013 0.0000 0.0000
# 5 0.0000 0.0000 0.0000 0.0000 25.6946 0.0000
# 6 0.0000 0.0000 0.0000 0.0000 0.0000 31.8571
#
#
#
# Elastic Compliance Matrix: (Units=1/GPa)
#
#
# Indices 1 2 3 4 5 6 
#
# 1 0.011045 0.000229 -0.001973 0.000000 0.000000 0.000000
# 2 0.000229 0.012333 -0.003281 0.000000 0.000000 0.000000
# 3 -0.001973 -0.003281 0.007259 0.000000 0.000000 0.000000
# 4 0.000000 0.000000 0.000000 0.032678 0.000000 0.000000
# 5 0.000000 0.000000 0.000000 0.000000 0.038919 0.000000
# 6 0.000000 0.000000 0.000000 0.000000 0.000000 0.031390
#
#
# Mechanical properties :
#
#
# Convention : Reuss Voigt Hill
#
# Bulk Modulus (GPa) = 48.57665 56.54825 52.56245
# Shear Modulus (GPa) = 33.21458 35.98856 34.60157
#
# Velocity S-wave (km/s) = 3.89481 4.05419 3.97530
# Velocity P-wave (km/s) = 6.51243 6.90954 6.71392
#
# Compressibility (1/GPa) = 0.02058602
#
# Stress axis : x y z
#
# Youngs Moduli (GPa) = 90.54107 81.08122 137.76879
#
# Poissons Ratio (x) = -0.01858 0.27182
# Poissons Ratio (y) = -0.02075 0.45208
# Poissons Ratio (z) = 0.17864 0.26606
#
# Static dielectric constant tensor:
#      x y z
#    x 3.996600 0.000000 0.000000 
#    y 0.000000 4.205790 0.000000 
#    z 0.000000 0.000000 4.787400 
# 
# 
# High freq. dielectric constant tensor:
#      x y z
#    x 1.858220 0.000000 0.000000 
#    y 0.000000 1.852120 0.000000 
#    z 0.000000 0.000000 1.886640 
# 
# From -- ./inp_files/38322.got.cif
#   From: 2010.03.12/outbox.cif.g09.slc.cpg/sg24_20_cif.got.tgz:38322.got - 2010.04.14 03:06:53.
