data_PCOD8165310
_publ_section_title
;
Structure prediction by ZEFSAII (Michael W. Deem and Ramdas Pophale) SiO2 
 PCOD8165310
Probable space group: I 21 21 21
;
_chemical_formula_sum "Si O2"
_cell_formula_units_Z 36
_cell_length_a 5.268936
_cell_length_b 13.649570
_cell_length_c 22.626586
_cell_angle_alpha 90.000000
_cell_angle_beta 90.000000
_cell_angle_gamma 90.000000
_cell_volume 1627.274894
_symmetry_space_group_name_H-M "I 21 21 21"
_symmetry_group_IT_number 24
_symmetry_cell_setting 'orthorhombic'
loop_
_space_group_symop_operation_xyz
x,y,z
-x,1/2-y,z
x,-y,1/2-z
1/2-x,y,-z
1/2+x,1/2+y,1/2+z
1/2-x,-y,1/2+z
1/2+x,1/2-y,-z
-x,1/2+y,1/2-z
loop_
_atom_site_type_symbol
_atom_site_label
_atom_site_fract_x
_atom_site_fract_y
_atom_site_fract_z
Si Si1 0.250000 0.812856 0.500000
Si Si2 0.128718 0.153476 0.780491
Si Si3 0.245339 0.500000 0.750000
Si Si4 0.328059 0.035754 0.102350
Si Si5 0.153878 0.563166 0.130674
Si Si6 0.000000 0.250000 0.309826
O O1 0.500000 0.750000 0.517902
O O2 0.338933 0.879538 0.445836
O O3 0.213937 0.086176 0.834300
O O4 0.347783 0.177510 0.733589
O O5 0.000000 0.250000 0.807620
O O6 0.922280 0.097544 0.741045
O O7 0.402537 0.496913 0.810453
O O8 0.584577 0.970708 0.099835
O O9 0.088193 0.963869 0.089571
O O10 0.161315 0.679100 0.146637
#
# Coordination Sequence:
#
# PCOD8165310 Si02
#       6
#     4   8   4   8   8   4
#     4  12  26  48  76  98 126 172 228 286 340 400
#     4  11  22  35  58  90 134 172 219 262 321 401
#     4  10  20  40  52  90 134 176 210 268 324 394
#     4  11  26  42  65  95 132 170 220 284 337 379
#     4  11  23  40  62  93 134 173 218 269 327 400
#     4  12  22  36  64  96 132 182 220 256 324 418
#
# _framework density 22.122876000000002
#
# number of rings (size 3 to 8) (size 9 to 14) (size 15 to 20)
#    0.000    0.889    2.222    6.000    4.667    0.889 
#    0.000    0.000    0.000    2.667    0.000    0.000 
#    0.000    0.000    0.000    0.000    0.000    0.000 
#
# Total GULP energy -223082.734941 kJ/mol
# GULP energy per Si atom -12393.485275 kJ/mol
# Density = 2.207252 g / cm^3
# Si number density = 22.122876 Si / 1000 Ang^3
#
#
#
# Elastic Constant Matrix: (Units=GPa)
#
#
# Indices 1 2 3 4 5 6 
#
# 1 156.6748 60.1368 32.3291 0.0000 0.0000 0.0000
# 2 60.1368 117.1868 28.6839 0.0000 0.0000 0.0000
# 3 32.3291 28.6839 54.8662 0.0000 0.0000 0.0000
# 4 0.0000 0.0000 0.0000 30.9408 0.0000 0.0000
# 5 0.0000 0.0000 0.0000 0.0000 24.8957 0.0000
# 6 0.0000 0.0000 0.0000 0.0000 0.0000 47.9297
#
#
#
# Elastic Compliance Matrix: (Units=1/GPa)
#
#
# Indices 1 2 3 4 5 6 
#
# 1 0.008380 -0.003545 -0.003084 0.000000 0.000000 0.000000
# 2 -0.003545 0.011286 -0.003811 0.000000 0.000000 0.000000
# 3 -0.003084 -0.003811 0.022036 0.000000 0.000000 0.000000
# 4 0.000000 0.000000 0.000000 0.032320 0.000000 0.000000
# 5 0.000000 0.000000 0.000000 0.000000 0.040168 0.000000
# 6 0.000000 0.000000 0.000000 0.000000 0.000000 0.020864
#
#
# Mechanical properties :
#
#
# Convention : Reuss Voigt Hill
#
# Bulk Modulus (GPa) = 48.03041 63.44747 55.73894
# Shear Modulus (GPa) = 30.69861 34.59178 32.64520
#
# Velocity S-wave (km/s) = 3.72915 3.95855 3.84556
# Velocity P-wave (km/s) = 6.34822 7.04524 6.70579
#
# Compressibility (1/GPa) = 0.02082014
#
# Stress axis : x y z
#
# Youngs Moduli (GPa) = 119.33327 88.60855 45.38059
#
# Poissons Ratio (x) = 0.31415 0.13996
# Poissons Ratio (y) = 0.42308 0.17295
# Poissons Ratio (z) = 0.36805 0.33769
#
# Static dielectric constant tensor:
#      x y z
#    x 4.089830 0.000000 0.000000 
#    y 0.000000 4.110270 0.000000 
#    z 0.000000 0.000000 3.621570 
# 
# 
# High freq. dielectric constant tensor:
#      x y z
#    x 1.886640 0.000000 0.000000 
#    y 0.000000 1.883200 0.000000 
#    z 0.000000 0.000000 1.825560 
# 
# From -- ./inp_files/5398.got.cif
#   From: 2010.03.12/outbox.cif.g09.slc.cpg/sg24_3_cif.got.tgz:5398.got - 2010.04.14 03:06:53.
