data_PCOD8165339
_publ_section_title
;
Structure prediction by ZEFSAII (Michael W. Deem and Ramdas Pophale) SiO2 
 PCOD8165339
Probable space group: I 21 21 21
;
_chemical_formula_sum "Si O2"
_cell_formula_units_Z 28
_cell_length_a 20.344013
_cell_length_b 5.082787
_cell_length_c 10.804108
_cell_angle_alpha 90.000000
_cell_angle_beta 90.000000
_cell_angle_gamma 90.000000
_cell_volume 1117.191061
_symmetry_space_group_name_H-M "I 21 21 21"
_symmetry_group_IT_number 24
_symmetry_cell_setting 'orthorhombic'
loop_
_space_group_symop_operation_xyz
x,y,z
-x,1/2-y,z
x,-y,1/2-z
1/2-x,y,-z
1/2+x,1/2+y,1/2+z
1/2-x,-y,1/2+z
1/2+x,1/2-y,-z
-x,1/2+y,1/2-z
loop_
_atom_site_type_symbol
_atom_site_label
_atom_site_fract_x
_atom_site_fract_y
_atom_site_fract_z
Si Si1 0.500000 0.250000 0.961778
Si Si2 0.326190 0.759427 0.894264
Si Si3 0.072632 0.000000 0.250000
Si Si4 0.638364 0.231801 0.045174
Si Si5 0.210593 0.000000 0.750000
O O1 0.526149 0.474351 0.869072
O O2 0.560671 0.152017 0.047612
O O3 0.377398 0.751268 0.777073
O O4 0.253164 0.832539 0.848262
O O5 0.321348 0.488710 0.969855
O O6 0.354159 0.989860 0.979213
O O7 0.665890 0.277574 0.183203
#
# Coordination Sequence:
#
# PCOD8165339 Si02
#       5
#     4   8   4   8   4
#     4  10  20  40  70 104 138 176 232 280 350 412
#     4  10  24  43  68 102 136 179 236 287 347 405
#     4   9  18  36  70 104 140 177 224 296 340 397
#     4  11  25  44  70 102 139 183 230 289 344 422
#     4  11  26  46  72 102 144 185 228 290 358 415
#
# _framework density 25.062857999999999
#
# number of rings (size 3 to 8) (size 9 to 14) (size 15 to 20)
#    0.000    1.714    0.000    2.571    0.000   20.571 
#    0.000    5.714    0.000    0.000    0.000    0.000 
#    0.000    0.000    0.000    0.000    0.000    0.000 
#
# Total GULP energy -173476.127452 kJ/mol
# GULP energy per Si atom -12391.151961 kJ/mol
# Density = 2.500581 g / cm^3
# Si number density = 25.062858 Si / 1000 Ang^3
#
#
#
# Elastic Constant Matrix: (Units=GPa)
#
#
# Indices 1 2 3 4 5 6 
#
# 1 194.0010 28.9431 67.3541 0.0000 0.0000 0.0000
# 2 28.9431 94.3176 39.3822 0.0000 0.0000 0.0000
# 3 67.3541 39.3822 84.4034 0.0000 0.0000 0.0000
# 4 0.0000 0.0000 0.0000 47.9937 0.0000 0.0000
# 5 0.0000 0.0000 0.0000 0.0000 37.5162 0.0000
# 6 0.0000 0.0000 0.0000 0.0000 0.0000 20.2388
#
#
#
# Elastic Compliance Matrix: (Units=1/GPa)
#
#
# Indices 1 2 3 4 5 6 
#
# 1 0.007134 0.000233 -0.005802 0.000000 0.000000 0.000000
# 2 0.000233 0.013176 -0.006334 0.000000 0.000000 0.000000
# 3 -0.005802 -0.006334 0.019433 0.000000 0.000000 0.000000
# 4 0.000000 0.000000 0.000000 0.020836 0.000000 0.000000
# 5 0.000000 0.000000 0.000000 0.000000 0.026655 0.000000
# 6 0.000000 0.000000 0.000000 0.000000 0.000000 0.049410
#
#
# Mechanical properties :
#
#
# Convention : Reuss Voigt Hill
#
# Bulk Modulus (GPa) = 62.74323 71.56450 67.15387
# Shear Modulus (GPa) = 30.16377 36.95258 33.55818
#
# Velocity S-wave (km/s) = 3.47295 3.84395 3.66315
# Velocity P-wave (km/s) = 6.41643 6.95106 6.68909
#
# Compressibility (1/GPa) = 0.01593798
#
# Stress axis : x y z
#
# Youngs Moduli (GPa) = 140.17108 75.89812 51.45840
#
# Poissons Ratio (x) = -0.01771 0.29856
# Poissons Ratio (y) = -0.03271 0.32593
# Poissons Ratio (z) = 0.81326 0.48073
#
# Static dielectric constant tensor:
#      x y z
#    x 5.395120 0.000000 0.000000 
#    y 0.000000 4.222830 0.000000 
#    z 0.000000 0.000000 4.954800 
# 
# 
# High freq. dielectric constant tensor:
#      x y z
#    x 2.017640 0.000000 0.000000 
#    y 0.000000 1.980840 0.000000 
#    z 0.000000 0.000000 1.982020 
# 
# From -- ./inp_files/21893.got.cif
#   From: 2010.03.12/outbox.cif.g09.slc.cpg/sg24_11_cif.got.tgz:21893.got - 2010.04.14 03:06:53.
