data_PCOD8165359
_publ_section_title
;
Structure prediction by ZEFSAII (Michael W. Deem and Ramdas Pophale) SiO2 
 PCOD8165359
Probable space group: I 21 21 21
;
_chemical_formula_sum "Si O2"
_cell_formula_units_Z 56
_cell_length_a 22.449218
_cell_length_b 13.647755
_cell_length_c 9.562205
_cell_angle_alpha 90.000000
_cell_angle_beta 90.000000
_cell_angle_gamma 90.000000
_cell_volume 2929.682015
_symmetry_space_group_name_H-M "I 21 21 21"
_symmetry_group_IT_number 24
_symmetry_cell_setting 'orthorhombic'
loop_
_space_group_symop_operation_xyz
x,y,z
-x,1/2-y,z
x,-y,1/2-z
1/2-x,y,-z
1/2+x,1/2+y,1/2+z
1/2-x,-y,1/2+z
1/2+x,1/2-y,-z
-x,1/2+y,1/2-z
loop_
_atom_site_type_symbol
_atom_site_label
_atom_site_fract_x
_atom_site_fract_y
_atom_site_fract_z
Si Si1 0.392448 0.327509 0.706090
Si Si2 0.130744 0.270589 0.984036
Si Si3 0.250000 0.614622 0.500000
Si Si4 0.543635 0.931201 0.376084
Si Si5 0.499027 0.447382 0.620985
Si Si6 0.091762 0.106762 0.800260
Si Si7 0.434627 0.797732 0.030591
Si Si8 0.695561 0.000000 0.750000
O O1 0.383952 0.269184 0.850827
O O2 0.459733 0.366319 0.700619
O O3 0.388119 0.256696 0.571180
O O4 0.345406 0.414457 0.686467
O O5 0.195669 0.315175 0.959196
O O6 0.084287 0.335998 0.895114
O O7 0.127935 0.157730 0.928200
O O8 0.263307 0.543699 0.629418
O O9 0.476977 0.899398 0.341886
O O10 0.568442 0.000000 0.250000
O O11 0.545141 0.988913 0.523415
O O12 0.531043 0.500000 0.750000
O O13 0.552663 0.406091 0.529042
O O14 0.098640 0.186111 0.676040
O O15 0.116635 0.000000 0.750000
O O16 0.500000 0.750000 0.050875
#
# Coordination Sequence:
#
# PCOD8165359 Si02
#       8
#     8   8   4   8   8   8   8   4
#     4  10  21  35  54  80 116 159 190 245 287 363
#     4  11  23  39  59  85 121 158 206 246 313 355
#     4  10  24  40  62  88 114 156 200 260 298 374
#     4  11  21  34  58  90 126 159 192 243 304 366
#     4  11  18  32  51  81 120 158 194 226 284 356
#     4  11  23  39  56  87 119 156 202 253 298 370
#     4  10  21  32  51  80 118 155 193 235 287 357
#     4  10  20  42  58  86 118 144 202 242 310 366
#
# _framework density 19.114702999999999
#
# number of rings (size 3 to 8) (size 9 to 14) (size 15 to 20)
#    0.000    1.429    5.000    2.143    5.000    2.286 
#    0.000    0.000    0.000    3.429    0.000    0.000 
#    0.000    0.000    0.000    0.000    0.000    0.000 
#
# Total GULP energy -347046.135172 kJ/mol
# GULP energy per Si atom -12394.504828 kJ/mol
# Density = 1.907120 g / cm^3
# Si number density = 19.114703 Si / 1000 Ang^3
#
#
#
# Elastic Constant Matrix: (Units=GPa)
#
#
# Indices 1 2 3 4 5 6 
#
# 1 57.1176 33.1462 25.6759 0.0000 0.0000 0.0000
# 2 33.1462 103.4435 53.3668 0.0000 0.0000 0.0000
# 3 25.6759 53.3668 115.8405 0.0000 0.0000 0.0000
# 4 0.0000 0.0000 0.0000 43.0310 0.0000 0.0000
# 5 0.0000 0.0000 0.0000 0.0000 25.4506 0.0000
# 6 0.0000 0.0000 0.0000 0.0000 0.0000 22.1227
#
#
#
# Elastic Compliance Matrix: (Units=1/GPa)
#
#
# Indices 1 2 3 4 5 6 
#
# 1 0.021899 -0.005920 -0.002127 0.000000 0.000000 0.000000
# 2 -0.005920 0.014281 -0.005267 0.000000 0.000000 0.000000
# 3 -0.002127 -0.005267 0.011530 0.000000 0.000000 0.000000
# 4 0.000000 0.000000 0.000000 0.023239 0.000000 0.000000
# 5 0.000000 0.000000 0.000000 0.000000 0.039292 0.000000
# 6 0.000000 0.000000 0.000000 0.000000 0.000000 0.045202
#
#
# Mechanical properties :
#
#
# Convention : Reuss Voigt Hill
#
# Bulk Modulus (GPa) = 47.43052 55.64214 51.53633
# Shear Modulus (GPa) = 26.44107 29.06836 27.75472
#
# Velocity S-wave (km/s) = 3.72329 3.90389 3.81466
# Velocity P-wave (km/s) = 6.58417 7.03514 6.81339
#
# Compressibility (1/GPa) = 0.02108347
#
# Stress axis : x y z
#
# Youngs Moduli (GPa) = 45.66385 70.02127 86.72677
#
# Poissons Ratio (x) = 0.41452 0.18444
# Poissons Ratio (y) = 0.27033 0.45680
# Poissons Ratio (z) = 0.09711 0.36881
#
# Static dielectric constant tensor:
#      x y z
#    x 3.060900 0.000000 0.000000 
#    y 0.000000 3.719900 0.000000 
#    z 0.000000 0.000000 3.894780 
# 
# 
# High freq. dielectric constant tensor:
#      x y z
#    x 1.685980 0.000000 0.000000 
#    y 0.000000 1.746730 0.000000 
#    z 0.000000 0.000000 1.766660 
# 
# From -- ./inp_files/15286.got.cif
#   From: 2010.03.12/outbox.cif.g09.slc.cpg/sg24_8_cif.got.tgz:15286.got - 2010.04.14 03:06:53.
