data_PCOD8165218
_publ_section_title
;
Structure prediction by ZEFSAII (Michael W. Deem and Ramdas Pophale) SiO2 
 PCOD8165218
Probable space group: I 21 21 21
;
_chemical_formula_sum "Si O2"
_cell_formula_units_Z 40
_cell_length_a 9.714463
_cell_length_b 9.384775
_cell_length_c 22.022055
_cell_angle_alpha 90.000000
_cell_angle_beta 90.000000
_cell_angle_gamma 90.000000
_cell_volume 2007.707800
_symmetry_space_group_name_H-M "I 21 21 21"
_symmetry_group_IT_number 24
_symmetry_cell_setting 'orthorhombic'
loop_
_space_group_symop_operation_xyz
x,y,z
-x,1/2-y,z
x,-y,1/2-z
1/2-x,y,-z
1/2+x,1/2+y,1/2+z
1/2-x,-y,1/2+z
1/2+x,1/2-y,-z
-x,1/2+y,1/2-z
loop_
_atom_site_type_symbol
_atom_site_label
_atom_site_fract_x
_atom_site_fract_y
_atom_site_fract_z
Si Si1 0.085261 0.604496 0.992118
Si Si2 0.775112 0.419766 0.187996
Si Si3 0.504733 0.410187 0.116907
Si Si4 0.476504 0.415427 0.895580
Si Si5 0.746227 0.097571 0.193871
O O1 0.054497 0.524630 0.929493
O O2 0.000000 0.750000 0.992124
O O3 0.250000 0.629110 0.000000
O O4 0.017235 0.507865 0.044013
O O5 0.748151 0.500000 0.250000
O O6 0.657750 0.449008 0.137956
O O7 0.786818 0.257810 0.210078
O O8 0.913403 0.468840 0.154158
O O9 0.500000 0.250000 0.088717
O O10 0.414485 0.415219 0.178434
O O11 0.500000 0.250000 0.912825
O O12 0.328015 0.445648 0.866729
O O13 0.787841 0.000000 0.250000
#
# Coordination Sequence:
#
# PCOD8165218 Si02
#       5
#     8   8   8   8   8
#     4  12  27  44  64  94 128 164 211 268 324 374
#     4  10  22  37  62  97 125 158 210 256 307 376
#     4  10  22  42  65  90 124 168 211 254 311 377
#     4  10  22  42  65  90 124 168 211 254 311 377
#     4  10  20  37  62  89 125 168 206 252 311 368
#
# _framework density 19.923217000000001
#
# number of rings (size 3 to 8) (size 9 to 14) (size 15 to 20)
#    0.000    1.600    2.000    1.800    2.800    3.200 
#    0.000    0.000    0.000    0.000    0.000    0.000 
#    0.000    0.000    0.000    0.000    0.000    0.000 
#
# Total GULP energy -247995.602998 kJ/mol
# GULP energy per Si atom -12399.780150 kJ/mol
# Density = 1.987787 g / cm^3
# Si number density = 19.923217 Si / 1000 Ang^3
#
#
#
# Elastic Constant Matrix: (Units=GPa)
#
#
# Indices 1 2 3 4 5 6 
#
# 1 99.9140 47.1266 22.5712 0.0000 0.0000 0.0000
# 2 47.1266 101.7232 64.0619 0.0000 0.0000 0.0000
# 3 22.5712 64.0619 90.7138 0.0000 0.0000 0.0000
# 4 0.0000 0.0000 0.0000 27.6590 0.0000 0.0000
# 5 0.0000 0.0000 0.0000 0.0000 13.4331 0.0000
# 6 0.0000 0.0000 0.0000 0.0000 0.0000 28.4928
#
#
#
# Elastic Compliance Matrix: (Units=1/GPa)
#
#
# Indices 1 2 3 4 5 6 
#
# 1 0.012974 -0.007163 0.001831 0.000000 0.000000 0.000000
# 2 -0.007163 0.021660 -0.013514 0.000000 0.000000 0.000000
# 3 0.001831 -0.013514 0.020112 0.000000 0.000000 0.000000
# 4 0.000000 0.000000 0.000000 0.036155 0.000000 0.000000
# 5 0.000000 0.000000 0.000000 0.000000 0.074443 0.000000
# 6 0.000000 0.000000 0.000000 0.000000 0.000000 0.035097
#
#
# Mechanical properties :
#
#
# Convention : Reuss Voigt Hill
#
# Bulk Modulus (GPa) = 58.64339 62.20784 60.42562
# Shear Modulus (GPa) = 20.50725 24.48974 22.49849
#
# Velocity S-wave (km/s) = 3.21177 3.50981 3.36409
# Velocity P-wave (km/s) = 6.57667 6.90772 6.74423
#
# Compressibility (1/GPa) = 0.01705222
#
# Stress axis : x y z
#
# Youngs Moduli (GPa) = 77.07808 46.16844 49.72271
#
# Poissons Ratio (x) = 0.33073 -0.09103
# Poissons Ratio (y) = 0.55215 0.67194
# Poissons Ratio (z) = -0.14111 0.62391
#
# Static dielectric constant tensor:
#      x y z
#    x 3.794050 0.000000 0.000000 
#    y 0.000000 3.603810 0.000000 
#    z 0.000000 0.000000 3.396930 
# 
# 
# High freq. dielectric constant tensor:
#      x y z
#    x 1.796000 0.000000 0.000000 
#    y 0.000000 1.771460 0.000000 
#    z 0.000000 0.000000 1.774940 
# 
# From -- ./inp_files/9232.got.cif
#   From: 2010.03.12/outbox.cif.g09.slc.cpg/sg24_5_cif.got.tgz:9232.got - 2010.04.14 03:06:53.
