data_PCOD8165437
_publ_section_title
;
Structure prediction by ZEFSAII (Michael W. Deem and Ramdas Pophale) SiO2 
 PCOD8165437
Probable space group: I 21 21 21
;
_chemical_formula_sum "Si O2"
_cell_formula_units_Z 56
_cell_length_a 14.992213
_cell_length_b 16.579285
_cell_length_c 10.711701
_cell_angle_alpha 90.000000
_cell_angle_beta 90.000000
_cell_angle_gamma 90.000000
_cell_volume 2662.502244
_symmetry_space_group_name_H-M "I 21 21 21"
_symmetry_group_IT_number 24
_symmetry_cell_setting 'orthorhombic'
loop_
_space_group_symop_operation_xyz
x,y,z
-x,1/2-y,z
x,-y,1/2-z
1/2-x,y,-z
1/2+x,1/2+y,1/2+z
1/2-x,-y,1/2+z
1/2+x,1/2-y,-z
-x,1/2+y,1/2-z
loop_
_atom_site_type_symbol
_atom_site_label
_atom_site_fract_x
_atom_site_fract_y
_atom_site_fract_z
Si Si1 0.250000 0.830967 0.000000
Si Si2 0.381775 0.315154 0.166251
Si Si3 0.500000 0.750000 0.127734
Si Si4 0.499359 0.924081 0.480071
Si Si5 0.938344 0.909727 0.250251
Si Si6 0.200369 0.721077 0.230654
Si Si7 0.350102 0.808308 0.535212
Si Si8 0.558547 0.599455 0.975254
O O1 0.242661 0.771065 0.117454
O O2 0.164547 0.890555 0.001752
O O3 0.415135 0.264799 0.285082
O O4 0.440675 0.395661 0.139244
O O5 0.276743 0.328092 0.192442
O O6 0.394644 0.263998 0.041390
O O7 0.510840 0.673904 0.039629
O O8 0.547433 0.891387 0.604780
O O9 0.400873 0.888117 0.492049
O O10 0.483281 0.019175 0.463298
O O11 0.868743 0.847603 0.186636
O O12 0.031111 0.903639 0.171460
O O13 0.898648 0.000000 0.250000
O O14 0.147135 0.784441 0.318619
O O15 0.250000 0.827059 0.500000
#
# Coordination Sequence:
#
# PCOD8165437 Si02
#       8
#     4   8   4   8   8   8   8   8
#     4  12  24  42  66 104 138 182 226 272 342 430
#     4  11  22  41  66  96 130 171 226 280 338 404
#     4  12  22  46  62  92 138 180 226 276 346 422
#     4  11  22  42  68  98 131 172 225 283 339 400
#     4  10  23  44  67  98 129 172 228 283 338 405
#     4  11  23  42  69  97 132 177 228 282 344 408
#     4  10  21  37  66  96 123 170 219 273 331 391
#     4  11  26  42  67  97 139 179 224 278 348 417
#
# _framework density 21.032844999999998
#
# number of rings (size 3 to 8) (size 9 to 14) (size 15 to 20)
#    0.000    1.143    4.286    1.714    1.000    1.714 
#    2.571    0.000    3.143    0.000    0.000    0.000 
#    0.000    0.000    0.000    0.000    0.000    0.000 
#
# Total GULP energy -347008.607045 kJ/mol
# GULP energy per Si atom -12393.164537 kJ/mol
# Density = 2.098497 g / cm^3
# Si number density = 21.032845 Si / 1000 Ang^3
#
#
#
# Elastic Constant Matrix: (Units=GPa)
#
#
# Indices 1 2 3 4 5 6 
#
# 1 90.5400 52.6653 12.0248 0.0000 0.0000 0.0000
# 2 52.6653 128.4871 40.1795 0.0000 0.0000 0.0000
# 3 12.0248 40.1795 80.5145 0.0000 0.0000 0.0000
# 4 0.0000 0.0000 0.0000 25.1154 0.0000 0.0000
# 5 0.0000 0.0000 0.0000 0.0000 35.8883 0.0000
# 6 0.0000 0.0000 0.0000 0.0000 0.0000-1115.5421
#
#
#
# Elastic Compliance Matrix: (Units=1/GPa)
#
#
# Indices 1 2 3 4 5 6 
#
# 1 0.014564 -0.006267 0.000953 0.000000 0.000000 0.000000
# 2 -0.006267 0.011919 -0.005012 0.000000 0.000000 0.000000
# 3 0.000953 -0.005012 0.014779 0.000000 0.000000 0.000000
# 4 0.000000 0.000000 0.000000 0.039816 0.000000 0.000000
# 5 0.000000 0.000000 0.000000 0.000000 0.027864 0.000000
# 6 0.000000 0.000000 0.000000 0.000000 0.000000 -0.000896
#
#
# Mechanical properties :
#
#
# Convention : Reuss Voigt Hill
#
# Bulk Modulus (GPa) = 48.52413 56.58675 52.55544
# Shear Modulus (GPa) = 36.88142 -197.92955 -80.52406
#
# Velocity S-wave (km/s) = 4.19204 -9.71130 -6.19419
# Velocity P-wave (km/s) = 6.82288 9.93898 5.11036
#
# Compressibility (1/GPa) = 0.02060831
#
# Stress axis : x y z
#
# Youngs Moduli (GPa) = 68.66251 83.89844 67.66338
#
# Poissons Ratio (x) = 0.52583 -0.06445
# Poissons Ratio (y) = 0.43034 0.33913
# Poissons Ratio (z) = -0.06541 0.42050
#
# Static dielectric constant tensor:
#      x y z
#    x 3.863810 0.000000 0.000000 
#    y 0.000000 3.766700 0.000000 
#    z 0.000000 0.000000 14.428300 
# 
# 
# High freq. dielectric constant tensor:
#      x y z
#    x 1.829190 0.000000 0.000000 
#    y 0.000000 1.814580 0.000000 
#    z 0.000000 0.000000 1.826590 
# 
# From -- ./inp_files/20915.got.cif
#   From: 2010.03.12/outbox.cif.g09.slc.cpg/sg24_11_cif.got.tgz:20915.got - 2010.04.14 03:06:53.
