data_PCOD8165928
_publ_section_title
;
Structure prediction by ZEFSAII (Michael W. Deem and Ramdas Pophale) SiO2 
 PCOD8165928
Probable space group: I 21 21 21
;
_chemical_formula_sum "Si O2"
_cell_formula_units_Z 36
_cell_length_a 5.233745
_cell_length_b 18.344291
_cell_length_c 14.319373
_cell_angle_alpha 90.000000
_cell_angle_beta 90.000000
_cell_angle_gamma 90.000000
_cell_volume 1374.793570
_symmetry_space_group_name_H-M "I 21 21 21"
_symmetry_group_IT_number 24
_symmetry_cell_setting 'orthorhombic'
loop_
_space_group_symop_operation_xyz
x,y,z
-x,1/2-y,z
x,-y,1/2-z
1/2-x,y,-z
1/2+x,1/2+y,1/2+z
1/2-x,-y,1/2+z
1/2+x,1/2-y,-z
-x,1/2+y,1/2-z
loop_
_atom_site_type_symbol
_atom_site_label
_atom_site_fract_x
_atom_site_fract_y
_atom_site_fract_z
Si Si1 0.000000 0.250000 0.943618
Si Si2 0.480765 0.609154 0.336807
Si Si3 0.658717 0.500000 0.750000
Si Si4 0.450585 0.091023 0.586326
Si Si5 0.750000 0.972804 0.500000
Si Si6 0.568455 0.166131 0.366358
O O1 0.099262 0.181896 0.882499
O O2 0.750000 0.224731 0.000000
O O3 0.681787 0.544327 0.327351
O O4 0.265431 0.576828 0.406552
O O5 0.383913 0.631191 0.234749
O O6 0.498521 0.442037 0.690211
O O7 0.665381 0.154791 0.578039
O O8 0.162417 0.125014 0.577019
O O9 0.503479 0.026018 0.511621
O O10 0.500000 0.250000 0.356954
#
# Coordination Sequence:
#
# PCOD8165928 Si02
#       6
#     4   8   4   8   4   8
#     4  12  28  46  66 108 150 190 228 292 370 434
#     4  11  24  45  74 104 148 186 241 294 360 427
#     4  10  24  44  72 106 142 196 244 296 348 426
#     4  11  25  43  71 105 141 184 242 293 357 421
#     4  12  24  44  74 108 146 186 238 304 360 424
#     4  11  24  48  73 104 140 190 238 295 356 434
#
# _framework density 26.185749000000001
#
# number of rings (size 3 to 8) (size 9 to 14) (size 15 to 20)
#    0.000    0.889    2.222    4.667    3.111    7.111 
#    0.000    2.222    0.000    0.000    0.000    0.000 
#    0.000    0.000    0.000    0.000    0.000    0.000 
#
# Total GULP energy -223074.404936 kJ/mol
# GULP energy per Si atom -12393.022496 kJ/mol
# Density = 2.612615 g / cm^3
# Si number density = 26.185749 Si / 1000 Ang^3
#
#
#
# Elastic Constant Matrix: (Units=GPa)
#
#
# Indices 1 2 3 4 5 6 
#
# 1 148.5494 66.6421 38.0870 0.0000 0.0000 0.0000
# 2 66.6421 167.2572 47.2536 0.0000 0.0000 0.0000
# 3 38.0870 47.2536 94.5301 0.0000 0.0000 0.0000
# 4 0.0000 0.0000 0.0000 49.2647 0.0000 0.0000
# 5 0.0000 0.0000 0.0000 0.0000 36.4712 0.0000
# 6 0.0000 0.0000 0.0000 0.0000 0.0000 29.6396
#
#
#
# Elastic Compliance Matrix: (Units=1/GPa)
#
#
# Indices 1 2 3 4 5 6 
#
# 1 0.008516 -0.002822 -0.002020 0.000000 0.000000 0.000000
# 2 -0.002822 0.007897 -0.002811 0.000000 0.000000 0.000000
# 3 -0.002020 -0.002811 0.012798 0.000000 0.000000 0.000000
# 4 0.000000 0.000000 0.000000 0.020299 0.000000 0.000000
# 5 0.000000 0.000000 0.000000 0.000000 0.027419 0.000000
# 6 0.000000 0.000000 0.000000 0.000000 0.000000 0.033739
#
#
# Mechanical properties :
#
#
# Convention : Reuss Voigt Hill
#
# Bulk Modulus (GPa) = 71.91947 79.36690 75.64319
# Shear Modulus (GPa) = 38.28243 40.29870 39.29056
#
# Velocity S-wave (km/s) = 3.82770 3.92721 3.87777
# Velocity P-wave (km/s) = 6.86002 7.13715 6.99996
#
# Compressibility (1/GPa) = 0.01390444
#
# Stress axis : x y z
#
# Youngs Moduli (GPa) = 117.42745 126.62411 78.13954
#
# Poissons Ratio (x) = 0.35737 0.15787
# Poissons Ratio (y) = 0.33142 0.21962
# Poissons Ratio (z) = 0.23724 0.35589
#
# Static dielectric constant tensor:
#      x y z
#    x 4.411950 0.000000 0.000000 
#    y 0.000000 4.918410 0.000000 
#    z 0.000000 0.000000 5.043720 
# 
# 
# High freq. dielectric constant tensor:
#      x y z
#    x 2.030990 0.000000 0.000000 
#    y 0.000000 2.062130 0.000000 
#    z 0.000000 0.000000 2.083870 
# 
# From -- ./inp_files/23650.got.cif
#   From: 2010.03.12/outbox.cif.g09.slc.cpg/sg24_12_cif.got.tgz:23650.got - 2010.04.14 03:06:53.
