data_PCOD8165591
_publ_section_title
;
Structure prediction by ZEFSAII (Michael W. Deem and Ramdas Pophale) SiO2 
 PCOD8165591
Probable space group: I 21 21 21
;
_chemical_formula_sum "Si O2"
_cell_formula_units_Z 36
_cell_length_a 11.991774
_cell_length_b 11.881403
_cell_length_c 11.102430
_cell_angle_alpha 90.000000
_cell_angle_beta 90.000000
_cell_angle_gamma 90.000000
_cell_volume 1581.864230
_symmetry_space_group_name_H-M "I 21 21 21"
_symmetry_group_IT_number 24
_symmetry_cell_setting 'orthorhombic'
loop_
_space_group_symop_operation_xyz
x,y,z
-x,1/2-y,z
x,-y,1/2-z
1/2-x,y,-z
1/2+x,1/2+y,1/2+z
1/2-x,-y,1/2+z
1/2+x,1/2-y,-z
-x,1/2+y,1/2-z
loop_
_atom_site_type_symbol
_atom_site_label
_atom_site_fract_x
_atom_site_fract_y
_atom_site_fract_z
Si Si1 0.105428 0.502959 0.616572
Si Si2 0.703103 0.319480 0.729542
Si Si3 0.901215 0.165777 0.079854
Si Si4 0.390151 0.000000 0.250000
Si Si5 0.250000 0.322938 0.500000
Si Si6 0.019173 0.000000 0.250000
O O1 0.161941 0.500000 0.750000
O O2 0.144917 0.617424 0.547741
O O3 0.144697 0.395808 0.541789
O O4 0.969995 0.498842 0.631382
O O5 0.688716 0.234468 0.841998
O O6 0.815332 0.388652 0.755022
O O7 0.708094 0.252232 0.607696
O O8 0.597116 0.398684 0.705243
O O9 0.000000 0.250000 0.048869
O O10 0.941406 0.050855 0.145675
#
# Coordination Sequence:
#
# PCOD8165591 Si02
#       6
#     8   8   8   4   4   4
#     4  10  26  45  67  98 147 186 237 302 361 430
#     4  10  23  42  74 107 140 189 247 295 371 428
#     4  10  21  42  70 101 139 190 237 297 361 433
#     4   9  24  50  67 108 142 186 245 300 357 440
#     4  12  26  42  70 104 142 188 238 300 358 434
#     4   9  20  42  67 106 148 188 239 298 363 444
#
# _framework density 22.757959
#
# number of rings (size 3 to 8) (size 9 to 14) (size 15 to 20)
#    0.667    1.333    0.000    1.333    6.222    2.667 
#    0.000    0.000    0.000    0.000    0.000    0.000 
#    0.000    0.000    0.000    0.000    0.000    0.000 
#
# Total GULP energy -223117.983082 kJ/mol
# GULP energy per Si atom -12395.443505 kJ/mol
# Density = 2.270616 g / cm^3
# Si number density = 22.757959 Si / 1000 Ang^3
#
#
#
# Elastic Constant Matrix: (Units=GPa)
#
#
# Indices 1 2 3 4 5 6 
#
# 1 93.9879 61.1673 56.0541 0.0000 0.0000 0.0000
# 2 61.1673 167.2808 105.3020 0.0000 0.0000 0.0000
# 3 56.0541 105.3020 165.6238 0.0000 0.0000 0.0000
# 4 0.0000 0.0000 0.0000 -2.0829 0.0000 0.0000
# 5 0.0000 0.0000 0.0000 0.0000 21.0388 0.0000
# 6 0.0000 0.0000 0.0000 0.0000 0.0000 30.5024
#
#
#
# Elastic Compliance Matrix: (Units=1/GPa)
#
#
# Indices 1 2 3 4 5 6 
#
# 1 0.014594 -0.003713 -0.002578 0.000000 0.000000 0.000000
# 2 -0.003713 0.010912 -0.005681 0.000000 0.000000 0.000000
# 3 -0.002578 -0.005681 0.010522 0.000000 0.000000 0.000000
# 4 0.000000 0.000000 0.000000 -0.480106 0.000000 0.000000
# 5 0.000000 0.000000 0.000000 0.000000 0.047531 0.000000
# 6 0.000000 0.000000 0.000000 0.000000 0.000000 0.032784
#
#
# Mechanical properties :
#
#
# Convention : Reuss Voigt Hill
#
# Bulk Modulus (GPa) = 82.76100 96.88215 89.82158
# Shear Modulus (GPa) = -14.89029 23.51627 4.31299
#
# Velocity S-wave (km/s) = -2.56068 3.21802 1.37814
# Velocity P-wave (km/s) = 5.26326 7.51469 6.48739
#
# Compressibility (1/GPa) = 0.01208299
#
# Stress axis : x y z
#
# Youngs Moduli (GPa) = 68.52117 91.64331 95.03670
#
# Poissons Ratio (x) = 0.34031 0.24503
# Poissons Ratio (y) = 0.25444 0.53989
# Poissons Ratio (z) = 0.17667 0.52062
#
# Static dielectric constant tensor:
#      x y z
#    x 4.163910 0.000000 0.000000 
#    y 0.000000 4.262870 0.000000 
#    z 0.000000 0.000000 4.128540 
# 
# 
# High freq. dielectric constant tensor:
#      x y z
#    x 1.899160 0.000000 0.000000 
#    y 0.000000 1.912180 0.000000 
#    z 0.000000 0.000000 1.897340 
# 
# From -- ./inp_files/20493.got.cif
#   From: 2010.03.12/outbox.cif.g09.slc.cpg/sg24_11_cif.got.tgz:20493.got - 2010.04.14 03:06:53.
