data_PCOD8165875
_publ_section_title
;
Structure prediction by ZEFSAII (Michael W. Deem and Ramdas Pophale) SiO2 
 PCOD8165875
Probable space group: I 21 21 21
;
_chemical_formula_sum "Si O2"
_cell_formula_units_Z 56
_cell_length_a 12.736337
_cell_length_b 14.284440
_cell_length_c 13.833958
_cell_angle_alpha 90.000000
_cell_angle_beta 90.000000
_cell_angle_gamma 90.000000
_cell_volume 2516.831923
_symmetry_space_group_name_H-M "I 21 21 21"
_symmetry_group_IT_number 24
_symmetry_cell_setting 'orthorhombic'
loop_
_space_group_symop_operation_xyz
x,y,z
-x,1/2-y,z
x,-y,1/2-z
1/2-x,y,-z
1/2+x,1/2+y,1/2+z
1/2-x,-y,1/2+z
1/2+x,1/2-y,-z
-x,1/2+y,1/2-z
loop_
_atom_site_type_symbol
_atom_site_label
_atom_site_fract_x
_atom_site_fract_y
_atom_site_fract_z
Si Si1 0.959306 0.053120 0.082498
Si Si2 0.078129 0.473840 0.873666
Si Si3 0.308696 0.978750 0.902786
Si Si4 0.716869 0.911438 0.893410
Si Si5 0.753446 0.365522 0.229981
Si Si6 0.606707 0.205686 0.761068
Si Si7 0.520700 0.355575 0.292742
O O1 0.930212 0.131748 0.159300
O O2 0.895186 0.960896 0.106952
O O3 0.080312 0.027264 0.082337
O O4 0.927860 0.083100 0.973782
O O5 0.194389 0.516430 0.856086
O O6 0.054227 0.395812 0.792724
O O7 0.996382 0.563910 0.874880
O O8 0.318628 0.893662 0.827165
O O9 0.236085 0.054960 0.849888
O O10 0.250000 0.946153 0.000000
O O11 0.691498 0.827976 0.819550
O O12 0.750000 0.873251 0.000000
O O13 0.822203 0.282373 0.183139
O O14 0.637318 0.340447 0.258782
O O15 0.500000 0.250000 0.715672
O O16 0.500000 0.250000 0.330383
#
# Coordination Sequence:
#
# PCOD8165875 Si02
#       7
#     8   8   8   8   8   8   8
#     4  11  23  41  69  99 135 188 231 291 364 436
#     4  10  23  45  66 100 139 188 243 291 362 436
#     4  11  22  43  68  94 135 184 231 287 358 437
#     4  10  24  43  68  97 136 187 239 283 357 436
#     4  11  24  40  62 101 132 176 232 285 365 419
#     4  12  24  42  68 105 143 179 234 304 362 442
#     4  11  23  41  69  95 137 189 240 299 359 432
#
# _framework density 22.250195000000001
#
# number of rings (size 3 to 8) (size 9 to 14) (size 15 to 20)
#    0.000    1.143    1.429    5.571    8.000    1.143 
#    2.571    8.571    0.000    0.000    0.000    0.000 
#    0.000    0.000    0.000    0.000    0.000    0.000 
#
# Total GULP energy -346900.759315 kJ/mol
# GULP energy per Si atom -12389.312833 kJ/mol
# Density = 2.219955 g / cm^3
# Si number density = 22.250195 Si / 1000 Ang^3
#
#
#
# Elastic Constant Matrix: (Units=GPa)
#
#
# Indices 1 2 3 4 5 6 
#
# 1 109.8997 10.4179 23.5054 0.0000 0.0000 0.0000
# 2 10.4179 68.1398 32.4858 0.0000 0.0000 0.0000
# 3 23.5054 32.4858 107.0934 0.0000 0.0000 0.0000
# 4 0.0000 0.0000 0.0000 10.6709 0.0000 0.0000
# 5 0.0000 0.0000 0.0000 0.0000 30.4188 0.0000
# 6 0.0000 0.0000 0.0000 0.0000 0.0000 30.8515
#
#
#
# Elastic Compliance Matrix: (Units=1/GPa)
#
#
# Indices 1 2 3 4 5 6 
#
# 1 0.009564 -0.000540 -0.001936 0.000000 0.000000 0.000000
# 2 -0.000540 0.017187 -0.005095 0.000000 0.000000 0.000000
# 3 -0.001936 -0.005095 0.011308 0.000000 0.000000 0.000000
# 4 0.000000 0.000000 0.000000 0.093713 0.000000 0.000000
# 5 0.000000 0.000000 0.000000 0.000000 0.032874 0.000000
# 6 0.000000 0.000000 0.000000 0.000000 0.000000 0.032413
#
#
# Mechanical properties :
#
#
# Convention : Reuss Voigt Hill
#
# Bulk Modulus (GPa) = 43.63161 46.43901 45.03531
# Shear Modulus (GPa) = 22.74373 28.96982 25.85678
#
# Velocity S-wave (km/s) = 3.20063 3.61224 3.41265
# Velocity P-wave (km/s) = 5.77155 6.18986 5.98436
#
# Compressibility (1/GPa) = 0.02291916
#
# Stress axis : x y z
#
# Youngs Moduli (GPa) = 104.55517 58.18231 88.43249
#
# Poissons Ratio (x) = 0.03139 0.17117
# Poissons Ratio (y) = 0.05641 0.45058
# Poissons Ratio (z) = 0.20237 0.29645
#
# Static dielectric constant tensor:
#      x y z
#    x 4.201610 0.000000 0.000000 
#    y 0.000000 3.975850 0.000000 
#    z 0.000000 0.000000 4.249200 
# 
# 
# High freq. dielectric constant tensor:
#      x y z
#    x 1.898650 0.000000 0.000000 
#    y 0.000000 1.864830 0.000000 
#    z 0.000000 0.000000 1.868190 
# 
# From -- ./inp_files/25836.got.cif
#   From: 2010.03.12/outbox.cif.g09.slc.cpg/sg24_13_cif.got.tgz:25836.got - 2010.04.14 03:06:53.
