data_PCOD8165210
_publ_section_title
;
Structure prediction by ZEFSAII (Michael W. Deem and Ramdas Pophale) SiO2 
 PCOD8165210
Probable space group: I 21 21 21
;
_chemical_formula_sum "Si O2"
_cell_formula_units_Z 64
_cell_length_a 27.413531
_cell_length_b 12.732060
_cell_length_c 8.611125
_cell_angle_alpha 90.000000
_cell_angle_beta 90.000000
_cell_angle_gamma 90.000000
_cell_volume 3005.547172
_symmetry_space_group_name_H-M "I 21 21 21"
_symmetry_group_IT_number 24
_symmetry_cell_setting 'orthorhombic'
loop_
_space_group_symop_operation_xyz
x,y,z
-x,1/2-y,z
x,-y,1/2-z
1/2-x,y,-z
1/2+x,1/2+y,1/2+z
1/2-x,-y,1/2+z
1/2+x,1/2-y,-z
-x,1/2+y,1/2-z
loop_
_atom_site_type_symbol
_atom_site_label
_atom_site_fract_x
_atom_site_fract_y
_atom_site_fract_z
Si Si1 0.462191 0.330057 0.042561
Si Si2 0.857889 0.104409 0.453524
Si Si3 0.369712 0.009846 0.430690
Si Si4 0.698210 0.683293 0.441687
Si Si5 0.698556 0.295478 0.422736
Si Si6 0.641991 0.866220 0.591260
Si Si7 0.044657 0.604182 0.858758
Si Si8 0.475005 0.983065 0.931662
O O1 0.500000 0.250000 0.961949
O O2 0.458246 0.304761 0.227360
O O3 0.409270 0.321947 0.968465
O O4 0.486776 0.441205 0.015871
O O5 0.816449 0.178564 0.525795
O O6 0.862316 0.134221 0.274768
O O7 0.908342 0.126638 0.537516
O O8 0.844483 0.981577 0.473887
O O9 0.341163 0.116739 0.472629
O O10 0.383216 0.000000 0.250000
O O11 0.338819 0.909621 0.482316
O O12 0.418667 0.003441 0.530999
O O13 0.750000 0.643180 0.500000
O O14 0.702717 0.706034 0.260946
O O15 0.683992 0.788670 0.533177
O O16 0.750000 0.325613 0.500000
O O17 0.051193 0.500000 0.750000
O O18 0.997727 0.617925 0.978164
O O19 0.483640 0.000000 0.750000
#
# Coordination Sequence:
#
# PCOD8165210 Si02
#       8
#     8   8   8   8   8   8   8   8
#     4  11  22  37  60  89 125 166 211 258 310 374
#     4  11  23  41  66  93 131 167 213 266 316 382
#     4  10  23  44  65  92 128 169 212 267 323 385
#     4  11  24  43  68  93 126 167 215 265 329 388
#     4  11  25  43  67  95 126 164 216 270 325 384
#     4  11  23  41  66  94 129 170 212 264 323 377
#     4  10  20  37  61  87 125 167 207 253 311 372
#     4  11  22  37  60  90 124 163 206 252 307 374
#
# _framework density 21.293959000000001
#
# number of rings (size 3 to 8) (size 9 to 14) (size 15 to 20)
#    0.000    1.250    2.500    4.500    0.000    6.500 
#    0.000    1.250    0.000    0.000    0.000    0.000 
#    0.000    0.000    0.000    0.000    0.000    0.000 
#
# Total GULP energy -396595.691107 kJ/mol
# GULP energy per Si atom -12393.615347 kJ/mol
# Density = 2.124549 g / cm^3
# Si number density = 21.293959 Si / 1000 Ang^3
#
#
#
# Elastic Constant Matrix: (Units=GPa)
#
#
# Indices 1 2 3 4 5 6 
#
# 1 107.1069 15.9043 41.5421 0.0000 0.0000 0.0000
# 2 15.9043 62.9904 29.1487 0.0000 0.0000 0.0000
# 3 41.5421 29.1487 103.7225 0.0000 0.0000 0.0000
# 4 0.0000 0.0000 0.0000 19.9027 0.0000 0.0000
# 5 0.0000 0.0000 0.0000 0.0000 42.8735 0.0000
# 6 0.0000 0.0000 0.0000 0.0000 0.0000 19.9561
#
#
#
# Elastic Compliance Matrix: (Units=1/GPa)
#
#
# Indices 1 2 3 4 5 6 
#
# 1 0.011094 -0.000856 -0.004202 0.000000 0.000000 0.000000
# 2 -0.000856 0.018315 -0.004804 0.000000 0.000000 0.000000
# 3 -0.004202 -0.004804 0.012674 0.000000 0.000000 0.000000
# 4 0.000000 0.000000 0.000000 0.050244 0.000000 0.000000
# 5 0.000000 0.000000 0.000000 0.000000 0.023324 0.000000
# 6 0.000000 0.000000 0.000000 0.000000 0.000000 0.050110
#
#
# Mechanical properties :
#
#
# Convention : Reuss Voigt Hill
#
# Bulk Modulus (GPa) = 44.72853 49.66778 47.19816
# Shear Modulus (GPa) = 25.91495 29.02813 27.47154
#
# Velocity S-wave (km/s) = 3.49235 3.69617 3.59571
# Velocity P-wave (km/s) = 6.10843 6.44911 6.28108
#
# Compressibility (1/GPa) = 0.02235709
#
# Stress axis : x y z
#
# Youngs Moduli (GPa) = 90.14235 54.60113 78.90004
#
# Poissons Ratio (x) = 0.04676 0.33157
# Poissons Ratio (y) = 0.07719 0.37903
# Poissons Ratio (z) = 0.37882 0.26230
#
# Static dielectric constant tensor:
#      x y z
#    x 4.040160 0.000000 0.000000 
#    y 0.000000 4.056510 0.000000 
#    z 0.000000 0.000000 4.234820 
# 
# 
# High freq. dielectric constant tensor:
#      x y z
#    x 1.839050 0.000000 0.000000 
#    y 0.000000 1.831630 0.000000 
#    z 0.000000 0.000000 1.850140 
# 
# From -- ./inp_files/16070.got.cif
#   From: 2010.03.12/outbox.cif.g09.slc.cpg/sg24_9_cif.got.tgz:16070.got - 2010.04.14 03:06:53.
