data_PCOD8165166
_publ_section_title
;
Structure prediction by ZEFSAII (Michael W. Deem and Ramdas Pophale) SiO2 
 PCOD8165166
Probable space group: I 21 21 21
;
_chemical_formula_sum "Si O2"
_cell_formula_units_Z 64
_cell_length_a 15.141795
_cell_length_b 22.705104
_cell_length_c 9.421719
_cell_angle_alpha 90.000000
_cell_angle_beta 90.000000
_cell_angle_gamma 90.000000
_cell_volume 3239.149590
_symmetry_space_group_name_H-M "I 21 21 21"
_symmetry_group_IT_number 24
_symmetry_cell_setting 'orthorhombic'
loop_
_space_group_symop_operation_xyz
x,y,z
-x,1/2-y,z
x,-y,1/2-z
1/2-x,y,-z
1/2+x,1/2+y,1/2+z
1/2-x,-y,1/2+z
1/2+x,1/2-y,-z
-x,1/2+y,1/2-z
loop_
_atom_site_type_symbol
_atom_site_label
_atom_site_fract_x
_atom_site_fract_y
_atom_site_fract_z
Si Si1 0.664822 0.497439 0.407234
Si Si2 0.679843 0.954823 0.378406
Si Si3 0.898923 0.251721 0.655365
Si Si4 0.498979 0.962142 0.542315
Si Si5 0.337134 0.664468 0.919451
Si Si6 0.498996 0.091153 0.666961
Si Si7 0.853653 0.369369 0.522447
Si Si8 0.274073 0.678279 0.339160
O O1 0.701157 0.500000 0.250000
O O2 0.750000 0.508959 0.500000
O O3 0.589463 0.545350 0.446720
O O4 0.622183 0.432850 0.416685
O O5 0.750000 0.970732 0.500000
O O6 0.582094 0.959179 0.439574
O O7 0.693801 0.888869 0.321276
O O8 0.693745 0.000000 0.250000
O O9 0.875764 0.219005 0.508255
O O10 0.876318 0.320036 0.636978
O O11 0.849424 0.223196 0.789006
O O12 0.000000 0.250000 0.694605
O O13 0.504233 0.910253 0.660832
O O14 0.489582 0.024528 0.618050
O O15 0.410631 0.614528 0.903235
O O16 0.310709 0.687571 0.762832
O O17 0.250000 0.638921 0.000000
O O18 0.416102 0.132962 0.619452
O O19 0.750000 0.363900 0.500000
O O20 0.250000 0.693872 0.500000
#
# Coordination Sequence:
#
# PCOD8165166 Si02
#       8
#     8   8   8   8   8   8   8   8
#     4  10  23  40  65  90 125 161 206 255 324 376
#     4  11  25  37  60  94 134 176 220 253 309 384
#     4  11  22  40  67  93 116 160 220 267 316 377
#     4  10  23  36  59  88 132 162 202 257 313 379
#     4  10  21  37  63  89 122 163 210 262 308 367
#     4  10  20  36  60  93 121 162 208 256 321 369
#     4  10  21  38  64  90 120 155 211 265 308 377
#     4  10  23  41  60  86 133 171 204 261 330 372
#
# _framework density 19.758272000000002
#
# number of rings (size 3 to 8) (size 9 to 14) (size 15 to 20)
#    0.000    1.750    1.250    3.000   12.250    1.000 
#    0.000    1.250    5.500    0.000    0.000    0.000 
#    0.000    0.000    0.000    0.000    0.000    0.000 
#
# Total GULP energy -396673.853670 kJ/mol
# GULP energy per Si atom -12396.057927 kJ/mol
# Density = 1.971330 g / cm^3
# Si number density = 19.758272 Si / 1000 Ang^3
#
#
#
# Elastic Constant Matrix: (Units=GPa)
#
#
# Indices 1 2 3 4 5 6 
#
# 1 154.1720 43.3646 64.5360 0.0000 0.0000 0.0000
# 2 43.3646 61.7247 32.1241 -0.0001 0.0000 0.0000
# 3 64.5360 32.1241 137.2003 -0.0005 -0.0001 -0.0003
# 4 0.0000 -0.0001 -0.0005 34.1807 0.0000 -0.0001
# 5 0.0000 0.0000 -0.0001 0.0000 33.3489 0.0000
# 6 0.0000 0.0000 -0.0003 -0.0001 0.0000 30.6694
#
#
#
# Elastic Compliance Matrix: (Units=1/GPa)
#
#
# Indices 1 2 3 4 5 6 
#
# 1 0.009167 -0.004778 -0.003193 0.000000 0.000000 0.000000
# 2 -0.004778 0.020940 -0.002655 0.000000 0.000000 0.000000
# 3 -0.003193 -0.002655 0.009412 0.000000 0.000000 0.000000
# 4 0.000000 0.000000 0.000000 0.029256 0.000000 0.000000
# 5 0.000000 0.000000 0.000000 0.000000 0.029986 0.000000
# 6 0.000000 0.000000 0.000000 0.000000 0.000000 0.032606
#
#
# Mechanical properties :
#
#
# Convention : Reuss Voigt Hill
#
# Bulk Modulus (GPa) = 54.74750 70.34961 62.54855
# Shear Modulus (GPa) = 31.50415 33.84461 32.67438
#
# Velocity S-wave (km/s) = 3.99742 4.14325 4.07099
# Velocity P-wave (km/s) = 7.00533 7.65318 7.33641
#
# Compressibility (1/GPa) = 0.01826568
#
# Stress axis : x y z
#
# Youngs Moduli (GPa) = 109.08784 47.75567 106.24425
#
# Poissons Ratio (x) = 0.22820 0.33925
# Poissons Ratio (y) = 0.52126 0.28210
# Poissons Ratio (z) = 0.34833 0.12680
#
# Static dielectric constant tensor:
#      x y z
#    x 3.732910 0.000000 0.000000 
#    y 0.000000 3.849980 0.000000 
#    z 0.000000 0.000000 3.792380 
# 
# 
# High freq. dielectric constant tensor:
#      x y z
#    x 1.786430 0.000000 0.000000 
#    y 0.000000 1.751910 0.000000 
#    z 0.000000 0.000000 1.769450 
# 
# From -- ./inp_files/13353.got.cif
#   From: 2010.03.12/outbox.cif.g09.slc.cpg/sg24_7_cif.got.tgz:13353.got - 2010.04.14 03:06:53.
