data_PCOD8165732
_publ_section_title
;
Structure prediction by ZEFSAII (Michael W. Deem and Ramdas Pophale) SiO2 
 PCOD8165732
Probable space group: I 21 21 21
;
_chemical_formula_sum "Si O2"
_cell_formula_units_Z 40
_cell_length_a 8.670369
_cell_length_b 7.508158
_cell_length_c 27.209349
_cell_angle_alpha 90.000000
_cell_angle_beta 90.000000
_cell_angle_gamma 90.000000
_cell_volume 1771.287816
_symmetry_space_group_name_H-M "I 21 21 21"
_symmetry_group_IT_number 24
_symmetry_cell_setting 'orthorhombic'
loop_
_space_group_symop_operation_xyz
x,y,z
-x,1/2-y,z
x,-y,1/2-z
1/2-x,y,-z
1/2+x,1/2+y,1/2+z
1/2-x,-y,1/2+z
1/2+x,1/2-y,-z
-x,1/2+y,1/2-z
loop_
_atom_site_type_symbol
_atom_site_label
_atom_site_fract_x
_atom_site_fract_y
_atom_site_fract_z
Si Si1 0.000000 0.250000 0.711650
Si Si2 0.000000 0.250000 0.932277
Si Si3 0.731475 0.000000 0.250000
Si Si4 0.845056 0.526360 0.638852
Si Si5 0.439451 0.058675 0.579447
Si Si6 0.860949 0.859691 0.343145
Si Si7 0.250000 0.152409 0.000000
O O1 0.869773 0.178632 0.748097
O O2 0.928868 0.414723 0.681080
O O3 0.977295 0.434195 0.901706
O O4 0.846336 0.219197 0.964448
O O5 0.826086 0.995676 0.199045
O O6 0.700724 0.414238 0.618193
O O7 0.785203 0.728108 0.650334
O O8 0.500000 0.250000 0.563138
O O9 0.578859 0.947259 0.605531
O O10 0.374021 0.963892 0.530783
O O11 0.000000 0.750000 0.319473
#
# Coordination Sequence:
#
# PCOD8165732 Si02
#       7
#     4   4   4   8   8   8   4
#     4  12  24  41  64  96 146 172 236 281 340 422
#     4  10  22  41  66  94 130 172 232 263 364 414
#     4  12  24  38  64 102 128 182 226 284 340 406
#     4  10  22  42  65  93 133 186 218 280 349 416
#     4  10  22  44  65  95 135 174 228 283 357 415
#     4  10  23  41  67  93 133 176 229 282 348 415
#     4  10  24  42  68 102 128 178 230 292 340 424
#
# _framework density 22.582439000000001
#
# number of rings (size 3 to 8) (size 9 to 14) (size 15 to 20)
#    0.000    1.600    0.000    3.600    7.000    4.000 
#   10.800    0.000    0.000    0.000    0.000    0.000 
#    0.000    0.000    0.000    0.000    0.000    0.000 
#
# Total GULP energy -247824.059099 kJ/mol
# GULP energy per Si atom -12391.202955 kJ/mol
# Density = 2.253104 g / cm^3
# Si number density = 22.582439 Si / 1000 Ang^3
#
#
#
# Elastic Constant Matrix: (Units=GPa)
#
#
# Indices 1 2 3 4 5 6 
#
# 1 95.6076 55.8217 49.7118 0.0000 0.0000 0.0000
# 2 55.8217 97.8375 43.5910 0.0000 0.0000 0.0000
# 3 49.7118 43.5910 118.9332 0.0000 0.0000 0.0000
# 4 0.0000 0.0000 0.0000 21.5490 0.0000 0.0000
# 5 0.0000 0.0000 0.0000 0.0000 40.5338 0.0000
# 6 0.0000 0.0000 0.0000 0.0000 0.0000 47.1621
#
#
#
# Elastic Compliance Matrix: (Units=1/GPa)
#
#
# Indices 1 2 3 4 5 6 
#
# 1 0.017374 -0.007980 -0.004337 0.000000 0.000000 0.000000
# 2 -0.007980 0.015882 -0.002485 0.000000 0.000000 0.000000
# 3 -0.004337 -0.002485 0.011132 0.000000 0.000000 0.000000
# 4 0.000000 0.000000 0.000000 0.046406 0.000000 0.000000
# 5 0.000000 0.000000 0.000000 0.000000 0.024671 0.000000
# 6 0.000000 0.000000 0.000000 0.000000 0.000000 0.021203
#
#
# Mechanical properties :
#
#
# Convention : Reuss Voigt Hill
#
# Bulk Modulus (GPa) = 67.65003 67.84747 67.74875
# Shear Modulus (GPa) = 29.20561 32.73257 30.96909
#
# Velocity S-wave (km/s) = 3.60013 3.81132 3.70723
# Velocity P-wave (km/s) = 6.87773 7.03405 6.95633
#
# Compressibility (1/GPa) = 0.01478196
#
# Stress axis : x y z
#
# Youngs Moduli (GPa) = 57.55730 62.96596 89.83329
#
# Poissons Ratio (x) = 0.50250 0.38961
# Poissons Ratio (y) = 0.45934 0.22325
# Poissons Ratio (z) = 0.24963 0.15648
#
# Static dielectric constant tensor:
#      x y z
#    x 4.329700 0.000000 0.000000 
#    y 0.000000 3.802960 0.000000 
#    z 0.000000 0.000000 4.063430 
# 
# 
# High freq. dielectric constant tensor:
#      x y z
#    x 1.907220 0.000000 0.000000 
#    y 0.000000 1.867000 0.000000 
#    z 0.000000 0.000000 1.894310 
# 
# From -- ./inp_files/36794.got.cif
#   From: 2010.03.12/outbox.cif.g09.slc.cpg/sg24_19_cif.got.tgz:36794.got - 2010.04.14 03:06:53.
