data_PCOD8165672
_publ_section_title
;
Structure prediction by ZEFSAII (Michael W. Deem and Ramdas Pophale) SiO2 
 PCOD8165672
Probable space group: I 21 21 21
;
_chemical_formula_sum "Si O2"
_cell_formula_units_Z 48
_cell_length_a 6.692411
_cell_length_b 23.554936
_cell_length_c 14.597910
_cell_angle_alpha 90.000000
_cell_angle_beta 90.000000
_cell_angle_gamma 90.000000
_cell_volume 2301.204501
_symmetry_space_group_name_H-M "I 21 21 21"
_symmetry_group_IT_number 24
_symmetry_cell_setting 'orthorhombic'
loop_
_space_group_symop_operation_xyz
x,y,z
-x,1/2-y,z
x,-y,1/2-z
1/2-x,y,-z
1/2+x,1/2+y,1/2+z
1/2-x,-y,1/2+z
1/2+x,1/2-y,-z
-x,1/2+y,1/2-z
loop_
_atom_site_type_symbol
_atom_site_label
_atom_site_fract_x
_atom_site_fract_y
_atom_site_fract_z
Si Si1 0.433116 0.491493 0.557493
Si Si2 0.000000 0.250000 0.768340
Si Si3 0.329444 0.708898 0.598574
Si Si4 0.820435 0.058325 0.714083
Si Si5 0.679993 0.360095 0.309680
Si Si6 0.507734 0.598839 0.657145
Si Si7 0.750000 0.407508 0.500000
O O1 0.250000 0.518087 0.500000
O O2 0.346298 0.452728 0.637798
O O3 0.569869 0.543014 0.598225
O O4 0.560890 0.450049 0.492409
O O5 0.853043 0.211369 0.829722
O O6 0.874253 0.293966 0.705771
O O7 0.500000 0.750000 0.636008
O O8 0.250000 0.728043 0.500000
O O9 0.445434 0.649288 0.589115
O O10 0.702184 0.086108 0.796636
O O11 0.984147 0.102132 0.681748
O O12 0.922424 0.000000 0.750000
O O13 0.777964 0.367591 0.410365
O O14 0.819403 0.383264 0.227949
#
# Coordination Sequence:
#
# PCOD8165672 Si02
#       7
#     8   4   8   8   8   8   4
#     4  11  23  42  64 100 138 177 219 279 348 410
#     4  12  26  46  70  96 134 188 228 280 342 392
#     4  12  24  44  68  99 134 171 223 279 330 405
#     4  10  22  38  66  93 130 177 216 270 335 406
#     4  12  25  44  69  98 134 182 233 283 339 401
#     4  11  24  41  67  98 136 177 222 269 347 417
#     4  12  26  42  68 102 138 174 234 292 332 406
#
# _framework density 20.858642
#
# number of rings (size 3 to 8) (size 9 to 14) (size 15 to 20)
#    0.000    0.667    7.500    0.500    2.333    0.000 
#    4.500    3.333    0.000    0.000    0.000    0.000 
#    0.000    0.000    0.000    0.000    0.000    0.000 
#
# Total GULP energy -297522.766589 kJ/mol
# GULP energy per Si atom -12396.781941 kJ/mol
# Density = 2.081117 g / cm^3
# Si number density = 20.858642 Si / 1000 Ang^3
#
#
#
# Elastic Constant Matrix: (Units=GPa)
#
#
# Indices 1 2 3 4 5 6 
#
# 1 63.7845 37.0747 21.3412 0.0001 0.0000 0.0000
# 2 37.0747 119.0895 40.2445 0.0001 0.0000 0.0000
# 3 21.3412 40.2445 89.6681 0.0004 -0.0001 0.0000
# 4 0.0001 0.0001 0.0004 31.2923 0.0000 0.0000
# 5 0.0000 0.0000 -0.0001 0.0000 27.3419 0.0000
# 6 0.0000 0.0000 0.0000 0.0000 0.0000 33.0984
#
#
#
# Elastic Compliance Matrix: (Units=1/GPa)
#
#
# Indices 1 2 3 4 5 6 
#
# 1 0.019523 -0.005314 -0.002262 0.000000 0.000000 0.000000
# 2 -0.005314 0.011345 -0.003827 0.000000 0.000000 0.000000
# 3 -0.002262 -0.003827 0.013408 0.000000 0.000000 0.000000
# 4 0.000000 0.000000 0.000000 0.031957 0.000000 0.000000
# 5 0.000000 0.000000 0.000000 0.000000 0.036574 0.000000
# 6 0.000000 0.000000 0.000000 0.000000 0.000000 0.030213
#
#
# Mechanical properties :
#
#
# Convention : Reuss Voigt Hill
#
# Bulk Modulus (GPa) = 46.57397 52.20696 49.39046
# Shear Modulus (GPa) = 28.90496 29.93865 29.42180
#
# Velocity S-wave (km/s) = 3.72661 3.79266 3.75978
# Velocity P-wave (km/s) = 6.39482 6.65299 6.52518
#
# Compressibility (1/GPa) = 0.02147122
#
# Stress axis : x y z
#
# Youngs Moduli (GPa) = 51.22159 88.14833 74.58159
#
# Poissons Ratio (x) = 0.46838 0.16868
# Poissons Ratio (y) = 0.27217 0.28542
# Poissons Ratio (z) = 0.11585 0.33734
#
# Static dielectric constant tensor:
#      x y z
#    x 3.686100 0.000000 0.000000 
#    y 0.000000 3.913290 0.000000 
#    z 0.000000 0.000000 3.846500 
# 
# 
# High freq. dielectric constant tensor:
#      x y z
#    x 1.816210 0.000000 0.000000 
#    y 0.000000 1.816050 0.000000 
#    z 0.000000 0.000000 1.815170 
# 
# From -- ./inp_files/23934.got.cif
#   From: 2010.03.12/outbox.cif.g09.slc.cpg/sg24_12_cif.got.tgz:23934.got - 2010.04.14 03:06:53.
