data_PCOD8165370
_publ_section_title
;
Structure prediction by ZEFSAII (Michael W. Deem and Ramdas Pophale) SiO2 
 PCOD8165370
Probable space group: I 21 21 21
;
_chemical_formula_sum "Si O2"
_cell_formula_units_Z 48
_cell_length_a 26.789193
_cell_length_b 9.494625
_cell_length_c 8.703966
_cell_angle_alpha 90.000000
_cell_angle_beta 90.000000
_cell_angle_gamma 90.000000
_cell_volume 2213.882837
_symmetry_space_group_name_H-M "I 21 21 21"
_symmetry_group_IT_number 24
_symmetry_cell_setting 'orthorhombic'
loop_
_space_group_symop_operation_xyz
x,y,z
-x,1/2-y,z
x,-y,1/2-z
1/2-x,y,-z
1/2+x,1/2+y,1/2+z
1/2-x,-y,1/2+z
1/2+x,1/2-y,-z
-x,1/2+y,1/2-z
loop_
_atom_site_type_symbol
_atom_site_label
_atom_site_fract_x
_atom_site_fract_y
_atom_site_fract_z
Si Si1 0.637520 0.794797 0.492595
Si Si2 0.122666 0.500000 0.250000
Si Si3 0.750000 0.354461 0.500000
Si Si4 0.544166 0.152788 0.208924
Si Si5 0.297093 0.345674 0.286575
Si Si6 0.848677 0.512289 0.078063
Si Si7 0.892696 0.204251 0.507674
O O1 0.588035 0.863378 0.417016
O O2 0.682873 0.785704 0.373682
O O3 0.625176 0.632670 0.529349
O O4 0.653283 0.888390 0.642219
O O5 0.091374 0.400850 0.368070
O O6 0.748021 0.251698 0.349733
O O7 0.798356 0.452417 0.514609
O O8 0.500000 0.250000 0.143338
O O9 0.564521 0.219117 0.366309
O O10 0.522574 0.000000 0.250000
O O11 0.275678 0.500000 0.250000
O O12 0.341253 0.353245 0.415153
O O13 0.830205 0.500000 0.250000
O O14 0.887829 0.638209 0.057431
#
# Coordination Sequence:
#
# PCOD8165370 Si02
#       7
#     8   4   4   8   8   8   8
#     4  11  23  41  74  91 130 180 223 269 340 407
#     4  12  18  40  68  94 120 168 220 270 320 392
#     4  10  26  40  58  92 138 162 230 286 320 396
#     4  11  24  43  69 102 131 172 226 275 332 403
#     4  10  20  43  63  92 121 171 223 273 330 388
#     4  11  24  40  62  96 129 175 215 271 339 397
#     4  10  21  40  67  91 129 166 219 265 325 406
#
# _framework density 21.681363000000001
#
# number of rings (size 3 to 8) (size 9 to 14) (size 15 to 20)
#    0.000    1.333    5.000    1.000    4.667    4.667 
#    9.000    0.833    3.667    0.000    0.000    0.000 
#    0.000    0.000    0.000    0.000    0.000    0.000 
#
# Total GULP energy -297466.039130 kJ/mol
# GULP energy per Si atom -12394.418297 kJ/mol
# Density = 2.163202 g / cm^3
# Si number density = 21.681363 Si / 1000 Ang^3
#
#
#
# Elastic Constant Matrix: (Units=GPa)
#
#
# Indices 1 2 3 4 5 6 
#
# 1 45.6809 17.8310 11.7656 0.0000 0.0000 0.0000
# 2 17.8310 159.6097 44.4054 0.0000 0.0000 0.0000
# 3 11.7656 44.4054 115.9269 0.0000 0.0000 0.0000
# 4 0.0000 0.0000 0.0000 42.8693 0.0000 0.0000
# 5 0.0000 0.0000 0.0000 0.0000 14.7168 0.0000
# 6 0.0000 0.0000 0.0000 0.0000 0.0000 19.7301
#
#
#
# Elastic Compliance Matrix: (Units=1/GPa)
#
#
# Indices 1 2 3 4 5 6 
#
# 1 0.023126 -0.002161 -0.001519 0.000000 0.000000 0.000000
# 2 -0.002161 0.007215 -0.002544 0.000000 0.000000 0.000000
# 3 -0.001519 -0.002544 0.009755 0.000000 0.000000 0.000000
# 4 0.000000 0.000000 0.000000 0.023327 0.000000 0.000000
# 5 0.000000 0.000000 0.000000 0.000000 0.067949 0.000000
# 6 0.000000 0.000000 0.000000 0.000000 0.000000 0.050684
#
#
# Mechanical properties :
#
#
# Convention : Reuss Voigt Hill
#
# Bulk Modulus (GPa) = 36.17110 52.13574 44.15342
# Shear Modulus (GPa) = 24.54355 31.94427 28.24391
#
# Velocity S-wave (km/s) = 3.36819 3.84259 3.61318
# Velocity P-wave (km/s) = 5.64318 6.61709 6.14945
#
# Compressibility (1/GPa) = 0.02764638
#
# Stress axis : x y z
#
# Youngs Moduli (GPa) = 43.24179 138.60958 102.51289
#
# Poissons Ratio (x) = 0.29951 0.15576
# Poissons Ratio (y) = 0.09344 0.26081
# Poissons Ratio (z) = 0.06570 0.35265
#
# Static dielectric constant tensor:
#      x y z
#    x 3.272050 0.000000 0.000000 
#    y 0.000000 4.165550 0.000000 
#    z 0.000000 0.000000 4.110300 
# 
# 
# High freq. dielectric constant tensor:
#      x y z
#    x 1.789310 0.000000 0.000000 
#    y 0.000000 1.877020 0.000000 
#    z 0.000000 0.000000 1.861550 
# 
# From -- ./inp_files/9796.got.cif
#   From: 2010.03.12/outbox.cif.g09.slc.cpg/sg24_5_cif.got.tgz:9796.got - 2010.04.14 03:06:53.
