data_PCOD8165005
_publ_section_title
;
Structure prediction by ZEFSAII (Michael W. Deem and Ramdas Pophale) SiO2 
 PCOD8165005
Probable space group: I 21 21 21
;
_chemical_formula_sum "Si O2"
_cell_formula_units_Z 64
_cell_length_a 11.849452
_cell_length_b 17.608652
_cell_length_c 15.417484
_cell_angle_alpha 90.000000
_cell_angle_beta 90.000000
_cell_angle_gamma 90.000000
_cell_volume 3216.902387
_symmetry_space_group_name_H-M "I 21 21 21"
_symmetry_group_IT_number 24
_symmetry_cell_setting 'orthorhombic'
loop_
_space_group_symop_operation_xyz
x,y,z
-x,1/2-y,z
x,-y,1/2-z
1/2-x,y,-z
1/2+x,1/2+y,1/2+z
1/2-x,-y,1/2+z
1/2+x,1/2-y,-z
-x,1/2+y,1/2-z
loop_
_atom_site_type_symbol
_atom_site_label
_atom_site_fract_x
_atom_site_fract_y
_atom_site_fract_z
Si Si1 0.514517 0.411308 0.916715
Si Si2 0.761024 0.413175 0.850598
Si Si3 0.381030 0.590194 0.750002
Si Si4 0.624445 0.910059 0.250003
Si Si5 0.513773 0.661126 0.095597
Si Si6 0.486231 0.161127 0.095595
Si Si7 0.985486 0.411316 0.416721
Si Si8 0.261021 0.913176 0.149400
O O1 0.646606 0.396877 0.901885
O O2 0.443584 0.378743 0.835640
O O3 0.489645 0.499995 0.931290
O O4 0.474199 0.365259 0.000718
O O5 0.855890 0.358819 0.888916
O O6 0.739710 0.395979 0.749999
O O7 0.800349 0.500000 0.864190
O O8 0.390266 0.500000 0.750000
O O9 0.252921 0.619315 0.750002
O O10 0.443579 0.621253 0.835649
O O11 0.563950 0.880562 0.164686
O O12 0.563969 0.880571 0.335333
O O13 0.618681 0.000000 0.250000
O O14 0.500000 0.750000 0.106295
O O15 0.644116 0.641183 0.111080
O O16 0.474194 0.634726 0.000728
O O17 0.500000 0.250000 0.106312
O O18 0.853398 0.396882 0.401888
#
# Coordination Sequence:
#
# PCOD8165005 Si02
#       8
#     8   8   8   8   8   8   8   8
#     4  10  20  41  68  93 118 153 205 260 301 350
#     4  10  19  37  69  95 115 153 204 256 305 351
#     4   9  20  40  66  92 115 150 205 254 297 351
#     4  11  23  42  65  87 117 164 209 248 296 361
#     4  12  25  40  57  91 129 162 197 244 307 367
#     4  12  25  40  57  91 129 162 197 244 307 367
#     4  10  20  41  68  93 118 153 205 260 301 350
#     4  10  19  37  69  95 115 153 204 256 305 351
#
# _framework density 19.894915999999998
#
# number of rings (size 3 to 8) (size 9 to 14) (size 15 to 20)
#    0.000    1.500    2.500    3.375    0.000    3.000 
#    9.000    4.375    0.000    0.000    0.000    0.000 
#    0.000    0.000    0.000    0.000    0.000    0.000 
#
# Total GULP energy -396962.205132 kJ/mol
# GULP energy per Si atom -12405.068910 kJ/mol
# Density = 1.984963 g / cm^3
# Si number density = 19.894916 Si / 1000 Ang^3
#
#
#
# Elastic Constant Matrix: (Units=GPa)
#
#
# Indices 1 2 3 4 5 6 
#
# 1 119.4453 43.4794 59.7667 0.0000 0.0000 0.0000
# 2 43.4794 73.5072 52.0295 -0.0001 -0.0001 0.0000
# 3 59.7667 52.0295 153.0378 -0.0001 -0.0001 0.0000
# 4 0.0000 -0.0001 -0.0001 -2.1119 -0.0001 0.0000
# 5 0.0000 -0.0001 -0.0001 -0.0001 30.5529 0.0000
# 6 0.0000 0.0000 0.0000 0.0000 0.0000 -0.0384
#
#
#
# Elastic Compliance Matrix: (Units=1/GPa)
#
#
# Indices 1 2 3 4 5 6 
#
# 1 0.011561 -0.004797 -0.002884 0.000000 0.000000 0.000010
# 2 -0.004797 0.019906 -0.004894 -0.000001 0.000000 -0.000023
# 3 -0.002884 -0.004894 0.009325 0.000000 0.000000 0.000001
# 4 0.000000 -0.000001 0.000000 -0.473498 -0.000001 0.000024
# 5 0.000000 0.000000 0.000000 -0.000001 0.032730 -0.000018
# 6 0.000010 -0.000023 0.000001 0.000024 -0.000018-26.029153
#
#
# Mechanical properties :
#
#
# Convention : Reuss Voigt Hill
#
# Bulk Modulus (GPa) = 63.93478 72.94906 68.44192
# Shear Modulus (GPa) = -0.18940 18.39482 9.10271
#
# Velocity S-wave (km/s) = -0.30888 3.04402 2.14134
# Velocity P-wave (km/s) = 5.66381 7.00725 6.37104
#
# Compressibility (1/GPa) = 0.01564094
#
# Stress axis : x y z
#
# Youngs Moduli (GPa) = 86.49479 50.23706 107.24306
#
# Poissons Ratio (x) = 0.24099 0.30932
# Poissons Ratio (y) = 0.41492 0.52485
# Poissons Ratio (z) = 0.24947 0.24586
#
# Static dielectric constant tensor:
#      x y z
#    x 3.724540 0.000000 0.000000 
#    y 0.000000 3.381410 0.000000 
#    z 0.000000 0.000000 3.846740 
# 
# 
# High freq. dielectric constant tensor:
#      x y z
#    x 1.780050 0.000000 0.000000 
#    y 0.000000 1.749290 0.000000 
#    z 0.000000 0.000000 1.798040 
# 
# From -- ./inp_files/26009.got.cif
#   From: 2010.03.12/outbox.cif.g09.slc.cpg/sg24_14_cif.got.tgz:26009.got - 2010.04.14 03:06:53.
