data_PCOD8165689
_publ_section_title
;
Structure prediction by ZEFSAII (Michael W. Deem and Ramdas Pophale) SiO2 
 PCOD8165689
Probable space group: I 21 21 21
;
_chemical_formula_sum "Si O2"
_cell_formula_units_Z 56
_cell_length_a 20.918089
_cell_length_b 9.096264
_cell_length_c 13.426443
_cell_angle_alpha 90.000000
_cell_angle_beta 90.000000
_cell_angle_gamma 90.000000
_cell_volume 2554.736043
_symmetry_space_group_name_H-M "I 21 21 21"
_symmetry_group_IT_number 24
_symmetry_cell_setting 'orthorhombic'
loop_
_space_group_symop_operation_xyz
x,y,z
-x,1/2-y,z
x,-y,1/2-z
1/2-x,y,-z
1/2+x,1/2+y,1/2+z
1/2-x,-y,1/2+z
1/2+x,1/2-y,-z
-x,1/2+y,1/2-z
loop_
_atom_site_type_symbol
_atom_site_label
_atom_site_fract_x
_atom_site_fract_y
_atom_site_fract_z
Si Si1 0.840800 0.810041 0.420381
Si Si2 0.997786 0.572251 0.952921
Si Si3 0.468696 0.409977 0.846865
Si Si4 0.705386 0.738636 0.083408
Si Si5 0.371300 0.510168 0.387738
Si Si6 0.360821 0.950421 0.443790
Si Si7 0.710882 0.763135 0.303377
O O1 0.892483 0.879973 0.345593
O O2 0.839146 0.906329 0.519373
O O3 0.861830 0.646305 0.455645
O O4 0.771862 0.806301 0.369551
O O5 0.000000 0.750000 0.948166
O O6 0.010075 0.517173 0.064623
O O7 0.930977 0.507734 0.913719
O O8 0.051554 0.490508 0.884669
O O9 0.500000 0.250000 0.853545
O O10 0.489231 0.500000 0.750000
O O11 0.683834 0.588140 0.032436
O O12 0.736886 0.719466 0.193373
O O13 0.644471 0.839609 0.101967
O O14 0.750000 0.814403 0.000000
O O15 0.338706 0.597583 0.295078
O O16 0.329872 0.869734 0.349113
#
# Coordination Sequence:
#
# PCOD8165689 Si02
#       7
#     8   8   8   8   8   8   8
#     4  10  22  43  68  94 133 181 218 266 341 403
#     4  11  22  43  67  95 134 182 226 281 345 399
#     4  11  23  41  66 101 139 183 229 279 333 406
#     4  12  24  41  64  94 131 171 217 282 339 392
#     4  10  22  39  68  95 132 173 220 274 334 409
#     4  11  22  43  67  93 132 173 223 273 330 401
#     4  11  24  42  64  98 132 168 224 276 337 412
#
# _framework density 21.920072999999999
#
# number of rings (size 3 to 8) (size 9 to 14) (size 15 to 20)
#    0.000    1.143    2.857    4.714    0.000    3.429 
#    2.571    4.286    0.000    0.000    0.000    0.000 
#    0.000    0.000    0.000    0.000    0.000    0.000 
#
# Total GULP energy -347029.246593 kJ/mol
# GULP energy per Si atom -12393.901664 kJ/mol
# Density = 2.187018 g / cm^3
# Si number density = 21.920073 Si / 1000 Ang^3
#
#
#
# Elastic Constant Matrix: (Units=GPa)
#
#
# Indices 1 2 3 4 5 6 
#
# 1 135.4310 31.4189 38.6731 0.0000 0.0000 0.0000
# 2 31.4189 111.7376 15.7891 0.0000 0.0000 0.0000
# 3 38.6731 15.7891 83.7789 0.0000 0.0000 0.0000
# 4 0.0000 0.0000 0.0000 27.3681 0.0000 0.0000
# 5 0.0000 0.0000 0.0000 0.0000 16.1518 0.0000
# 6 0.0000 0.0000 0.0000 0.0000 0.0000 36.3938
#
#
#
# Elastic Compliance Matrix: (Units=1/GPa)
#
#
# Indices 1 2 3 4 5 6 
#
# 1 0.008911 -0.001977 -0.003741 0.000000 0.000000 0.000000
# 2 -0.001977 0.009633 -0.000903 0.000000 0.000000 0.000000
# 3 -0.003741 -0.000903 0.013833 0.000000 0.000000 0.000000
# 4 0.000000 0.000000 0.000000 0.036539 0.000000 0.000000
# 5 0.000000 0.000000 0.000000 0.000000 0.061912 0.000000
# 6 0.000000 0.000000 0.000000 0.000000 0.000000 0.027477
#
#
# Mechanical properties :
#
#
# Convention : Reuss Voigt Hill
#
# Bulk Modulus (GPa) = 52.25821 55.85661 54.05741
# Shear Modulus (GPa) = 28.10176 32.32051 30.21114
#
# Velocity S-wave (km/s) = 3.58440 3.84405 3.71649
# Velocity P-wave (km/s) = 6.40490 6.72604 6.56743
#
# Compressibility (1/GPa) = 0.01913575
#
# Stress axis : x y z
#
# Youngs Moduli (GPa) = 112.22548 103.80971 72.29066
#
# Poissons Ratio (x) = 0.20523 0.27041
# Poissons Ratio (y) = 0.22187 0.06527
# Poissons Ratio (z) = 0.41980 0.09373
#
# Static dielectric constant tensor:
#      x y z
#    x 3.964450 0.000000 0.000000 
#    y 0.000000 4.174660 0.000000 
#    z 0.000000 0.000000 3.816560 
# 
# 
# High freq. dielectric constant tensor:
#      x y z
#    x 1.863690 0.000000 0.000000 
#    y 0.000000 1.881640 0.000000 
#    z 0.000000 0.000000 1.852710 
# 
# From -- ./inp_files/27558.got.cif
#   From: 2010.03.12/outbox.cif.g09.slc.cpg/sg24_14_cif.got.tgz:27558.got - 2010.04.14 03:06:53.
