data_PCOD8165542
_publ_section_title
;
Structure prediction by ZEFSAII (Michael W. Deem and Ramdas Pophale) SiO2 
 PCOD8165542
Probable space group: I 21 21 21
;
_chemical_formula_sum "Si O2"
_cell_formula_units_Z 48
_cell_length_a 32.000008
_cell_length_b 14.401874
_cell_length_c 5.340042
_cell_angle_alpha 90.000000
_cell_angle_beta 90.000000
_cell_angle_gamma 90.000000
_cell_volume 2461.012200
_symmetry_space_group_name_H-M "I 21 21 21"
_symmetry_group_IT_number 24
_symmetry_cell_setting 'orthorhombic'
loop_
_space_group_symop_operation_xyz
x,y,z
-x,1/2-y,z
x,-y,1/2-z
1/2-x,y,-z
1/2+x,1/2+y,1/2+z
1/2-x,-y,1/2+z
1/2+x,1/2-y,-z
-x,1/2+y,1/2-z
loop_
_atom_site_type_symbol
_atom_site_label
_atom_site_fract_x
_atom_site_fract_y
_atom_site_fract_z
Si Si1 0.481549 0.929232 0.038600
Si Si2 0.500000 0.750000 0.307518
Si Si3 0.081513 0.686401 0.444502
Si Si4 0.094029 0.136909 0.310798
Si Si5 0.441538 0.500000 0.750000
Si Si6 0.724426 0.607858 0.251944
Si Si7 0.134265 0.831047 0.684419
O O1 0.476063 0.825875 0.145474
O O2 0.466601 0.000000 0.250000
O O3 0.448884 0.924221 0.804958
O O4 0.528716 0.950193 0.953106
O O5 0.466454 0.693918 0.469893
O O6 0.085405 0.751913 0.200402
O O7 0.088512 0.577801 0.375913
O O8 0.115086 0.725921 0.649823
O O9 0.116933 0.116507 0.571533
O O10 0.121504 0.108676 0.064946
O O11 0.711070 0.500000 0.250000
O O12 0.750000 0.631143 0.500000
O O13 0.683855 0.673148 0.275728
O O14 0.750000 0.633578 0.000000
#
# Coordination Sequence:
#
# PCOD8165542 Si02
#       7
#     8   4   8   8   4   8   8
#     4  12  24  36  57  79 114 167 230 263 324 359
#     4  12  20  46  54  78 122 168 210 286 302 380
#     4  10  23  38  59  82 124 160 218 261 325 355
#     4  10  22  40  57  81 124 160 205 258 307 358
#     4  12  24  36  56  88 110 172 224 274 310 380
#     4  10  21  40  66  95 128 160 199 245 305 390
#     4  10  22  41  61  88 122 165 198 252 319 369
#
# _framework density 19.504170999999999
#
# number of rings (size 3 to 8) (size 9 to 14) (size 15 to 20)
#    1.000    0.333    3.333    3.000    2.333    0.667 
#    0.000    0.000    0.000    0.000    0.000    0.000 
#    5.000    0.000    0.000    0.000    0.000    0.000 
#
# Total GULP energy -297372.665016 kJ/mol
# GULP energy per Si atom -12390.527709 kJ/mol
# Density = 1.945978 g / cm^3
# Si number density = 19.504171 Si / 1000 Ang^3
#
#
#
# Elastic Constant Matrix: (Units=GPa)
#
#
# Indices 1 2 3 4 5 6 
#
# 1 112.3980 29.7965 39.2606 0.0001 -0.0001 0.0003
# 2 29.7965 91.7847 24.5712 0.0000 0.0000 0.0004
# 3 39.2606 24.5712 130.0656 0.0003 -0.0009 0.0006
# 4 0.0001 0.0000 0.0003 20.6955 -0.0003 0.0002
# 5 -0.0001 0.0000 -0.0009 -0.0003 29.1460 0.0001
# 6 0.0003 0.0004 0.0006 0.0002 0.0001 21.0290
#
#
#
# Elastic Compliance Matrix: (Units=1/GPa)
#
#
# Indices 1 2 3 4 5 6 
#
# 1 0.010549 -0.002709 -0.002672 0.000000 0.000000 0.000000
# 2 -0.002709 0.012171 -0.001482 0.000000 0.000000 0.000000
# 3 -0.002672 -0.001482 0.008775 0.000000 0.000000 0.000000
# 4 0.000000 0.000000 0.000000 0.048320 0.000001 0.000000
# 5 0.000000 0.000000 0.000000 0.000001 0.034310 0.000000
# 6 0.000000 0.000000 0.000000 0.000000 0.000000 0.047553
#
#
# Mechanical properties :
#
#
# Convention : Reuss Voigt Hill
#
# Bulk Modulus (GPa) = 56.27844 57.94498 57.11171
# Shear Modulus (GPa) = 27.57456 30.21543 28.89499
#
# Velocity S-wave (km/s) = 3.76410 3.94023 3.85317
# Velocity P-wave (km/s) = 6.91437 7.10451 7.01008
#
# Compressibility (1/GPa) = 0.01776880
#
# Stress axis : x y z
#
# Youngs Moduli (GPa) = 94.79962 82.16160 113.96049
#
# Poissons Ratio (x) = 0.22258 0.30454
# Poissons Ratio (y) = 0.25682 0.16884
# Poissons Ratio (z) = 0.25334 0.12173
#
# Static dielectric constant tensor:
#      x y z
#    x 3.309800 0.000000 0.000000 
#    y 0.000000 3.399610 0.000000 
#    z 0.000000 0.000000 3.655200 
# 
# 
# High freq. dielectric constant tensor:
#      x y z
#    x 1.722000 0.000000 0.000000 
#    y 0.000000 1.738940 0.000000 
#    z 0.000000 0.000000 1.777580 
# 
# From -- ./inp_files/7713.got.cif
#   From: 2010.03.12/outbox.cif.g09.slc.cpg/sg24_4_cif.got.tgz:7713.got - 2010.04.14 03:06:53.
