data_PCOD8165575
_publ_section_title
;
Structure prediction by ZEFSAII (Michael W. Deem and Ramdas Pophale) SiO2 
 PCOD8165575
Probable space group: I 21 21 21
;
_chemical_formula_sum "Si O2"
_cell_formula_units_Z 64
_cell_length_a 9.106568
_cell_length_b 14.199962
_cell_length_c 23.218755
_cell_angle_alpha 90.000000
_cell_angle_beta 90.000000
_cell_angle_gamma 90.000000
_cell_volume 3002.484997
_symmetry_space_group_name_H-M "I 21 21 21"
_symmetry_group_IT_number 24
_symmetry_cell_setting 'orthorhombic'
loop_
_space_group_symop_operation_xyz
x,y,z
-x,1/2-y,z
x,-y,1/2-z
1/2-x,y,-z
1/2+x,1/2+y,1/2+z
1/2-x,-y,1/2+z
1/2+x,1/2-y,-z
-x,1/2+y,1/2-z
loop_
_atom_site_type_symbol
_atom_site_label
_atom_site_fract_x
_atom_site_fract_y
_atom_site_fract_z
Si Si1 0.736962 0.667444 0.656283
Si Si2 0.927683 0.502825 0.683762
Si Si3 0.293173 0.122261 0.622819
Si Si4 0.726783 0.917671 0.161545
Si Si5 0.012871 0.464729 0.120017
Si Si6 0.839590 0.254862 0.270792
Si Si7 0.851890 0.198044 0.055031
Si Si8 0.165374 0.714471 0.944647
O O1 0.583806 0.608970 0.656714
O O2 0.763454 0.711138 0.719055
O O3 0.732781 0.746500 0.606395
O O4 0.876733 0.597747 0.650192
O O5 0.871180 0.500000 0.750000
O O6 0.101856 0.489895 0.682118
O O7 0.858374 0.416894 0.648328
O O8 0.369270 0.174445 0.676302
O O9 0.260403 0.194823 0.572549
O O10 0.399900 0.043032 0.595047
O O11 0.758823 0.839647 0.209353
O O12 0.675090 0.867764 0.102618
O O13 0.871571 0.980831 0.159008
O O14 0.104425 0.408788 0.071573
O O15 0.000000 0.250000 0.242202
O O16 0.000000 0.250000 0.036919
O O17 0.750000 0.193248 0.000000
O O18 0.000000 0.750000 0.956503
O O19 0.250000 0.672984 0.000000
#
# Coordination Sequence:
#
# PCOD8165575 Si02
#       8
#     8   8   8   8   8   8   8   8
#     4  10  23  43  67  93 131 173 227 266 335 407
#     4  11  22  41  64  97 134 175 214 270 338 402
#     4  10  21  42  64  94 133 174 216 268 336 400
#     4  11  25  41  64  98 137 168 219 279 332 396
#     4  10  22  42  65  97 127 166 227 273 321 396
#     4  11  20  37  68  97 130 176 214 266 339 405
#     4  10  23  46  68  92 128 174 224 282 328 385
#     4  11  25  43  68  94 135 179 223 271 334 402
#
# _framework density 21.315677000000001
#
# number of rings (size 3 to 8) (size 9 to 14) (size 15 to 20)
#    0.000    1.500    3.750    1.125    1.750    3.500 
#    2.250    8.125    0.000    0.000    0.000    0.000 
#    0.000    0.000    0.000    0.000    0.000    0.000 
#
# Total GULP energy -396684.423645 kJ/mol
# GULP energy per Si atom -12396.388239 kJ/mol
# Density = 2.126716 g / cm^3
# Si number density = 21.315677 Si / 1000 Ang^3
#
#
#
# Elastic Constant Matrix: (Units=GPa)
#
#
# Indices 1 2 3 4 5 6 
#
# 1 103.4091 44.8404 36.5729 0.0000 0.0000 0.0000
# 2 44.8404 110.7667 52.3145 0.0000 0.0000 0.0000
# 3 36.5729 52.3145 102.6828 0.0000 0.0000 0.0000
# 4 0.0000 0.0000 0.0000 12.3862 0.0000 0.0000
# 5 0.0000 0.0000 0.0000 0.0000 25.0804 0.0000
# 6 0.0000 0.0000 0.0000 0.0000 0.0000 32.0509
#
#
#
# Elastic Compliance Matrix: (Units=1/GPa)
#
#
# Indices 1 2 3 4 5 6 
#
# 1 0.012163 -0.003790 -0.002401 0.000000 0.000000 0.000000
# 2 -0.003790 0.013069 -0.005309 0.000000 0.000000 0.000000
# 3 -0.002401 -0.005309 0.013299 0.000000 0.000000 0.000000
# 4 0.000000 0.000000 0.000000 0.080735 0.000000 0.000000
# 5 0.000000 0.000000 0.000000 0.000000 0.039872 0.000000
# 6 0.000000 0.000000 0.000000 0.000000 0.000000 0.031200
#
#
# Mechanical properties :
#
#
# Convention : Reuss Voigt Hill
#
# Bulk Modulus (GPa) = 64.38541 64.92378 64.65460
# Shear Modulus (GPa) = 22.88176 26.11223 24.49700
#
# Velocity S-wave (km/s) = 3.27994 3.50383 3.39373
# Velocity P-wave (km/s) = 6.67947 6.84788 6.76420
#
# Compressibility (1/GPa) = 0.01553147
#
# Stress axis : x y z
#
# Youngs Moduli (GPa) = 82.21736 76.51459 75.19500
#
# Poissons Ratio (x) = 0.28996 0.18057
# Poissons Ratio (y) = 0.31157 0.39920
# Poissons Ratio (z) = 0.19744 0.40620
#
# Static dielectric constant tensor:
#      x y z
#    x 3.798580 0.000000 0.000000 
#    y 0.000000 4.060930 0.000000 
#    z 0.000000 0.000000 3.551990 
# 
# 
# High freq. dielectric constant tensor:
#      x y z
#    x 1.840320 0.000000 0.000000 
#    y 0.000000 1.844990 0.000000 
#    z 0.000000 0.000000 1.817210 
# 
# From -- ./inp_files/35301.got.cif
#   From: 2010.03.12/outbox.cif.g09.slc.cpg/sg24_18_cif.got.tgz:35301.got - 2010.04.14 03:06:53.
