data_PCOD8165934
_publ_section_title
;
Structure prediction by ZEFSAII (Michael W. Deem and Ramdas Pophale) SiO2 
 PCOD8165934
Probable space group: I 21 21 21
;
_chemical_formula_sum "Si O2"
_cell_formula_units_Z 56
_cell_length_a 9.308506
_cell_length_b 14.876474
_cell_length_c 18.218822
_cell_angle_alpha 90.000000
_cell_angle_beta 90.000000
_cell_angle_gamma 90.000000
_cell_volume 2522.901432
_symmetry_space_group_name_H-M "I 21 21 21"
_symmetry_group_IT_number 24
_symmetry_cell_setting 'orthorhombic'
loop_
_space_group_symop_operation_xyz
x,y,z
-x,1/2-y,z
x,-y,1/2-z
1/2-x,y,-z
1/2+x,1/2+y,1/2+z
1/2-x,-y,1/2+z
1/2+x,1/2-y,-z
-x,1/2+y,1/2-z
loop_
_atom_site_type_symbol
_atom_site_label
_atom_site_fract_x
_atom_site_fract_y
_atom_site_fract_z
Si Si1 0.263019 0.113887 0.917088
Si Si2 0.859806 0.695819 0.851292
Si Si3 0.516190 0.486217 0.401203
Si Si4 0.246264 0.447670 0.818982
Si Si5 0.659791 0.747009 0.310684
Si Si6 0.365416 0.304754 0.561798
Si Si7 0.537232 0.004716 0.569462
O O1 0.277944 0.200751 0.864596
O O2 0.382985 0.036456 0.909212
O O3 0.250000 0.149026 0.000000
O O4 0.112632 0.073368 0.891445
O O5 0.847287 0.688696 0.763714
O O6 0.714033 0.742765 0.878766
O O7 0.000000 0.750000 0.875240
O O8 0.880542 0.599022 0.888793
O O9 0.392247 0.492280 0.340654
O O10 0.444471 0.488188 0.481886
O O11 0.317737 0.500000 0.750000
O O12 0.210060 0.347593 0.793602
O O13 0.349181 0.440355 0.889958
O O14 0.500000 0.750000 0.346418
O O15 0.500000 0.250000 0.527704
O O16 0.250000 0.330931 0.500000
O O17 0.431576 0.394417 0.599694
#
# Coordination Sequence:
#
# PCOD8165934 Si02
#       7
#     8   8   8   8   8   8   8
#     4  10  24  45  68  99 132 176 236 287 341 415
#     4  11  23  41  69 101 138 179 235 297 359 431
#     4  11  22  42  71  97 131 183 238 294 349 417
#     4  12  24  42  68 100 142 184 232 286 359 435
#     4  11  23  45  69 101 134 180 239 288 351 427
#     4  12  23  40  66 101 142 185 235 292 358 427
#     4  11  24  43  65  99 139 183 229 290 362 422
#
# _framework density 22.196664999999999
#
# number of rings (size 3 to 8) (size 9 to 14) (size 15 to 20)
#    0.000    0.857    1.429    7.714    0.000    2.857 
#    7.714    0.000    0.000    0.000    0.000    0.000 
#    0.000    0.000    0.000    0.000    0.000    0.000 
#
# Total GULP energy -347158.304448 kJ/mol
# GULP energy per Si atom -12398.510873 kJ/mol
# Density = 2.214614 g / cm^3
# Si number density = 22.196665 Si / 1000 Ang^3
#
#
#
# Elastic Constant Matrix: (Units=GPa)
#
#
# Indices 1 2 3 4 5 6 
#
# 1 91.4220 31.2620 44.8638 0.0000 0.0000 0.0000
# 2 31.2620 106.5180 55.0623 0.0000 0.0000 0.0000
# 3 44.8638 55.0623 112.2283 0.0000 0.0000 0.0000
# 4 0.0000 0.0000 0.0000 34.5218 0.0000 0.0000
# 5 0.0000 0.0000 0.0000 0.0000 34.9292 0.0000
# 6 0.0000 0.0000 0.0000 0.0000 0.0000 37.4269
#
#
#
# Elastic Compliance Matrix: (Units=1/GPa)
#
#
# Indices 1 2 3 4 5 6 
#
# 1 0.013810 -0.001607 -0.004732 0.000000 0.000000 0.000000
# 2 -0.001607 0.012765 -0.005621 0.000000 0.000000 0.000000
# 3 -0.004732 -0.005621 0.013560 0.000000 0.000000 0.000000
# 4 0.000000 0.000000 0.000000 0.028967 0.000000 0.000000
# 5 0.000000 0.000000 0.000000 0.000000 0.028629 0.000000
# 6 0.000000 0.000000 0.000000 0.000000 0.000000 0.026719
#
#
# Mechanical properties :
#
#
# Convention : Reuss Voigt Hill
#
# Bulk Modulus (GPa) = 61.66927 63.61605 62.64266
# Shear Modulus (GPa) = 32.51508 33.30758 32.91133
#
# Velocity S-wave (km/s) = 3.83151 3.87792 3.85478
# Velocity P-wave (km/s) = 6.88603 6.98380 6.93508
#
# Compressibility (1/GPa) = 0.01621553
#
# Stress axis : x y z
#
# Youngs Moduli (GPa) = 72.41110 78.33845 73.74767
#
# Poissons Ratio (x) = 0.12588 0.34899
# Poissons Ratio (y) = 0.11636 0.41450
# Poissons Ratio (z) = 0.34267 0.44031
#
# Static dielectric constant tensor:
#      x y z
#    x 4.100690 0.000000 0.000000 
#    y 0.000000 3.948080 0.000000 
#    z 0.000000 0.000000 3.832300 
# 
# 
# High freq. dielectric constant tensor:
#      x y z
#    x 1.869750 0.000000 0.000000 
#    y 0.000000 1.877600 0.000000 
#    z 0.000000 0.000000 1.868870 
# 
# From -- ./inp_files/32850.got.cif
#   From: 2010.03.12/outbox.cif.g09.slc.cpg/sg24_17_cif.got.tgz:32850.got - 2010.04.14 03:06:53.
