data_PCOD8165844
_publ_section_title
;
Structure prediction by ZEFSAII (Michael W. Deem and Ramdas Pophale) SiO2 
 PCOD8165844
Probable space group: I 21 21 21
;
_chemical_formula_sum "Si O2"
_cell_formula_units_Z 32
_cell_length_a 9.074024
_cell_length_b 10.775084
_cell_length_c 13.795856
_cell_angle_alpha 90.000000
_cell_angle_beta 90.000000
_cell_angle_gamma 90.000000
_cell_volume 1348.867344
_symmetry_space_group_name_H-M "I 21 21 21"
_symmetry_group_IT_number 24
_symmetry_cell_setting 'orthorhombic'
loop_
_space_group_symop_operation_xyz
x,y,z
-x,1/2-y,z
x,-y,1/2-z
1/2-x,y,-z
1/2+x,1/2+y,1/2+z
1/2-x,-y,1/2+z
1/2+x,1/2-y,-z
-x,1/2+y,1/2-z
loop_
_atom_site_type_symbol
_atom_site_label
_atom_site_fract_x
_atom_site_fract_y
_atom_site_fract_z
Si Si1 0.169215 0.568459 0.897083
Si Si2 0.786609 0.837348 0.296228
Si Si3 0.612875 0.420427 0.833200
Si Si4 0.913945 0.365416 0.482092
O O1 0.182082 0.427171 0.859159
O O2 0.232941 0.663059 0.815831
O O3 0.250000 0.581347 0.000000
O O4 0.998466 0.604294 0.916803
O O5 0.784991 0.701488 0.346728
O O6 0.952523 0.885456 0.294506
O O7 0.692883 0.500000 0.750000
O O8 0.593875 0.503342 0.927979
O O9 0.750000 0.315217 0.500000
O O10 0.000000 0.250000 0.429106
#
# Coordination Sequence:
#
# PCOD8165844 Si02
#       4
#     8   8   8   8
#     4  11  21  46  77 108 153 206 258 326 393 463
#     4  10  23  42  75 118 154 209 256 325 393 464
#     4  11  23  42  73 111 156 201 261 312 390 467
#     4  12  29  47  76 111 152 208 264 318 394 474
#
# _framework density 23.723609
#
# number of rings (size 3 to 8) (size 9 to 14) (size 15 to 20)
#    0.000    1.000    5.000    0.750   10.500    1.000 
#    4.500    0.000    0.000    0.000    0.000    0.000 
#    0.000    0.000    0.000    0.000    0.000    0.000 
#
# Total GULP energy -198261.221986 kJ/mol
# GULP energy per Si atom -12391.326374 kJ/mol
# Density = 2.366961 g / cm^3
# Si number density = 23.723609 Si / 1000 Ang^3
#
#
#
# Elastic Constant Matrix: (Units=GPa)
#
#
# Indices 1 2 3 4 5 6 
#
# 1 132.0675 46.1181 47.0339 0.0000 0.0000 0.0000
# 2 46.1181 215.9722 60.9257 0.0000 0.0000 0.0000
# 3 47.0339 60.9257 131.1428 0.0000 0.0000 0.0000
# 4 0.0000 0.0000 0.0000 26.1081 0.0000 0.0000
# 5 0.0000 0.0000 0.0000 0.0000 28.3984 0.0000
# 6 0.0000 0.0000 0.0000 0.0000 0.0000 17.2982
#
#
#
# Elastic Compliance Matrix: (Units=1/GPa)
#
#
# Indices 1 2 3 4 5 6 
#
# 1 0.008924 -0.001154 -0.002664 0.000000 0.000000 0.000000
# 2 -0.001154 0.005478 -0.002131 0.000000 0.000000 0.000000
# 3 -0.002664 -0.002131 0.009571 0.000000 0.000000 0.000000
# 4 0.000000 0.000000 0.000000 0.038302 0.000000 0.000000
# 5 0.000000 0.000000 0.000000 0.000000 0.035213 0.000000
# 6 0.000000 0.000000 0.000000 0.000000 0.000000 0.057809
#
#
# Mechanical properties :
#
#
# Convention : Reuss Voigt Hill
#
# Bulk Modulus (GPa) = 82.82419 87.48199 85.15309
# Shear Modulus (GPa) = 29.20212 36.03460 32.61836
#
# Velocity S-wave (km/s) = 3.51227 3.90158 3.71203
# Velocity P-wave (km/s) = 7.17189 7.56650 7.37184
#
# Compressibility (1/GPa) = 0.01207377
#
# Stress axis : x y z
#
# Youngs Moduli (GPa) = 112.06090 182.55561 104.48387
#
# Poissons Ratio (x) = 0.21066 0.27838
# Poissons Ratio (y) = 0.12931 0.22265
# Poissons Ratio (z) = 0.29857 0.38902
#
# Static dielectric constant tensor:
#      x y z
#    x 4.584770 0.000000 0.000000 
#    y 0.000000 4.966660 0.000000 
#    z 0.000000 0.000000 4.444930 
# 
# 
# High freq. dielectric constant tensor:
#      x y z
#    x 1.919140 0.000000 0.000000 
#    y 0.000000 1.966490 0.000000 
#    z 0.000000 0.000000 1.923410 
# 
# From -- ./inp_files/24355.got.cif
#   From: 2010.03.12/outbox.cif.g09.slc.cpg/sg24_13_cif.got.tgz:24355.got - 2010.04.14 03:06:53.
