data_PCOD8165415
_publ_section_title
;
Structure prediction by ZEFSAII (Michael W. Deem and Ramdas Pophale) SiO2 
 PCOD8165415
Probable space group: I 21 21 21
;
_chemical_formula_sum "Si O2"
_cell_formula_units_Z 48
_cell_length_a 8.907984
_cell_length_b 8.988689
_cell_length_c 27.051176
_cell_angle_alpha 90.000000
_cell_angle_beta 90.000000
_cell_angle_gamma 90.000000
_cell_volume 2166.017359
_symmetry_space_group_name_H-M "I 21 21 21"
_symmetry_group_IT_number 24
_symmetry_cell_setting 'orthorhombic'
loop_
_space_group_symop_operation_xyz
x,y,z
-x,1/2-y,z
x,-y,1/2-z
1/2-x,y,-z
1/2+x,1/2+y,1/2+z
1/2-x,-y,1/2+z
1/2+x,1/2-y,-z
-x,1/2+y,1/2-z
loop_
_atom_site_type_symbol
_atom_site_label
_atom_site_fract_x
_atom_site_fract_y
_atom_site_fract_z
Si Si1 0.164059 0.001955 0.804948
Si Si2 0.443825 0.582165 0.592218
Si Si3 0.504275 0.075749 0.798093
Si Si4 0.578025 0.407354 0.513854
Si Si5 0.500000 0.750000 0.360265
Si Si6 0.625488 0.003918 0.071264
Si Si7 0.500000 0.250000 0.366214
O O1 0.343184 0.998058 0.804186
O O2 0.118488 0.159205 0.827965
O O3 0.096481 0.000000 0.750000
O O4 0.102578 0.858666 0.833720
O O5 0.500000 0.750000 0.586805
O O6 0.410830 0.544003 0.649968
O O7 0.576239 0.483217 0.568104
O O8 0.300067 0.534434 0.558500
O O9 0.500000 0.250000 0.787044
O O10 0.584875 0.000000 0.750000
O O11 0.500000 0.250000 0.515599
O O12 0.750000 0.386454 0.500000
O O13 0.488025 0.511713 0.474937
O O14 0.595088 0.860996 0.392563
O O15 0.609384 0.845275 0.098618
#
# Coordination Sequence:
#
# PCOD8165415 Si02
#       7
#     8   8   8   8   4   8   4
#     4  10  21  39  63  98 137 184 237 286 343 407
#     4  11  26  44  69 101 139 183 233 285 345 411
#     4  10  23  42  65  98 138 181 234 285 345 410
#     4  12  28  45  71 101 139 180 232 287 351 420
#     4  10  21  36  68  92 138 184 227 290 348 404
#     4  11  24  44  68  99 140 180 235 285 350 421
#     4  10  23  40  68  94 138 180 233 286 352 406
#
# _framework density 22.160488000000001
#
# number of rings (size 3 to 8) (size 9 to 14) (size 15 to 20)
#    0.000    1.333    0.833    4.000    8.167    3.333 
#    0.000    4.167    0.000    0.000    0.000    0.000 
#    0.000    0.000    0.000    0.000    0.000    0.000 
#
# Total GULP energy -297553.466787 kJ/mol
# GULP energy per Si atom -12398.061116 kJ/mol
# Density = 2.211005 g / cm^3
# Si number density = 22.160488 Si / 1000 Ang^3
#
#
#
# Elastic Constant Matrix: (Units=GPa)
#
#
# Indices 1 2 3 4 5 6 
#
# 1 102.5711 43.8780 31.6624 0.0000 0.0000 0.0000
# 2 43.8780 124.0656 58.7650 -0.0001 0.0000 0.0000
# 3 31.6624 58.7650 127.5042 -0.0001 0.0000 0.0000
# 4 0.0000 -0.0001 -0.0001 40.0445 0.0000 0.0000
# 5 0.0000 0.0000 0.0000 0.0000 32.3825 0.0000
# 6 0.0000 0.0000 0.0000 0.0000 0.0000 31.5627
#
#
#
# Elastic Compliance Matrix: (Units=1/GPa)
#
#
# Indices 1 2 3 4 5 6 
#
# 1 0.011646 -0.003517 -0.001271 0.000000 0.000000 0.000000
# 2 -0.003517 0.011373 -0.004368 0.000000 0.000000 0.000000
# 3 -0.001271 -0.004368 0.010172 0.000000 0.000000 0.000000
# 4 0.000000 0.000000 0.000000 0.024972 0.000000 0.000000
# 5 0.000000 0.000000 0.000000 0.000000 0.030881 0.000000
# 6 0.000000 0.000000 0.000000 0.000000 0.000000 0.031683
#
#
# Mechanical properties :
#
#
# Convention : Reuss Voigt Hill
#
# Bulk Modulus (GPa) = 67.21141 69.19465 68.20303
# Shear Modulus (GPa) = 34.72231 35.45362 35.08797
#
# Velocity S-wave (km/s) = 3.96265 4.00416 3.98346
# Velocity P-wave (km/s) = 7.16464 7.25740 7.21117
#
# Compressibility (1/GPa) = 0.01487843
#
# Stress axis : x y z
#
# Youngs Moduli (GPa) = 85.86534 87.92612 98.30988
#
# Poissons Ratio (x) = 0.30921 0.12497
# Poissons Ratio (y) = 0.30197 0.42946
# Poissons Ratio (z) = 0.10915 0.38410
#
# Static dielectric constant tensor:
#      x y z
#    x 3.979330 0.000000 0.000000 
#    y 0.000000 3.955500 0.000000 
#    z 0.000000 0.000000 4.495320 
# 
# 
# High freq. dielectric constant tensor:
#      x y z
#    x 1.864420 0.000000 0.000000 
#    y 0.000000 1.881310 0.000000 
#    z 0.000000 0.000000 1.889010 
# 
# From -- ./inp_files/16864.got.cif
#   From: 2010.03.12/outbox.cif.g09.slc.cpg/sg24_9_cif.got.tgz:16864.got - 2010.04.14 03:06:53.
