data_PCOD8165649
_publ_section_title
;
Structure prediction by ZEFSAII (Michael W. Deem and Ramdas Pophale) SiO2 
 PCOD8165649
Probable space group: I 21 21 21
;
_chemical_formula_sum "Si O2"
_cell_formula_units_Z 60
_cell_length_a 12.599176
_cell_length_b 13.466901
_cell_length_c 18.687241
_cell_angle_alpha 90.000000
_cell_angle_beta 90.000000
_cell_angle_gamma 90.000000
_cell_volume 3170.698862
_symmetry_space_group_name_H-M "I 21 21 21"
_symmetry_group_IT_number 24
_symmetry_cell_setting 'orthorhombic'
loop_
_space_group_symop_operation_xyz
x,y,z
-x,1/2-y,z
x,-y,1/2-z
1/2-x,y,-z
1/2+x,1/2+y,1/2+z
1/2-x,-y,1/2+z
1/2+x,1/2-y,-z
-x,1/2+y,1/2-z
loop_
_atom_site_type_symbol
_atom_site_label
_atom_site_fract_x
_atom_site_fract_y
_atom_site_fract_z
Si Si1 0.871826 0.467605 0.416251
Si Si2 0.531258 0.636602 0.190699
Si Si3 0.133486 0.006307 0.576143
Si Si4 0.857721 0.000000 0.750000
Si Si5 0.898067 0.681975 0.659000
Si Si6 0.391246 0.199530 0.691884
Si Si7 0.008846 0.419452 0.194597
Si Si8 0.221471 0.322472 0.202866
O O1 0.908312 0.458388 0.498576
O O2 0.757774 0.518498 0.418048
O O3 0.854745 0.362067 0.377099
O O4 0.960145 0.532345 0.376133
O O5 0.500000 0.750000 0.174692
O O6 0.604210 0.596941 0.127498
O O7 0.427649 0.566611 0.196076
O O8 0.599197 0.628404 0.263697
O O9 0.085166 0.900146 0.597941
O O10 0.786088 0.924753 0.704609
O O11 0.788628 0.745478 0.653934
O O12 0.000000 0.750000 0.652236
O O13 0.500000 0.250000 0.667243
O O14 0.413215 0.133958 0.763058
O O15 0.299784 0.277380 0.716747
O O16 0.058264 0.500000 0.250000
O O17 0.103922 0.345233 0.170435
#
# Coordination Sequence:
#
# PCOD8165649 Si02
#       8
#     8   8   8   4   8   8   8   8
#     4  10  22  37  55  82 116 154 192 229 282 343
#     4  11  21  36  59  87 113 147 191 242 288 341
#     4  11  22  38  57  80 119 155 189 237 283 339
#     4  12  20  34  58  92 116 140 188 242 296 342
#     4  11  20  36  57  85 110 150 193 240 292 339
#     4   9  19  34  57  84 110 146 189 236 287 338
#     4   9  18  35  56  87 116 148 188 238 288 339
#     4  11  19  32  60  89 115 146 187 245 294 342
#
# _framework density 18.923272000000001
#
# number of rings (size 3 to 8) (size 9 to 14) (size 15 to 20)
#    0.000    1.600    4.667    1.600    0.000    2.667 
#    0.000    4.667    0.000    2.400    0.000    0.000 
#    0.000    0.000    0.000    0.000    0.000    0.000 
#
# Total GULP energy -371848.203879 kJ/mol
# GULP energy per Si atom -12394.940129 kJ/mol
# Density = 1.888020 g / cm^3
# Si number density = 18.923272 Si / 1000 Ang^3
#
#
#
# Elastic Constant Matrix: (Units=GPa)
#
#
# Indices 1 2 3 4 5 6 
#
# 1 77.9473 32.4695 38.7017 0.0000 0.0000 0.0000
# 2 32.4695 110.5954 51.3072 0.0000 0.0000 0.0000
# 3 38.7017 51.3072 98.6927 0.0000 0.0000 0.0000
# 4 0.0000 0.0000 0.0000 14.5851 0.0000 0.0000
# 5 0.0000 0.0000 0.0000 0.0000 14.9288 0.0000
# 6 0.0000 0.0000 0.0000 0.0000 0.0000 34.2811
#
#
#
# Elastic Compliance Matrix: (Units=1/GPa)
#
#
# Indices 1 2 3 4 5 6 
#
# 1 0.016406 -0.002414 -0.005178 0.000000 0.000000 0.000000
# 2 -0.002414 0.012271 -0.005433 0.000000 0.000000 0.000000
# 3 -0.005178 -0.005433 0.014987 0.000000 0.000000 0.000000
# 4 0.000000 0.000000 0.000000 0.068563 0.000000 0.000000
# 5 0.000000 0.000000 0.000000 0.000000 0.066985 0.000000
# 6 0.000000 0.000000 0.000000 0.000000 0.000000 0.029171
#
#
# Mechanical properties :
#
#
# Convention : Reuss Voigt Hill
#
# Bulk Modulus (GPa) = 56.77334 59.13247 57.95291
# Shear Modulus (GPa) = 20.80694 23.74281 22.27487
#
# Velocity S-wave (km/s) = 3.31953 3.54600 3.43463
# Velocity P-wave (km/s) = 6.69025 6.93411 6.81327
#
# Compressibility (1/GPa) = 0.01761390
#
# Stress axis : x y z
#
# Youngs Moduli (GPa) = 60.95337 81.49270 66.72285
#
# Poissons Ratio (x) = 0.19674 0.34552
# Poissons Ratio (y) = 0.14716 0.36248
# Poissons Ratio (z) = 0.31564 0.44272
#
# Static dielectric constant tensor:
#      x y z
#    x 3.515920 0.000000 0.000000 
#    y 0.000000 3.718130 0.000000 
#    z 0.000000 0.000000 3.218630 
# 
# 
# High freq. dielectric constant tensor:
#      x y z
#    x 1.742790 0.000000 0.000000 
#    y 0.000000 1.750990 0.000000 
#    z 0.000000 0.000000 1.689290 
# 
# From -- ./inp_files/21679.got.cif
#   From: 2010.03.12/outbox.cif.g09.slc.cpg/sg24_11_cif.got.tgz:21679.got - 2010.04.14 03:06:53.
