data_PCOD8165624
_publ_section_title
;
Structure prediction by ZEFSAII (Michael W. Deem and Ramdas Pophale) SiO2 
 PCOD8165624
Probable space group: I 21 21 21
;
_chemical_formula_sum "Si O2"
_cell_formula_units_Z 28
_cell_length_a 5.784076
_cell_length_b 25.150302
_cell_length_c 7.916819
_cell_angle_alpha 90.000000
_cell_angle_beta 90.000000
_cell_angle_gamma 90.000000
_cell_volume 1151.669621
_symmetry_space_group_name_H-M "I 21 21 21"
_symmetry_group_IT_number 24
_symmetry_cell_setting 'orthorhombic'
loop_
_space_group_symop_operation_xyz
x,y,z
-x,1/2-y,z
x,-y,1/2-z
1/2-x,y,-z
1/2+x,1/2+y,1/2+z
1/2-x,-y,1/2+z
1/2+x,1/2-y,-z
-x,1/2+y,1/2-z
loop_
_atom_site_type_symbol
_atom_site_label
_atom_site_fract_x
_atom_site_fract_y
_atom_site_fract_z
Si Si1 0.371529 0.399783 0.822970
Si Si2 0.250000 0.957252 0.500000
Si Si3 0.750000 0.721524 0.500000
Si Si4 0.600401 0.308328 0.658985
Si Si5 0.908205 0.000000 0.750000
O O1 0.388659 0.349016 0.697812
O O2 0.239607 0.446729 0.726811
O O3 0.250000 0.383041 0.000000
O O4 0.631344 0.420189 0.859454
O O5 0.441416 0.995479 0.418974
O O6 0.500000 0.750000 0.516648
O O7 0.766180 0.688987 0.674690
O O8 0.500000 0.250000 0.619286
O O9 0.750000 0.327922 0.500000
#
# Coordination Sequence:
#
# PCOD8165624 Si02
#       5
#     8   4   4   8   4
#     4  10  23  46  77 111 147 207 253 316 399 474
#     4  10  21  46  72 108 148 192 248 307 398 466
#     4  10  23  44  82 108 156 216 260 329 404 466
#     4  11  25  48  75 116 157 200 268 325 394 477
#     4  10  22  46  78 108 150 188 256 318 386 488
#
# _framework density 24.312529999999999
#
# number of rings (size 3 to 8) (size 9 to 14) (size 15 to 20)
#    0.000    1.714    0.000    2.571    8.000    0.000 
#   30.857    0.000    6.286    0.000    0.000    0.000 
#    0.000    0.000    0.000    0.000    0.000    0.000 
#
# Total GULP energy -173524.166076 kJ/mol
# GULP energy per Si atom -12394.583291 kJ/mol
# Density = 2.425719 g / cm^3
# Si number density = 24.312530 Si / 1000 Ang^3
#
#
#
# Elastic Constant Matrix: (Units=GPa)
#
#
# Indices 1 2 3 4 5 6 
#
# 1 136.7595 72.9227 45.0640 0.0007 0.0005 -0.0006
# 2 72.9227 178.5251 56.8773 -0.0001 -0.0006 0.0002
# 3 45.0640 56.8773 143.4025 0.0001 -0.0008 0.0000
# 4 0.0007 -0.0001 0.0001 25.4422 -0.0006 -0.0005
# 5 0.0005 -0.0006 -0.0008 -0.0006 45.6182 0.0003
# 6 -0.0006 0.0002 0.0000 -0.0005 0.0003 20.2852
#
#
#
# Elastic Compliance Matrix: (Units=1/GPa)
#
#
# Indices 1 2 3 4 5 6 
#
# 1 0.009693 -0.003421 -0.001689 0.000000 0.000000 0.000000
# 2 -0.003421 0.007619 -0.001947 0.000000 0.000000 0.000000
# 3 -0.001689 -0.001947 0.008276 0.000000 0.000000 0.000000
# 4 0.000000 0.000000 0.000000 0.039305 0.000000 0.000001
# 5 0.000000 0.000000 0.000000 0.000000 0.021921 0.000000
# 6 0.000000 0.000000 0.000000 0.000001 0.000000 0.049297
#
#
# Mechanical properties :
#
#
# Convention : Reuss Voigt Hill
#
# Bulk Modulus (GPa) = 87.15176 89.82389 88.48783
# Shear Modulus (GPa) = 32.45696 37.19067 34.82382
#
# Velocity S-wave (km/s) = 3.65771 3.91537 3.78873
# Velocity P-wave (km/s) = 7.33231 7.58063 7.45750
#
# Compressibility (1/GPa) = 0.01147424
#
# Stress axis : x y z
#
# Youngs Moduli (GPa) = 103.16829 131.24787 120.82632
#
# Poissons Ratio (x) = 0.44902 0.20408
# Poissons Ratio (y) = 0.35296 0.23523
# Poissons Ratio (z) = 0.17426 0.25552
#
# Static dielectric constant tensor:
#      x y z
#    x 4.546270 0.000000 0.000000 
#    y 0.000000 4.320440 0.000000 
#    z 0.000000 0.000000 4.480300 
# 
# 
# High freq. dielectric constant tensor:
#      x y z
#    x 1.968930 0.000000 0.000000 
#    y 0.000000 1.958360 0.000000 
#    z 0.000000 0.000000 1.964530 
# 
# From -- ./inp_files/6802.got.cif
#   From: 2010.03.12/outbox.cif.g09.slc.cpg/sg24_4_cif.got.tgz:6802.got - 2010.04.14 03:06:53.
