data_PCOD8165880
_publ_section_title
;
Structure prediction by ZEFSAII (Michael W. Deem and Ramdas Pophale) SiO2 
 PCOD8165880
Probable space group: I 21 21 21
;
_chemical_formula_sum "Si O2"
_cell_formula_units_Z 32
_cell_length_a 19.694966
_cell_length_b 4.921005
_cell_length_c 13.000648
_cell_angle_alpha 90.000000
_cell_angle_beta 90.000000
_cell_angle_gamma 90.000000
_cell_volume 1260.010144
_symmetry_space_group_name_H-M "I 21 21 21"
_symmetry_group_IT_number 24
_symmetry_cell_setting 'orthorhombic'
loop_
_space_group_symop_operation_xyz
x,y,z
-x,1/2-y,z
x,-y,1/2-z
1/2-x,y,-z
1/2+x,1/2+y,1/2+z
1/2-x,-y,1/2+z
1/2+x,1/2-y,-z
-x,1/2+y,1/2-z
loop_
_atom_site_type_symbol
_atom_site_label
_atom_site_fract_x
_atom_site_fract_y
_atom_site_fract_z
Si Si1 0.044383 0.500000 0.250000
Si Si2 0.135510 0.066354 0.571135
Si Si3 0.351413 0.175607 0.847842
Si Si4 0.217839 0.412286 0.891749
Si Si5 0.000000 0.750000 0.822090
O O1 0.090174 0.408010 0.150905
O O2 0.000000 0.250000 0.291786
O O3 0.192573 0.279154 0.611664
O O4 0.061227 0.163988 0.602729
O O5 0.143557 0.014774 0.448949
O O6 0.152931 0.783513 0.629304
O O7 0.280334 0.328943 0.819099
O O8 0.370574 0.000000 0.750000
O O9 0.250000 0.334670 0.000000
O O10 0.022051 0.500000 0.750000
#
# Coordination Sequence:
#
# PCOD8165880 Si02
#       5
#     4   8   8   8   4
#     4  12  28  48  70 116 168 204 268 314 410 504
#     4  11  26  48  77 110 156 202 260 331 394 467
#     4  11  27  48  80 118 164 211 264 332 414 497
#     4  10  23  45  72 109 151 198 257 315 383 460
#     4  12  28  54  78 112 152 214 276 324 396 466
#
# _framework density 25.396622000000001
#
# number of rings (size 3 to 8) (size 9 to 14) (size 15 to 20)
#    0.000    1.000    1.250    3.750   10.500    5.000 
#    2.250    0.000    0.000    0.000    0.000    0.000 
#    0.000    0.000    0.000    0.000    0.000    0.000 
#
# Total GULP energy -198239.925138 kJ/mol
# GULP energy per Si atom -12389.995321 kJ/mol
# Density = 2.533882 g / cm^3
# Si number density = 25.396622 Si / 1000 Ang^3
#
#
#
# Elastic Constant Matrix: (Units=GPa)
#
#
# Indices 1 2 3 4 5 6 
#
# 1 138.1903 43.3597 40.9785 0.0000 0.0000 0.0000
# 2 43.3597 156.9238 45.2409 0.0000 0.0000 0.0000
# 3 40.9785 45.2409 91.7748 0.0000 0.0000 0.0000
# 4 0.0000 0.0000 0.0000 20.9925 0.0000 0.0000
# 5 0.0000 0.0000 0.0000 0.0000 8.6087 0.0000
# 6 0.0000 0.0000 0.0000 0.0000 0.0000 48.7053
#
#
#
# Elastic Compliance Matrix: (Units=1/GPa)
#
#
# Indices 1 2 3 4 5 6 
#
# 1 0.008627 -0.001484 -0.003121 0.000000 0.000000 0.000000
# 2 -0.001484 0.007684 -0.003125 0.000000 0.000000 0.000000
# 3 -0.003121 -0.003125 0.013830 0.000000 0.000000 0.000000
# 4 0.000000 0.000000 0.000000 0.047636 0.000000 0.000000
# 5 0.000000 0.000000 0.000000 0.000000 0.116162 0.000000
# 6 0.000000 0.000000 0.000000 0.000000 0.000000 0.020532
#
#
# Mechanical properties :
#
#
# Convention : Reuss Voigt Hill
#
# Bulk Modulus (GPa) = 68.11250 71.78302 69.94776
# Shear Modulus (GPa) = 21.29251 32.81527 27.05389
#
# Velocity S-wave (km/s) = 2.89865 3.59849 3.26737
# Velocity P-wave (km/s) = 6.17095 6.75216 6.46809
#
# Compressibility (1/GPa) = 0.01468159
#
# Stress axis : x y z
#
# Youngs Moduli (GPa) = 115.90882 130.14851 72.30612
#
# Poissons Ratio (x) = 0.19317 0.22564
# Poissons Ratio (y) = 0.17203 0.22595
# Poissons Ratio (z) = 0.36171 0.40671
#
# Static dielectric constant tensor:
#      x y z
#    x 5.943570 0.000000 0.000000 
#    y 0.000000 5.070120 0.000000 
#    z 0.000000 0.000000 4.337080 
# 
# 
# High freq. dielectric constant tensor:
#      x y z
#    x 2.030460 0.000000 0.000000 
#    y 0.000000 2.037140 0.000000 
#    z 0.000000 0.000000 1.990340 
# 
# From -- ./inp_files/26830.got.cif
#   From: 2010.03.12/outbox.cif.g09.slc.cpg/sg24_14_cif.got.tgz:26830.got - 2010.04.14 03:06:53.
