data_PCOD8165465
_publ_section_title
;
Structure prediction by ZEFSAII (Michael W. Deem and Ramdas Pophale) SiO2 
 PCOD8165465
Probable space group: I 21 21 21
;
_chemical_formula_sum "Si O2"
_cell_formula_units_Z 40
_cell_length_a 8.422132
_cell_length_b 12.550795
_cell_length_c 17.778057
_cell_angle_alpha 90.000000
_cell_angle_beta 90.000000
_cell_angle_gamma 90.000000
_cell_volume 1879.219776
_symmetry_space_group_name_H-M "I 21 21 21"
_symmetry_group_IT_number 24
_symmetry_cell_setting 'orthorhombic'
loop_
_space_group_symop_operation_xyz
x,y,z
-x,1/2-y,z
x,-y,1/2-z
1/2-x,y,-z
1/2+x,1/2+y,1/2+z
1/2-x,-y,1/2+z
1/2+x,1/2-y,-z
-x,1/2+y,1/2-z
loop_
_atom_site_type_symbol
_atom_site_label
_atom_site_fract_x
_atom_site_fract_y
_atom_site_fract_z
Si Si1 0.819259 0.134265 0.580978
Si Si2 0.317481 0.953781 0.672253
Si Si3 0.814735 0.750000 0.586055
Si Si4 0.682519 0.953781 0.672253
Si Si5 0.180741 0.865735 0.919022
O O1 0.750000 0.152551 0.500000
O O2 0.815604 0.250000 0.622374
O O3 0.000000 0.089692 0.580262
O O4 0.698043 0.052299 0.616899
O O5 0.232111 0.852357 0.635586
O O6 0.500000 0.922212 0.684671
O O7 0.241636 0.000000 0.750000
O O8 0.301957 0.052299 0.616899
O O9 0.750000 0.750000 0.500000
O O10 0.767889 0.852357 0.635586
O O11 0.000000 0.750000 0.575193
O O12 0.758364 0.000000 0.750000
O O13 0.250000 0.847449 0.000000
#
# Coordination Sequence:
#
# PCOD8165465 Si02
#       5
#     8   8   8   8   8
#     4  10  21  38  62  92 125 164 209 258 313 377
#     4  11  25  43  65  94 131 171 214 266 326 387
#     4  12  26  46  72  98 133 176 225 276 328 396
#     4  11  25  43  65  94 131 171 214 266 326 387
#     4  10  21  38  62  92 125 164 209 258 313 377
#
# _framework density 21.285430000000002
#
# number of rings (size 3 to 8) (size 9 to 14) (size 15 to 20)
#    0.000    1.200    0.000    5.400    2.800    5.600 
#    0.000    0.000    0.000    0.000    0.000    0.000 
#    0.000    0.000    0.000    0.000    0.000    0.000 
#
# Total GULP energy -247807.983562 kJ/mol
# GULP energy per Si atom -12390.399178 kJ/mol
# Density = 2.123698 g / cm^3
# Si number density = 21.285430 Si / 1000 Ang^3
#
#
#
# Elastic Constant Matrix: (Units=GPa)
#
#
# Indices 1 2 3 4 5 6 
#
# 1 104.2288 39.9540 36.0246 0.0000 0.0000 0.0000
# 2 39.9540 157.7887 84.0515 0.0000 0.0000 0.0000
# 3 36.0246 84.0515 124.8189 0.0000 0.0000 0.0000
# 4 0.0000 0.0000 0.0000 35.6821 0.0000 0.0000
# 5 0.0000 0.0000 0.0000 0.0000 31.3985 0.0000
# 6 0.0000 0.0000 0.0000 0.0000 0.0000 51.9679
#
#
#
# Elastic Compliance Matrix: (Units=1/GPa)
#
#
# Indices 1 2 3 4 5 6 
#
# 1 0.010941 -0.001697 -0.002015 0.000000 0.000000 0.000000
# 2 -0.001697 0.010146 -0.006342 0.000000 0.000000 0.000000
# 3 -0.002015 -0.006342 0.012864 0.000000 0.000000 0.000000
# 4 0.000000 0.000000 0.000000 0.028025 0.000000 0.000000
# 5 0.000000 0.000000 0.000000 0.000000 0.031849 0.000000
# 6 0.000000 0.000000 0.000000 0.000000 0.000000 0.019243
#
#
# Mechanical properties :
#
#
# Convention : Reuss Voigt Hill
#
# Bulk Modulus (GPa) = 72.24227 78.54406 75.39316
# Shear Modulus (GPa) = 36.28708 38.93013 37.60860
#
# Velocity S-wave (km/s) = 4.13338 4.28127 4.20798
# Velocity P-wave (km/s) = 7.53613 7.83706 7.68807
#
# Compressibility (1/GPa) = 0.01384231
#
# Stress axis : x y z
#
# Youngs Moduli (GPa) = 91.39701 98.56404 77.73686
#
# Poissons Ratio (x) = 0.16727 0.15664
# Poissons Ratio (y) = 0.15511 0.49302
# Poissons Ratio (z) = 0.18417 0.62511
#
# Static dielectric constant tensor:
#      x y z
#    x 3.829040 0.000000 0.000000 
#    y 0.000000 4.443100 0.000000 
#    z 0.000000 0.000000 4.132490 
# 
# 
# High freq. dielectric constant tensor:
#      x y z
#    x 1.839300 0.000000 0.000000 
#    y 0.000000 1.854460 0.000000 
#    z 0.000000 0.000000 1.833910 
# 
# From -- ./inp_files/10658.got.cif
#   From: 2010.03.12/outbox.cif.g09.slc.cpg/sg24_6_cif.got.tgz:10658.got - 2010.04.14 03:06:53.
