data_PCOD8165698
_publ_section_title
;
Structure prediction by ZEFSAII (Michael W. Deem and Ramdas Pophale) SiO2 
 PCOD8165698
Probable space group: I 21 21 21
;
_chemical_formula_sum "Si O2"
_cell_formula_units_Z 40
_cell_length_a 11.494822
_cell_length_b 6.310472
_cell_length_c 27.749686
_cell_angle_alpha 90.000000
_cell_angle_beta 90.000000
_cell_angle_gamma 90.000000
_cell_volume 2012.899852
_symmetry_space_group_name_H-M "I 21 21 21"
_symmetry_group_IT_number 24
_symmetry_cell_setting 'orthorhombic'
loop_
_space_group_symop_operation_xyz
x,y,z
-x,1/2-y,z
x,-y,1/2-z
1/2-x,y,-z
1/2+x,1/2+y,1/2+z
1/2-x,-y,1/2+z
1/2+x,1/2-y,-z
-x,1/2+y,1/2-z
loop_
_atom_site_type_symbol
_atom_site_label
_atom_site_fract_x
_atom_site_fract_y
_atom_site_fract_z
Si Si1 0.881315 0.133230 0.873770
Si Si2 0.885481 0.368441 0.376760
Si Si3 0.000000 0.750000 0.424926
Si Si4 0.203205 0.015461 0.803551
Si Si5 0.202722 0.525619 0.051767
Si Si6 0.500000 0.750000 0.169650
O O1 0.819556 0.253815 0.828231
O O2 0.792636 0.122069 0.918538
O O3 0.000000 0.250000 0.889946
O O4 0.912749 0.891131 0.862183
O O5 0.791184 0.377069 0.334890
O O6 0.000000 0.250000 0.357002
O O7 0.919030 0.605561 0.391266
O O8 0.828645 0.242576 0.421225
O O9 0.084336 0.606633 0.457489
O O10 0.256891 0.000000 0.750000
O O11 0.078202 0.902551 0.797936
O O12 0.250000 0.591837 0.000000
#
# Coordination Sequence:
#
# PCOD8165698 Si02
#       6
#     8   8   4   8   8   4
#     4  10  22  41  61  92 128 162 204 259 306 373
#     4  10  22  45  62  89 130 163 213 266 308 366
#     4  10  22  44  66  87 126 165 206 262 316 368
#     4  11  23  40  65  91 124 170 208 257 317 374
#     4  11  23  41  66  93 123 165 207 257 314 373
#     4  10  22  40  62  91 132 159 208 264 308 374
#
# _framework density 19.871829000000002
#
# number of rings (size 3 to 8) (size 9 to 14) (size 15 to 20)
#    0.000    1.600    4.000    0.000    5.600    0.800 
#    7.200    0.000    0.000    0.000    0.000    0.000 
#    0.000    0.000    0.000    0.000    0.000    0.000 
#
# Total GULP energy -247925.941843 kJ/mol
# GULP energy per Si atom -12396.297092 kJ/mol
# Density = 1.982660 g / cm^3
# Si number density = 19.871829 Si / 1000 Ang^3
#
#
#
# Elastic Constant Matrix: (Units=GPa)
#
#
# Indices 1 2 3 4 5 6 
#
# 1 104.3054 40.5889 63.2036 0.0000 0.0000 0.0000
# 2 40.5889 105.4117 54.0072 0.0000 0.0000 0.0000
# 3 63.2036 54.0072 136.2568 0.0000 0.0000 0.0000
# 4 0.0000 0.0000 0.0000 21.8696 0.0000 0.0000
# 5 0.0000 0.0000 0.0000 0.0000 17.9366 0.0000
# 6 0.0000 0.0000 0.0000 0.0000 0.0000 41.2437
#
#
#
# Elastic Compliance Matrix: (Units=1/GPa)
#
#
# Indices 1 2 3 4 5 6 
#
# 1 0.013867 -0.002565 -0.005416 0.000000 0.000000 0.000000
# 2 -0.002565 0.012378 -0.003717 0.000000 0.000000 0.000000
# 3 -0.005416 -0.003717 0.011324 0.000000 0.000000 0.000000
# 4 0.000000 0.000000 0.000000 0.045726 0.000000 0.000000
# 5 0.000000 0.000000 0.000000 0.000000 0.055752 0.000000
# 6 0.000000 0.000000 0.000000 0.000000 0.000000 0.024246
#
#
# Mechanical properties :
#
#
# Convention : Reuss Voigt Hill
#
# Bulk Modulus (GPa) = 70.54465 73.50815 72.02640
# Shear Modulus (GPa) = 26.12157 28.75491 27.43824
#
# Velocity S-wave (km/s) = 3.62954 3.80810 3.71989
# Velocity P-wave (km/s) = 7.28983 7.51045 7.40096
#
# Compressibility (1/GPa) = 0.01417542
#
# Stress axis : x y z
#
# Youngs Moduli (GPa) = 72.11430 80.78597 88.30549
#
# Poissons Ratio (x) = 0.20720 0.47823
# Poissons Ratio (y) = 0.18496 0.32820
# Poissons Ratio (z) = 0.39055 0.30025
#
# Static dielectric constant tensor:
#      x y z
#    x 3.892230 0.000000 0.000000 
#    y 0.000000 3.711990 0.000000 
#    z 0.000000 0.000000 3.216540 
# 
# 
# High freq. dielectric constant tensor:
#      x y z
#    x 1.796080 0.000000 0.000000 
#    y 0.000000 1.784190 0.000000 
#    z 0.000000 0.000000 1.739990 
# 
# From -- ./inp_files/2483.got.cif
#   From: 2010.03.12/outbox.cif.g09.slc.cpg/sg24_2_cif.got.tgz:2483.got - 2010.04.14 03:06:53.
