data_PCOD8165590
_publ_section_title
;
Structure prediction by ZEFSAII (Michael W. Deem and Ramdas Pophale) SiO2 
 PCOD8165590
Probable space group: I 21 21 21
;
_chemical_formula_sum "Si O2"
_cell_formula_units_Z 36
_cell_length_a 10.329359
_cell_length_b 7.932003
_cell_length_c 18.686276
_cell_angle_alpha 90.000000
_cell_angle_beta 90.000000
_cell_angle_gamma 90.000000
_cell_volume 1531.013431
_symmetry_space_group_name_H-M "I 21 21 21"
_symmetry_group_IT_number 24
_symmetry_cell_setting 'orthorhombic'
loop_
_space_group_symop_operation_xyz
x,y,z
-x,1/2-y,z
x,-y,1/2-z
1/2-x,y,-z
1/2+x,1/2+y,1/2+z
1/2-x,-y,1/2+z
1/2+x,1/2-y,-z
-x,1/2+y,1/2-z
loop_
_atom_site_type_symbol
_atom_site_label
_atom_site_fract_x
_atom_site_fract_y
_atom_site_fract_z
Si Si1 0.646404 0.789400 0.806495
Si Si2 0.000000 0.750000 0.441638
Si Si3 0.806159 0.343956 0.573303
Si Si4 0.061008 0.490165 0.932989
Si Si5 0.220525 0.342407 0.154645
O O1 0.500000 0.750000 0.785798
O O2 0.698776 0.656737 0.864676
O O3 0.734059 0.769261 0.734936
O O4 0.652534 0.975713 0.839200
O O5 0.032449 0.587870 0.489603
O O6 0.127925 0.778704 0.392726
O O7 0.750000 0.422118 0.500000
O O8 0.923250 0.460856 0.602168
O O9 0.854639 0.156285 0.554763
O O10 0.137559 0.358541 0.881957
#
# Coordination Sequence:
#
# PCOD8165590 Si02
#       5
#     8   4   8   8   8
#     4  10  21  42  69  97 130 171 226 280 321 393
#     4  12  22  40  64  96 136 172 212 270 346 388
#     4  10  22  40  70  99 126 175 227 272 323 395
#     4  10  23  42  64  95 134 177 217 274 331 394
#     4  10  22  42  66  95 134 170 215 281 338 386
#
# _framework density 23.513836000000001
#
# number of rings (size 3 to 8) (size 9 to 14) (size 15 to 20)
#    0.000    1.778    1.111    3.333    6.222    1.778 
#    0.000    8.889    0.000    0.000    0.000    0.000 
#    0.000    0.000    0.000    0.000    0.000    0.000 
#
# Total GULP energy -223208.219027 kJ/mol
# GULP energy per Si atom -12400.456613 kJ/mol
# Density = 2.346032 g / cm^3
# Si number density = 23.513836 Si / 1000 Ang^3
#
#
#
# Elastic Constant Matrix: (Units=GPa)
#
#
# Indices 1 2 3 4 5 6 
#
# 1 149.2829 20.9501 83.9083 0.0000 0.0000 0.0000
# 2 20.9501 38.6654 30.6447 0.0000 0.0000 0.0000
# 3 83.9083 30.6447 178.7855 0.0000 0.0000 0.0000
# 4 0.0000 0.0000 0.0000 21.9825 0.0000 0.0000
# 5 0.0000 0.0000 0.0000 0.0000 30.4599 0.0000
# 6 0.0000 0.0000 0.0000 0.0000 0.0000 26.2962
#
#
#
# Elastic Compliance Matrix: (Units=1/GPa)
#
#
# Indices 1 2 3 4 5 6 
#
# 1 0.009207 -0.001810 -0.004011 0.000000 0.000000 0.000000
# 2 -0.001810 0.030284 -0.004342 0.000000 0.000000 0.000000
# 3 -0.004011 -0.004342 0.008220 0.000000 0.000000 0.000000
# 4 0.000000 0.000000 0.000000 0.045491 0.000000 0.000000
# 5 0.000000 0.000000 0.000000 0.000000 0.032830 0.000000
# 6 0.000000 0.000000 0.000000 0.000000 0.000000 0.038028
#
#
# Mechanical properties :
#
#
# Convention : Reuss Voigt Hill
#
# Bulk Modulus (GPa) = 36.51372 70.85998 53.68685
# Shear Modulus (GPa) = 25.83793 31.16310 28.50052
#
# Velocity S-wave (km/s) = 3.31847 3.64443 3.48526
# Velocity P-wave (km/s) = 5.49957 6.92171 6.25121
#
# Compressibility (1/GPa) = 0.02738697
#
# Stress axis : x y z
#
# Youngs Moduli (GPa) = 108.61169 33.02026 121.65646
#
# Poissons Ratio (x) = 0.05976 0.48795
# Poissons Ratio (y) = 0.19657 0.52817
# Poissons Ratio (z) = 0.43563 0.14336
#
# Static dielectric constant tensor:
#      x y z
#    x 4.293560 0.000000 0.000000 
#    y 0.000000 4.033020 0.000000 
#    z 0.000000 0.000000 4.244610 
# 
# 
# High freq. dielectric constant tensor:
#      x y z
#    x 1.931000 0.000000 0.000000 
#    y 0.000000 1.916060 0.000000 
#    z 0.000000 0.000000 1.930250 
# 
# From -- ./inp_files/9042.got.cif
#   From: 2010.03.12/outbox.cif.g09.slc.cpg/sg24_5_cif.got.tgz:9042.got - 2010.04.14 03:06:53.
