data_PCOD8165963
_publ_section_title
;
Structure prediction by ZEFSAII (Michael W. Deem and Ramdas Pophale) SiO2 
 PCOD8165963
Probable space group: I 21 21 21
;
_chemical_formula_sum "Si O2"
_cell_formula_units_Z 48
_cell_length_a 16.862539
_cell_length_b 13.787812
_cell_length_c 9.089720
_cell_angle_alpha 90.000000
_cell_angle_beta 90.000000
_cell_angle_gamma 90.000000
_cell_volume 2113.337335
_symmetry_space_group_name_H-M "I 21 21 21"
_symmetry_group_IT_number 24
_symmetry_cell_setting 'orthorhombic'
loop_
_space_group_symop_operation_xyz
x,y,z
-x,1/2-y,z
x,-y,1/2-z
1/2-x,y,-z
1/2+x,1/2+y,1/2+z
1/2-x,-y,1/2+z
1/2+x,1/2-y,-z
-x,1/2+y,1/2-z
loop_
_atom_site_type_symbol
_atom_site_label
_atom_site_fract_x
_atom_site_fract_y
_atom_site_fract_z
Si Si1 0.586527 0.792126 0.507331
Si Si2 0.750000 0.109262 0.500000
Si Si3 0.339553 0.233730 0.682372
Si Si4 0.402319 0.508767 0.082564
Si Si5 0.618005 0.500000 0.250000
Si Si6 0.034328 0.851522 0.959200
Si Si7 0.202320 0.833551 0.642543
O O1 0.500000 0.750000 0.494273
O O2 0.620134 0.761074 0.665062
O O3 0.588031 0.907594 0.500265
O O4 0.633462 0.748261 0.365712
O O5 0.690793 0.170643 0.601140
O O6 0.810369 0.041184 0.590570
O O7 0.401922 0.169167 0.588661
O O8 0.257796 0.174424 0.712694
O O9 0.434046 0.500000 0.250000
O O10 0.458556 0.583904 0.990563
O O11 0.573026 0.411526 0.327159
O O12 0.670025 0.443309 0.129565
O O13 0.000000 0.750000 0.898961
O O14 0.250000 0.808582 0.500000
#
# Coordination Sequence:
#
# PCOD8165963 Si02
#       7
#     8   4   8   8   4   8   8
#     4  11  26  49  75 108 151 200 251 312 375 450
#     4  12  26  44  76 108 148 196 240 314 370 456
#     4  11  25  50  74 107 152 195 247 317 379 439
#     4  12  28  45  76 111 146 200 250 308 382 456
#     4  12  26  42  76 100 140 194 244 304 366 446
#     4  12  26  48  72 110 147 195 248 307 372 450
#     4  10  25  45  70 104 143 187 244 305 371 438
#
# _framework density 22.712892
#
# number of rings (size 3 to 8) (size 9 to 14) (size 15 to 20)
#    0.000    0.667    2.500    3.500   10.500    0.000 
#    0.000    1.667    0.000    0.000    0.000    0.000 
#    0.000    0.000    0.000    0.000    0.000    0.000 
#
# Total GULP energy -297418.799318 kJ/mol
# GULP energy per Si atom -12392.449972 kJ/mol
# Density = 2.266120 g / cm^3
# Si number density = 22.712892 Si / 1000 Ang^3
#
#
#
# Elastic Constant Matrix: (Units=GPa)
#
#
# Indices 1 2 3 4 5 6 
#
# 1 171.1378 84.5430 59.6343 0.0000 0.0000 0.0000
# 2 84.5430 182.1729 46.8359 0.0000 0.0000 0.0000
# 3 59.6343 46.8359 91.9891 0.0000 0.0000 0.0000
# 4 0.0000 0.0000 0.0000 -11.6063 0.0000 0.0000
# 5 0.0000 0.0000 0.0000 0.0000 31.8355 0.0000
# 6 0.0000 0.0000 0.0000 0.0000 0.0000 41.8300
#
#
#
# Elastic Compliance Matrix: (Units=1/GPa)
#
#
# Indices 1 2 3 4 5 6 
#
# 1 0.008777 -0.003003 -0.004161 0.000000 0.000000 0.000000
# 2 -0.003003 0.007344 -0.001792 0.000000 0.000000 0.000000
# 3 -0.004161 -0.001792 0.014480 0.000000 0.000000 0.000000
# 4 0.000000 0.000000 0.000000 -0.086160 0.000000 0.000000
# 5 0.000000 0.000000 0.000000 0.000000 0.031412 0.000000
# 6 0.000000 0.000000 0.000000 0.000000 0.000000 0.023906
#
#
# Mechanical properties :
#
#
# Convention : Reuss Voigt Hill
#
# Bulk Modulus (GPa) = 78.80861 91.92514 85.36687
# Shear Modulus (GPa) = 228.30332 29.36428 128.83380
#
# Velocity S-wave (km/s) = 10.03670 3.59952 7.53962
# Velocity P-wave (km/s) = 13.00334 7.60499 10.65182
#
# Compressibility (1/GPa) = 0.01268897
#
# Stress axis : x y z
#
# Youngs Moduli (GPa) = 113.93749 136.16815 69.05864
#
# Poissons Ratio (x) = 0.40898 0.28732
# Poissons Ratio (y) = 0.34221 0.12376
# Poissons Ratio (z) = 0.47404 0.24402
#
# Static dielectric constant tensor:
#      x y z
#    x 5.054220 0.000000 0.000000 
#    y 0.000000 4.430860 0.000000 
#    z 0.000000 0.000000 4.000580 
# 
# 
# High freq. dielectric constant tensor:
#      x y z
#    x 1.930030 0.000000 0.000000 
#    y 0.000000 1.903390 0.000000 
#    z 0.000000 0.000000 1.879690 
# 
# From -- ./inp_files/14228.got.cif
#   From: 2010.03.12/outbox.cif.g09.slc.cpg/sg24_8_cif.got.tgz:14228.got - 2010.04.14 03:06:53.
