data_PCOD8165842
_publ_section_title
;
Structure prediction by ZEFSAII (Michael W. Deem and Ramdas Pophale) SiO2 
 PCOD8165842
Probable space group: I 21 21 21
;
_chemical_formula_sum "Si O2"
_cell_formula_units_Z 48
_cell_length_a 16.051989
_cell_length_b 9.411274
_cell_length_c 14.287685
_cell_angle_alpha 90.000000
_cell_angle_beta 90.000000
_cell_angle_gamma 90.000000
_cell_volume 2158.435811
_symmetry_space_group_name_H-M "I 21 21 21"
_symmetry_group_IT_number 24
_symmetry_cell_setting 'orthorhombic'
loop_
_space_group_symop_operation_xyz
x,y,z
-x,1/2-y,z
x,-y,1/2-z
1/2-x,y,-z
1/2+x,1/2+y,1/2+z
1/2-x,-y,1/2+z
1/2+x,1/2-y,-z
-x,1/2+y,1/2-z
loop_
_atom_site_type_symbol
_atom_site_label
_atom_site_fract_x
_atom_site_fract_y
_atom_site_fract_z
Si Si1 0.593227 0.752340 0.890586
Si Si2 0.404996 0.739983 0.501477
Si Si3 0.158011 0.947387 0.962276
Si Si4 0.336233 0.399795 0.172794
Si Si5 0.757543 0.650674 0.788062
Si Si6 0.841021 0.029522 0.143164
O O1 0.500000 0.750000 0.845314
O O2 0.669450 0.716613 0.820689
O O3 0.612553 0.914020 0.922387
O O4 0.592833 0.646792 0.978944
O O5 0.500000 0.750000 0.529171
O O6 0.396526 0.632425 0.413616
O O7 0.360298 0.683285 0.596250
O O8 0.368030 0.889397 0.468706
O O9 0.165778 0.881128 0.859154
O O10 0.250000 0.929556 0.000000
O O11 0.383157 0.500000 0.250000
O O12 0.297439 0.253631 0.211592
O O13 0.258285 0.495205 0.137840
O O14 0.728091 0.500000 0.750000
O O15 0.873234 0.000000 0.250000
#
# Coordination Sequence:
#
# PCOD8165842 Si02
#       6
#     8   8   8   8   8   8
#     4  11  24  41  64 102 137 175 227 290 353 398
#     4  12  26  45  67 103 141 179 232 293 355 402
#     4  10  23  42  69  95 132 188 228 280 339 425
#     4  11  23  45  71 100 133 185 238 285 335 425
#     4  11  22  43  70  95 134 181 239 275 339 426
#     4  11  24  43  68  98 136 182 228 280 346 420
#
# _framework density 22.238327999999999
#
# number of rings (size 3 to 8) (size 9 to 14) (size 15 to 20)
#    0.000    1.000    5.000    2.500    4.667    2.667 
#    3.000    0.000    0.000    0.000    0.000    0.000 
#    0.000    0.000    0.000    0.000    0.000    0.000 
#
# Total GULP energy -297399.769834 kJ/mol
# GULP energy per Si atom -12391.657076 kJ/mol
# Density = 2.218771 g / cm^3
# Si number density = 22.238328 Si / 1000 Ang^3
#
#
#
# Elastic Constant Matrix: (Units=GPa)
#
#
# Indices 1 2 3 4 5 6 
#
# 1 43.4483 13.1083 20.8554 0.0000 0.0000 0.0000
# 2 13.1083 98.4195 22.6737 0.0000 0.0000 0.0000
# 3 20.8554 22.6737 93.0981 0.0000 0.0000 0.0000
# 4 0.0000 0.0000 0.0000 37.5307 0.0000 0.0000
# 5 0.0000 0.0000 0.0000 0.0000 27.0876 0.0000
# 6 0.0000 0.0000 0.0000 0.0000 0.0000 21.0193
#
#
#
# Elastic Compliance Matrix: (Units=1/GPa)
#
#
# Indices 1 2 3 4 5 6 
#
# 1 0.026259 -0.002270 -0.005330 0.000000 0.000000 0.000000
# 2 -0.002270 0.010961 -0.002161 0.000000 0.000000 0.000000
# 3 -0.005330 -0.002161 0.012462 0.000000 0.000000 0.000000
# 4 0.000000 0.000000 0.000000 0.026645 0.000000 0.000000
# 5 0.000000 0.000000 0.000000 0.000000 0.036917 0.000000
# 6 0.000000 0.000000 0.000000 0.000000 0.000000 0.047575
#
#
# Mechanical properties :
#
#
# Convention : Reuss Voigt Hill
#
# Bulk Modulus (GPa) = 33.15570 38.69341 35.92456
# Shear Modulus (GPa) = 26.26156 29.01611 27.63883
#
# Velocity S-wave (km/s) = 3.44017 3.61609 3.52923
# Velocity P-wave (km/s) = 5.54268 5.90525 5.72684
#
# Compressibility (1/GPa) = 0.03016072
#
# Stress axis : x y z
#
# Youngs Moduli (GPa) = 38.08243 91.23492 80.24658
#
# Poissons Ratio (x) = 0.20706 0.42769
# Poissons Ratio (y) = 0.08643 0.17342
# Poissons Ratio (z) = 0.20297 0.19716
#
# Static dielectric constant tensor:
#      x y z
#    x 3.906120 0.000000 0.000000 
#    y 0.000000 4.387970 0.000000 
#    z 0.000000 0.000000 4.314090 
# 
# 
# High freq. dielectric constant tensor:
#      x y z
#    x 1.849360 0.000000 0.000000 
#    y 0.000000 1.899670 0.000000 
#    z 0.000000 0.000000 1.868010 
# 
# From -- ./inp_files/27057.got.cif
#   From: 2010.03.12/outbox.cif.g09.slc.cpg/sg24_14_cif.got.tgz:27057.got - 2010.04.14 03:06:53.
