data_PCOD8165126
_publ_section_title
;
Structure prediction by ZEFSAII (Michael W. Deem and Ramdas Pophale) SiO2 
 PCOD8165126
Probable space group: I 21 21 21
;
_chemical_formula_sum "Si O2"
_cell_formula_units_Z 52
_cell_length_a 13.806334
_cell_length_b 25.380915
_cell_length_c 7.540883
_cell_angle_alpha 90.000000
_cell_angle_beta 90.000000
_cell_angle_gamma 90.000000
_cell_volume 2642.456537
_symmetry_space_group_name_H-M "I 21 21 21"
_symmetry_group_IT_number 24
_symmetry_cell_setting 'orthorhombic'
loop_
_space_group_symop_operation_xyz
x,y,z
-x,1/2-y,z
x,-y,1/2-z
1/2-x,y,-z
1/2+x,1/2+y,1/2+z
1/2-x,-y,1/2+z
1/2+x,1/2-y,-z
-x,1/2+y,1/2-z
loop_
_atom_site_type_symbol
_atom_site_label
_atom_site_fract_x
_atom_site_fract_y
_atom_site_fract_z
Si Si1 0.445127 0.000000 0.750000
Si Si2 0.985448 0.188861 0.279065
Si Si3 0.136942 0.362124 0.979222
Si Si4 0.518022 0.964561 0.402993
Si Si5 0.133144 0.105963 0.714118
Si Si6 0.350665 0.893920 0.800637
Si Si7 0.023650 0.309526 0.686928
O O1 0.384668 0.052631 0.793192
O O2 0.507015 0.004447 0.569780
O O3 0.950100 0.181968 0.481273
O O4 0.000000 0.250000 0.232743
O O5 0.084784 0.156494 0.246159
O O6 0.902576 0.166245 0.154322
O O7 0.091015 0.419407 0.960809
O O8 0.114646 0.327925 0.803717
O O9 0.250000 0.368752 0.000000
O O10 0.416215 0.941458 0.324307
O O11 0.566837 0.000000 0.250000
O O12 0.243246 0.117312 0.774128
O O13 0.140128 0.092665 0.507223
O O14 0.071424 0.158518 0.745713
O O15 0.000000 0.250000 0.731949
#
# Coordination Sequence:
#
# PCOD8165126 Si02
#       7
#     4   8   8   8   8   8   8
#     4  12  22  36  64  84 118 154 204 240 308 380
#     4  10  21  41  64  90 127 164 200 256 312 369
#     4  11  24  42  62  91 119 159 219 259 304 367
#     4  11  23  42  60  85 120 161 199 257 315 361
#     4   9  20  35  58  88 124 151 196 241 298 377
#     4  10  20  35  58  93 119 156 197 239 304 380
#     4   9  20  40  64  89 124 163 199 251 312 364
#
# _framework density 19.678657000000001
#
# number of rings (size 3 to 8) (size 9 to 14) (size 15 to 20)
#    0.000    1.846    3.077    0.462    1.077    2.462 
#    1.385    3.077    0.000    0.000    0.000    0.000 
#    0.000    0.000    0.000    0.000    0.000    0.000 
#
# Total GULP energy -322350.917078 kJ/mol
# GULP energy per Si atom -12398.112195 kJ/mol
# Density = 1.963387 g / cm^3
# Si number density = 19.678657 Si / 1000 Ang^3
#
#
#
# Elastic Constant Matrix: (Units=GPa)
#
#
# Indices 1 2 3 4 5 6 
#
# 1 131.8249 46.9764 50.8507 -0.0003 -0.0042 -0.0004
# 2 46.9764 131.0110 43.2343 -0.0253 -0.0069 0.0000
# 3 50.8507 43.2343 108.0820 -0.1268 0.0146 0.0015
# 4 -0.0003 -0.0253 -0.1268 34.2719 -0.0026 0.0014
# 5 -0.0042 -0.0069 0.0146 -0.0026 15.2101 -0.0005
# 6 -0.0004 0.0000 0.0015 0.0014 -0.0005 11.8358
#
#
#
# Elastic Compliance Matrix: (Units=1/GPa)
#
#
# Indices 1 2 3 4 5 6 
#
# 1 0.009837 -0.002304 -0.003706 -0.000015 0.000005 0.000001
# 2 -0.002304 0.009333 -0.002650 -0.000003 0.000006 0.000000
# 3 -0.003706 -0.002650 0.012056 0.000043 -0.000014 -0.000002
# 4 -0.000015 -0.000003 0.000043 0.029179 0.000005 -0.000003
# 5 0.000005 0.000006 -0.000014 0.000005 0.065746 0.000003
# 6 0.000001 0.000000 -0.000002 -0.000003 0.000003 0.084490
#
#
# Mechanical properties :
#
#
# Convention : Reuss Voigt Hill
#
# Bulk Modulus (GPa) = 71.91021 72.56007 72.23514
# Shear Modulus (GPa) = 21.49662 27.58734 24.54198
#
# Velocity S-wave (km/s) = 3.30871 3.74825 3.53531
# Velocity P-wave (km/s) = 7.15669 7.46224 7.31106
#
# Compressibility (1/GPa) = 0.01390623
#
# Stress axis : x y z
#
# Youngs Moduli (GPa) = 101.66180 107.14173 82.94702
#
# Poissons Ratio (x) = 0.24685 0.30743
# Poissons Ratio (y) = 0.23423 0.21977
# Poissons Ratio (z) = 0.37679 0.28387
#
# Static dielectric constant tensor:
#      x y z
#    x 3.377380 0.000040 0.000010 
#    y 0.000040 3.796450 -0.000030 
#    z 0.000010 -0.000030 3.799210 
# 
# 
# High freq. dielectric constant tensor:
#      x y z
#    x 1.737300 0.000000 0.000000 
#    y 0.000000 1.775310 0.000000 
#    z 0.000000 0.000000 1.785920 
# 
# From -- ./inp_files/11468.got.cif
#   From: 2010.03.12/outbox.cif.g09.slc.cpg/sg24_6_cif.got.tgz:11468.got - 2010.04.14 03:06:53.
