data_PCOD8165570
_publ_section_title
;
Structure prediction by ZEFSAII (Michael W. Deem and Ramdas Pophale) SiO2 
 PCOD8165570
Probable space group: I 21 21 21
;
_chemical_formula_sum "Si O2"
_cell_formula_units_Z 32
_cell_length_a 7.379761
_cell_length_b 38.094255
_cell_length_c 5.365389
_cell_angle_alpha 90.000000
_cell_angle_beta 90.000000
_cell_angle_gamma 90.000000
_cell_volume 1508.353017
_symmetry_space_group_name_H-M "I 21 21 21"
_symmetry_group_IT_number 24
_symmetry_cell_setting 'orthorhombic'
loop_
_space_group_symop_operation_xyz
x,y,z
-x,1/2-y,z
x,-y,1/2-z
1/2-x,y,-z
1/2+x,1/2+y,1/2+z
1/2-x,-y,1/2+z
1/2+x,1/2-y,-z
-x,1/2+y,1/2-z
loop_
_atom_site_type_symbol
_atom_site_label
_atom_site_fract_x
_atom_site_fract_y
_atom_site_fract_z
Si Si1 0.250000 0.624736 0.000000
Si Si2 0.750000 0.713808 0.500000
Si Si3 0.039405 0.978810 0.501270
Si Si4 0.250000 0.419878 0.000000
Si Si5 0.500000 0.750000 0.863749
Si Si6 0.550331 0.680606 0.111053
O O1 0.277742 0.602380 0.750735
O O2 0.071412 0.647316 0.946409
O O3 0.679884 0.739934 0.711701
O O4 0.586454 0.688415 0.404869
O O5 0.250000 0.968931 0.500000
O O6 0.930155 0.942951 0.518168
O O7 0.988032 0.000000 0.750000
O O8 0.985912 0.000000 0.250000
O O9 0.447944 0.715492 0.018052
O O10 0.750000 0.674154 0.000000
#
# Coordination Sequence:
#
# PCOD8165570 Si02
#       6
#     4   4   8   4   4   8
#     4  12  30  43  68  94 144 189 232 272 353 428
#     4  10  22  39  66  90 124 159 218 302 363 424
#     4  10  21  41  74 107 140 177 227 280 327 384
#     4  12  26  44  66 104 140 192 222 276 332 414
#     4  10  22  38  66  96 114 160 224 300 372 410
#     4  10  25  43  62  93 125 172 226 293 354 422
#
# _framework density 21.215191999999998
#
# number of rings (size 3 to 8) (size 9 to 14) (size 15 to 20)
#    0.000    1.500    0.000    3.000   15.750    2.000 
#    0.000    0.000    0.000    0.000    0.000    0.000 
#    0.000    0.000    0.000    0.000    0.000    0.000 
#
# Total GULP energy -198291.228080 kJ/mol
# GULP energy per Si atom -12393.201755 kJ/mol
# Density = 2.116691 g / cm^3
# Si number density = 21.215192 Si / 1000 Ang^3
#
#
#
# Elastic Constant Matrix: (Units=GPa)
#
#
# Indices 1 2 3 4 5 6 
#
# 1 115.5995 80.5300 48.3870 0.0066 0.0112 -0.0116
# 2 80.5300 158.8704 85.7289 0.0630 0.0014 -0.2090
# 3 48.3870 85.7289 173.4707 -0.0087 0.0183 -0.2287
# 4 0.0066 0.0630 -0.0087 21.6026 0.0500 0.3341
# 5 0.0112 0.0014 0.0183 0.0500 17.7498 0.0140
# 6 -0.0116 -0.2090 -0.2287 0.3341 0.0140 23.1996
#
#
#
# Elastic Compliance Matrix: (Units=1/GPa)
#
#
# Indices 1 2 3 4 5 6 
#
# 1 0.013407 -0.006515 -0.000520 0.000016 -0.000007 -0.000057
# 2 -0.006515 0.011750 -0.003989 -0.000035 0.000007 0.000064
# 3 -0.000520 -0.003989 0.007881 0.000014 -0.000008 0.000041
# 4 0.000016 -0.000035 0.000014 0.046301 -0.000130 -0.000667
# 5 -0.000007 0.000007 -0.000008 -0.000130 0.056339 -0.000032
# 6 -0.000057 0.000064 0.000041 -0.000667 -0.000032 0.043115
#
#
# Mechanical properties :
#
#
# Convention : Reuss Voigt Hill
#
# Bulk Modulus (GPa) = 91.00075 97.47026 94.23551
# Shear Modulus (GPa) = 24.44921 28.06337 26.25629
#
# Velocity S-wave (km/s) = 3.39844 3.64097 3.52180
# Velocity P-wave (km/s) = 7.64110 7.98241 7.81362
#
# Compressibility (1/GPa) = 0.01098892
#
# Stress axis : x y z
#
# Youngs Moduli (GPa) = 74.58781 85.10738 126.88409
#
# Poissons Ratio (x) = 0.55452 0.06596
# Poissons Ratio (y) = 0.48598 0.50618
# Poissons Ratio (z) = 0.03877 0.33952
#
# Static dielectric constant tensor:
#      x y z
#    x 3.818870 -0.000050 0.000260 
#    y -0.000050 3.786650 -0.000250 
#    z 0.000260 -0.000250 4.490230 
# 
# 
# High freq. dielectric constant tensor:
#      x y z
#    x 1.843500 0.000000 0.000000 
#    y 0.000000 1.819450 0.000010 
#    z 0.000000 0.000010 1.854070 
# 
# From -- ./inp_files/1340.got.cif
#   From: 2010.03.12/outbox.cif.g09.slc.cpg/sg24_1_cif.got.tgz:1340.got - 2010.04.14 03:06:53.
