data_PCOD8165332
_publ_section_title
;
Structure prediction by ZEFSAII (Michael W. Deem and Ramdas Pophale) SiO2 
 PCOD8165332
Probable space group: I 21 21 21
;
_chemical_formula_sum "Si O2"
_cell_formula_units_Z 28
_cell_length_a 13.234449
_cell_length_b 9.368562
_cell_length_c 8.936218
_cell_angle_alpha 90.000000
_cell_angle_beta 90.000000
_cell_angle_gamma 90.000000
_cell_volume 1107.981617
_symmetry_space_group_name_H-M "I 21 21 21"
_symmetry_group_IT_number 24
_symmetry_cell_setting 'orthorhombic'
loop_
_space_group_symop_operation_xyz
x,y,z
-x,1/2-y,z
x,-y,1/2-z
1/2-x,y,-z
1/2+x,1/2+y,1/2+z
1/2-x,-y,1/2+z
1/2+x,1/2-y,-z
-x,1/2+y,1/2-z
loop_
_atom_site_type_symbol
_atom_site_label
_atom_site_fract_x
_atom_site_fract_y
_atom_site_fract_z
Si Si1 0.965795 0.463094 0.079708
Si Si2 0.500000 0.750000 0.102501
Si Si3 0.667808 0.648527 0.318873
Si Si4 0.179400 0.383984 0.125832
O O1 0.930526 0.500000 0.250000
O O2 0.063581 0.357904 0.075342
O O3 0.002704 0.609811 0.000202
O O4 0.878509 0.384226 0.983735
O O5 0.595774 0.742067 0.212765
O O6 0.698905 0.500000 0.250000
O O7 0.772436 0.733600 0.327609
O O8 0.174331 0.500000 0.250000
O O9 0.250000 0.453357 0.000000
#
# Coordination Sequence:
#
# PCOD8165332 Si02
#       4
#     8   4   8   8
#     4  10  23  41  68 103 139 176 226 290 345 395
#     4  10  20  40  68 100 134 184 232 274 338 420
#     4  10  22  44  71  96 133 184 232 275 338 420
#     4  11  23  41  67 100 134 175 225 280 338 403
#
# _framework density 25.271176000000001
#
# number of rings (size 3 to 8) (size 9 to 14) (size 15 to 20)
#    0.000    1.714    0.000    3.429    0.000    8.000 
#    0.000   14.286    0.000   10.286    0.000    0.000 
#    0.000    0.000    0.000    0.000    0.000    0.000 
#
# Total GULP energy -173511.690276 kJ/mol
# GULP energy per Si atom -12393.692163 kJ/mol
# Density = 2.521366 g / cm^3
# Si number density = 25.271176 Si / 1000 Ang^3
#
#
#
# Elastic Constant Matrix: (Units=GPa)
#
#
# Indices 1 2 3 4 5 6 
#
# 1 111.8744 58.9443 31.4122 0.0000 0.0000 0.0000
# 2 58.9443 132.8726 44.3250 0.0000 0.0000 0.0000
# 3 31.4122 44.3250 150.7562 0.0000 0.0000 0.0000
# 4 0.0000 0.0000 0.0000 135.8384 0.0000 0.0000
# 5 0.0000 0.0000 0.0000 0.0000 38.3227 0.0000
# 6 0.0000 0.0000 0.0000 0.0000 0.0000 69.1403
#
#
#
# Elastic Compliance Matrix: (Units=1/GPa)
#
#
# Indices 1 2 3 4 5 6 
#
# 1 0.011805 -0.004897 -0.001020 0.000000 0.000000 0.000000
# 2 -0.004897 0.010375 -0.002030 0.000000 0.000000 0.000000
# 3 -0.001020 -0.002030 0.007443 0.000000 0.000000 0.000000
# 4 0.000000 0.000000 0.000000 0.007362 0.000000 0.000000
# 5 0.000000 0.000000 0.000000 0.000000 0.026094 0.000000
# 6 0.000000 0.000000 0.000000 0.000000 0.000000 0.014463
#
#
# Mechanical properties :
#
#
# Convention : Reuss Voigt Hill
#
# Bulk Modulus (GPa) = 72.83704 73.87402 73.35553
# Shear Modulus (GPa) = 51.01387 66.04840 58.53113
#
# Velocity S-wave (km/s) = 4.49782 5.11787 4.81783
# Velocity P-wave (km/s) = 7.47386 8.01370 7.74849
#
# Compressibility (1/GPa) = 0.01372928
#
# Stress axis : x y z
#
# Youngs Moduli (GPa) = 84.71058 96.38102 134.35962
#
# Poissons Ratio (x) = 0.47194 0.13705
# Poissons Ratio (y) = 0.41479 0.27279
# Poissons Ratio (z) = 0.08641 0.19568
#
# Static dielectric constant tensor:
#      x y z
#    x 3.225510 0.000000 0.000000 
#    y 0.000000 4.317660 0.000000 
#    z 0.000000 0.000000 4.979460 
# 
# 
# High freq. dielectric constant tensor:
#      x y z
#    x 2.018020 0.000000 0.000000 
#    y 0.000000 2.029700 0.000000 
#    z 0.000000 0.000000 2.026870 
# 
# From -- ./inp_files/11840.got.cif
#   From: 2010.03.12/outbox.cif.g09.slc.cpg/sg24_6_cif.got.tgz:11840.got - 2010.04.14 03:06:53.
