data_PCOD8165321
_publ_section_title
;
Structure prediction by ZEFSAII (Michael W. Deem and Ramdas Pophale) SiO2 
 PCOD8165321
Probable space group: I 21 21 21
;
_chemical_formula_sum "Si O2"
_cell_formula_units_Z 56
_cell_length_a 8.832047
_cell_length_b 15.537530
_cell_length_c 20.701676
_cell_angle_alpha 90.000000
_cell_angle_beta 90.000000
_cell_angle_gamma 90.000000
_cell_volume 2840.853636
_symmetry_space_group_name_H-M "I 21 21 21"
_symmetry_group_IT_number 24
_symmetry_cell_setting 'orthorhombic'
loop_
_space_group_symop_operation_xyz
x,y,z
-x,1/2-y,z
x,-y,1/2-z
1/2-x,y,-z
1/2+x,1/2+y,1/2+z
1/2-x,-y,1/2+z
1/2+x,1/2-y,-z
-x,1/2+y,1/2-z
loop_
_atom_site_type_symbol
_atom_site_label
_atom_site_fract_x
_atom_site_fract_y
_atom_site_fract_z
Si Si1 0.763071 0.198918 0.182997
Si Si2 0.411803 0.520018 0.025394
Si Si3 0.878982 0.825326 0.549417
Si Si4 0.918051 0.622570 0.323048
Si Si5 0.586356 0.411392 0.362938
Si Si6 0.000000 0.750000 0.781626
Si Si7 0.719323 0.500000 0.250000
Si Si8 0.161879 0.004145 0.438693
O O1 0.681317 0.159419 0.121316
O O2 0.833206 0.289258 0.161909
O O3 0.636747 0.208127 0.239568
O O4 0.906282 0.136153 0.199086
O O5 0.445595 0.417661 0.029216
O O6 0.439341 0.566780 0.093987
O O7 0.250000 0.544889 0.000000
O O8 0.520791 0.555261 0.969086
O O9 0.750000 0.796513 0.500000
O O10 0.000000 0.750000 0.548227
O O11 0.830035 0.580552 0.262770
O O12 0.899367 0.565549 0.387402
O O13 0.573630 0.319683 0.329039
O O14 0.605109 0.484533 0.308758
O O15 0.736295 0.420830 0.406885
O O16 0.250000 0.960079 0.500000
#
# Coordination Sequence:
#
# PCOD8165321 Si02
#       8
#     8   8   8   8   8   4   4   8
#     4  11  24  38  58  88 135 166 203 256 304 370
#     4  10  22  42  60  96 128 155 213 268 315 374
#     4  11  25  35  58  92 130 171 202 248 310 377
#     4  10  21  39  59  88 123 168 210 247 301 373
#     4  10  23  40  68  86 123 169 208 261 313 379
#     4  12  24  46  60  96 130 160 216 262 326 374
#     4  10  20  40  64  90 118 176 218 242 314 388
#     4   9  20  38  66  89 121 167 208 257 307 375
#
# _framework density 19.712385000000001
#
# number of rings (size 3 to 8) (size 9 to 14) (size 15 to 20)
#    0.000    1.714    2.143    1.714   12.000    0.000 
#    7.714    2.143    0.000    0.000    0.000    0.000 
#    0.000    0.000    0.000    0.000    0.000    0.000 
#
# Total GULP energy -346981.988802 kJ/mol
# GULP energy per Si atom -12392.213886 kJ/mol
# Density = 1.966752 g / cm^3
# Si number density = 19.712385 Si / 1000 Ang^3
#
#
#
# Elastic Constant Matrix: (Units=GPa)
#
#
# Indices 1 2 3 4 5 6 
#
# 1 136.2238 40.3361 72.2124 0.0000 0.0000 0.0000
# 2 40.3361 57.9771 35.9500 0.0000 0.0000 0.0000
# 3 72.2124 35.9500 128.2632 0.0000 0.0000 0.0000
# 4 0.0000 0.0000 0.0000 28.7724 0.0000 0.0000
# 5 0.0000 0.0000 0.0000 0.0000 30.2415 0.0000
# 6 0.0000 0.0000 0.0000 0.0000 0.0000 31.8913
#
#
#
# Elastic Compliance Matrix: (Units=1/GPa)
#
#
# Indices 1 2 3 4 5 6 
#
# 1 0.011476 -0.004815 -0.005112 0.000000 0.000000 0.000000
# 2 -0.004815 0.022896 -0.003707 0.000000 0.000000 0.000000
# 3 -0.005112 -0.003707 0.011713 0.000000 0.000000 0.000000
# 4 0.000000 0.000000 0.000000 0.034756 0.000000 0.000000
# 5 0.000000 0.000000 0.000000 0.000000 0.033067 0.000000
# 6 0.000000 0.000000 0.000000 0.000000 0.000000 0.031357
#
#
# Mechanical properties :
#
#
# Convention : Reuss Voigt Hill
#
# Bulk Modulus (GPa) = 53.13609 68.82901 60.98255
# Shear Modulus (GPa) = 27.96351 29.77874 28.87113
#
# Velocity S-wave (km/s) = 3.77048 3.89094 3.83119
# Velocity P-wave (km/s) = 6.78009 7.42821 7.11154
#
# Compressibility (1/GPa) = 0.01881960
#
# Stress axis : x y z
#
# Youngs Moduli (GPa) = 87.13699 43.67509 85.37317
#
# Poissons Ratio (x) = 0.21028 0.43640
# Poissons Ratio (y) = 0.41954 0.31646
# Poissons Ratio (z) = 0.44541 0.16189
#
# Static dielectric constant tensor:
#      x y z
#    x 3.961010 0.000000 0.000000 
#    y 0.000000 3.332880 0.000000 
#    z 0.000000 0.000000 3.800800 
# 
# 
# High freq. dielectric constant tensor:
#      x y z
#    x 1.782730 0.000000 0.000000 
#    y 0.000000 1.735070 0.000000 
#    z 0.000000 0.000000 1.780050 
# 
# From -- ./inp_files/32868.got.cif
#   From: 2010.03.12/outbox.cif.g09.slc.cpg/sg24_17_cif.got.tgz:32868.got - 2010.04.14 03:06:53.
