data_PCOD8165425
_publ_section_title
;
Structure prediction by ZEFSAII (Michael W. Deem and Ramdas Pophale) SiO2 
 PCOD8165425
Probable space group: I 21 21 21
;
_chemical_formula_sum "Si O2"
_cell_formula_units_Z 32
_cell_length_a 5.044436
_cell_length_b 8.152827
_cell_length_c 36.729642
_cell_angle_alpha 90.000000
_cell_angle_beta 90.000000
_cell_angle_gamma 90.000000
_cell_volume 1510.558464
_symmetry_space_group_name_H-M "I 21 21 21"
_symmetry_group_IT_number 24
_symmetry_cell_setting 'orthorhombic'
loop_
_space_group_symop_operation_xyz
x,y,z
-x,1/2-y,z
x,-y,1/2-z
1/2-x,y,-z
1/2+x,1/2+y,1/2+z
1/2-x,-y,1/2+z
1/2+x,1/2-y,-z
-x,1/2+y,1/2-z
loop_
_atom_site_type_symbol
_atom_site_label
_atom_site_fract_x
_atom_site_fract_y
_atom_site_fract_z
Si Si1 0.260398 0.640967 0.901999
Si Si2 0.514264 0.442555 0.210003
Si Si3 0.480936 0.555116 0.666804
Si Si4 0.747066 0.141910 0.042187
O O1 0.500000 0.750000 0.916346
O O2 0.377372 0.536753 0.868598
O O3 0.200997 0.522135 0.935278
O O4 0.000000 0.750000 0.892122
O O5 0.500000 0.250000 0.209669
O O6 0.592857 0.500000 0.250000
O O7 0.223102 0.500643 0.198384
O O8 0.732065 0.507083 0.180711
O O9 0.500000 0.750000 0.659198
O O10 0.500000 0.250000 0.052571
O O11 0.000000 0.250000 0.053455
O O12 0.750000 0.091521 0.000000
#
# Coordination Sequence:
#
# PCOD8165425 Si02
#       4
#     8   8   8   8
#     4  12  25  39  61  95 127 159 201 256 311 349
#     4  10  21  37  59  85 113 153 201 251 304 359
#     4  10  22  40  59  82 118 164 206 242 296 371
#     4  10  22  42  67  92 122 166 209 243 294 367
#
# _framework density 21.184215999999999
#
# number of rings (size 3 to 8) (size 9 to 14) (size 15 to 20)
#    0.000    1.500    0.000    4.500    0.000    7.000 
#    0.000    0.000    0.000    0.000    0.000    0.000 
#    0.000    0.000    0.000    0.000    0.000    0.000 
#
# Total GULP energy -198325.675249 kJ/mol
# GULP energy per Si atom -12395.354703 kJ/mol
# Density = 2.113600 g / cm^3
# Si number density = 21.184216 Si / 1000 Ang^3
#
#
#
# Elastic Constant Matrix: (Units=GPa)
#
#
# Indices 1 2 3 4 5 6 
#
# 1 169.6670 66.0280 50.7355 0.0000 0.0000 0.0000
# 2 66.0280 90.7335 69.1398 0.0000 0.0000 0.0000
# 3 50.7355 69.1398 109.1800 0.0000 0.0000 0.0000
# 4 0.0000 0.0000 0.0000 29.5162 0.0000 0.0000
# 5 0.0000 0.0000 0.0000 0.0000 35.4828 0.0000
# 6 0.0000 0.0000 0.0000 0.0000 0.0000 -72.2608
#
#
#
# Elastic Compliance Matrix: (Units=1/GPa)
#
#
# Indices 1 2 3 4 5 6 
#
# 1 0.008223 -0.005937 -0.000061 0.000000 0.000000 0.000000
# 2 -0.005937 0.025586 -0.013444 0.000000 0.000000 0.000000
# 3 -0.000061 -0.013444 0.017701 0.000000 0.000000 0.000000
# 4 0.000000 0.000000 0.000000 0.033880 0.000000 0.000000
# 5 0.000000 0.000000 0.000000 0.000000 0.028183 0.000000
# 6 0.000000 0.000000 0.000000 0.000000 0.000000 -0.013839
#
#
# Mechanical properties :
#
#
# Convention : Reuss Voigt Hill
#
# Bulk Modulus (GPa) = 79.20444 82.37634 80.79039
# Shear Modulus (GPa) = 35.00750 10.79278 22.90014
#
# Velocity S-wave (km/s) = 4.06954 2.25960 3.29142
# Velocity P-wave (km/s) = 7.71694 6.76593 7.25703
#
# Compressibility (1/GPa) = 0.01262555
#
# Stress axis : x y z
#
# Youngs Moduli (GPa) = 121.61438 39.08376 56.49335
#
# Poissons Ratio (x) = 0.23204 0.00347
# Poissons Ratio (y) = 0.72203 0.75949
# Poissons Ratio (z) = 0.00746 0.52544
#
# Static dielectric constant tensor:
#      x y z
#    x 4.793230 0.000000 0.000000 
#    y 0.000000 3.880090 0.000000 
#    z 0.000000 0.000000 3.582140 
# 
# 
# High freq. dielectric constant tensor:
#      x y z
#    x 1.855000 0.000000 0.000000 
#    y 0.000000 1.828030 0.000000 
#    z 0.000000 0.000000 1.831160 
# 
# From -- ./inp_files/37717.got.cif
#   From: 2010.03.12/outbox.cif.g09.slc.cpg/sg24_19_cif.got.tgz:37717.got - 2010.04.14 03:06:53.
