data_PCOD8165492
_publ_section_title
;
Structure prediction by ZEFSAII (Michael W. Deem and Ramdas Pophale) SiO2 
 PCOD8165492
Probable space group: I 21 21 21
;
_chemical_formula_sum "Si O2"
_cell_formula_units_Z 40
_cell_length_a 27.683413
_cell_length_b 7.978758
_cell_length_c 9.048865
_cell_angle_alpha 90.000000
_cell_angle_beta 90.000000
_cell_angle_gamma 90.000000
_cell_volume 1998.706541
_symmetry_space_group_name_H-M "I 21 21 21"
_symmetry_group_IT_number 24
_symmetry_cell_setting 'orthorhombic'
loop_
_space_group_symop_operation_xyz
x,y,z
-x,1/2-y,z
x,-y,1/2-z
1/2-x,y,-z
1/2+x,1/2+y,1/2+z
1/2-x,-y,1/2+z
1/2+x,1/2-y,-z
-x,1/2+y,1/2-z
loop_
_atom_site_type_symbol
_atom_site_label
_atom_site_fract_x
_atom_site_fract_y
_atom_site_fract_z
Si Si1 0.892219 0.135332 0.432090
Si Si2 0.365160 0.840001 0.655784
Si Si3 0.011355 0.555765 0.412924
Si Si4 0.923313 0.537745 0.921188
Si Si5 0.701739 0.937651 0.590418
O O1 0.892897 0.206420 0.262937
O O2 0.899298 0.282967 0.549209
O O3 0.933351 0.993535 0.444954
O O4 0.841121 0.053437 0.474284
O O5 0.316712 0.754483 0.592891
O O6 0.348798 0.000000 0.750000
O O7 0.399236 0.891573 0.520303
O O8 0.994209 0.500000 0.250000
O O9 0.000000 0.750000 0.435836
O O10 0.979368 0.453495 0.531910
O O11 0.916668 0.500000 0.750000
O O12 0.750000 0.953520 0.500000
O O13 0.716613 0.000000 0.750000
#
# Coordination Sequence:
#
# PCOD8165492 Si02
#       5
#     8   8   8   8   8
#     4  10  21  40  61  82 114 154 199 238 279 347
#     4   9  19  40  62  82 113 153 196 237 282 347
#     4  12  22  36  60  85 114 157 202 237 281 345
#     4  11  23  37  56  87 121 152 189 240 297 343
#     4  10  21  39  63  88 114 148 192 242 293 344
#
# _framework density 20.012944000000001
#
# number of rings (size 3 to 8) (size 9 to 14) (size 15 to 20)
#    0.000    1.600    0.000    7.800    0.000    3.200 
#    0.000   13.000    0.000    0.000    0.000    0.000 
#    0.000    0.000    0.000    0.000    0.000    0.000 
#
# Total GULP energy -248028.786177 kJ/mol
# GULP energy per Si atom -12401.439309 kJ/mol
# Density = 1.996739 g / cm^3
# Si number density = 20.012944 Si / 1000 Ang^3
#
#
#
# Elastic Constant Matrix: (Units=GPa)
#
#
# Indices 1 2 3 4 5 6 
#
# 1 174.9007 85.7038 74.0727 0.0000 0.0000 0.0000
# 2 85.7038 117.8051 44.8443 0.0000 0.0000 0.0000
# 3 74.0727 44.8443 118.0064 0.0000 0.0000 0.0000
# 4 0.0000 0.0000 0.0000 21.2263 0.0000 0.0000
# 5 0.0000 0.0000 0.0000 0.0000 29.4908 0.0000
# 6 0.0000 0.0000 0.0000 0.0000 0.0000 24.5404
#
#
#
# Elastic Compliance Matrix: (Units=1/GPa)
#
#
# Indices 1 2 3 4 5 6 
#
# 1 0.010468 -0.005979 -0.004299 0.000000 0.000000 0.000000
# 2 -0.005979 0.013339 -0.001316 0.000000 0.000000 0.000000
# 3 -0.004299 -0.001316 0.011672 0.000000 0.000000 0.000000
# 4 0.000000 0.000000 0.000000 0.047111 0.000000 0.000000
# 5 0.000000 0.000000 0.000000 0.000000 0.033909 0.000000
# 6 0.000000 0.000000 0.000000 0.000000 0.000000 0.040749
#
#
# Mechanical properties :
#
#
# Convention : Reuss Voigt Hill
#
# Bulk Modulus (GPa) = 81.35206 91.10598 86.22902
# Shear Modulus (GPa) = 27.09529 28.79094 27.94312
#
# Velocity S-wave (km/s) = 3.68351 3.79702 3.74070
# Velocity P-wave (km/s) = 7.67001 8.05267 7.86367
#
# Compressibility (1/GPa) = 0.01229225
#
# Stress axis : x y z
#
# Youngs Moduli (GPa) = 95.53047 74.96565 85.67192
#
# Poissons Ratio (x) = 0.44823 0.36826
# Poissons Ratio (y) = 0.57119 0.11275
# Poissons Ratio (z) = 0.41064 0.09866
#
# Static dielectric constant tensor:
#      x y z
#    x 3.530990 0.000000 0.000000 
#    y 0.000000 3.972580 0.000000 
#    z 0.000000 0.000000 3.460120 
# 
# 
# High freq. dielectric constant tensor:
#      x y z
#    x 1.772510 0.000000 0.000000 
#    y 0.000000 1.801280 0.000000 
#    z 0.000000 0.000000 1.757970 
# 
# From -- ./inp_files/15642.got.cif
#   From: 2010.03.12/outbox.cif.g09.slc.cpg/sg24_8_cif.got.tgz:15642.got - 2010.04.14 03:06:53.
