data_PCOD8165493
_publ_section_title
;
Structure prediction by ZEFSAII (Michael W. Deem and Ramdas Pophale) SiO2 
 PCOD8165493
Probable space group: I 21 21 21
;
_chemical_formula_sum "Si O2"
_cell_formula_units_Z 36
_cell_length_a 11.237718
_cell_length_b 21.530861
_cell_length_c 7.084168
_cell_angle_alpha 90.000000
_cell_angle_beta 90.000000
_cell_angle_gamma 90.000000
_cell_volume 1714.069309
_symmetry_space_group_name_H-M "I 21 21 21"
_symmetry_group_IT_number 24
_symmetry_cell_setting 'orthorhombic'
loop_
_space_group_symop_operation_xyz
x,y,z
-x,1/2-y,z
x,-y,1/2-z
1/2-x,y,-z
1/2+x,1/2+y,1/2+z
1/2-x,-y,1/2+z
1/2+x,1/2-y,-z
-x,1/2+y,1/2-z
loop_
_atom_site_type_symbol
_atom_site_label
_atom_site_fract_x
_atom_site_fract_y
_atom_site_fract_z
Si Si1 0.574835 0.338989 0.748217
Si Si2 0.250000 0.619852 0.500000
Si Si3 0.326047 0.712791 0.813415
Si Si4 0.116819 0.950318 0.975275
Si Si5 0.495128 0.926957 0.434337
O O1 0.458184 0.311604 0.648107
O O2 0.670300 0.283274 0.768269
O O3 0.618832 0.392630 0.613333
O O4 0.553376 0.366439 0.956673
O O5 0.265499 0.664803 0.675076
O O6 0.361227 0.576652 0.439303
O O7 0.250000 0.713167 0.000000
O O8 0.070724 0.928399 0.768558
O O9 0.250000 0.976943 0.000000
O O10 0.034433 0.008113 0.040095
#
# Coordination Sequence:
#
# PCOD8165493 Si02
#       5
#     8   4   8   8   8
#     4  10  22  39  62  94 126 170 217 268 340 400
#     4  10  22  46  64  92 132 172 230 278 328 406
#     4  10  21  39  63  91 127 168 216 273 332 402
#     4  11  24  41  63  95 131 168 220 275 335 409
#     4  10  24  42  64  94 130 176 224 275 340 399
#
# _framework density 21.002652999999999
#
# number of rings (size 3 to 8) (size 9 to 14) (size 15 to 20)
#    0.000    1.778    0.000    2.667    6.222    3.556 
#   18.000    4.444    0.000    0.000    0.000    0.000 
#    0.000    0.000    0.000    0.000    0.000    0.000 
#
# Total GULP energy -223046.697238 kJ/mol
# GULP energy per Si atom -12391.483180 kJ/mol
# Density = 2.095485 g / cm^3
# Si number density = 21.002653 Si / 1000 Ang^3
#
#
#
# Elastic Constant Matrix: (Units=GPa)
#
#
# Indices 1 2 3 4 5 6 
#
# 1 141.4558 73.3494 62.0756 -0.0007 0.0000 0.0009
# 2 73.3494 137.9832 23.3849 -0.0013 -0.0018 0.0069
# 3 62.0756 23.3849 71.8565 -0.0051 -0.0035 0.0179
# 4 -0.0007 -0.0013 -0.0051 19.9744 0.0006 0.0028
# 5 0.0000 -0.0018 -0.0035 0.0006 35.5492 -0.0029
# 6 0.0009 0.0069 0.0179 0.0028 -0.0029 43.3195
#
#
#
# Elastic Compliance Matrix: (Units=1/GPa)
#
#
# Indices 1 2 3 4 5 6 
#
# 1 0.015114 -0.006161 -0.011052 -0.000003 -0.000001 0.000005
# 2 -0.006161 0.010182 0.002009 0.000001 0.000001 -0.000002
# 3 -0.011052 0.002009 0.022810 0.000006 0.000002 -0.000010
# 4 -0.000003 0.000001 0.000006 0.050064 -0.000001 -0.000003
# 5 -0.000001 0.000001 0.000002 -0.000001 0.028130 0.000002
# 6 0.000005 -0.000002 -0.000010 -0.000003 0.000002 0.023084
#
#
# Mechanical properties :
#
#
# Convention : Reuss Voigt Hill
#
# Bulk Modulus (GPa) = 56.50241 74.32393 65.41317
# Shear Modulus (GPa) = 26.92634 32.60101 29.76367
#
# Velocity S-wave (km/s) = 3.58445 3.94411 3.76857
# Velocity P-wave (km/s) = 6.64018 7.49707 7.08160
#
# Compressibility (1/GPa) = 0.01769836
#
# Stress axis : x y z
#
# Youngs Moduli (GPa) = 66.16366 98.21225 43.84016
#
# Poissons Ratio (x) = 0.60512 0.48451
# Poissons Ratio (y) = 0.40766 -0.08808
# Poissons Ratio (z) = 0.73122 -0.19731
#
# Static dielectric constant tensor:
#      x y z
#    x 3.623170 0.000020 0.000020 
#    y 0.000020 4.131400 -0.000010 
#    z 0.000020 -0.000010 3.635740 
# 
# 
# High freq. dielectric constant tensor:
#      x y z
#    x 1.826680 0.000000 0.000000 
#    y 0.000000 1.843170 0.000000 
#    z 0.000000 0.000000 1.816670 
# 
# From -- ./inp_files/2252.got.cif
#   From: 2010.03.12/outbox.cif.g09.slc.cpg/sg24_2_cif.got.tgz:2252.got - 2010.04.14 03:06:53.
