data_PCOD8165267
_publ_section_title
;
Structure prediction by ZEFSAII (Michael W. Deem and Ramdas Pophale) SiO2 
 PCOD8165267
Probable space group: I 21 21 21
;
_chemical_formula_sum "Si O2"
_cell_formula_units_Z 56
_cell_length_a 20.190134
_cell_length_b 9.228744
_cell_length_c 15.140448
_cell_angle_alpha 90.000000
_cell_angle_beta 90.000000
_cell_angle_gamma 90.000000
_cell_volume 2821.113287
_symmetry_space_group_name_H-M "I 21 21 21"
_symmetry_group_IT_number 24
_symmetry_cell_setting 'orthorhombic'
loop_
_space_group_symop_operation_xyz
x,y,z
-x,1/2-y,z
x,-y,1/2-z
1/2-x,y,-z
1/2+x,1/2+y,1/2+z
1/2-x,-y,1/2+z
1/2+x,1/2-y,-z
-x,1/2+y,1/2-z
loop_
_atom_site_type_symbol
_atom_site_label
_atom_site_fract_x
_atom_site_fract_y
_atom_site_fract_z
Si Si1 0.140535 0.736627 0.031095
Si Si2 0.268061 0.363660 0.189850
Si Si3 0.700240 0.369914 0.702048
Si Si4 0.302849 0.005370 0.428257
Si Si5 0.394141 0.769498 0.358365
Si Si6 0.511125 0.031717 0.155716
Si Si7 0.750000 0.002041 0.000000
Si Si8 0.000000 0.750000 0.959381
O O1 0.155515 0.793392 0.128895
O O2 0.183957 0.594581 0.010748
O O3 0.062082 0.711897 0.022263
O O4 0.157267 0.854040 0.957569
O O5 0.254748 0.500000 0.250000
O O6 0.216193 0.243527 0.220708
O O7 0.341874 0.302506 0.209165
O O8 0.258567 0.398486 0.086290
O O9 0.659712 0.500000 0.750000
O O10 0.766476 0.446486 0.662024
O O11 0.250000 0.957934 0.500000
O O12 0.350586 0.865367 0.425718
O O13 0.445208 0.880867 0.314119
O O14 0.437845 0.635656 0.399727
O O15 0.546168 0.000000 0.250000
O O16 0.490025 0.890641 0.101679
#
# Coordination Sequence:
#
# PCOD8165267 Si02
#       8
#     8   8   8   8   8   8   4   4
#     4  11  22  43  67  96 131 177 224 267 341 403
#     4  12  24  39  64  98 134 167 211 276 340 392
#     4  11  22  40  68  96 127 172 219 278 333 398
#     4  10  20  38  65  93 126 168 217 266 330 402
#     4  11  23  38  60  93 132 168 221 268 334 392
#     4  11  25  40  59  91 134 181 217 265 327 417
#     4  12  24  40  68 102 136 168 220 286 340 408
#     4  12  24  44  68  90 132 186 226 272 338 414
#
# _framework density 19.850318999999999
#
# number of rings (size 3 to 8) (size 9 to 14) (size 15 to 20)
#    0.000    0.857    6.429    2.143    3.000    2.286 
#    0.000    0.000    3.143    0.000    0.000    0.000 
#    0.000    0.000    0.000    0.000    0.000    0.000 
#
# Total GULP energy -346911.350458 kJ/mol
# GULP energy per Si atom -12389.691088 kJ/mol
# Density = 1.980514 g / cm^3
# Si number density = 19.850319 Si / 1000 Ang^3
#
#
#
# Elastic Constant Matrix: (Units=GPa)
#
#
# Indices 1 2 3 4 5 6 
#
# 1 107.2302 42.0153 37.1065 0.0000 0.0000 0.0000
# 2 42.0153 127.5568 55.8687 0.0000 0.0000 0.0000
# 3 37.1065 55.8687 119.0733 0.0000 0.0000 0.0000
# 4 0.0000 0.0000 0.0000 20.7435 0.0000 0.0000
# 5 0.0000 0.0000 0.0000 0.0000 19.9052 0.0000
# 6 0.0000 0.0000 0.0000 0.0000 0.0000 37.4632
#
#
#
# Elastic Compliance Matrix: (Units=1/GPa)
#
#
# Indices 1 2 3 4 5 6 
#
# 1 0.011149 -0.002707 -0.002204 0.000000 0.000000 0.000000
# 2 -0.002707 0.010525 -0.004095 0.000000 0.000000 0.000000
# 3 -0.002204 -0.004095 0.011006 0.000000 0.000000 0.000000
# 4 0.000000 0.000000 0.000000 0.048208 0.000000 0.000000
# 5 0.000000 0.000000 0.000000 0.000000 0.050238 0.000000
# 6 0.000000 0.000000 0.000000 0.000000 0.000000 0.026693
#
#
# Mechanical properties :
#
#
# Convention : Reuss Voigt Hill
#
# Bulk Modulus (GPa) = 68.17333 69.31569 68.74451
# Shear Modulus (GPa) = 27.66712 30.21370 28.94041
#
# Velocity S-wave (km/s) = 3.73740 3.90561 3.82243
# Velocity P-wave (km/s) = 7.28302 7.43864 7.36124
#
# Compressibility (1/GPa) = 0.01466849
#
# Stress axis : x y z
#
# Youngs Moduli (GPa) = 89.69303 95.01512 90.85723
#
# Poissons Ratio (x) = 0.25720 0.20028
# Poissons Ratio (y) = 0.24279 0.37202
# Poissons Ratio (z) = 0.19771 0.38905
#
# Static dielectric constant tensor:
#      x y z
#    x 3.636500 0.000000 0.000000 
#    y 0.000000 3.976020 0.000000 
#    z 0.000000 0.000000 3.338290 
# 
# 
# High freq. dielectric constant tensor:
#      x y z
#    x 1.758940 0.000000 0.000000 
#    y 0.000000 1.805240 0.000000 
#    z 0.000000 0.000000 1.748680 
# 
# From -- ./inp_files/27604.got.cif
#   From: 2010.03.12/outbox.cif.g09.slc.cpg/sg24_14_cif.got.tgz:27604.got - 2010.04.14 03:06:53.
