data_PCOD8165050
_publ_section_title
;
Structure prediction by ZEFSAII (Michael W. Deem and Ramdas Pophale) SiO2 
 PCOD8165050
Probable space group: I 21 21 21
;
_chemical_formula_sum "Si O2"
_cell_formula_units_Z 40
_cell_length_a 14.238050
_cell_length_b 15.320020
_cell_length_c 9.215027
_cell_angle_alpha 90.000000
_cell_angle_beta 90.000000
_cell_angle_gamma 90.000000
_cell_volume 2010.048137
_symmetry_space_group_name_H-M "I 21 21 21"
_symmetry_group_IT_number 24
_symmetry_cell_setting 'orthorhombic'
loop_
_space_group_symop_operation_xyz
x,y,z
-x,1/2-y,z
x,-y,1/2-z
1/2-x,y,-z
1/2+x,1/2+y,1/2+z
1/2-x,-y,1/2+z
1/2+x,1/2-y,-z
-x,1/2+y,1/2-z
loop_
_atom_site_type_symbol
_atom_site_label
_atom_site_fract_x
_atom_site_fract_y
_atom_site_fract_z
Si Si1 0.450256 0.903744 0.713954
Si Si2 0.295067 0.224269 0.861011
Si Si3 0.181840 0.349630 0.705260
Si Si4 0.129317 0.585578 0.092127
Si Si5 0.101155 0.608709 0.497796
O O1 0.366055 0.835384 0.730785
O O2 0.536090 0.885166 0.823299
O O3 0.491086 0.889204 0.550122
O O4 0.410398 0.000000 0.750000
O O5 0.211284 0.250750 0.749864
O O6 0.250000 0.173499 0.000000
O O7 0.342105 0.312296 0.924874
O O8 0.128281 0.354377 0.552238
O O9 0.280512 0.400000 0.692247
O O10 0.113418 0.389869 0.828444
O O11 0.137658 0.483697 0.059623
#
# Coordination Sequence:
#
# PCOD8165050 Si02
#       5
#     8   8   8   8   8
#     4  10  21  38  61  82 109 154 201 241 286 335
#     4  10  21  36  62  81 111 154 201 239 279 344
#     4  10  21  31  55  89 124 147 182 229 294 360
#     4  10  21  30  55  89 126 149 182 235 300 346
#     4  10  20  31  56  88 116 155 185 232 286 353
#
# _framework density 19.900019
#
# number of rings (size 3 to 8) (size 9 to 14) (size 15 to 20)
#    0.000    2.000    2.000    1.200   11.200    0.000 
#    0.000    0.000   39.600    2.400    0.000    0.000 
#    0.000    0.000    0.000    0.000    0.000    0.000 
#
# Total GULP energy -247762.000818 kJ/mol
# GULP energy per Si atom -12388.100041 kJ/mol
# Density = 1.985473 g / cm^3
# Si number density = 19.900019 Si / 1000 Ang^3
#
#
#
# Elastic Constant Matrix: (Units=GPa)
#
#
# Indices 1 2 3 4 5 6 
#
# 1 72.2619 45.8722 47.6377 0.0000 0.0000 0.0000
# 2 45.8722 69.5639 52.2229 0.0000 0.0000 0.0000
# 3 47.6377 52.2229 117.5263 0.0000 0.0000 0.0000
# 4 0.0000 0.0000 0.0000 19.4268 0.0000 0.0000
# 5 0.0000 0.0000 0.0000 0.0000 27.3861 0.0000
# 6 0.0000 0.0000 0.0000 0.0000 0.0000 24.3574
#
#
#
# Elastic Compliance Matrix: (Units=1/GPa)
#
#
# Indices 1 2 3 4 5 6 
#
# 1 0.025133 -0.013394 -0.004236 0.000000 0.000000 0.000000
# 2 -0.013394 0.028708 -0.007328 0.000000 0.000000 0.000000
# 3 -0.004236 -0.007328 0.013482 0.000000 0.000000 0.000000
# 4 0.000000 0.000000 0.000000 0.051475 0.000000 0.000000
# 5 0.000000 0.000000 0.000000 0.000000 0.036515 0.000000
# 6 0.000000 0.000000 0.000000 0.000000 0.000000 0.041055
#
#
# Mechanical properties :
#
#
# Convention : Reuss Voigt Hill
#
# Bulk Modulus (GPa) = 57.44149 61.20198 59.32173
# Shear Modulus (GPa) = 19.83443 21.80865 20.82154
#
# Velocity S-wave (km/s) = 3.16049 3.31405 3.23818
# Velocity P-wave (km/s) = 6.49969 6.74280 6.62236
#
# Compressibility (1/GPa) = 0.01740902
#
# Stress axis : x y z
#
# Youngs Moduli (GPa) = 39.78764 34.83305 74.17389
#
# Poissons Ratio (x) = 0.46654 0.31421
# Poissons Ratio (y) = 0.53290 0.54352
# Poissons Ratio (z) = 0.16854 0.25525
#
# Static dielectric constant tensor:
#      x y z
#    x 3.468420 0.000000 0.000000 
#    y 0.000000 3.466260 0.000000 
#    z 0.000000 0.000000 4.392210 
# 
# 
# High freq. dielectric constant tensor:
#      x y z
#    x 1.745340 0.000000 0.000000 
#    y 0.000000 1.753710 0.000000 
#    z 0.000000 0.000000 1.785690 
# 
# From -- ./inp_files/12327.got.cif
#   From: 2010.03.12/outbox.cif.g09.slc.cpg/sg24_7_cif.got.tgz:12327.got - 2010.04.14 03:06:53.
