data_PCOD8165686
_publ_section_title
;
Structure prediction by ZEFSAII (Michael W. Deem and Ramdas Pophale) SiO2 
 PCOD8165686
Probable space group: I 21 21 21
;
_chemical_formula_sum "Si O2"
_cell_formula_units_Z 40
_cell_length_a 9.560892
_cell_length_b 8.748593
_cell_length_c 22.403808
_cell_angle_alpha 90.000000
_cell_angle_beta 90.000000
_cell_angle_gamma 90.000000
_cell_volume 1873.952021
_symmetry_space_group_name_H-M "I 21 21 21"
_symmetry_group_IT_number 24
_symmetry_cell_setting 'orthorhombic'
loop_
_space_group_symop_operation_xyz
x,y,z
-x,1/2-y,z
x,-y,1/2-z
1/2-x,y,-z
1/2+x,1/2+y,1/2+z
1/2-x,-y,1/2+z
1/2+x,1/2-y,-z
-x,1/2+y,1/2-z
loop_
_atom_site_type_symbol
_atom_site_label
_atom_site_fract_x
_atom_site_fract_y
_atom_site_fract_z
Si Si1 0.689493 0.438679 0.064249
Si Si2 0.853445 0.196131 0.837369
Si Si3 0.580509 0.898348 0.101618
Si Si4 0.141594 0.677643 0.239334
Si Si5 0.159295 0.770456 0.102903
O O1 0.687836 0.282038 0.101334
O O2 0.531523 0.511145 0.059665
O O3 0.798337 0.553677 0.095489
O O4 0.750000 0.396651 0.000000
O O5 0.755235 0.245835 0.783766
O O6 0.000000 0.250000 0.813048
O O7 0.862356 0.013130 0.847516
O O8 0.500000 0.750000 0.129409
O O9 0.722647 0.834411 0.068486
O O10 0.130058 0.500000 0.250000
O O11 0.172460 0.724881 0.171762
O O12 0.000000 0.750000 0.262219
O O13 0.000000 0.750000 0.078507
#
# Coordination Sequence:
#
# PCOD8165686 Si02
#       5
#     8   8   8   8   8
#     4  10  23  42  64  93 131 174 224 276 338 394
#     4  10  22  41  65  95 133 171 223 275 338 400
#     4   9  19  41  65  90 130 168 215 276 324 401
#     4  11  24  41  65  95 137 170 220 276 350 410
#     4  10  22  39  64  96 130 172 227 271 340 406
#
# _framework density 21.345262999999999
#
# number of rings (size 3 to 8) (size 9 to 14) (size 15 to 20)
#    0.000    2.000    2.000    0.000    5.600    4.800 
#    0.000   13.000    0.000    0.000    0.000    0.000 
#    0.000    0.000    0.000    0.000    0.000    0.000 
#
# Total GULP energy -247779.970089 kJ/mol
# GULP energy per Si atom -12388.998504 kJ/mol
# Density = 2.129668 g / cm^3
# Si number density = 21.345263 Si / 1000 Ang^3
#
#
#
# Elastic Constant Matrix: (Units=GPa)
#
#
# Indices 1 2 3 4 5 6 
#
# 1 159.1013 35.5940 33.5523 0.0000 0.0000 0.0000
# 2 35.5940 102.7180 24.0517 0.0000 0.0000 0.0000
# 3 33.5523 24.0517 74.1223 0.0000 0.0000 0.0000
# 4 0.0000 0.0000 0.0000 12.1172 0.0000 0.0000
# 5 0.0000 0.0000 0.0000 0.0000 27.4516 0.0000
# 6 0.0000 0.0000 0.0000 0.0000 0.0000 29.7627
#
#
#
# Elastic Compliance Matrix: (Units=1/GPa)
#
#
# Indices 1 2 3 4 5 6 
#
# 1 0.007274 -0.001893 -0.002678 0.000000 0.000000 0.000000
# 2 -0.001893 0.011029 -0.002722 0.000000 0.000000 0.000000
# 3 -0.002678 -0.002722 0.015587 0.000000 0.000000 0.000000
# 4 0.000000 0.000000 0.000000 0.082527 0.000000 0.000000
# 5 0.000000 0.000000 0.000000 0.000000 0.036428 0.000000
# 6 0.000000 0.000000 0.000000 0.000000 0.000000 0.033599
#
#
# Mechanical properties :
#
#
# Convention : Reuss Voigt Hill
#
# Bulk Modulus (GPa) = 51.80599 58.03750 54.92174
# Shear Modulus (GPa) = 24.10061 30.04922 27.07491
#
# Velocity S-wave (km/s) = 3.36383 3.75610 3.56536
# Velocity P-wave (km/s) = 6.27776 6.78675 6.53721
#
# Compressibility (1/GPa) = 0.01930279
#
# Stress axis : x y z
#
# Youngs Moduli (GPa) = 137.48222 90.67197 64.15752
#
# Poissons Ratio (x) = 0.17168 0.17182
# Poissons Ratio (y) = 0.26031 0.17461
# Poissons Ratio (z) = 0.36819 0.24678
#
# Static dielectric constant tensor:
#      x y z
#    x 4.446460 0.000000 0.000000 
#    y 0.000000 3.976370 0.000000 
#    z 0.000000 0.000000 3.462760 
# 
# 
# High freq. dielectric constant tensor:
#      x y z
#    x 1.863880 0.000000 0.000000 
#    y 0.000000 1.847300 0.000000 
#    z 0.000000 0.000000 1.798680 
# 
# From -- ./inp_files/9260.got.cif
#   From: 2010.03.12/outbox.cif.g09.slc.cpg/sg24_5_cif.got.tgz:9260.got - 2010.04.14 03:06:53.
