data_PCOD8165384
_publ_section_title
;
Structure prediction by ZEFSAII (Michael W. Deem and Ramdas Pophale) SiO2 
 PCOD8165384
Probable space group: I 21 21 21
;
_chemical_formula_sum "Si O2"
_cell_formula_units_Z 60
_cell_length_a 17.459231
_cell_length_b 11.915233
_cell_length_c 14.564531
_cell_angle_alpha 90.000000
_cell_angle_beta 90.000000
_cell_angle_gamma 90.000000
_cell_volume 3029.871114
_symmetry_space_group_name_H-M "I 21 21 21"
_symmetry_group_IT_number 24
_symmetry_cell_setting 'orthorhombic'
loop_
_space_group_symop_operation_xyz
x,y,z
-x,1/2-y,z
x,-y,1/2-z
1/2-x,y,-z
1/2+x,1/2+y,1/2+z
1/2-x,-y,1/2+z
1/2+x,1/2-y,-z
-x,1/2+y,1/2-z
loop_
_atom_site_type_symbol
_atom_site_label
_atom_site_fract_x
_atom_site_fract_y
_atom_site_fract_z
Si Si1 0.922506 0.594316 0.452072
Si Si2 0.278634 0.268160 0.597096
Si Si3 0.640375 0.873176 0.745418
Si Si4 0.632256 0.361916 0.344687
Si Si5 0.500000 0.750000 0.685352
Si Si6 0.567728 0.666538 0.969007
Si Si7 0.221045 0.765235 0.403736
Si Si8 0.627891 0.380659 0.144616
O O1 0.983170 0.647746 0.383231
O O2 0.946210 0.463983 0.446823
O O3 0.837353 0.629587 0.418025
O O4 0.928287 0.643265 0.557536
O O5 0.250000 0.319728 0.500000
O O6 0.304247 0.365082 0.666564
O O7 0.213479 0.199507 0.649305
O O8 0.351835 0.190214 0.579641
O O9 0.568109 0.788549 0.752627
O O10 0.684159 0.838217 0.652042
O O11 0.610979 0.000000 0.750000
O O12 0.574347 0.314267 0.421058
O O13 0.590981 0.352142 0.244350
O O14 0.651861 0.490449 0.365880
O O15 0.500000 0.750000 0.934593
O O16 0.250000 0.714632 0.500000
O O17 0.294412 0.810425 0.351153
#
# Coordination Sequence:
#
# PCOD8165384 Si02
#       8
#     8   8   8   8   4   8   8   8
#     4   9  19  35  54  82 112 148 190 232 278 342
#     4  10  21  37  56  83 116 146 181 233 292 343
#     4  11  24  38  57  83 113 149 194 236 283 349
#     4   9  17  32  55  87 110 141 186 237 285 345
#     4  10  24  40  54  80 116 152 194 230 276 340
#     4  10  21  34  56  82 116 152 189 234 293 340
#     4   9  17  34  59  84 110 143 184 238 291 343
#     4   9  15  30  59  82 110 138 180 236 288 326
#
# _framework density 19.802824000000001
#
# number of rings (size 3 to 8) (size 9 to 14) (size 15 to 20)
#    0.000    2.400    1.333    0.800    2.800    3.733 
#    1.200    0.000    0.000    0.000    3.467    0.000 
#    0.000    0.000    0.000    0.000    0.000    0.000 
#
# Total GULP energy -371659.963866 kJ/mol
# GULP energy per Si atom -12388.665462 kJ/mol
# Density = 1.975775 g / cm^3
# Si number density = 19.802824 Si / 1000 Ang^3
#
#
#
# Elastic Constant Matrix: (Units=GPa)
#
#
# Indices 1 2 3 4 5 6 
#
# 1 58.6891 31.0881 20.9121 0.0000 0.0000 0.0000
# 2 31.0881 88.6437 30.6923 0.0000 0.0000 0.0000
# 3 20.9121 30.6923 101.7588 0.0000 0.0000 0.0000
# 4 0.0000 0.0000 0.0000 22.9935 0.0000 0.0000
# 5 0.0000 0.0000 0.0000 0.0000 20.5893 0.0000
# 6 0.0000 0.0000 0.0000 0.0000 0.0000 22.9260
#
#
#
# Elastic Compliance Matrix: (Units=1/GPa)
#
#
# Indices 1 2 3 4 5 6 
#
# 1 0.021433 -0.006690 -0.002387 0.000000 0.000000 0.000000
# 2 -0.006690 0.014685 -0.003054 0.000000 0.000000 0.000000
# 3 -0.002387 -0.003054 0.011239 0.000000 0.000000 0.000000
# 4 0.000000 0.000000 0.000000 0.043491 0.000000 0.000000
# 5 0.000000 0.000000 0.000000 0.000000 0.048569 0.000000
# 6 0.000000 0.000000 0.000000 0.000000 0.000000 0.043619
#
#
# Mechanical properties :
#
#
# Convention : Reuss Voigt Hill
#
# Bulk Modulus (GPa) = 43.30084 46.05296 44.67690
# Shear Modulus (GPa) = 23.25617 24.39502 23.82560
#
# Velocity S-wave (km/s) = 3.43065 3.51365 3.47240
# Velocity P-wave (km/s) = 6.13237 6.30612 6.21985
#
# Compressibility (1/GPa) = 0.02309424
#
# Stress axis : x y z
#
# Youngs Moduli (GPa) = 46.65618 68.09633 88.97672
#
# Poissons Ratio (x) = 0.45560 0.21236
# Poissons Ratio (y) = 0.31215 0.27177
# Poissons Ratio (z) = 0.11136 0.20799
#
# Static dielectric constant tensor:
#      x y z
#    x 3.379800 0.000000 0.000000 
#    y 0.000000 3.228890 0.000000 
#    z 0.000000 0.000000 4.019520 
# 
# 
# High freq. dielectric constant tensor:
#      x y z
#    x 1.750780 0.000000 0.000000 
#    y 0.000000 1.743480 0.000000 
#    z 0.000000 0.000000 1.796770 
# 
# From -- ./inp_files/27196.got.cif
#   From: 2010.03.12/outbox.cif.g09.slc.cpg/sg24_14_cif.got.tgz:27196.got - 2010.04.14 03:06:53.
