data_PCOD8165075
_publ_section_title
;
Structure prediction by ZEFSAII (Michael W. Deem and Ramdas Pophale) SiO2 
 PCOD8165075
Probable space group: I 21 21 21
;
_chemical_formula_sum "Si O2"
_cell_formula_units_Z 36
_cell_length_a 29.595110
_cell_length_b 4.947802
_cell_length_c 12.712993
_cell_angle_alpha 90.000000
_cell_angle_beta 90.000000
_cell_angle_gamma 90.000000
_cell_volume 1861.573029
_symmetry_space_group_name_H-M "I 21 21 21"
_symmetry_group_IT_number 24
_symmetry_cell_setting 'orthorhombic'
loop_
_space_group_symop_operation_xyz
x,y,z
-x,1/2-y,z
x,-y,1/2-z
1/2-x,y,-z
1/2+x,1/2+y,1/2+z
1/2-x,-y,1/2+z
1/2+x,1/2-y,-z
-x,1/2+y,1/2-z
loop_
_atom_site_type_symbol
_atom_site_label
_atom_site_fract_x
_atom_site_fract_y
_atom_site_fract_z
Si Si1 0.178900 0.745716 0.679690
Si Si2 0.140834 0.890312 0.464005
Si Si3 0.278867 0.260235 0.820846
Si Si4 0.000000 0.750000 0.178772
Si Si5 0.904852 0.085775 0.371055
O O1 0.157832 0.500000 0.750000
O O2 0.145571 0.856299 0.589274
O O3 0.228722 0.656295 0.637142
O O4 0.188174 0.000000 0.750000
O O5 0.188340 0.788413 0.418384
O O6 0.100389 0.690465 0.434322
O O7 0.129168 0.188465 0.419098
O O8 0.299481 0.500000 0.750000
O O9 0.277236 0.000000 0.750000
O O10 0.984838 0.500000 0.250000
O O11 0.043690 0.679476 0.109044
O O12 0.895502 0.000000 0.250000
#
# Coordination Sequence:
#
# PCOD8165075 Si02
#       5
#     8   8   8   4   8
#     4  10  22  38  52  73 106 147 189 226 264 305
#     4  12  21  34  56  81 106 143 183 224 263 312
#     4  10  20  33  51  76 109 140 173 219 269 320
#     4  10  20  36  54  78 116 146 160 198 264 336
#     4  11  22  35  55  84 113 139 170 210 267 335
#
# _framework density 19.338484000000001
#
# number of rings (size 3 to 8) (size 9 to 14) (size 15 to 20)
#    0.000    1.333    0.000    8.667    0.000    0.000 
#    0.000    8.889    0.000    0.000    0.000   15.556 
#    0.000    0.000    0.000    0.000    0.000    0.000 
#
# Total GULP energy -223075.912184 kJ/mol
# GULP energy per Si atom -12393.106232 kJ/mol
# Density = 1.929447 g / cm^3
# Si number density = 19.338484 Si / 1000 Ang^3
#
#
#
# Elastic Constant Matrix: (Units=GPa)
#
#
# Indices 1 2 3 4 5 6 
#
# 1 72.2609 10.9296 37.0125 0.0000 0.0000 0.0000
# 2 10.9296 105.9604 25.2054 0.0000 0.0000 0.0000
# 3 37.0125 25.2054 84.3135 0.0000 0.0000 0.0000
# 4 0.0000 0.0000 0.0000 31.5272 0.0000 0.0000
# 5 0.0000 0.0000 0.0000 0.0000 19.6474 0.0000
# 6 0.0000 0.0000 0.0000 0.0000 0.0000 35.8744
#
#
#
# Elastic Compliance Matrix: (Units=1/GPa)
#
#
# Indices 1 2 3 4 5 6 
#
# 1 0.017853 0.000025 -0.007845 0.000000 0.000000 0.000000
# 2 0.000025 0.010160 -0.003048 0.000000 0.000000 0.000000
# 3 -0.007845 -0.003048 0.016215 0.000000 0.000000 0.000000
# 4 0.000000 0.000000 0.000000 0.031719 0.000000 0.000000
# 5 0.000000 0.000000 0.000000 0.000000 0.050897 0.000000
# 6 0.000000 0.000000 0.000000 0.000000 0.000000 0.027875
#
#
# Mechanical properties :
#
#
# Convention : Reuss Voigt Hill
#
# Bulk Modulus (GPa) = 44.45990 45.42553 44.94271
# Shear Modulus (GPa) = 27.18085 30.03562 28.60823
#
# Velocity S-wave (km/s) = 3.75311 3.94528 3.85039
# Velocity P-wave (km/s) = 6.46695 6.65540 6.56185
#
# Compressibility (1/GPa) = 0.02249218
#
# Stress axis : x y z
#
# Youngs Moduli (GPa) = 56.01279 98.42493 61.66987
#
# Poissons Ratio (x) = -0.00241 0.48377
# Poissons Ratio (y) = -0.00137 0.18798
# Poissons Ratio (z) = 0.43940 0.30001
#
# Static dielectric constant tensor:
#      x y z
#    x 3.492530 0.000000 0.000000 
#    y 0.000000 3.688400 0.000000 
#    z 0.000000 0.000000 3.215640 
# 
# 
# High freq. dielectric constant tensor:
#      x y z
#    x 1.736580 0.000000 0.000000 
#    y 0.000000 1.777940 0.000000 
#    z 0.000000 0.000000 1.719970 
# 
# From -- ./inp_files/23050.got.cif
#   From: 2010.03.12/outbox.cif.g09.slc.cpg/sg24_12_cif.got.tgz:23050.got - 2010.04.14 03:06:53.
