data_PCOD8165185
_publ_section_title
;
Structure prediction by ZEFSAII (Michael W. Deem and Ramdas Pophale) SiO2 
 PCOD8165185
Probable space group: I 21 21 21
;
_chemical_formula_sum "Si O2"
_cell_formula_units_Z 28
_cell_length_a 8.324305
_cell_length_b 13.832179
_cell_length_c 12.455936
_cell_angle_alpha 90.000000
_cell_angle_beta 90.000000
_cell_angle_gamma 90.000000
_cell_volume 1434.217287
_symmetry_space_group_name_H-M "I 21 21 21"
_symmetry_group_IT_number 24
_symmetry_cell_setting 'orthorhombic'
loop_
_space_group_symop_operation_xyz
x,y,z
-x,1/2-y,z
x,-y,1/2-z
1/2-x,y,-z
1/2+x,1/2+y,1/2+z
1/2-x,-y,1/2+z
1/2+x,1/2-y,-z
-x,1/2+y,1/2-z
loop_
_atom_site_type_symbol
_atom_site_label
_atom_site_fract_x
_atom_site_fract_y
_atom_site_fract_z
Si Si1 0.924200 0.000000 0.250000
Si Si2 0.715318 0.558875 0.883163
Si Si3 0.656995 0.360513 0.175564
Si Si4 0.214258 0.652018 0.622003
O O1 0.815095 0.917885 0.302202
O O2 0.031540 0.944010 0.160051
O O3 0.766577 0.447453 0.890452
O O4 0.825035 0.621170 0.802873
O O5 0.750000 0.605249 0.000000
O O6 0.756600 0.264387 0.143464
O O7 0.471664 0.357934 0.147597
O O8 0.250000 0.623487 0.500000
#
# Coordination Sequence:
#
# PCOD8165185 Si02
#       4
#     4   8   8   8
#     4  10  22  34  58  86 106 144 194 222 264 340
#     4  10  20  37  56  80 115 149 178 229 278 317
#     4   9  21  36  56  82 112 142 186 228 273 330
#     4  11  21  37  58  82 110 145 184 231 274 322
#
# _framework density 19.522843000000002
#
# number of rings (size 3 to 8) (size 9 to 14) (size 15 to 20)
#    0.000    2.286    0.000    4.286    0.000   11.429 
#    0.000    7.143    0.000    0.000    0.000    0.000 
#    0.000    0.000    0.000    0.000    0.000    0.000 
#
# Total GULP energy -173529.401326 kJ/mol
# GULP energy per Si atom -12394.957238 kJ/mol
# Density = 1.947841 g / cm^3
# Si number density = 19.522843 Si / 1000 Ang^3
#
#
#
# Elastic Constant Matrix: (Units=GPa)
#
#
# Indices 1 2 3 4 5 6 
#
# 1 103.5436 47.2802 53.6954 0.0000 0.0000 0.0000
# 2 47.2802 92.2535 32.7824 0.0001 0.0000 0.0000
# 3 53.6954 32.7824 152.2240 0.0001 0.0000 0.0000
# 4 0.0000 0.0001 0.0001 16.2198 0.0000 0.0000
# 5 0.0000 0.0000 0.0000 0.0000 19.1216 0.0000
# 6 0.0000 0.0000 0.0000 0.0000 0.0000 42.6650
#
#
#
# Elastic Compliance Matrix: (Units=1/GPa)
#
#
# Indices 1 2 3 4 5 6 
#
# 1 0.014362 -0.006021 -0.003769 0.000000 0.000000 0.000000
# 2 -0.006021 0.014262 -0.000948 0.000000 0.000000 0.000000
# 3 -0.003769 -0.000948 0.008103 0.000000 0.000000 0.000000
# 4 0.000000 0.000000 0.000000 0.061653 0.000000 0.000000
# 5 0.000000 0.000000 0.000000 0.000000 0.052297 0.000000
# 6 0.000000 0.000000 0.000000 0.000000 0.000000 0.023438
#
#
# Mechanical properties :
#
#
# Convention : Reuss Voigt Hill
#
# Bulk Modulus (GPa) = 65.56925 68.39302 66.98113
# Shear Modulus (GPa) = 24.91591 29.88549 27.40070
#
# Velocity S-wave (km/s) = 3.57633 3.91678 3.75042
# Velocity P-wave (km/s) = 7.12126 7.45408 7.28957
#
# Compressibility (1/GPa) = 0.01525105
#
# Stress axis : x y z
#
# Youngs Moduli (GPa) = 69.62930 70.11529 123.41236
#
# Poissons Ratio (x) = 0.42217 0.46518
# Poissons Ratio (y) = 0.41924 0.11695
# Poissons Ratio (z) = 0.26245 0.06644
#
# Static dielectric constant tensor:
#      x y z
#    x 3.578690 0.000000 0.000000 
#    y 0.000000 3.823860 0.000000 
#    z 0.000000 0.000000 3.664290 
# 
# 
# High freq. dielectric constant tensor:
#      x y z
#    x 1.763760 0.000000 0.000000 
#    y 0.000000 1.754850 0.000000 
#    z 0.000000 0.000000 1.766070 
# 
# From -- ./inp_files/12039.got.cif
#   From: 2010.03.12/outbox.cif.g09.slc.cpg/sg24_7_cif.got.tgz:12039.got - 2010.04.14 03:06:53.
