data_PCOD8165095
_publ_section_title
;
Structure prediction by ZEFSAII (Michael W. Deem and Ramdas Pophale) SiO2 
 PCOD8165095
Probable space group: I 21 21 21
;
_chemical_formula_sum "Si O2"
_cell_formula_units_Z 48
_cell_length_a 13.679908
_cell_length_b 6.586305
_cell_length_c 27.021388
_cell_angle_alpha 90.000000
_cell_angle_beta 90.000000
_cell_angle_gamma 90.000000
_cell_volume 2434.628314
_symmetry_space_group_name_H-M "I 21 21 21"
_symmetry_group_IT_number 24
_symmetry_cell_setting 'orthorhombic'
loop_
_space_group_symop_operation_xyz
x,y,z
-x,1/2-y,z
x,-y,1/2-z
1/2-x,y,-z
1/2+x,1/2+y,1/2+z
1/2-x,-y,1/2+z
1/2+x,1/2-y,-z
-x,1/2+y,1/2-z
loop_
_atom_site_type_symbol
_atom_site_label
_atom_site_fract_x
_atom_site_fract_y
_atom_site_fract_z
Si Si1 0.279037 0.682228 0.885059
Si Si2 0.096593 0.668231 0.340919
Si Si3 0.847533 0.436259 0.474310
Si Si4 0.088585 0.624130 0.944357
Si Si5 0.500000 0.750000 0.495023
Si Si6 0.686241 0.451862 0.698395
Si Si7 0.000000 0.250000 0.254982
O O1 0.356506 0.505299 0.874689
O O2 0.329091 0.852019 0.919544
O O3 0.179199 0.598439 0.907524
O O4 0.253318 0.787273 0.832656
O O5 0.061262 0.601950 0.284673
O O6 0.000000 0.750000 0.369983
O O7 0.176778 0.845666 0.334388
O O8 0.750000 0.525274 0.500000
O O9 0.884042 0.245735 0.506187
O O10 0.925818 0.618693 0.471280
O O11 0.000000 0.750000 0.918324
O O12 0.059476 0.397354 0.958720
O O13 0.742242 0.500000 0.750000
O O14 0.576330 0.372031 0.710945
#
# Coordination Sequence:
#
# PCOD8165095 Si02
#       7
#     8   8   8   8   4   8   4
#     4  11  22  37  61  89 123 159 207 250 300 370
#     4   9  20  34  53  81 118 162 197 232 283 351
#     4   9  21  40  61  86 125 156 200 258 308 359
#     4   9  21  42  61  87 113 154 203 266 317 356
#     4  10  20  42  67  80 114 164 200 254 321 358
#     4  10  20  34  53  82 117 162 196 239 284 348
#     4   8  18  36  53  76 128 164 192 236 283 344
#
# _framework density 19.715537000000001
#
# number of rings (size 3 to 8) (size 9 to 14) (size 15 to 20)
#    0.500    2.000    0.000    1.000    2.333    9.333 
#   16.500    0.000    0.000    0.000    8.667    0.000 
#    0.000    0.000    0.000    0.000    0.000    0.000 
#
# Total GULP energy -297375.674727 kJ/mol
# GULP energy per Si atom -12390.653114 kJ/mol
# Density = 1.967066 g / cm^3
# Si number density = 19.715537 Si / 1000 Ang^3
#
#
#
# Elastic Constant Matrix: (Units=GPa)
#
#
# Indices 1 2 3 4 5 6 
#
# 1 97.9628 51.7801 50.2289 0.0000 0.0000 0.0000
# 2 51.7801 105.3928 52.5983 0.0000 0.0000 0.0000
# 3 50.2289 52.5983 83.9430 0.0000 0.0000 0.0000
# 4 0.0000 0.0000 0.0000 14.6466 0.0000 0.0000
# 5 0.0000 0.0000 0.0000 0.0000 29.4571 0.0000
# 6 0.0000 0.0000 0.0000 0.0000 0.0000 31.3735
#
#
#
# Elastic Compliance Matrix: (Units=1/GPa)
#
#
# Indices 1 2 3 4 5 6 
#
# 1 0.016073 -0.004506 -0.006794 0.000000 0.000000 0.000000
# 2 -0.004506 0.015069 -0.006746 0.000000 0.000000 0.000000
# 3 -0.006794 -0.006746 0.020205 0.000000 0.000000 0.000000
# 4 0.000000 0.000000 0.000000 0.068275 0.000000 0.000000
# 5 0.000000 0.000000 0.000000 0.000000 0.033948 0.000000
# 6 0.000000 0.000000 0.000000 0.000000 0.000000 0.031874
#
#
# Mechanical properties :
#
#
# Convention : Reuss Voigt Hill
#
# Bulk Modulus (GPa) = 65.55191 66.27924 65.91557
# Shear Modulus (GPa) = 22.06323 23.94155 23.00239
#
# Velocity S-wave (km/s) = 3.34889 3.48853 3.41942
# Velocity P-wave (km/s) = 6.94798 7.06521 7.00684
#
# Compressibility (1/GPa) = 0.01525509
#
# Stress axis : x y z
#
# Youngs Moduli (GPa) = 62.21446 66.36242 49.49224
#
# Poissons Ratio (x) = 0.29904 0.33627
# Poissons Ratio (y) = 0.28035 0.33386
# Poissons Ratio (z) = 0.42271 0.44766
#
# Static dielectric constant tensor:
#      x y z
#    x 3.530370 0.000000 0.000000 
#    y 0.000000 3.771690 0.000000 
#    z 0.000000 0.000000 3.476920 
# 
# 
# High freq. dielectric constant tensor:
#      x y z
#    x 1.732750 0.000000 0.000000 
#    y 0.000000 1.784610 0.000000 
#    z 0.000000 0.000000 1.758270 
# 
# From -- ./inp_files/24033.got.cif
#   From: 2010.03.12/outbox.cif.g09.slc.cpg/sg24_13_cif.got.tgz:24033.got - 2010.04.14 03:06:53.
