data_PCOD8165861
_publ_section_title
;
Structure prediction by ZEFSAII (Michael W. Deem and Ramdas Pophale) SiO2 
 PCOD8165861
Probable space group: I 21 21 21
;
_chemical_formula_sum "Si O2"
_cell_formula_units_Z 40
_cell_length_a 21.430053
_cell_length_b 10.517426
_cell_length_c 7.774168
_cell_angle_alpha 90.000000
_cell_angle_beta 90.000000
_cell_angle_gamma 90.000000
_cell_volume 1752.211925
_symmetry_space_group_name_H-M "I 21 21 21"
_symmetry_group_IT_number 24
_symmetry_cell_setting 'orthorhombic'
loop_
_space_group_symop_operation_xyz
x,y,z
-x,1/2-y,z
x,-y,1/2-z
1/2-x,y,-z
1/2+x,1/2+y,1/2+z
1/2-x,-y,1/2+z
1/2+x,1/2-y,-z
-x,1/2+y,1/2-z
loop_
_atom_site_type_symbol
_atom_site_label
_atom_site_fract_x
_atom_site_fract_y
_atom_site_fract_z
Si Si1 0.693694 0.119373 0.872251
Si Si2 0.882631 0.626205 0.658654
Si Si3 0.083152 0.612422 0.630567
Si Si4 0.756231 0.635524 0.204543
Si Si5 0.024673 0.886337 0.383490
O O1 0.701308 0.248253 0.763466
O O2 0.688367 0.000000 0.750000
O O3 0.750000 0.094316 0.000000
O O4 0.629808 0.132388 0.973034
O O5 0.907860 0.500000 0.750000
O O6 0.915292 0.753878 0.736647
O O7 0.808327 0.639800 0.685540
O O8 0.904163 0.619036 0.456309
O O9 0.107307 0.500000 0.750000
O O10 0.015552 0.581654 0.554313
O O11 0.788334 0.500000 0.250000
O O12 0.750000 0.646959 0.000000
O O13 0.000000 0.750000 0.307232
O O14 0.016711 0.000000 0.250000
#
# Coordination Sequence:
#
# PCOD8165861 Si02
#       5
#     8   8   8   8   8
#     4  12  24  41  65  99 136 182 230 286 346 416
#     4  10  23  44  66  99 132 178 230 280 351 403
#     4  11  24  43  69  97 141 178 231 290 344 418
#     4  11  25  45  68  99 139 182 230 284 345 412
#     4  10  23  46  70 101 138 179 231 292 345 416
#
# _framework density 22.828289000000002
#
# number of rings (size 3 to 8) (size 9 to 14) (size 15 to 20)
#    0.000    1.200    2.000    3.000    5.600    1.600 
#   14.400    0.000    0.000    0.000    0.000    0.000 
#    0.000    0.000    0.000    0.000    0.000    0.000 
#
# Total GULP energy -247855.826591 kJ/mol
# GULP energy per Si atom -12392.791330 kJ/mol
# Density = 2.277633 g / cm^3
# Si number density = 22.828289 Si / 1000 Ang^3
#
#
#
# Elastic Constant Matrix: (Units=GPa)
#
#
# Indices 1 2 3 4 5 6 
#
# 1 59.3040 45.5307 37.0345 0.0000 0.0000 0.0000
# 2 45.5307 256.8987 91.2923 0.0000 0.0000 0.0000
# 3 37.0345 91.2923 95.7363 0.0000 0.0000 0.0000
# 4 0.0000 0.0000 0.0000 61.9450 0.0000 0.0000
# 5 0.0000 0.0000 0.0000 0.0000 25.2512 0.0000
# 6 0.0000 0.0000 0.0000 0.0000 0.0000 -7.7452
#
#
#
# Elastic Compliance Matrix: (Units=1/GPa)
#
#
# Indices 1 2 3 4 5 6 
#
# 1 0.022541 -0.001356 -0.007427 0.000000 0.000000 0.000000
# 2 -0.001356 0.005969 -0.005168 0.000000 0.000000 0.000000
# 3 -0.007427 -0.005168 0.018246 0.000000 0.000000 0.000000
# 4 0.000000 0.000000 0.000000 0.016143 0.000000 0.000000
# 5 0.000000 0.000000 0.000000 0.000000 0.039602 0.000000
# 6 0.000000 0.000000 0.000000 0.000000 0.000000 -0.129111
#
#
# Mechanical properties :
#
#
# Convention : Reuss Voigt Hill
#
# Bulk Modulus (GPa) = 53.03411 84.40601 68.72006
# Shear Modulus (GPa) = 659.88618 31.76229 345.82423
#
# Velocity S-wave (km/s) = 17.02036 3.73414 12.32145
# Velocity P-wave (km/s) = 20.23707 7.45964 15.25099
#
# Compressibility (1/GPa) = 0.01885579
#
# Stress axis : x y z
#
# Youngs Moduli (GPa) = 44.36317 167.52401 54.80568
#
# Poissons Ratio (x) = 0.22712 0.40704
# Poissons Ratio (y) = 0.06015 0.28322
# Poissons Ratio (z) = 0.32949 0.86572
#
# Static dielectric constant tensor:
#      x y z
#    x 3.944870 0.000000 0.000000 
#    y 0.000000 4.756470 0.000000 
#    z 0.000000 0.000000 4.019620 
# 
# 
# High freq. dielectric constant tensor:
#      x y z
#    x 1.903440 0.000000 0.000000 
#    y 0.000000 1.936030 0.000000 
#    z 0.000000 0.000000 1.876390 
# 
# From -- ./inp_files/15629.got.cif
#   From: 2010.03.12/outbox.cif.g09.slc.cpg/sg24_8_cif.got.tgz:15629.got - 2010.04.14 03:06:53.
