data_PCOD8165360
_publ_section_title
;
Structure prediction by ZEFSAII (Michael W. Deem and Ramdas Pophale) SiO2 
 PCOD8165360
Probable space group: I 21 21 21
;
_chemical_formula_sum "Si O2"
_cell_formula_units_Z 40
_cell_length_a 7.936028
_cell_length_b 24.030534
_cell_length_c 9.984329
_cell_angle_alpha 90.000000
_cell_angle_beta 90.000000
_cell_angle_gamma 90.000000
_cell_volume 1904.081338
_symmetry_space_group_name_H-M "I 21 21 21"
_symmetry_group_IT_number 24
_symmetry_cell_setting 'orthorhombic'
loop_
_space_group_symop_operation_xyz
x,y,z
-x,1/2-y,z
x,-y,1/2-z
1/2-x,y,-z
1/2+x,1/2+y,1/2+z
1/2-x,-y,1/2+z
1/2+x,1/2-y,-z
-x,1/2+y,1/2-z
loop_
_atom_site_type_symbol
_atom_site_label
_atom_site_fract_x
_atom_site_fract_y
_atom_site_fract_z
Si Si1 0.814925 0.723005 0.269983
Si Si2 0.250000 0.175509 0.500000
Si Si3 0.099923 0.004142 0.096540
Si Si4 0.995785 0.374049 0.131181
Si Si5 0.250000 0.700556 0.500000
Si Si6 0.920760 0.894115 0.076373
O O1 0.725350 0.716859 0.126421
O O2 0.708205 0.761521 0.370343
O O3 0.000000 0.750000 0.252485
O O4 0.827158 0.660379 0.331630
O O5 0.417763 0.138176 0.516184
O O6 0.041604 0.066615 0.065089
O O7 0.162366 0.000000 0.250000
O O8 0.250000 0.987022 0.000000
O O9 0.950192 0.960615 0.067126
O O10 0.105939 0.379306 0.267393
O O11 0.089921 0.338533 0.018975
O O12 0.750000 0.877541 0.000000
#
# Coordination Sequence:
#
# PCOD8165360 Si02
#       6
#     8   4   8   8   4   8
#     4   9  20  41  63  89 128 167 221 264 313 383
#     4  10  20  44  71  92 131 172 208 276 320 366
#     4  10  21  41  67  94 132 169 211 265 322 389
#     4   9  21  40  61  88 135 168 206 275 316 375
#     4  10  20  42  59  88 129 174 208 264 326 372
#     4  10  21  42  67 100 132 165 215 265 321 392
#
# _framework density 21.007505999999999
#
# number of rings (size 3 to 8) (size 9 to 14) (size 15 to 20)
#    0.000    2.400    1.000    0.000    2.800    0.000 
#   30.600    0.000    0.000    0.000    0.000    0.000 
#    0.000    0.000    0.000    0.000    0.000    0.000 
#
# Total GULP energy -247924.511115 kJ/mol
# GULP energy per Si atom -12396.225556 kJ/mol
# Density = 2.095969 g / cm^3
# Si number density = 21.007506 Si / 1000 Ang^3
#
#
#
# Elastic Constant Matrix: (Units=GPa)
#
#
# Indices 1 2 3 4 5 6 
#
# 1 89.3420 31.5955 52.3512 -0.0003 0.0003 -0.0003
# 2 31.5955 141.9194 58.2633 -0.0004 0.0002 0.0000
# 3 52.3512 58.2633 116.4243 -0.0010 -0.0039 0.0035
# 4 -0.0003 -0.0004 -0.0010 33.7361 -0.0001 0.0005
# 5 0.0003 0.0002 -0.0039 -0.0001 36.1869 0.0007
# 6 -0.0003 0.0000 0.0035 0.0005 0.0007 21.9490
#
#
#
# Elastic Compliance Matrix: (Units=1/GPa)
#
#
# Indices 1 2 3 4 5 6 
#
# 1 0.015257 -0.000730 -0.006495 0.000000 -0.000001 0.000001
# 2 -0.000730 0.008903 -0.004127 0.000000 0.000000 0.000001
# 3 -0.006495 -0.004127 0.013575 0.000000 0.000002 -0.000002
# 4 0.000000 0.000000 0.000000 0.029642 0.000000 -0.000001
# 5 -0.000001 0.000000 0.000002 0.000000 0.027634 -0.000001
# 6 0.000001 0.000001 -0.000002 -0.000001 -0.000001 0.045560
#
#
# Mechanical properties :
#
#
# Convention : Reuss Voigt Hill
#
# Bulk Modulus (GPa) = 66.53083 70.23396 68.38239
# Shear Modulus (GPa) = 29.71118 32.07278 30.89198
#
# Velocity S-wave (km/s) = 3.76481 3.91158 3.83890
# Velocity P-wave (km/s) = 7.11598 7.34207 7.22991
#
# Compressibility (1/GPa) = 0.01503063
#
# Stress axis : x y z
#
# Youngs Moduli (GPa) = 65.54349 112.31943 73.66362
#
# Poissons Ratio (x) = 0.08202 0.47845
# Poissons Ratio (y) = 0.04786 0.30402
# Poissons Ratio (z) = 0.42571 0.46356
#
# Static dielectric constant tensor:
#      x y z
#    x 3.334040 0.000000 0.000000 
#    y 0.000000 4.181900 0.000000 
#    z 0.000000 0.000000 3.952950 
# 
# 
# High freq. dielectric constant tensor:
#      x y z
#    x 1.782610 0.000000 0.000000 
#    y 0.000000 1.847660 0.000000 
#    z 0.000000 0.000000 1.826070 
# 
# From -- ./inp_files/9308.got.cif
#   From: 2010.03.12/outbox.cif.g09.slc.cpg/sg24_5_cif.got.tgz:9308.got - 2010.04.14 03:06:53.
