data_PCOD8165627
_publ_section_title
;
Structure prediction by ZEFSAII (Michael W. Deem and Ramdas Pophale) SiO2 
 PCOD8165627
Probable space group: I 21 21 21
;
_chemical_formula_sum "Si O2"
_cell_formula_units_Z 40
_cell_length_a 28.349251
_cell_length_b 15.181809
_cell_length_c 5.197956
_cell_angle_alpha 90.000000
_cell_angle_beta 90.000000
_cell_angle_gamma 90.000000
_cell_volume 2237.163430
_symmetry_space_group_name_H-M "I 21 21 21"
_symmetry_group_IT_number 24
_symmetry_cell_setting 'orthorhombic'
loop_
_space_group_symop_operation_xyz
x,y,z
-x,1/2-y,z
x,-y,1/2-z
1/2-x,y,-z
1/2+x,1/2+y,1/2+z
1/2-x,-y,1/2+z
1/2+x,1/2-y,-z
-x,1/2+y,1/2-z
loop_
_atom_site_type_symbol
_atom_site_label
_atom_site_fract_x
_atom_site_fract_y
_atom_site_fract_z
Si Si1 0.649730 0.905658 0.391121
Si Si2 0.250000 0.441703 0.000000
Si Si3 0.509506 0.074090 0.429375
Si Si4 0.909903 0.000000 0.250000
Si Si5 0.426255 0.724966 0.227956
Si Si6 0.454941 0.190706 0.767063
O O1 0.704435 0.880275 0.441392
O O2 0.622069 0.917998 0.660274
O O3 0.622752 0.828309 0.243817
O O4 0.648554 0.000000 0.250000
O O5 0.262431 0.500000 0.750000
O O6 0.526126 0.162102 0.269792
O O7 0.474701 0.094768 0.672384
O O8 0.484572 0.000000 0.250000
O O9 0.558766 0.033456 0.516643
O O10 0.429704 0.799675 0.455076
O O11 0.420609 0.775714 0.959286
O O12 0.500000 0.250000 0.776422
#
# Coordination Sequence:
#
# PCOD8165627 Si02
#       6
#     8   4   8   4   8   8
#     4  11  20  32  48  71  92 129 168 206 243 287
#     4  10  22  32  48  70  96 118 158 214 244 276
#     4  11  22  31  50  71  95 131 175 213 242 281
#     4  12  18  30  50  68  94 128 170 206 238 284
#     4  11  20  34  48  65  93 129 162 202 241 293
#     4  10  22  32  46  66  94 123 163 206 244 277
#
# _framework density 17.879784000000001
#
# number of rings (size 3 to 8) (size 9 to 14) (size 15 to 20)
#    0.000    1.200    5.000    4.200    2.800    0.000 
#    0.000    0.000    0.000    0.000    0.000    0.000 
#    0.000    0.000    0.000    3.600    0.800    0.200 
#
# Total GULP energy -247766.210793 kJ/mol
# GULP energy per Si atom -12388.310540 kJ/mol
# Density = 1.783909 g / cm^3
# Si number density = 17.879784 Si / 1000 Ang^3
#
#
#
# Elastic Constant Matrix: (Units=GPa)
#
#
# Indices 1 2 3 4 5 6 
#
# 1 79.4917 13.4629 14.9816 0.0000 0.0000 0.0000
# 2 13.4629 33.6030 7.9130 0.0000 0.0000 0.0000
# 3 14.9816 7.9130 92.1119 -0.0001 0.0001 0.0006
# 4 0.0000 0.0000 -0.0001 27.5220 0.0000 0.0000
# 5 0.0000 0.0000 0.0001 0.0000 8.4666 -0.0002
# 6 0.0000 0.0000 0.0006 0.0000 -0.0002 6.6791
#
#
#
# Elastic Compliance Matrix: (Units=1/GPa)
#
#
# Indices 1 2 3 4 5 6 
#
# 1 0.013783 -0.005097 -0.001804 0.000000 0.000000 0.000000
# 2 -0.005097 0.032259 -0.001942 0.000000 0.000000 0.000000
# 3 -0.001804 -0.001942 0.011317 0.000000 0.000000 -0.000001
# 4 0.000000 0.000000 0.000000 0.036335 0.000000 0.000000
# 5 0.000000 0.000000 0.000000 0.000000 0.118112 0.000004
# 6 0.000000 0.000000 -0.000001 0.000000 0.000004 0.149722
#
#
# Mechanical properties :
#
#
# Convention : Reuss Voigt Hill
#
# Bulk Modulus (GPa) = 25.20683 30.88016 28.04349
# Shear Modulus (GPa) = 12.74088 19.79012 16.26550
#
# Velocity S-wave (km/s) = 2.67233 3.33054 3.01942
# Velocity P-wave (km/s) = 4.86316 5.66555 5.27962
#
# Compressibility (1/GPa) = 0.03967179
#
# Stress axis : x y z
#
# Youngs Moduli (GPa) = 72.55207 30.99922 88.36578
#
# Poissons Ratio (x) = 0.15801 0.15940
# Poissons Ratio (y) = 0.36983 0.17162
# Poissons Ratio (z) = 0.13087 0.06021
#
# Static dielectric constant tensor:
#      x y z
#    x 3.262720 0.000000 0.000000 
#    y 0.000000 2.033170 -0.000010 
#    z 0.000000 -0.000010 3.911500 
# 
# 
# High freq. dielectric constant tensor:
#      x y z
#    x 1.644480 0.000000 0.000000 
#    y 0.000000 1.644900 0.000000 
#    z 0.000000 0.000000 1.721600 
# 
# From -- ./inp_files/3860.got.cif
#   From: 2010.03.12/outbox.cif.g09.slc.cpg/sg24_2_cif.got.tgz:3860.got - 2010.04.14 03:06:53.
