data_PCOD8165466
_publ_section_title
;
Structure prediction by ZEFSAII (Michael W. Deem and Ramdas Pophale) SiO2 
 PCOD8165466
Probable space group: I 21 21 21
;
_chemical_formula_sum "Si O2"
_cell_formula_units_Z 64
_cell_length_a 23.622451
_cell_length_b 15.355432
_cell_length_c 8.664227
_cell_angle_alpha 90.000000
_cell_angle_beta 90.000000
_cell_angle_gamma 90.000000
_cell_volume 3142.800533
_symmetry_space_group_name_H-M "I 21 21 21"
_symmetry_group_IT_number 24
_symmetry_cell_setting 'orthorhombic'
loop_
_space_group_symop_operation_xyz
x,y,z
-x,1/2-y,z
x,-y,1/2-z
1/2-x,y,-z
1/2+x,1/2+y,1/2+z
1/2-x,-y,1/2+z
1/2+x,1/2-y,-z
-x,1/2+y,1/2-z
loop_
_atom_site_type_symbol
_atom_site_label
_atom_site_fract_x
_atom_site_fract_y
_atom_site_fract_z
Si Si1 0.366638 0.910307 0.681527
Si Si2 0.066240 0.753887 0.178577
Si Si3 0.370985 0.592160 0.320182
Si Si4 0.129015 0.407840 0.179818
Si Si5 0.250000 0.850339 0.819558
Si Si6 0.250000 0.334010 0.175878
Si Si7 0.866638 0.410307 0.818473
Si Si8 0.566240 0.746113 0.178578
O O1 0.408550 0.832564 0.723551
O O2 0.304559 0.894637 0.747377
O O3 0.362594 0.917809 0.500000
O O4 0.391411 0.000000 0.750000
O O5 0.093223 0.663947 0.231640
O O6 0.000000 0.750000 0.210006
O O7 0.080705 0.769715 1.000000
O O8 0.388609 0.500000 0.250000
O O9 0.386357 0.595047 0.500000
O O10 0.304494 0.607127 0.291350
O O11 0.406777 0.663947 0.231641
O O12 0.111390 0.500000 0.250000
O O13 0.195506 0.392873 0.208651
O O14 0.250001 0.747418 0.789777
O O15 0.195441 0.894637 0.747376
O O16 0.250000 0.867949 0.000000
O O17 0.250000 0.298505 0.000000
O O18 0.891411 0.500000 0.750000
O O19 0.908550 0.332564 0.776450
O O20 0.500000 0.750000 0.210007
#
# Coordination Sequence:
#
# PCOD8165466 Si02
#       8
#     8   8   8   8   8   8   8   8
#     4  12  25  43  67  96 131 168 213 262 318 382
#     4  11  25  45  67  93 126 166 216 268 320 379
#     4  11  23  40  65  95 131 169 212 259 314 379
#     4  11  23  40  65  95 131 169 212 259 314 379
#     4  12  23  38  65  97 132 170 208 256 319 382
#     4  10  21  38  62  95 130 168 207 254 313 380
#     4  12  25  43  67  96 131 168 213 262 318 382
#     4  11  25  45  67  93 126 166 216 268 320 379
#
# _framework density 20.364001999999999
#
# number of rings (size 3 to 8) (size 9 to 14) (size 15 to 20)
#    0.000    0.750    2.500    5.625    0.000    4.000 
#    0.000    0.000    0.000    0.000    0.000    0.000 
#    0.000    0.000    0.000    0.000    0.000    0.000 
#
# Total GULP energy -397049.304789 kJ/mol
# GULP energy per Si atom -12407.790775 kJ/mol
# Density = 2.031765 g / cm^3
# Si number density = 20.364002 Si / 1000 Ang^3
#
#
#
# Elastic Constant Matrix: (Units=GPa)
#
#
# Indices 1 2 3 4 5 6 
#
# 1 105.2186 45.2181 57.3172 0.0000 0.0000 0.0000
# 2 45.2181 151.3680 48.9888 0.0000 0.0000 0.0000
# 3 57.3172 48.9888 149.8233 0.0000 0.0000 0.0000
# 4 0.0000 0.0000 0.0000 39.7807 0.0000 0.0000
# 5 0.0000 0.0000 0.0000 0.0000 58.9510 0.0000
# 6 0.0000 0.0000 0.0000 0.0000 0.0000 -38.1918
#
#
#
# Elastic Compliance Matrix: (Units=1/GPa)
#
#
# Indices 1 2 3 4 5 6 
#
# 1 0.012802 -0.002504 -0.004079 0.000000 0.000000 0.000000
# 2 -0.002504 0.007878 -0.001618 0.000000 0.000000 0.000000
# 3 -0.004079 -0.001618 0.008764 0.000000 0.000000 0.000000
# 4 0.000000 0.000000 0.000000 0.025138 0.000000 0.000000
# 5 0.000000 0.000000 0.000000 0.000000 0.016963 0.000000
# 6 0.000000 0.000000 0.000000 0.000000 0.000000 -0.026184
#
#
# Mechanical properties :
#
#
# Convention : Reuss Voigt Hill
#
# Bulk Modulus (GPa) = 76.67415 78.82867 77.75141
# Shear Modulus (GPa) = 75.63017 29.10037 52.36527
#
# Velocity S-wave (km/s) = 6.10080 3.78433 5.07646
# Velocity P-wave (km/s) = 9.34665 7.60846 8.52199
#
# Compressibility (1/GPa) = 0.01304220
#
# Stress axis : x y z
#
# Youngs Moduli (GPa) = 78.11176 126.93332 114.10368
#
# Poissons Ratio (x) = 0.31788 0.46541
# Poissons Ratio (y) = 0.19562 0.18461
# Poissons Ratio (z) = 0.31860 0.20537
#
# Static dielectric constant tensor:
#      x y z
#    x 4.102560 0.000000 0.000000 
#    y 0.000000 3.923450 0.000000 
#    z 0.000000 0.000000 3.882450 
# 
# 
# High freq. dielectric constant tensor:
#      x y z
#    x 1.795770 0.000000 0.000000 
#    y 0.000000 1.811280 0.000000 
#    z 0.000000 0.000000 1.812780 
# 
# From -- ./inp_files/16041.got.cif
#   From: 2010.03.12/outbox.cif.g09.slc.cpg/sg24_9_cif.got.tgz:16041.got - 2010.04.14 03:06:53.
