data_PCOD8165626
_publ_section_title
;
Structure prediction by ZEFSAII (Michael W. Deem and Ramdas Pophale) SiO2 
 PCOD8165626
Probable space group: I 21 21 21
;
_chemical_formula_sum "Si O2"
_cell_formula_units_Z 36
_cell_length_a 25.057557
_cell_length_b 11.320680
_cell_length_c 5.597058
_cell_angle_alpha 90.000000
_cell_angle_beta 90.000000
_cell_angle_gamma 90.000000
_cell_volume 1587.709520
_symmetry_space_group_name_H-M "I 21 21 21"
_symmetry_group_IT_number 24
_symmetry_cell_setting 'orthorhombic'
loop_
_space_group_symop_operation_xyz
x,y,z
-x,1/2-y,z
x,-y,1/2-z
1/2-x,y,-z
1/2+x,1/2+y,1/2+z
1/2-x,-y,1/2+z
1/2+x,1/2-y,-z
-x,1/2+y,1/2-z
loop_
_atom_site_type_symbol
_atom_site_label
_atom_site_fract_x
_atom_site_fract_y
_atom_site_fract_z
Si Si1 0.595781 0.500000 0.750000
Si Si2 0.780850 0.500000 0.750000
Si Si3 0.440069 0.209730 0.033834
Si Si4 0.250000 0.572703 0.500000
Si Si5 0.355997 0.817416 0.087543
Si Si6 0.147122 0.636345 0.287400
O O1 0.558500 0.578330 0.577386
O O2 0.636300 0.416016 0.613027
O O3 0.750000 0.491395 0.500000
O O4 0.815069 0.377810 0.773838
O O5 0.500000 0.250000 0.067285
O O6 0.412950 0.208661 0.292546
O O7 0.406743 0.300302 0.870799
O O8 0.251041 0.500000 0.250000
O O9 0.195499 0.650153 0.481771
O O10 0.334275 0.697176 0.962732
O O11 0.133141 0.500000 0.250000
#
# Coordination Sequence:
#
# PCOD8165626 Si02
#       6
#     4   4   8   4   8   8
#     4  10  21  48  68  98 150 186 243 310 386 432
#     4  12  27  46  78 118 148 204 259 314 388 456
#     4  11  25  43  77 105 143 199 249 314 380 457
#     4  10  24  48  74 106 154 200 242 310 374 458
#     4  11  24  48  71 103 151 190 248 324 369 455
#     4  10  26  47  73 107 152 194 247 306 386 462
#
# _framework density 22.674173
#
# number of rings (size 3 to 8) (size 9 to 14) (size 15 to 20)
#    0.000    1.333    2.222    0.667   10.889    5.333 
#    6.000    0.000    0.000    0.000    0.000    0.000 
#    0.000    0.000    0.000    0.000    0.000    0.000 
#
# Total GULP energy -223119.017759 kJ/mol
# GULP energy per Si atom -12395.500987 kJ/mol
# Density = 2.262257 g / cm^3
# Si number density = 22.674173 Si / 1000 Ang^3
#
#
#
# Elastic Constant Matrix: (Units=GPa)
#
#
# Indices 1 2 3 4 5 6 
#
# 1 142.9394 38.1237 39.4598 0.0000 0.0000 0.0000
# 2 38.1237 148.6532 46.6745 0.0000 0.0000 0.0000
# 3 39.4598 46.6745 117.2329 0.0000 0.0001 0.0000
# 4 0.0000 0.0000 0.0000 33.9360 0.0000 0.0000
# 5 0.0000 0.0000 0.0001 0.0000 32.9084 0.0000
# 6 0.0000 0.0000 0.0000 0.0000 0.0000 17.3681
#
#
#
# Elastic Compliance Matrix: (Units=1/GPa)
#
#
# Indices 1 2 3 4 5 6 
#
# 1 0.007949 -0.001370 -0.002130 0.000000 0.000000 0.000000
# 2 -0.001370 0.007924 -0.002694 0.000000 0.000000 0.000000
# 3 -0.002130 -0.002694 0.010320 0.000000 0.000000 0.000000
# 4 0.000000 0.000000 0.000000 0.029467 0.000000 0.000000
# 5 0.000000 0.000000 0.000000 0.000000 0.030387 0.000000
# 6 0.000000 0.000000 0.000000 0.000000 0.000000 0.057577
#
#
# Mechanical properties :
#
#
# Convention : Reuss Voigt Hill
#
# Bulk Modulus (GPa) = 72.43638 73.03795 72.73717
# Shear Modulus (GPa) = 31.13044 35.81365 33.47205
#
# Velocity S-wave (km/s) = 3.70935 3.97859 3.84633
# Velocity P-wave (km/s) = 7.09660 7.30667 7.20240
#
# Compressibility (1/GPa) = 0.01380522
#
# Stress axis : x y z
#
# Youngs Moduli (GPa) = 125.79532 126.19585 96.90306
#
# Poissons Ratio (x) = 0.17287 0.20644
# Poissons Ratio (y) = 0.17232 0.26104
# Poissons Ratio (z) = 0.26799 0.33995
#
# Static dielectric constant tensor:
#      x y z
#    x 3.945660 0.000000 0.000000 
#    y 0.000000 4.488540 0.000000 
#    z 0.000000 0.000000 4.323170 
# 
# 
# High freq. dielectric constant tensor:
#      x y z
#    x 1.880020 0.000000 0.000000 
#    y 0.000000 1.905490 0.000000 
#    z 0.000000 0.000000 1.906460 
# 
# From -- ./inp_files/2315.got.cif
#   From: 2010.03.12/outbox.cif.g09.slc.cpg/sg24_2_cif.got.tgz:2315.got - 2010.04.14 03:06:53.
