data_PCOD8165480
_publ_section_title
;
Structure prediction by ZEFSAII (Michael W. Deem and Ramdas Pophale) SiO2 
 PCOD8165480
Probable space group: I 21 21 21
;
_chemical_formula_sum "Si O2"
_cell_formula_units_Z 60
_cell_length_a 32.478431
_cell_length_b 7.578688
_cell_length_c 11.991287
_cell_angle_alpha 90.000000
_cell_angle_beta 90.000000
_cell_angle_gamma 90.000000
_cell_volume 2951.582092
_symmetry_space_group_name_H-M "I 21 21 21"
_symmetry_group_IT_number 24
_symmetry_cell_setting 'orthorhombic'
loop_
_space_group_symop_operation_xyz
x,y,z
-x,1/2-y,z
x,-y,1/2-z
1/2-x,y,-z
1/2+x,1/2+y,1/2+z
1/2-x,-y,1/2+z
1/2+x,1/2-y,-z
-x,1/2+y,1/2-z
loop_
_atom_site_type_symbol
_atom_site_label
_atom_site_fract_x
_atom_site_fract_y
_atom_site_fract_z
Si Si1 0.926938 0.918500 0.017023
Si Si2 0.347886 0.477245 0.376157
Si Si3 0.595187 0.000000 0.750000
Si Si4 0.202610 0.771421 0.505835
Si Si5 0.996540 0.453778 0.879408
Si Si6 0.669285 0.421592 0.368786
Si Si7 0.138814 0.166476 0.174390
Si Si8 0.410990 0.028415 0.492121
O O1 0.932694 0.009360 0.138168
O O2 0.916250 0.718432 0.047380
O O3 0.887948 0.001594 0.953234
O O4 0.967727 0.938754 0.942922
O O5 0.363376 0.500000 0.250000
O O6 0.316839 0.633260 0.406928
O O7 0.324682 0.288268 0.385794
O O8 0.623421 0.825165 0.752462
O O9 0.250000 0.718956 0.500000
O O10 0.179748 0.760657 0.386851
O O11 0.198400 0.974712 0.544989
O O12 0.998076 0.500000 0.750000
O O13 0.000000 0.250000 0.897540
O O14 0.953470 0.490702 0.934210
O O15 0.681494 0.500000 0.250000
O O16 0.621957 0.469814 0.392572
O O17 0.151193 0.000000 0.250000
O O18 0.102926 0.110963 0.086396
#
# Coordination Sequence:
#
# PCOD8165480 Si02
#       8
#     8   8   4   8   8   8   8   8
#     4  11  23  41  66  94 127 176 219 267 323 387
#     4  11  22  41  67  94 129 169 215 265 329 397
#     4  12  22  42  68  94 126 176 232 262 322 390
#     4  11  25  43  64  97 133 164 217 276 330 399
#     4  12  25  40  62  97 135 170 215 276 329 382
#     4  10  21  38  67  93 123 169 211 258 327 395
#     4  11  23  44  68  92 130 177 224 271 328 397
#     4  10  22  41  64  93 128 167 218 267 323 382
#
# _framework density 20.328081999999998
#
# number of rings (size 3 to 8) (size 9 to 14) (size 15 to 20)
#    0.000    1.067    4.000    2.800    1.867    3.200 
#    2.400    0.000    0.000    0.000    0.000    0.000 
#    0.000    0.000    0.000    0.000    0.000    0.000 
#
# Total GULP energy -371949.244487 kJ/mol
# GULP energy per Si atom -12398.308150 kJ/mol
# Density = 2.028181 g / cm^3
# Si number density = 20.328082 Si / 1000 Ang^3
#
#
#
# Elastic Constant Matrix: (Units=GPa)
#
#
# Indices 1 2 3 4 5 6 
#
# 1 114.5734 24.9383 48.5447 0.0000 0.0000 0.0000
# 2 24.9383 95.4018 24.6162 0.0000 0.0000 0.0000
# 3 48.5447 24.6162 126.1971 0.0000 0.0000 0.0000
# 4 0.0000 0.0000 0.0000 26.4165 0.0000 0.0000
# 5 0.0000 0.0000 0.0000 0.0000 15.0483 0.0000
# 6 0.0000 0.0000 0.0000 0.0000 0.0000 17.4535
#
#
#
# Elastic Compliance Matrix: (Units=1/GPa)
#
#
# Indices 1 2 3 4 5 6 
#
# 1 0.010723 -0.001831 -0.003768 0.000000 0.000000 0.000000
# 2 -0.001831 0.011350 -0.001510 0.000000 0.000000 0.000000
# 3 -0.003768 -0.001510 0.009668 0.000000 0.000000 0.000000
# 4 0.000000 0.000000 0.000000 0.037855 0.000000 0.000000
# 5 0.000000 0.000000 0.000000 0.000000 0.066453 0.000000
# 6 0.000000 0.000000 0.000000 0.000000 0.000000 0.057295
#
#
# Mechanical properties :
#
#
# Convention : Reuss Voigt Hill
#
# Bulk Modulus (GPa) = 57.06297 59.15229 58.10763
# Shear Modulus (GPa) = 23.42996 27.65519 25.54257
#
# Velocity S-wave (km/s) = 3.39867 3.69242 3.54858
# Velocity P-wave (km/s) = 6.59797 6.88045 6.74069
#
# Compressibility (1/GPa) = 0.01752450
#
# Stress axis : x y z
#
# Youngs Moduli (GPa) = 93.25831 88.10492 103.43472
#
# Poissons Ratio (x) = 0.16130 0.38971
# Poissons Ratio (y) = 0.17074 0.15616
# Poissons Ratio (z) = 0.35137 0.13301
#
# Static dielectric constant tensor:
#      x y z
#    x 3.458230 0.000000 0.000000 
#    y 0.000000 3.956100 0.000000 
#    z 0.000000 0.000000 3.767080 
# 
# 
# High freq. dielectric constant tensor:
#      x y z
#    x 1.768600 0.000000 0.000000 
#    y 0.000000 1.816610 0.000000 
#    z 0.000000 0.000000 1.802200 
# 
# From -- ./inp_files/22953.got.cif
#   From: 2010.03.12/outbox.cif.g09.slc.cpg/sg24_12_cif.got.tgz:22953.got - 2010.04.14 03:06:53.
