data_PCOD8165694
_publ_section_title
;
Structure prediction by ZEFSAII (Michael W. Deem and Ramdas Pophale) SiO2 
 PCOD8165694
Probable space group: I 21 21 21
;
_chemical_formula_sum "Si O2"
_cell_formula_units_Z 48
_cell_length_a 5.050987
_cell_length_b 16.254985
_cell_length_c 27.895712
_cell_angle_alpha 90.000000
_cell_angle_beta 90.000000
_cell_angle_gamma 90.000000
_cell_volume 2290.341669
_symmetry_space_group_name_H-M "I 21 21 21"
_symmetry_group_IT_number 24
_symmetry_cell_setting 'orthorhombic'
loop_
_space_group_symop_operation_xyz
x,y,z
-x,1/2-y,z
x,-y,1/2-z
1/2-x,y,-z
1/2+x,1/2+y,1/2+z
1/2-x,-y,1/2+z
1/2+x,1/2-y,-z
-x,1/2+y,1/2-z
loop_
_atom_site_type_symbol
_atom_site_label
_atom_site_fract_x
_atom_site_fract_y
_atom_site_fract_z
Si Si1 0.752133 0.695032 0.944456
Si Si2 0.367022 0.945193 0.129549
Si Si3 0.498738 0.655684 0.532060
Si Si4 0.590289 0.842023 0.715446
Si Si5 0.573828 0.408189 0.264988
Si Si6 0.878583 0.053478 0.124356
O O1 0.500000 0.750000 0.930774
O O2 0.771074 0.612903 0.913464
O O3 0.000000 0.750000 0.931561
O O4 0.750000 0.668200 0.000000
O O5 0.431659 0.895250 0.177751
O O6 0.617108 0.000043 0.112994
O O7 0.116915 0.999395 0.144423
O O8 0.500000 0.750000 0.549759
O O9 0.750000 0.633904 0.500000
O O10 0.489059 0.596735 0.577180
O O11 0.250000 0.636182 0.500000
O O12 0.500000 0.750000 0.706074
O O13 0.358915 0.891675 0.741970
O O14 0.680744 0.879496 0.664744
O O15 0.854467 0.843449 0.747342
O O16 0.482137 0.500000 0.250000
#
# Coordination Sequence:
#
# PCOD8165694 Si02
#       6
#     8   8   8   8   8   8
#     4  10  23  45  67  92 129 167 212 275 331 385
#     4  12  25  39  70  95 126 172 214 260 337 391
#     4  10  22  40  61  88 127 171 212 264 318 371
#     4  12  25  42  67  96 128 174 220 261 321 391
#     4  12  23  44  64  92 136 175 210 275 330 379
#     4  12  23  41  63  96 128 168 209 268 319 387
#
# _framework density 20.957573
#
# number of rings (size 3 to 8) (size 9 to 14) (size 15 to 20)
#    0.000    0.667    3.333    4.500    0.000    4.000 
#    0.000    5.000    0.000    0.000    0.000    0.000 
#    0.000    0.000    0.000    0.000    0.000    0.000 
#
# Total GULP energy -297720.672611 kJ/mol
# GULP energy per Si atom -12405.028025 kJ/mol
# Density = 2.090987 g / cm^3
# Si number density = 20.957573 Si / 1000 Ang^3
#
#
#
# Elastic Constant Matrix: (Units=GPa)
#
#
# Indices 1 2 3 4 5 6 
#
# 1 146.4687 40.5523 43.0485 0.0000 0.0000 0.0000
# 2 40.5523 86.3160 68.8548 0.0000 0.0000 0.0000
# 3 43.0485 68.8548 129.8959 0.0000 0.0000 0.0000
# 4 0.0000 0.0000 0.0000 -26.0229 0.0000 0.0000
# 5 0.0000 0.0000 0.0000 0.0000 46.1707 0.0000
# 6 0.0000 0.0000 0.0000 0.0000 0.0000 33.1476
#
#
#
# Elastic Compliance Matrix: (Units=1/GPa)
#
#
# Indices 1 2 3 4 5 6 
#
# 1 0.007943 -0.002828 -0.001134 0.000000 0.000000 0.000000
# 2 -0.002828 0.021080 -0.010237 0.000000 0.000000 0.000000
# 3 -0.001134 -0.010237 0.013500 0.000000 0.000000 0.000000
# 4 0.000000 0.000000 0.000000 -0.038428 0.000000 0.000000
# 5 0.000000 0.000000 0.000000 0.000000 0.021659 0.000000
# 6 0.000000 0.000000 0.000000 0.000000 0.000000 0.030168
#
#
# Mechanical properties :
#
#
# Convention : Reuss Voigt Hill
#
# Bulk Modulus (GPa) = 70.78378 74.17688 72.48033
# Shear Modulus (GPa) = 56.16204 24.67408 40.41806
#
# Velocity S-wave (km/s) = 5.18229 3.43495 4.39631
# Velocity P-wave (km/s) = 8.34604 7.15560 7.77364
#
# Compressibility (1/GPa) = 0.01412753
#
# Stress axis : x y z
#
# Youngs Moduli (GPa) = 125.88977 47.43898 74.07151
#
# Poissons Ratio (x) = 0.13414 0.08397
# Poissons Ratio (y) = 0.35596 0.75825
# Poissons Ratio (z) = 0.14272 0.48562
#
# Static dielectric constant tensor:
#      x y z
#    x 3.979930 0.000000 0.000000 
#    y 0.000000 3.685600 0.000000 
#    z 0.000000 0.000000 3.813230 
# 
# 
# High freq. dielectric constant tensor:
#      x y z
#    x 1.842890 0.000000 0.000000 
#    y 0.000000 1.816370 0.000000 
#    z 0.000000 0.000000 1.829970 
# 
# From -- ./inp_files/23916.got.cif
#   From: 2010.03.12/outbox.cif.g09.slc.cpg/sg24_12_cif.got.tgz:23916.got - 2010.04.14 03:06:53.
