data_PCOD8165026
_publ_section_title
;
Structure prediction by ZEFSAII (Michael W. Deem and Ramdas Pophale) SiO2 
 PCOD8165026
Probable space group: I 21 21 21
;
_chemical_formula_sum "Si O2"
_cell_formula_units_Z 40
_cell_length_a 9.671794
_cell_length_b 17.070397
_cell_length_c 11.582267
_cell_angle_alpha 90.000000
_cell_angle_beta 90.000000
_cell_angle_gamma 90.000000
_cell_volume 1912.248072
_symmetry_space_group_name_H-M "I 21 21 21"
_symmetry_group_IT_number 24
_symmetry_cell_setting 'orthorhombic'
loop_
_space_group_symop_operation_xyz
x,y,z
-x,1/2-y,z
x,-y,1/2-z
1/2-x,y,-z
1/2+x,1/2+y,1/2+z
1/2-x,-y,1/2+z
1/2+x,1/2-y,-z
-x,1/2+y,1/2-z
loop_
_atom_site_type_symbol
_atom_site_label
_atom_site_fract_x
_atom_site_fract_y
_atom_site_fract_z
Si Si1 0.081326 0.331244 0.992987
Si Si2 0.781016 0.675935 0.867451
Si Si3 0.513659 0.087059 0.241391
Si Si4 0.761061 0.140306 0.370851
Si Si5 0.982314 0.657867 0.265316
O O1 0.000000 0.250000 0.975769
O O2 0.028975 0.385897 0.890106
O O3 0.250000 0.319575 0.000000
O O4 0.024281 0.374727 0.108458
O O5 0.927405 0.645239 0.823527
O O6 0.782653 0.769287 0.856739
O O7 0.671187 0.637331 0.778098
O O8 0.750000 0.651205 0.000000
O O9 0.666632 0.085478 0.293014
O O10 0.449797 0.000000 0.250000
O O11 0.750000 0.110460 0.500000
O O12 0.917156 0.124483 0.332312
O O13 0.000000 0.750000 0.273445
#
# Coordination Sequence:
#
# PCOD8165026 Si02
#       5
#     8   8   8   8   8
#     4  11  23  41  69 100 126 163 217 273 322 376
#     4  10  21  41  66  94 122 160 220 273 315 365
#     4  12  26  41  59  91 136 175 204 251 320 396
#     4  10  19  38  68  91 118 161 214 273 312 361
#     4   9  19  35  63  98 120 148 210 272 323 361
#
# _framework density 20.917788999999999
#
# number of rings (size 3 to 8) (size 9 to 14) (size 15 to 20)
#    0.000    1.600    2.000    3.000    5.600    4.000 
#    3.600    1.000    0.000    0.000    0.000    0.000 
#    0.000    0.000    0.000    0.000    0.000    0.000 
#
# Total GULP energy -247913.025102 kJ/mol
# GULP energy per Si atom -12395.651255 kJ/mol
# Density = 2.087018 g / cm^3
# Si number density = 20.917789 Si / 1000 Ang^3
#
#
#
# Elastic Constant Matrix: (Units=GPa)
#
#
# Indices 1 2 3 4 5 6 
#
# 1 80.8045 11.2369 36.7679 0.0000 0.0000 0.0000
# 2 11.2369 43.8483 24.5585 -0.0006 0.0002 0.0002
# 3 36.7679 24.5585 175.5520 -0.0011 0.0003 0.0002
# 4 0.0000 -0.0006 -0.0011 8.2540 0.0002 0.0002
# 5 0.0000 0.0002 0.0003 0.0002 44.3177 0.0000
# 6 0.0000 0.0002 0.0002 0.0002 0.0000 8.1425
#
#
#
# Elastic Compliance Matrix: (Units=1/GPa)
#
#
# Indices 1 2 3 4 5 6 
#
# 1 0.013853 -0.002089 -0.002609 0.000000 0.000000 0.000000
# 2 -0.002089 0.025060 -0.003068 0.000001 0.000000 0.000000
# 3 -0.002609 -0.003068 0.006672 0.000001 0.000000 0.000000
# 4 0.000000 0.000001 0.000001 0.121154 -0.000001 -0.000003
# 5 0.000000 0.000000 0.000000 -0.000001 0.022564 0.000000
# 6 0.000000 0.000000 0.000000 -0.000003 0.000000 0.122813
#
#
# Mechanical properties :
#
#
# Convention : Reuss Voigt Hill
#
# Bulk Modulus (GPa) = 33.27507 49.48127 41.37817
# Shear Modulus (GPa) = 14.80752 27.31893 21.06322
#
# Velocity S-wave (km/s) = 2.66351 3.61780 3.17669
# Velocity P-wave (km/s) = 5.03995 6.41543 5.76883
#
# Compressibility (1/GPa) = 0.03005253
#
# Stress axis : x y z
#
# Youngs Moduli (GPa) = 72.18506 39.90480 149.87960
#
# Poissons Ratio (x) = 0.08335 0.39107
# Poissons Ratio (y) = 0.15078 0.45986
# Poissons Ratio (z) = 0.18835 0.12244
#
# Static dielectric constant tensor:
#      x y z
#    x 3.988780 0.000000 0.000000 
#    y 0.000000 3.333400 0.000000 
#    z 0.000000 0.000000 4.208300 
# 
# 
# High freq. dielectric constant tensor:
#      x y z
#    x 1.829380 0.000000 0.000000 
#    y 0.000000 1.771260 0.000000 
#    z 0.000000 0.000000 1.842750 
# 
# From -- ./inp_files/10678.got.cif
#   From: 2010.03.12/outbox.cif.g09.slc.cpg/sg24_6_cif.got.tgz:10678.got - 2010.04.14 03:06:53.
