data_PCOD8165623
_publ_section_title
;
Structure prediction by ZEFSAII (Michael W. Deem and Ramdas Pophale) SiO2 
 PCOD8165623
Probable space group: I 21 21 21
;
_chemical_formula_sum "Si O2"
_cell_formula_units_Z 64
_cell_length_a 22.971794
_cell_length_b 14.025325
_cell_length_c 9.415983
_cell_angle_alpha 90.000000
_cell_angle_beta 90.000000
_cell_angle_gamma 90.000000
_cell_volume 3033.706154
_symmetry_space_group_name_H-M "I 21 21 21"
_symmetry_group_IT_number 24
_symmetry_cell_setting 'orthorhombic'
loop_
_space_group_symop_operation_xyz
x,y,z
-x,1/2-y,z
x,-y,1/2-z
1/2-x,y,-z
1/2+x,1/2+y,1/2+z
1/2-x,-y,1/2+z
1/2+x,1/2-y,-z
-x,1/2+y,1/2-z
loop_
_atom_site_type_symbol
_atom_site_label
_atom_site_fract_x
_atom_site_fract_y
_atom_site_fract_z
Si Si1 0.938607 0.790457 0.202331
Si Si2 0.291053 0.418484 0.864733
Si Si3 0.462219 0.434689 0.488365
Si Si4 0.890606 0.796371 0.789683
Si Si5 0.088773 0.368173 0.010964
Si Si6 0.591454 0.637951 0.999167
Si Si7 0.707357 0.436714 0.612090
Si Si8 0.243604 0.726900 0.842138
O O1 0.934381 0.795086 0.370688
O O2 0.895690 0.714676 0.128383
O O3 0.000000 0.750000 0.151128
O O4 0.932233 0.895743 0.133563
O O5 0.278476 0.500000 0.750000
O O6 0.354885 0.422091 0.930074
O O7 0.284644 0.319971 0.777510
O O8 0.250000 0.428089 0.000000
O O9 0.428650 0.381186 0.360446
O O10 0.456245 0.547919 0.474034
O O11 0.531658 0.420058 0.499342
O O12 0.902519 0.800072 0.622601
O O13 0.821673 0.803825 0.804230
O O14 0.909399 0.694173 0.851393
O O15 0.646805 0.570576 0.975608
O O16 0.696495 0.500000 0.750000
O O17 0.750000 0.489651 0.500000
O O18 0.739939 0.338439 0.656133
O O19 0.250000 0.683412 0.000000
#
# Coordination Sequence:
#
# PCOD8165623 Si02
#       8
#     8   8   8   8   8   8   8   8
#     4   9  20  38  63  92 125 171 221 265 328 392
#     4  12  26  39  60  99 139 182 225 268 323 402
#     4  10  23  40  66  92 130 181 220 269 329 404
#     4  11  22  41  67  94 128 177 222 263 335 412
#     4  12  24  38  60  99 138 162 219 278 330 383
#     4  10  21  46  70  91 125 181 225 268 337 409
#     4  11  24  45  72 100 130 171 226 285 343 398
#     4  11  23  44  72  93 134 183 224 272 343 398
#
# _framework density 21.096308000000001
#
# number of rings (size 3 to 8) (size 9 to 14) (size 15 to 20)
#    0.000    1.250    3.750    3.750    5.250    3.500 
#    2.250    1.250    0.000    0.000    0.000    0.000 
#    0.000    0.000    0.000    0.000    0.000    0.000 
#
# Total GULP energy -396578.215131 kJ/mol
# GULP energy per Si atom -12393.069223 kJ/mol
# Density = 2.104829 g / cm^3
# Si number density = 21.096308 Si / 1000 Ang^3
#
#
#
# Elastic Constant Matrix: (Units=GPa)
#
#
# Indices 1 2 3 4 5 6 
#
# 1 100.4353 35.2724 32.0397 0.0000 0.0000 0.0000
# 2 35.2724 64.1208 43.5485 0.0000 0.0000 0.0000
# 3 32.0397 43.5485 158.7692 0.0000 0.0000 0.0000
# 4 0.0000 0.0000 0.0000 19.9942 0.0000 0.0000
# 5 0.0000 0.0000 0.0000 0.0000 29.3206 0.0000
# 6 0.0000 0.0000 0.0000 0.0000 0.0000 4.2067
#
#
#
# Elastic Compliance Matrix: (Units=1/GPa)
#
#
# Indices 1 2 3 4 5 6 
#
# 1 0.012418 -0.006303 -0.000777 0.000000 0.000000 0.000000
# 2 -0.006303 0.022366 -0.004863 0.000000 0.000000 0.000000
# 3 -0.000777 -0.004863 0.007789 0.000000 0.000000 0.000000
# 4 0.000000 0.000000 0.000000 0.050014 0.000000 0.000000
# 5 0.000000 0.000000 0.000000 0.000000 0.034106 0.000000
# 6 0.000000 0.000000 0.000000 0.000000 0.000000 0.237715
#
#
# Mechanical properties :
#
#
# Convention : Reuss Voigt Hill
#
# Bulk Modulus (GPa) = 53.51410 60.56073 57.03741
# Shear Modulus (GPa) = 12.67355 24.86862 18.77109
#
# Velocity S-wave (km/s) = 2.45367 3.43711 2.98616
# Velocity P-wave (km/s) = 5.78351 6.67239 6.24379
#
# Compressibility (1/GPa) = 0.01868666
#
# Stress axis : x y z
#
# Youngs Moduli (GPa) = 80.52638 44.71170 128.38624
#
# Poissons Ratio (x) = 0.28184 0.09976
# Poissons Ratio (y) = 0.50760 0.62428
# Poissons Ratio (z) = 0.06257 0.21741
#
# Static dielectric constant tensor:
#      x y z
#    x 3.963060 0.000000 0.000000 
#    y 0.000000 3.518630 0.000000 
#    z 0.000000 0.000000 5.205680 
# 
# 
# High freq. dielectric constant tensor:
#      x y z
#    x 1.841030 0.000000 0.000000 
#    y 0.000000 1.802110 0.000000 
#    z 0.000000 0.000000 1.835470 
# 
# From -- ./inp_files/16060.got.cif
#   From: 2010.03.12/outbox.cif.g09.slc.cpg/sg24_9_cif.got.tgz:16060.got - 2010.04.14 03:06:53.
