data_PCOD8165972
_publ_section_title
;
Structure prediction by ZEFSAII (Michael W. Deem and Ramdas Pophale) SiO2 
 PCOD8165972
Probable space group: I 21 21 21
;
_chemical_formula_sum "Si O2"
_cell_formula_units_Z 52
_cell_length_a 14.641067
_cell_length_b 7.641552
_cell_length_c 21.874643
_cell_angle_alpha 90.000000
_cell_angle_beta 90.000000
_cell_angle_gamma 90.000000
_cell_volume 2447.345445
_symmetry_space_group_name_H-M "I 21 21 21"
_symmetry_group_IT_number 24
_symmetry_cell_setting 'orthorhombic'
loop_
_space_group_symop_operation_xyz
x,y,z
-x,1/2-y,z
x,-y,1/2-z
1/2-x,y,-z
1/2+x,1/2+y,1/2+z
1/2-x,-y,1/2+z
1/2+x,1/2-y,-z
-x,1/2+y,1/2-z
loop_
_atom_site_type_symbol
_atom_site_label
_atom_site_fract_x
_atom_site_fract_y
_atom_site_fract_z
Si Si1 0.214170 0.380212 0.879513
Si Si2 0.982502 0.046379 0.889541
Si Si3 0.048570 0.936525 0.476847
Si Si4 0.841589 0.888098 0.192532
Si Si5 0.679054 0.700537 0.258744
Si Si6 0.000000 0.750000 0.801568
Si Si7 0.500000 0.250000 0.613577
Si Si8 0.250000 0.826848 0.500000
O O1 0.124509 0.501212 0.883820
O O2 0.302897 0.489877 0.861531
O O3 0.199996 0.229663 0.829549
O O4 0.222881 0.295513 0.944871
O O5 0.000000 0.250000 0.873434
O O6 0.032390 0.916737 0.842276
O O7 0.015874 0.999716 0.957186
O O8 0.159778 0.934543 0.479283
O O9 0.000000 0.750000 0.460622
O O10 0.016995 0.077616 0.426808
O O11 0.761097 0.766709 0.216873
O O12 0.916815 0.770899 0.160404
O O13 0.881222 0.000000 0.250000
O O14 0.662829 0.500000 0.250000
O O15 0.586237 0.802732 0.240441
#
# Coordination Sequence:
#
# PCOD8165972 Si02
#       8
#     8   8   8   8   8   4   4   4
#     4  11  23  46  70  97 142 184 229 283 350 410
#     4  11  22  43  67  99 150 180 226 275 336 422
#     4  11  25  46  71 108 141 184 238 282 347 416
#     4  10  25  49  70 101 132 183 235 294 353 413
#     4  11  26  40  68 105 139 179 234 284 345 427
#     4  12  25  38  70 106 143 192 212 282 354 418
#     4  12  27  50  74 102 139 180 242 302 342 412
#     4  12  24  44  78  98 142 192 224 294 348 406
#
# _framework density 21.247510999999999
#
# number of rings (size 3 to 8) (size 9 to 14) (size 15 to 20)
#    0.000    0.923    4.615    2.308    5.385    0.615 
#    6.923    0.000    0.000    0.000    0.000    0.000 
#    0.000    0.000    0.000    0.000    0.000    0.000 
#
# Total GULP energy -322371.779245 kJ/mol
# GULP energy per Si atom -12398.914586 kJ/mol
# Density = 2.119915 g / cm^3
# Si number density = 21.247511 Si / 1000 Ang^3
#
#
#
# Elastic Constant Matrix: (Units=GPa)
#
#
# Indices 1 2 3 4 5 6 
#
# 1 127.9510 31.2373 45.4538 0.0000 0.0000 0.0000
# 2 31.2373 87.0638 45.3496 0.0000 0.0000 0.0000
# 3 45.4538 45.3496 109.7377 0.0000 0.0000 0.0000
# 4 0.0000 0.0000 0.0000 -85.5402 0.0000 0.0000
# 5 0.0000 0.0000 0.0000 0.0000 10.3936 0.0000
# 6 0.0000 0.0000 0.0000 0.0000 0.0000 20.1511
#
#
#
# Elastic Compliance Matrix: (Units=1/GPa)
#
#
# Indices 1 2 3 4 5 6 
#
# 1 0.009359 -0.001706 -0.003171 0.000000 0.000000 0.000000
# 2 -0.001706 0.014947 -0.005471 0.000000 0.000000 0.000000
# 3 -0.003171 -0.005471 0.012687 0.000000 0.000000 0.000000
# 4 0.000000 0.000000 0.000000 -0.011690 0.000000 0.000000
# 5 0.000000 0.000000 0.000000 0.000000 0.096213 0.000000
# 6 0.000000 0.000000 0.000000 0.000000 0.000000 0.049625
#
#
# Mechanical properties :
#
#
# Convention : Reuss Voigt Hill
#
# Bulk Modulus (GPa) = 61.35948 63.20375 62.28162
# Shear Modulus (GPa) = 25.34619 2.51503 13.93061
#
# Velocity S-wave (km/s) = 3.45759 1.08915 2.56331
# Velocity P-wave (km/s) = 6.69933 5.60292 6.17550
#
# Compressibility (1/GPa) = 0.01629740
#
# Stress axis : x y z
#
# Youngs Moduli (GPa) = 106.85398 66.90164 78.82103
#
# Poissons Ratio (x) = 0.11412 0.24998
# Poissons Ratio (y) = 0.18227 0.43119
# Poissons Ratio (z) = 0.33888 0.36599
#
# Static dielectric constant tensor:
#      x y z
#    x 4.116870 0.000000 0.000000 
#    y 0.000000 3.729910 0.000000 
#    z 0.000000 0.000000 3.997330 
# 
# 
# High freq. dielectric constant tensor:
#      x y z
#    x 1.841360 0.000000 0.000000 
#    y 0.000000 1.821580 0.000000 
#    z 0.000000 0.000000 1.851870 
# 
# From -- ./inp_files/33732.got.cif
#   From: 2010.03.12/outbox.cif.g09.slc.cpg/sg24_17_cif.got.tgz:33732.got - 2010.04.14 03:06:53.
