data_PCOD8165006
_publ_section_title
;
Structure prediction by ZEFSAII (Michael W. Deem and Ramdas Pophale) SiO2 
 PCOD8165006
Probable space group: I 21 21 21
;
_chemical_formula_sum "Si O2"
_cell_formula_units_Z 48
_cell_length_a 17.156751
_cell_length_b 9.172957
_cell_length_c 16.349335
_cell_angle_alpha 90.000000
_cell_angle_beta 90.000000
_cell_angle_gamma 90.000000
_cell_volume 2573.027919
_symmetry_space_group_name_H-M "I 21 21 21"
_symmetry_group_IT_number 24
_symmetry_cell_setting 'orthorhombic'
loop_
_space_group_symop_operation_xyz
x,y,z
-x,1/2-y,z
x,-y,1/2-z
1/2-x,y,-z
1/2+x,1/2+y,1/2+z
1/2-x,-y,1/2+z
1/2+x,1/2-y,-z
-x,1/2+y,1/2-z
loop_
_atom_site_type_symbol
_atom_site_label
_atom_site_fract_x
_atom_site_fract_y
_atom_site_fract_z
Si Si1 0.192113 0.461344 0.839993
Si Si2 0.639926 0.966477 0.608253
Si Si3 0.110865 0.355645 0.534843
Si Si4 0.662308 0.731645 0.473827
Si Si5 0.559445 0.454528 0.494001
Si Si6 0.485658 0.079375 0.673503
O O1 0.158916 0.500000 0.750000
O O2 0.285259 0.446796 0.834638
O O3 0.167044 0.600261 0.892246
O O4 0.160348 0.316097 0.886137
O O5 0.628009 0.831050 0.546286
O O6 0.651883 0.110511 0.552014
O O7 0.565566 0.987201 0.665572
O O8 0.100064 0.184822 0.545864
O O9 0.030334 0.450599 0.534989
O O10 0.750000 0.684724 0.500000
O O11 0.605208 0.595052 0.462130
O O12 0.565626 0.441216 0.592349
O O13 0.500000 0.250000 0.689974
O O14 0.442316 0.000000 0.750000
#
# Coordination Sequence:
#
# PCOD8165006 Si02
#       6
#     8   8   8   8   8   8
#     4  10  20  36  55  80 107 142 192 236 276 326
#     4   9  18  36  56  77 110 149 183 215 275 344
#     4   9  18  35  58  77 104 150 184 217 281 337
#     4   9  20  35  58  85 106 147 192 224 274 336
#     4  10  19  38  54  79 114 142 188 227 266 340
#     4  11  22  35  54  87 117 146 178 223 279 333
#
# _framework density 18.655065
#
# number of rings (size 3 to 8) (size 9 to 14) (size 15 to 20)
#    0.000    2.333    3.333    2.000    2.333    6.667 
#    0.000    4.167    0.000    0.000    0.000    0.000 
#    0.000    0.000    0.000    0.000    0.000    0.000 
#
# Total GULP energy -297396.849303 kJ/mol
# GULP energy per Si atom -12391.535388 kJ/mol
# Density = 1.861261 g / cm^3
# Si number density = 18.655065 Si / 1000 Ang^3
#
#
#
# Elastic Constant Matrix: (Units=GPa)
#
#
# Indices 1 2 3 4 5 6 
#
# 1 48.9768 50.1307 14.2996 0.0000 0.0000 0.0000
# 2 50.1307 114.6519 25.8213 0.0000 0.0000 0.0000
# 3 14.2996 25.8213 77.9122 0.0000 0.0000 0.0000
# 4 0.0000 0.0000 0.0000 18.6952 0.0000 0.0000
# 5 0.0000 0.0000 0.0000 0.0000 20.1564 0.0000
# 6 0.0000 0.0000 0.0000 0.0000 0.0000 26.5976
#
#
#
# Elastic Compliance Matrix: (Units=1/GPa)
#
#
# Indices 1 2 3 4 5 6 
#
# 1 0.037131 -0.015886 -0.001550 0.000000 0.000000 0.000000
# 2 -0.015886 0.016222 -0.002461 0.000000 0.000000 0.000000
# 3 -0.001550 -0.002461 0.013935 0.000000 0.000000 0.000000
# 4 0.000000 0.000000 0.000000 0.053490 0.000000 0.000000
# 5 0.000000 0.000000 0.000000 0.000000 0.049612 0.000000
# 6 0.000000 0.000000 0.000000 0.000000 0.000000 0.037597
#
#
# Mechanical properties :
#
#
# Convention : Reuss Voigt Hill
#
# Bulk Modulus (GPa) = 36.37073 46.89379 41.63226
# Shear Modulus (GPa) = 19.45942 23.17579 21.31761
#
# Velocity S-wave (km/s) = 3.23324 3.52850 3.38409
# Velocity P-wave (km/s) = 5.78595 6.46469 6.13471
#
# Compressibility (1/GPa) = 0.02749464
#
# Stress axis : x y z
#
# Youngs Moduli (GPa) = 26.93195 61.64363 71.76209
#
# Poissons Ratio (x) = 0.97927 0.11122
# Poissons Ratio (y) = 0.42784 0.17658
# Poissons Ratio (z) = 0.04174 0.15168
#
# Static dielectric constant tensor:
#      x y z
#    x 3.394660 0.000000 0.000000 
#    y 0.000000 3.341670 0.000000 
#    z 0.000000 0.000000 3.360620 
# 
# 
# High freq. dielectric constant tensor:
#      x y z
#    x 1.711790 0.000000 0.000000 
#    y 0.000000 1.719000 0.000000 
#    z 0.000000 0.000000 1.710410 
# 
# From -- ./inp_files/14161.got.cif
#   From: 2010.03.12/outbox.cif.g09.slc.cpg/sg24_8_cif.got.tgz:14161.got - 2010.04.14 03:06:53.
