data_PCOD8165429
_publ_section_title
;
Structure prediction by ZEFSAII (Michael W. Deem and Ramdas Pophale) SiO2 
 PCOD8165429
Probable space group: I 21 21 21
;
_chemical_formula_sum "Si O2"
_cell_formula_units_Z 64
_cell_length_a 12.915587
_cell_length_b 18.182454
_cell_length_c 13.615314
_cell_angle_alpha 90.000000
_cell_angle_beta 90.000000
_cell_angle_gamma 90.000000
_cell_volume 3197.380399
_symmetry_space_group_name_H-M "I 21 21 21"
_symmetry_group_IT_number 24
_symmetry_cell_setting 'orthorhombic'
loop_
_space_group_symop_operation_xyz
x,y,z
-x,1/2-y,z
x,-y,1/2-z
1/2-x,y,-z
1/2+x,1/2+y,1/2+z
1/2-x,-y,1/2+z
1/2+x,1/2-y,-z
-x,1/2+y,1/2-z
loop_
_atom_site_type_symbol
_atom_site_label
_atom_site_fract_x
_atom_site_fract_y
_atom_site_fract_z
Si Si1 0.250001 0.257510 0.883439
Si Si2 0.474574 0.551707 0.384520
Si Si3 0.568881 0.683538 0.270303
Si Si4 0.866749 0.572993 0.887203
Si Si5 0.866749 0.427006 0.387202
Si Si6 0.974573 0.051707 0.115481
Si Si7 0.750000 0.077610 0.114733
Si Si8 0.931119 0.683538 0.270303
O O1 0.150790 0.213875 0.846935
O O2 0.250000 0.340307 0.838993
O O3 0.349213 0.213876 0.846937
O O4 0.250000 0.256221 0.000000
O O5 0.498658 0.626698 0.329506
O O6 0.550776 0.487053 0.348298
O O7 0.489771 0.564570 0.500001
O O8 0.354426 0.532210 0.357364
O O9 0.500000 0.750000 0.228899
O O10 0.622750 0.646528 0.176262
O O11 0.750000 0.541043 0.875521
O O12 0.889618 0.593563 0.000000
O O13 0.877248 0.353471 0.323737
O O14 0.949224 0.487053 0.348297
O O15 0.854425 0.032210 0.142637
O O16 0.998657 0.126698 0.170496
O O17 0.750000 0.091586 0.000000
O O18 0.000000 0.750000 0.228897
#
# Coordination Sequence:
#
# PCOD8165429 Si02
#       8
#     8   8   8   8   8   8   8   8
#     4  11  22  36  57  91 129 156 185 238 305 369
#     4  10  21  37  60  91 123 159 196 244 302 359
#     4  12  23  37  61  91 121 156 200 243 300 360
#     4  10  23  43  63  85 117 159 208 254 292 339
#     4  10  23  43  63  85 117 159 208 254 292 339
#     4  10  21  37  60  91 123 159 196 244 302 359
#     4   9  18  36  58  86 126 157 186 232 299 369
#     4  12  23  37  61  91 121 156 200 243 300 360
#
# _framework density 20.016385
#
# number of rings (size 3 to 8) (size 9 to 14) (size 15 to 20)
#    0.000    1.500    3.750    1.500    1.750    2.500 
#    0.000    3.750    0.000    0.000    0.000    0.000 
#    0.000    0.000    0.000    0.000    0.000    0.000 
#
# Total GULP energy -396766.166246 kJ/mol
# GULP energy per Si atom -12398.942695 kJ/mol
# Density = 1.997083 g / cm^3
# Si number density = 20.016385 Si / 1000 Ang^3
#
#
#
# Elastic Constant Matrix: (Units=GPa)
#
#
# Indices 1 2 3 4 5 6 
#
# 1 168.2116 61.5798 34.8381 0.0000 0.0000 0.0000
# 2 61.5798 102.0648 40.6952 0.0000 -0.0001 0.0000
# 3 34.8381 40.6952 68.2367 0.0002 -0.0001 0.0000
# 4 0.0000 0.0000 0.0002 28.9286 -0.0001 0.0000
# 5 0.0000 -0.0001 -0.0001 -0.0001 11.3067 0.0000
# 6 0.0000 0.0000 0.0000 0.0000 0.0000 36.7431
#
#
#
# Elastic Compliance Matrix: (Units=1/GPa)
#
#
# Indices 1 2 3 4 5 6 
#
# 1 0.007750 -0.004065 -0.001533 0.000000 0.000000 0.000000
# 2 -0.004065 0.014986 -0.006862 0.000000 0.000000 0.000000
# 3 -0.001533 -0.006862 0.019530 0.000000 0.000000 0.000000
# 4 0.000000 0.000000 0.000000 0.034568 0.000000 0.000000
# 5 0.000000 0.000000 0.000000 0.000000 0.088443 0.000000
# 6 0.000000 0.000000 0.000000 0.000000 0.000000 0.027216
#
#
# Mechanical properties :
#
#
# Convention : Reuss Voigt Hill
#
# Bulk Modulus (GPa) = 57.64731 68.08215 62.86473
# Shear Modulus (GPa) = 22.40180 28.82234 25.61207
#
# Velocity S-wave (km/s) = 3.34903 3.79877 3.58097
# Velocity P-wave (km/s) = 6.61946 7.30260 6.96940
#
# Compressibility (1/GPa) = 0.01734686
#
# Stress axis : x y z
#
# Youngs Moduli (GPa) = 129.02416 66.72699 51.20364
#
# Poissons Ratio (x) = 0.27125 0.07848
# Poissons Ratio (y) = 0.52449 0.35137
# Poissons Ratio (z) = 0.19775 0.45790
#
# Static dielectric constant tensor:
#      x y z
#    x 4.566260 0.000000 0.000000 
#    y 0.000000 3.536300 0.000000 
#    z 0.000000 0.000000 3.516740 
# 
# 
# High freq. dielectric constant tensor:
#      x y z
#    x 1.801090 0.000000 0.000000 
#    y 0.000000 1.765290 0.000000 
#    z 0.000000 0.000000 1.777190 
# 
# From -- ./inp_files/25999.got.cif
#   From: 2010.03.12/outbox.cif.g09.slc.cpg/sg24_13_cif.got.tgz:25999.got - 2010.04.14 03:06:53.
