data_PCOD8165811
_publ_section_title
;
Structure prediction by ZEFSAII (Michael W. Deem and Ramdas Pophale) SiO2 
 PCOD8165811
Probable space group: I 21 21 21
;
_chemical_formula_sum "Si O2"
_cell_formula_units_Z 20
_cell_length_a 9.108478
_cell_length_b 7.388285
_cell_length_c 9.538319
_cell_angle_alpha 90.000000
_cell_angle_beta 90.000000
_cell_angle_gamma 90.000000
_cell_volume 641.891015
_symmetry_space_group_name_H-M "I 21 21 21"
_symmetry_group_IT_number 24
_symmetry_cell_setting 'orthorhombic'
loop_
_space_group_symop_operation_xyz
x,y,z
-x,1/2-y,z
x,-y,1/2-z
1/2-x,y,-z
1/2+x,1/2+y,1/2+z
1/2-x,-y,1/2+z
1/2+x,1/2-y,-z
-x,1/2+y,1/2-z
loop_
_atom_site_type_symbol
_atom_site_label
_atom_site_fract_x
_atom_site_fract_y
_atom_site_fract_z
Si Si1 0.812611 0.782082 0.203879
Si Si2 0.960563 0.467187 0.070653
Si Si3 0.500000 0.750000 0.307834
O O1 0.849829 0.633392 0.086371
O O2 0.887128 0.709037 0.350068
O O3 0.638078 0.800413 0.211617
O O4 0.881199 0.972304 0.140866
O O5 0.968675 0.424200 0.906050
#
# Coordination Sequence:
#
# PCOD8165811 Si02
#       3
#     8   8   4
#     4  10  23  47  74 108 152 189 245 311 359 439
#     4  10  22  47  74 106 154 189 237 315 366 432
#     4  12  24  48  82 106 142 204 244 296 382 430
#
# _framework density 31.157941000000001
#
# number of rings (size 3 to 8) (size 9 to 14) (size 15 to 20)
#    0.000    1.600    0.000    6.000    0.000    0.000 
#    0.000   68.000    0.000    4.800    0.000    0.000 
#    0.000    0.000    0.000    0.000    0.000    0.000 
#
# Total GULP energy -123936.160084 kJ/mol
# GULP energy per Si atom -12393.616008 kJ/mol
# Density = 3.108702 g / cm^3
# Si number density = 31.157941 Si / 1000 Ang^3
#
#
#
# Elastic Constant Matrix: (Units=GPa)
#
#
# Indices 1 2 3 4 5 6 
#
# 1 297.0452 82.2015 66.4029 0.0000 0.0000 0.0000
# 2 82.2015 245.7193 34.0367 0.0000 0.0000 0.0000
# 3 66.4029 34.0367 88.2519 0.0000 0.0000 0.0000
# 4 0.0000 0.0000 0.0000 39.7130 0.0000 0.0000
# 5 0.0000 0.0000 0.0000 0.0000 30.6573 0.0000
# 6 0.0000 0.0000 0.0000 0.0000 0.0000 18.4880
#
#
#
# Elastic Compliance Matrix: (Units=1/GPa)
#
#
# Indices 1 2 3 4 5 6 
#
# 1 0.004286 -0.001043 -0.002823 0.000000 0.000000 0.000000
# 2 -0.001043 0.004553 -0.000971 0.000000 0.000000 0.000000
# 3 -0.002823 -0.000971 0.013830 0.000000 0.000000 0.000000
# 4 0.000000 0.000000 0.000000 0.025181 0.000000 0.000000
# 5 0.000000 0.000000 0.000000 0.000000 0.032619 0.000000
# 6 0.000000 0.000000 0.000000 0.000000 0.000000 0.054089
#
#
# Mechanical properties :
#
#
# Convention : Reuss Voigt Hill
#
# Bulk Modulus (GPa) = 76.95265 110.69984 93.82625
# Shear Modulus (GPa) = 33.65577 47.66335 40.65956
#
# Velocity S-wave (km/s) = 3.29015 3.91542 3.61633
# Velocity P-wave (km/s) = 6.25977 7.48642 6.90041
#
# Compressibility (1/GPa) = 0.01299500
#
# Stress axis : x y z
#
# Youngs Moduli (GPa) = 233.31292 219.63045 72.30790
#
# Poissons Ratio (x) = 0.22904 0.20411
# Poissons Ratio (y) = 0.24331 0.07024
# Poissons Ratio (z) = 0.65859 0.21334
#
# Static dielectric constant tensor:
#      x y z
#    x 5.697060 0.000000 0.000000 
#    y 0.000000 6.653260 0.000000 
#    z 0.000000 0.000000 5.185160 
# 
# 
# High freq. dielectric constant tensor:
#      x y z
#    x 2.278480 0.000000 0.000000 
#    y 0.000000 2.337810 0.000000 
#    z 0.000000 0.000000 2.269720 
# 
# From -- ./inp_files/17844.got.cif
#   From: 2010.03.12/outbox.cif.g09.slc.cpg/sg24_9_cif.got.tgz:17844.got - 2010.04.14 03:06:53.
