data_PCOD8165390
_publ_section_title
;
Structure prediction by ZEFSAII (Michael W. Deem and Ramdas Pophale) SiO2 
 PCOD8165390
Probable space group: I 21 21 21
;
_chemical_formula_sum "Si O2"
_cell_formula_units_Z 64
_cell_length_a 17.667397
_cell_length_b 8.931203
_cell_length_c 21.810452
_cell_angle_alpha 90.000000
_cell_angle_beta 90.000000
_cell_angle_gamma 90.000000
_cell_volume 3441.495411
_symmetry_space_group_name_H-M "I 21 21 21"
_symmetry_group_IT_number 24
_symmetry_cell_setting 'orthorhombic'
loop_
_space_group_symop_operation_xyz
x,y,z
-x,1/2-y,z
x,-y,1/2-z
1/2-x,y,-z
1/2+x,1/2+y,1/2+z
1/2-x,-y,1/2+z
1/2+x,1/2-y,-z
-x,1/2+y,1/2-z
loop_
_atom_site_type_symbol
_atom_site_label
_atom_site_fract_x
_atom_site_fract_y
_atom_site_fract_z
Si Si1 0.419683 0.185109 0.372127
Si Si2 0.421508 0.169659 0.115319
Si Si3 0.708306 0.163842 0.768167
Si Si4 0.442109 0.378518 0.702390
Si Si5 0.165480 0.335053 0.986012
Si Si6 0.712353 0.859563 0.062108
Si Si7 0.845420 0.957634 0.387218
Si Si8 0.641711 0.324967 0.244496
O O1 0.500000 0.250000 0.395565
O O2 0.345737 0.239764 0.409629
O O3 0.406668 0.239548 0.301677
O O4 0.426657 0.007935 0.380055
O O5 0.500000 0.250000 0.103688
O O6 0.372569 0.208117 0.055182
O O7 0.388669 0.235704 0.179263
O O8 0.632108 0.199256 0.730956
O O9 0.770340 0.284647 0.749879
O O10 0.739298 0.000000 0.750000
O O11 0.689697 0.165262 0.840658
O O12 0.500000 0.250000 0.685159
O O13 0.476635 0.500000 0.750000
O O14 0.420338 0.465208 0.640218
O O15 0.163542 0.491306 0.949790
O O16 0.250000 0.280298 0.000000
O O17 0.127536 0.368525 0.052139
O O18 0.782977 0.910105 0.104239
O O19 0.750000 0.793203 0.000000
O O20 0.635062 0.500000 0.250000
#
# Coordination Sequence:
#
# PCOD8165390 Si02
#       8
#     8   8   8   8   8   8   8   8
#     4  11  22  36  55  79 109 141 177 220 267 321
#     4  11  23  37  53  78 111 141 175 221 272 319
#     4   9  17  31  55  80 105 138 177 215 261 320
#     4   9  18  32  51  78 112 143 177 222 271 318
#     4   9  18  35  58  78 104 139 178 220 264 318
#     4   9  18  35  57  78 104 137 175 216 260 312
#     4   8  16  33  57  79 100 139 185 218 259 320
#     4  10  21  35  53  80 108 136 174 220 268 322
#
# _framework density 18.596568000000001
#
# number of rings (size 3 to 8) (size 9 to 14) (size 15 to 20)
#    0.000    3.000    0.000    4.125    0.000    2.000 
#    0.000    7.500    0.000    3.000    0.000    0.000 
#    0.000    0.000    0.000    0.000    0.000    0.000 
#
# Total GULP energy -396533.776451 kJ/mol
# GULP energy per Si atom -12391.680514 kJ/mol
# Density = 1.855424 g / cm^3
# Si number density = 18.596568 Si / 1000 Ang^3
#
#
#
# Elastic Constant Matrix: (Units=GPa)
#
#
# Indices 1 2 3 4 5 6 
#
# 1 85.8309 36.7483 48.1247 0.0000 0.0000 0.0000
# 2 36.7483 53.7737 41.4921 0.0000 0.0000 0.0000
# 3 48.1247 41.4921 130.8916 0.0000 0.0000 0.0000
# 4 0.0000 0.0000 0.0000 24.4639 0.0000 0.0000
# 5 0.0000 0.0000 0.0000 0.0000 16.3135 0.0000
# 6 0.0000 0.0000 0.0000 0.0000 0.0000 31.6931
#
#
#
# Elastic Compliance Matrix: (Units=1/GPa)
#
#
# Indices 1 2 3 4 5 6 
#
# 1 0.017617 -0.009321 -0.003522 0.000000 0.000000 0.000000
# 2 -0.009321 0.029550 -0.005940 0.000000 0.000000 0.000000
# 3 -0.003522 -0.005940 0.010818 0.000000 0.000000 0.000000
# 4 0.000000 0.000000 0.000000 0.040877 0.000000 0.000000
# 5 0.000000 0.000000 0.000000 0.000000 0.061299 0.000000
# 6 0.000000 0.000000 0.000000 0.000000 0.000000 0.031553
#
#
# Mechanical properties :
#
#
# Convention : Reuss Voigt Hill
#
# Bulk Modulus (GPa) = 48.97812 58.13626 53.55719
# Shear Modulus (GPa) = 21.17883 24.10285 22.64084
#
# Velocity S-wave (km/s) = 3.37836 3.60403 3.49302
# Velocity P-wave (km/s) = 6.45074 6.97484 6.71791
#
# Compressibility (1/GPa) = 0.02041728
#
# Stress axis : x y z
#
# Youngs Moduli (GPa) = 56.76482 33.84128 92.43918
#
# Poissons Ratio (x) = 0.31544 0.32560
# Poissons Ratio (y) = 0.52911 0.54909
# Poissons Ratio (z) = 0.19994 0.20102
#
# Static dielectric constant tensor:
#      x y z
#    x 3.263350 0.000000 0.000000 
#    y 0.000000 3.135510 0.000000 
#    z 0.000000 0.000000 3.732370 
# 
# 
# High freq. dielectric constant tensor:
#      x y z
#    x 1.712050 0.000000 0.000000 
#    y 0.000000 1.695630 0.000000 
#    z 0.000000 0.000000 1.735450 
# 
# From -- ./inp_files/36013.got.cif
#   From: 2010.03.12/outbox.cif.g09.slc.cpg/sg24_19_cif.got.tgz:36013.got - 2010.04.14 03:06:53.
