data_PCOD8165286
_publ_section_title
;
Structure prediction by ZEFSAII (Michael W. Deem and Ramdas Pophale) SiO2 
 PCOD8165286
Probable space group: I 21 21 21
;
_chemical_formula_sum "Si O2"
_cell_formula_units_Z 64
_cell_length_a 13.854217
_cell_length_b 23.774967
_cell_length_c 9.110976
_cell_angle_alpha 90.000000
_cell_angle_beta 90.000000
_cell_angle_gamma 90.000000
_cell_volume 3001.005637
_symmetry_space_group_name_H-M "I 21 21 21"
_symmetry_group_IT_number 24
_symmetry_cell_setting 'orthorhombic'
loop_
_space_group_symop_operation_xyz
x,y,z
-x,1/2-y,z
x,-y,1/2-z
1/2-x,y,-z
1/2+x,1/2+y,1/2+z
1/2-x,-y,1/2+z
1/2+x,1/2-y,-z
-x,1/2+y,1/2-z
loop_
_atom_site_type_symbol
_atom_site_label
_atom_site_fract_x
_atom_site_fract_y
_atom_site_fract_z
Si Si1 0.173154 0.537017 0.608742
Si Si2 0.993142 0.810527 0.681988
Si Si3 0.275885 0.660114 0.340239
Si Si4 0.967661 0.384614 0.359857
Si Si5 0.087682 0.783895 0.990025
Si Si6 0.480992 0.087150 0.976693
Si Si7 0.339300 0.326797 0.573561
Si Si8 0.153553 0.989873 0.082404
O O1 0.146114 0.500000 0.750000
O O2 0.250000 0.505751 0.500000
O O3 0.227900 0.592716 0.662357
O O4 0.076406 0.552814 0.519654
O O5 0.036527 0.859780 0.581952
O O6 0.000000 0.750000 0.600182
O O7 0.880796 0.821168 0.719522
O O8 0.057704 0.806480 0.829081
O O9 0.250000 0.684385 0.500000
O O10 0.187482 0.682925 0.243390
O O11 0.887661 0.336579 0.401962
O O12 0.989166 0.389846 0.188402
O O13 0.929974 0.442834 0.427711
O O14 0.064442 0.364442 0.445302
O O15 0.165640 0.734056 0.988822
O O16 0.000000 0.750000 0.067839
O O17 0.388618 0.046404 0.991002
O O18 0.250000 0.361262 0.500000
O O19 0.182498 0.000000 0.250000
O O20 0.250000 0.970488 0.000000
#
# Coordination Sequence:
#
# PCOD8165286 Si02
#       8
#     8   8   8   8   8   8   8   8
#     4  10  22  38  58  90 128 165 203 246 301 372
#     4  10  20  39  60  85 125 164 204 250 300 368
#     4  10  21  37  57  87 124 162 202 250 305 363
#     4  10  21  40  64  89 122 164 205 254 312 367
#     4   9  20  36  56  87 121 161 205 244 296 358
#     4  10  23  41  63  91 122 159 207 258 311 367
#     4  11  21  36  60  93 131 163 200 246 301 373
#     4  10  24  45  65  88 120 158 208 266 314 362
#
# _framework density 21.326184999999999
#
# number of rings (size 3 to 8) (size 9 to 14) (size 15 to 20)
#    0.000    2.000    0.000    4.500    0.000   10.500 
#    0.000    4.375    0.000    0.000    0.000    0.000 
#    0.000    0.000    0.000    0.000    0.000    0.000 
#
# Total GULP energy -396484.817790 kJ/mol
# GULP energy per Si atom -12390.150556 kJ/mol
# Density = 2.127765 g / cm^3
# Si number density = 21.326185 Si / 1000 Ang^3
#
#
#
# Elastic Constant Matrix: (Units=GPa)
#
#
# Indices 1 2 3 4 5 6 
#
# 1 101.9204 47.5525 56.3573 -0.0009 -0.0004 -0.0010
# 2 47.5525 122.0379 68.5882 -0.0025 0.0015 -0.0009
# 3 56.3573 68.5882 125.2665 -0.0103 0.0076 -0.0039
# 4 -0.0009 -0.0025 -0.0103 41.4273 0.0038 -0.0019
# 5 -0.0004 0.0015 0.0076 0.0038 34.8954 0.0015
# 6 -0.0010 -0.0009 -0.0039 -0.0019 0.0015 20.2262
#
#
#
# Elastic Compliance Matrix: (Units=1/GPa)
#
#
# Indices 1 2 3 4 5 6 
#
# 1 0.013649 -0.002697 -0.004664 -0.000001 0.000001 0.000000
# 2 -0.002697 0.012370 -0.005559 -0.000001 0.000001 -0.000001
# 3 -0.004664 -0.005559 0.013125 0.000003 -0.000003 0.000002
# 4 -0.000001 -0.000001 0.000003 0.024139 -0.000003 0.000002
# 5 0.000001 0.000001 -0.000003 -0.000003 0.028657 -0.000002
# 6 0.000000 -0.000001 0.000002 0.000002 -0.000002 0.049441
#
#
# Mechanical properties :
#
#
# Convention : Reuss Voigt Hill
#
# Bulk Modulus (GPa) = 75.17119 77.13564 76.15342
# Shear Modulus (GPa) = 29.12814 31.09157 30.10986
#
# Velocity S-wave (km/s) = 3.69974 3.82240 3.76157
# Velocity P-wave (km/s) = 7.31953 7.46518 7.39272
#
# Compressibility (1/GPa) = 0.01330297
#
# Stress axis : x y z
#
# Youngs Moduli (GPa) = 73.26628 80.84299 76.18923
#
# Poissons Ratio (x) = 0.21805 0.35533
# Poissons Ratio (y) = 0.19761 0.42357
# Poissons Ratio (z) = 0.34170 0.44944
#
# Static dielectric constant tensor:
#      x y z
#    x 3.874310 0.000000 0.000000 
#    y 0.000000 4.091530 0.000000 
#    z 0.000000 0.000000 3.863400 
# 
# 
# High freq. dielectric constant tensor:
#      x y z
#    x 1.828500 0.000000 0.000000 
#    y 0.000000 1.835420 0.000000 
#    z 0.000000 0.000000 1.837940 
# 
# From -- ./inp_files/13361.got.cif
#   From: 2010.03.12/outbox.cif.g09.slc.cpg/sg24_7_cif.got.tgz:13361.got - 2010.04.14 03:06:53.
