data_PCOD8165812
_publ_section_title
;
Structure prediction by ZEFSAII (Michael W. Deem and Ramdas Pophale) SiO2 
 PCOD8165812
Probable space group: I 21 21 21
;
_chemical_formula_sum "Si O2"
_cell_formula_units_Z 28
_cell_length_a 6.406816
_cell_length_b 10.065052
_cell_length_c 18.228545
_cell_angle_alpha 90.000000
_cell_angle_beta 90.000000
_cell_angle_gamma 90.000000
_cell_volume 1175.466561
_symmetry_space_group_name_H-M "I 21 21 21"
_symmetry_group_IT_number 24
_symmetry_cell_setting 'orthorhombic'
loop_
_space_group_symop_operation_xyz
x,y,z
-x,1/2-y,z
x,-y,1/2-z
1/2-x,y,-z
1/2+x,1/2+y,1/2+z
1/2-x,-y,1/2+z
1/2+x,1/2-y,-z
-x,1/2+y,1/2-z
loop_
_atom_site_type_symbol
_atom_site_label
_atom_site_fract_x
_atom_site_fract_y
_atom_site_fract_z
Si Si1 0.750000 0.528707 0.000000
Si Si2 0.242642 0.000000 0.750000
Si Si3 0.857770 0.075425 0.925610
Si Si4 0.500000 0.250000 0.194101
Si Si5 0.513024 0.894483 0.873128
O O1 0.603797 0.620318 0.950731
O O2 0.897804 0.444374 0.944644
O O3 0.392314 0.996244 0.820556
O O4 0.101276 0.866213 0.744393
O O5 0.831562 0.183076 0.860889
O O6 0.747019 0.943422 0.892193
O O7 0.750000 0.127641 0.000000
O O8 0.500000 0.750000 0.835132
#
# Coordination Sequence:
#
# PCOD8165812 Si02
#       5
#     4   4   8   4   8
#     4  10  22  50  72 118 138 200 244 322 376 452
#     4  12  30  48  76 108 156 206 258 304 390 454
#     4  10  25  46  78 110 146 193 255 322 380 447
#     4  12  28  50  74 108 154 202 256 312 382 460
#     4  11  27  45  76 109 152 197 251 310 382 452
#
# _framework density 23.820328
#
# number of rings (size 3 to 8) (size 9 to 14) (size 15 to 20)
#    0.000    1.143    2.857    0.000   16.000    0.000 
#    0.000    0.000    0.000    0.000    0.000    0.000 
#    0.000    0.000    0.000    0.000    0.000    0.000 
#
# Total GULP energy -173491.348693 kJ/mol
# GULP energy per Si atom -12392.239192 kJ/mol
# Density = 2.376611 g / cm^3
# Si number density = 23.820328 Si / 1000 Ang^3
#
#
#
# Elastic Constant Matrix: (Units=GPa)
#
#
# Indices 1 2 3 4 5 6 
#
# 1 131.1227 57.8617 41.5193 0.0000 0.0000 0.0000
# 2 57.8617 123.9841 32.6902 0.0000 0.0000 0.0000
# 3 41.5193 32.6902 90.7850 0.0000 0.0000 0.0000
# 4 0.0000 0.0000 0.0000 42.7496 0.0000 0.0000
# 5 0.0000 0.0000 0.0000 0.0000 43.0160 0.0000
# 6 0.0000 0.0000 0.0000 0.0000 0.0000 32.7122
#
#
#
# Elastic Compliance Matrix: (Units=1/GPa)
#
#
# Indices 1 2 3 4 5 6 
#
# 1 0.010447 -0.003995 -0.003339 0.000000 0.000000 0.000000
# 2 -0.003995 0.010439 -0.001932 0.000000 0.000000 0.000000
# 3 -0.003339 -0.001932 0.013238 0.000000 0.000000 0.000000
# 4 0.000000 0.000000 0.000000 0.023392 0.000000 0.000000
# 5 0.000000 0.000000 0.000000 0.000000 0.023247 0.000000
# 6 0.000000 0.000000 0.000000 0.000000 0.000000 0.030570
#
#
# Mechanical properties :
#
#
# Convention : Reuss Voigt Hill
#
# Bulk Modulus (GPa) = 64.13670 67.78157 65.95913
# Shear Modulus (GPa) = 37.02007 37.95028 37.48517
#
# Velocity S-wave (km/s) = 3.94653 3.99581 3.97125
# Velocity P-wave (km/s) = 6.91017 7.05732 6.98413
#
# Compressibility (1/GPa) = 0.01559170
#
# Stress axis : x y z
#
# Youngs Moduli (GPa) = 95.72476 95.79173 75.54110
#
# Poissons Ratio (x) = 0.38268 0.25224
# Poissons Ratio (y) = 0.38241 0.14595
# Poissons Ratio (z) = 0.31964 0.18507
#
# Static dielectric constant tensor:
#      x y z
#    x 4.288390 0.000000 0.000000 
#    y 0.000000 4.081040 0.000000 
#    z 0.000000 0.000000 4.378890 
# 
# 
# High freq. dielectric constant tensor:
#      x y z
#    x 1.939860 0.000000 0.000000 
#    y 0.000000 1.928170 0.000000 
#    z 0.000000 0.000000 1.959260 
# 
# From -- ./inp_files/31881.got.cif
#   From: 2010.03.12/outbox.cif.g09.slc.cpg/sg24_16_cif.got.tgz:31881.got - 2010.04.14 03:06:53.
