data_PCOD8165944
_publ_section_title
;
Structure prediction by ZEFSAII (Michael W. Deem and Ramdas Pophale) SiO2 
 PCOD8165944
Probable space group: I 21 21 21
;
_chemical_formula_sum "Si O2"
_cell_formula_units_Z 32
_cell_length_a 5.250539
_cell_length_b 14.022435
_cell_length_c 18.907682
_cell_angle_alpha 90.000000
_cell_angle_beta 90.000000
_cell_angle_gamma 90.000000
_cell_volume 1392.084551
_symmetry_space_group_name_H-M "I 21 21 21"
_symmetry_group_IT_number 24
_symmetry_cell_setting 'orthorhombic'
loop_
_space_group_symop_operation_xyz
x,y,z
-x,1/2-y,z
x,-y,1/2-z
1/2-x,y,-z
1/2+x,1/2+y,1/2+z
1/2-x,-y,1/2+z
1/2+x,1/2-y,-z
-x,1/2+y,1/2-z
loop_
_atom_site_type_symbol
_atom_site_label
_atom_site_fract_x
_atom_site_fract_y
_atom_site_fract_z
Si Si1 0.521878 0.887991 0.252818
Si Si2 0.525820 0.647616 0.829530
Si Si3 0.500000 0.250000 0.121786
Si Si4 0.750000 0.849758 0.500000
Si Si5 0.002888 0.465482 0.465088
O O1 0.810304 0.860313 0.231437
O O2 0.451410 0.843168 0.329463
O O3 0.310485 0.847909 0.200328
O O4 0.489397 0.000000 0.250000
O O5 0.500000 0.750000 0.868620
O O6 0.493275 0.558421 0.882007
O O7 0.723352 0.218748 0.068032
O O8 0.513365 0.920339 0.519649
O O9 0.750000 0.422205 0.500000
O O10 0.250000 0.414953 0.500000
#
# Coordination Sequence:
#
# PCOD8165944 Si02
#       5
#     8   8   4   4   8
#     4  12  27  47  74 108 149 199 245 309 370 449
#     4  12  24  47  73 109 148 191 254 303 374 444
#     4  12  26  48  74 110 148 196 248 310 376 438
#     4  10  28  44  74 106 150 188 254 300 376 450
#     4  10  24  46  71 105 144 195 243 306 371 436
#
# _framework density 22.987110999999999
#
# number of rings (size 3 to 8) (size 9 to 14) (size 15 to 20)
#    0.750    0.000    2.500    3.750    5.250    3.000 
#    0.000    0.000    0.000    0.000    0.000    0.000 
#    0.000    0.000    0.000    0.000    0.000    0.000 
#
# Total GULP energy -198211.256514 kJ/mol
# GULP energy per Si atom -12388.203532 kJ/mol
# Density = 2.293479 g / cm^3
# Si number density = 22.987111 Si / 1000 Ang^3
#
#
#
# Elastic Constant Matrix: (Units=GPa)
#
#
# Indices 1 2 3 4 5 6 
#
# 1 132.7475 6.6874 34.2596 0.0000 0.0000 0.0000
# 2 6.6874 136.5449 50.0347 0.0000 0.0000 0.0000
# 3 34.2596 50.0347 149.2419 0.0000 0.0000 0.0000
# 4 0.0000 0.0000 0.0000 22.3806 0.0000 0.0000
# 5 0.0000 0.0000 0.0000 0.0000 31.8414 0.0000
# 6 0.0000 0.0000 0.0000 0.0000 0.0000 20.8699
#
#
#
# Elastic Compliance Matrix: (Units=1/GPa)
#
#
# Indices 1 2 3 4 5 6 
#
# 1 0.008020 0.000321 -0.001949 0.000000 0.000000 0.000000
# 2 0.000321 0.008362 -0.002877 0.000000 0.000000 0.000000
# 3 -0.001949 -0.002877 0.008113 0.000000 0.000000 0.000000
# 4 0.000000 0.000000 0.000000 0.044681 0.000000 0.000000
# 5 0.000000 0.000000 0.000000 0.000000 0.031406 0.000000
# 6 0.000000 0.000000 0.000000 0.000000 0.000000 0.047916
#
#
# Mechanical properties :
#
#
# Convention : Reuss Voigt Hill
#
# Bulk Modulus (GPa) = 64.57797 66.72197 65.64997
# Shear Modulus (GPa) = 30.73732 36.85522 33.79627
#
# Velocity S-wave (km/s) = 3.66068 4.00847 3.83851
# Velocity P-wave (km/s) = 6.78392 7.10722 6.94745
#
# Compressibility (1/GPa) = 0.01548516
#
# Stress axis : x y z
#
# Youngs Moduli (GPa) = 124.69071 119.58598 123.26651
#
# Poissons Ratio (x) = -0.03842 0.24021
# Poissons Ratio (y) = -0.04006 0.35467
# Poissons Ratio (z) = 0.24299 0.34408
#
# Static dielectric constant tensor:
#      x y z
#    x 4.198100 0.000000 0.000000 
#    y 0.000000 4.508270 0.000000 
#    z 0.000000 0.000000 4.089500 
# 
# 
# High freq. dielectric constant tensor:
#      x y z
#    x 1.913450 0.000000 0.000000 
#    y 0.000000 1.916120 0.000000 
#    z 0.000000 0.000000 1.896670 
# 
# From -- ./inp_files/28544.got.cif
#   From: 2010.03.12/outbox.cif.g09.slc.cpg/sg24_15_cif.got.tgz:28544.got - 2010.04.14 03:06:53.
