data_PCOD8165699
_publ_section_title
;
Structure prediction by ZEFSAII (Michael W. Deem and Ramdas Pophale) SiO2 
 PCOD8165699
Probable space group: I 21 21 21
;
_chemical_formula_sum "Si O2"
_cell_formula_units_Z 36
_cell_length_a 11.190086
_cell_length_b 10.921522
_cell_length_c 14.042714
_cell_angle_alpha 90.000000
_cell_angle_beta 90.000000
_cell_angle_gamma 90.000000
_cell_volume 1716.198982
_symmetry_space_group_name_H-M "I 21 21 21"
_symmetry_group_IT_number 24
_symmetry_cell_setting 'orthorhombic'
loop_
_space_group_symop_operation_xyz
x,y,z
-x,1/2-y,z
x,-y,1/2-z
1/2-x,y,-z
1/2+x,1/2+y,1/2+z
1/2-x,-y,1/2+z
1/2+x,1/2-y,-z
-x,1/2+y,1/2-z
loop_
_atom_site_type_symbol
_atom_site_label
_atom_site_fract_x
_atom_site_fract_y
_atom_site_fract_z
Si Si1 0.364710 0.278063 0.829827
Si Si2 0.842812 0.981145 0.069191
Si Si3 0.750000 0.365961 0.000000
Si Si4 0.756294 0.724189 0.135737
Si Si5 0.592560 0.416608 0.484011
O O1 0.500000 0.250000 0.800737
O O2 0.367912 0.425428 0.844434
O O3 0.321900 0.215777 0.925904
O O4 0.277169 0.223376 0.748927
O O5 0.774486 0.863688 0.107592
O O6 0.750000 0.050523 0.000000
O O7 0.954742 0.935557 0.006512
O O8 0.851250 0.452822 0.953409
O O9 0.622876 0.678773 0.102963
O O10 0.848654 0.634573 0.081662
#
# Coordination Sequence:
#
# PCOD8165699 Si02
#       5
#     8   8   4   8   8
#     4  12  23  40  68  99 133 169 234 291 341 421
#     4  12  22  39  70  92 131 177 221 277 345 407
#     4  10  22  40  62  92 134 180 210 284 368 400
#     4  10  23  39  68  95 124 171 227 280 342 408
#     4  10  22  42  64  94 138 171 219 276 355 413
#
# _framework density 20.976589000000001
#
# number of rings (size 3 to 8) (size 9 to 14) (size 15 to 20)
#    0.000    1.333    5.556    2.667    0.000    3.556 
#    0.000    0.000   19.556    0.000    0.000    0.000 
#    0.000    0.000    0.000    0.000    0.000    0.000 
#
# Total GULP energy -222989.645435 kJ/mol
# GULP energy per Si atom -12388.313635 kJ/mol
# Density = 2.092885 g / cm^3
# Si number density = 20.976589 Si / 1000 Ang^3
#
#
#
# Elastic Constant Matrix: (Units=GPa)
#
#
# Indices 1 2 3 4 5 6 
#
# 1 74.5427 38.0911 53.3281 0.0000 0.0000 0.0000
# 2 38.0911 113.4715 39.9480 0.0000 0.0000 0.0000
# 3 53.3281 39.9480 104.9242 0.0000 0.0000 0.0000
# 4 0.0000 0.0000 0.0000 2.0282 0.0000 0.0000
# 5 0.0000 0.0000 0.0000 0.0000 20.2781 0.0000
# 6 0.0000 0.0000 0.0000 0.0000 0.0000 27.7800
#
#
#
# Elastic Compliance Matrix: (Units=1/GPa)
#
#
# Indices 1 2 3 4 5 6 
#
# 1 0.022615 -0.004094 -0.009936 0.000000 0.000000 0.000000
# 2 -0.004094 0.010918 -0.002076 0.000000 0.000000 0.000000
# 3 -0.009936 -0.002076 0.015371 0.000000 0.000000 0.000000
# 4 0.000000 0.000000 0.000000 0.493058 0.000000 0.000000
# 5 0.000000 0.000000 0.000000 0.000000 0.049314 0.000000
# 6 0.000000 0.000000 0.000000 0.000000 0.000000 0.035997
#
#
# Mechanical properties :
#
#
# Convention : Reuss Voigt Hill
#
# Bulk Modulus (GPa) = 59.90547 61.74143 60.82345
# Shear Modulus (GPa) = 7.51825 20.78866 14.15345
#
# Velocity S-wave (km/s) = 1.89523 3.15150 2.60037
# Velocity P-wave (km/s) = 5.78009 6.53758 6.17047
#
# Compressibility (1/GPa) = 0.01669297
#
# Stress axis : x y z
#
# Youngs Moduli (GPa) = 44.21857 91.59250 65.05802
#
# Poissons Ratio (x) = 0.37496 0.64638
# Poissons Ratio (y) = 0.18102 0.13507
# Poissons Ratio (z) = 0.43933 0.19016
#
# Static dielectric constant tensor:
#      x y z
#    x 3.926510 0.000000 0.000000 
#    y 0.000000 4.039610 0.000000 
#    z 0.000000 0.000000 4.125200 
# 
# 
# High freq. dielectric constant tensor:
#      x y z
#    x 1.812010 0.000000 0.000000 
#    y 0.000000 1.845490 0.000000 
#    z 0.000000 0.000000 1.796920 
# 
# From -- ./inp_files/25547.got.cif
#   From: 2010.03.12/outbox.cif.g09.slc.cpg/sg24_13_cif.got.tgz:25547.got - 2010.04.14 03:06:53.
