data_PCOD8165296
_publ_section_title
;
Structure prediction by ZEFSAII (Michael W. Deem and Ramdas Pophale) SiO2 
 PCOD8165296
Probable space group: I 21 21 21
;
_chemical_formula_sum "Si O2"
_cell_formula_units_Z 44
_cell_length_a 14.302455
_cell_length_b 5.099276
_cell_length_c 24.687814
_cell_angle_alpha 90.000000
_cell_angle_beta 90.000000
_cell_angle_gamma 90.000000
_cell_volume 1800.535737
_symmetry_space_group_name_H-M "I 21 21 21"
_symmetry_group_IT_number 24
_symmetry_cell_setting 'orthorhombic'
loop_
_space_group_symop_operation_xyz
x,y,z
-x,1/2-y,z
x,-y,1/2-z
1/2-x,y,-z
1/2+x,1/2+y,1/2+z
1/2-x,-y,1/2+z
1/2+x,1/2-y,-z
-x,1/2+y,1/2-z
loop_
_atom_site_type_symbol
_atom_site_label
_atom_site_fract_x
_atom_site_fract_y
_atom_site_fract_z
Si Si1 0.107610 0.500000 0.250000
Si Si2 0.941199 0.992208 0.665097
Si Si3 0.000000 0.750000 0.343412
Si Si4 0.940223 0.989938 0.541163
Si Si5 0.807598 0.675258 0.386970
Si Si6 0.746774 0.815712 0.823601
Si Si7 0.750000 0.839858 0.500000
O O1 0.044300 0.543137 0.302016
O O2 0.179951 0.273485 0.270827
O O3 0.915531 0.920853 0.603262
O O4 0.846298 0.068057 0.696330
O O5 0.000000 0.250000 0.666757
O O6 0.000000 0.750000 0.691744
O O7 0.080568 0.885250 0.380399
O O8 0.000000 0.250000 0.533468
O O9 0.841092 0.020680 0.510645
O O10 0.000000 0.750000 0.516282
O O11 0.745364 0.462572 0.354303
O O12 0.773773 0.654200 0.448892
O O13 0.795428 0.968419 0.364633
#
# Coordination Sequence:
#
# PCOD8165296 Si02
#       7
#     4   8   4   8   8   8   4
#     4  10  22  42  80  98 148 180 244 298 396 422
#     4  10  20  39  64  89 132 176 225 286 345 435
#     4  10  22  46  68 110 134 200 236 318 358 476
#     4  10  24  41  65  94 133 191 246 292 371 439
#     4  11  26  41  68  97 149 179 248 294 378 434
#     4  11  23  44  66 106 130 189 233 301 359 460
#     4  12  26  46  68 106 148 200 242 336 374 448
#
# _framework density 24.437169999999998
#
# number of rings (size 3 to 8) (size 9 to 14) (size 15 to 20)
#    0.000    1.455    1.818    2.182    6.364    7.273 
#    0.000    0.909    0.000    0.000    0.000    0.000 
#    0.000    0.000    0.000    0.000    0.000    0.000 
#
# Total GULP energy -272607.821333 kJ/mol
# GULP energy per Si atom -12391.264606 kJ/mol
# Density = 2.438155 g / cm^3
# Si number density = 24.437170 Si / 1000 Ang^3
#
#
#
# Elastic Constant Matrix: (Units=GPa)
#
#
# Indices 1 2 3 4 5 6 
#
# 1 164.0812 8.8995 30.2631 0.0000 0.0000 0.0000
# 2 8.8995 86.0949 10.2688 0.0000 0.0000 0.0000
# 3 30.2631 10.2688 85.4263 0.0000 0.0000 0.0000
# 4 0.0000 0.0000 0.0000 21.9828 0.0000 0.0000
# 5 0.0000 0.0000 0.0000 0.0000 15.4770 0.0000
# 6 0.0000 0.0000 0.0000 0.0000 0.0000 28.7318
#
#
#
# Elastic Compliance Matrix: (Units=1/GPa)
#
#
# Indices 1 2 3 4 5 6 
#
# 1 0.006534 -0.000405 -0.002266 0.000000 0.000000 0.000000
# 2 -0.000405 0.011809 -0.001276 0.000000 0.000000 0.000000
# 3 -0.002266 -0.001276 0.012662 0.000000 0.000000 0.000000
# 4 0.000000 0.000000 0.000000 0.045490 0.000000 0.000000
# 5 0.000000 0.000000 0.000000 0.000000 0.064612 0.000000
# 6 0.000000 0.000000 0.000000 0.000000 0.000000 0.034805
#
#
# Mechanical properties :
#
#
# Convention : Reuss Voigt Hill
#
# Bulk Modulus (GPa) = 43.26923 48.27393 45.77158
# Shear Modulus (GPa) = 26.10816 32.31639 29.21227
#
# Velocity S-wave (km/s) = 3.27215 3.64047 3.46121
# Velocity P-wave (km/s) = 5.65869 6.12110 5.89443
#
# Compressibility (1/GPa) = 0.02311111
#
# Stress axis : x y z
#
# Youngs Moduli (GPa) = 153.03395 84.68001 78.97513
#
# Poissons Ratio (x) = 0.03431 0.17897
# Poissons Ratio (y) = 0.06200 0.10077
# Poissons Ratio (z) = 0.34681 0.10805
#
# Static dielectric constant tensor:
#      x y z
#    x 5.039940 0.000000 0.000000 
#    y 0.000000 4.080030 0.000000 
#    z 0.000000 0.000000 4.553620 
# 
# 
# High freq. dielectric constant tensor:
#      x y z
#    x 1.999540 0.000000 0.000000 
#    y 0.000000 1.948160 0.000000 
#    z 0.000000 0.000000 1.953790 
# 
# From -- ./inp_files/37333.got.cif
#   From: 2010.03.12/outbox.cif.g09.slc.cpg/sg24_19_cif.got.tgz:37333.got - 2010.04.14 03:06:53.
