data_PCOD8165282
_publ_section_title
;
Structure prediction by ZEFSAII (Michael W. Deem and Ramdas Pophale) SiO2 
 PCOD8165282
Probable space group: I 21 21 21
;
_chemical_formula_sum "Si O2"
_cell_formula_units_Z 32
_cell_length_a 9.011856
_cell_length_b 6.832006
_cell_length_c 24.839497
_cell_angle_alpha 90.000000
_cell_angle_beta 90.000000
_cell_angle_gamma 90.000000
_cell_volume 1529.344339
_symmetry_space_group_name_H-M "I 21 21 21"
_symmetry_group_IT_number 24
_symmetry_cell_setting 'orthorhombic'
loop_
_space_group_symop_operation_xyz
x,y,z
-x,1/2-y,z
x,-y,1/2-z
1/2-x,y,-z
1/2+x,1/2+y,1/2+z
1/2-x,-y,1/2+z
1/2+x,1/2-y,-z
-x,1/2+y,1/2-z
loop_
_atom_site_type_symbol
_atom_site_label
_atom_site_fract_x
_atom_site_fract_y
_atom_site_fract_z
Si Si1 0.804268 0.588361 0.940117
Si Si2 0.000000 0.750000 0.801582
Si Si3 0.662316 0.330093 0.860430
Si Si4 0.264405 0.000000 0.250000
Si Si5 0.391755 0.494554 0.395490
O O1 0.678723 0.515178 0.899212
O O2 0.812531 0.819194 0.927576
O O3 0.958082 0.465926 0.930374
O O4 0.750000 0.550195 0.000000
O O5 0.049485 0.566898 0.837072
O O6 0.862460 0.685992 0.765830
O O7 0.500000 0.250000 0.868955
O O8 0.670428 0.411144 0.799329
O O9 0.784320 0.174837 0.882598
#
# Coordination Sequence:
#
# PCOD8165282 Si02
#       5
#     8   4   8   4   8
#     4  10  23  45  70 100 131 171 228 286 333 396
#     4  10  20  38  74  92 124 176 220 286 318 410
#     4  12  27  41  65 101 141 181 223 275 336 406
#     4  12  22  42  66 104 132 176 230 276 346 392
#     4  10  22  45  70  98 128 177 229 269 334 411
#
# _framework density 20.923998000000001
#
# number of rings (size 3 to 8) (size 9 to 14) (size 15 to 20)
#    0.000    1.500    5.000    2.250    0.000   10.000 
#    0.000    0.000    0.000    0.000    0.000    0.000 
#    0.000    0.000    0.000    0.000    0.000    0.000 
#
# Total GULP energy -198227.529939 kJ/mol
# GULP energy per Si atom -12389.220621 kJ/mol
# Density = 2.087637 g / cm^3
# Si number density = 20.923998 Si / 1000 Ang^3
#
#
#
# Elastic Constant Matrix: (Units=GPa)
#
#
# Indices 1 2 3 4 5 6 
#
# 1 120.3340 57.8100 67.6738 0.0000 0.0000 0.0000
# 2 57.8100 64.6934 38.4161 0.0000 0.0000 0.0000
# 3 67.6738 38.4161 158.3513 0.0000 0.0000 0.0000
# 4 0.0000 0.0000 0.0000 10.6728 0.0000 0.0000
# 5 0.0000 0.0000 0.0000 0.0000 40.2073 0.0000
# 6 0.0000 0.0000 0.0000 0.0000 0.0000 38.4953
#
#
#
# Elastic Compliance Matrix: (Units=1/GPa)
#
#
# Indices 1 2 3 4 5 6 
#
# 1 0.016537 -0.012361 -0.004068 0.000000 0.000000 0.000000
# 2 -0.012361 0.027299 -0.001340 0.000000 0.000000 0.000000
# 3 -0.004068 -0.001340 0.008379 0.000000 0.000000 0.000000
# 4 0.000000 0.000000 0.000000 0.093696 0.000000 0.000000
# 5 0.000000 0.000000 0.000000 0.000000 0.024871 0.000000
# 6 0.000000 0.000000 0.000000 0.000000 0.000000 0.025977
#
#
# Mechanical properties :
#
#
# Convention : Reuss Voigt Hill
#
# Bulk Modulus (GPa) = 59.96836 74.57536 67.27186
# Shear Modulus (GPa) = 21.02103 29.84036 25.43069
#
# Velocity S-wave (km/s) = 3.17304 3.78051 3.49002
# Velocity P-wave (km/s) = 6.49204 7.40100 6.96137
#
# Compressibility (1/GPa) = 0.01667546
#
# Stress axis : x y z
#
# Youngs Moduli (GPa) = 60.47151 36.63094 119.34837
#
# Poissons Ratio (x) = 0.45281 0.48555
# Poissons Ratio (y) = 0.74751 0.15993
# Poissons Ratio (z) = 0.24602 0.04909
#
# Static dielectric constant tensor:
#      x y z
#    x 3.845810 0.000000 0.000000 
#    y 0.000000 3.755900 0.000000 
#    z 0.000000 0.000000 3.863920 
# 
# 
# High freq. dielectric constant tensor:
#      x y z
#    x 1.810550 0.000000 0.000000 
#    y 0.000000 1.824320 0.000000 
#    z 0.000000 0.000000 1.828300 
# 
# From -- ./inp_files/15601.got.cif
#   From: 2010.03.12/outbox.cif.g09.slc.cpg/sg24_8_cif.got.tgz:15601.got - 2010.04.14 03:06:53.
