data_PCOD8165711
_publ_section_title
;
Structure prediction by ZEFSAII (Michael W. Deem and Ramdas Pophale) SiO2 
 PCOD8165711
Probable space group: I 21 21 21
;
_chemical_formula_sum "Si O2"
_cell_formula_units_Z 64
_cell_length_a 19.816323
_cell_length_b 10.293176
_cell_length_c 15.188837
_cell_angle_alpha 90.000000
_cell_angle_beta 90.000000
_cell_angle_gamma 90.000000
_cell_volume 3098.111135
_symmetry_space_group_name_H-M "I 21 21 21"
_symmetry_group_IT_number 24
_symmetry_cell_setting 'orthorhombic'
loop_
_space_group_symop_operation_xyz
x,y,z
-x,1/2-y,z
x,-y,1/2-z
1/2-x,y,-z
1/2+x,1/2+y,1/2+z
1/2-x,-y,1/2+z
1/2+x,1/2-y,-z
-x,1/2+y,1/2-z
loop_
_atom_site_type_symbol
_atom_site_label
_atom_site_fract_x
_atom_site_fract_y
_atom_site_fract_z
Si Si1 0.672461 0.900184 0.489443
Si Si2 0.709315 0.486850 0.585183
Si Si3 0.670435 0.613814 0.181615
Si Si4 0.061857 0.390023 0.470999
Si Si5 0.415034 0.888347 0.018669
Si Si6 0.944532 0.849051 0.230155
Si Si7 0.321504 0.746977 0.658525
Si Si8 0.317264 0.361140 0.207338
O O1 0.750000 0.950067 0.500000
O O2 0.660279 0.782054 0.556627
O O3 0.651879 0.854574 0.391369
O O4 0.622151 0.011277 0.519145
O O5 0.750000 0.541881 0.500000
O O6 0.756888 0.377252 0.631171
O O7 0.637423 0.426157 0.558717
O O8 0.697540 0.600877 0.657400
O O9 0.674038 0.500000 0.250000
O O10 0.612319 0.568830 0.113723
O O11 0.652616 0.749715 0.229299
O O12 0.078301 0.266229 0.530307
O O13 0.060746 0.333320 0.373397
O O14 0.988588 0.450916 0.497287
O O15 0.878931 0.793155 0.275499
O O16 0.000000 0.750000 0.267502
O O17 0.960266 0.000000 0.250000
O O18 0.261797 0.658590 0.695379
O O19 0.333411 0.500000 0.250000
#
# Coordination Sequence:
#
# PCOD8165711 Si02
#       8
#     8   8   8   8   8   8   8   8
#     4  10  23  40  67  92 133 170 212 277 333 389
#     4  10  22  40  64  97 134 173 216 266 338 394
#     4  11  23  42  66 102 131 169 225 277 327 390
#     4  11  23  46  62  94 131 176 222 265 330 401
#     4  10  24  41  67  90 136 178 216 271 334 398
#     4  12  26  43  66  98 135 174 222 267 327 402
#     4  11  23  38  64  95 136 167 213 269 333 393
#     4  11  23  39  65  99 128 168 222 274 325 382
#
# _framework density 20.657748999999999
#
# number of rings (size 3 to 8) (size 9 to 14) (size 15 to 20)
#    0.000    1.250    3.750    2.250    7.000    1.500 
#    0.000    3.125    0.000    0.000    0.000    0.000 
#    0.000    0.000    0.000    0.000    0.000    0.000 
#
# Total GULP energy -396674.360507 kJ/mol
# GULP energy per Si atom -12396.073766 kJ/mol
# Density = 2.061073 g / cm^3
# Si number density = 20.657749 Si / 1000 Ang^3
#
#
#
# Elastic Constant Matrix: (Units=GPa)
#
#
# Indices 1 2 3 4 5 6 
#
# 1 103.1287 21.6638 28.5490 0.0000 0.0000 0.0000
# 2 21.6638 84.6999 13.8280 0.0000 0.0000 0.0000
# 3 28.5490 13.8280 104.3811 0.0000 0.0000 0.0000
# 4 0.0000 0.0000 0.0000 29.2587 0.0000 0.0000
# 5 0.0000 0.0000 0.0000 0.0000 25.0590 0.0000
# 6 0.0000 0.0000 0.0000 0.0000 0.0000 25.5450
#
#
#
# Elastic Compliance Matrix: (Units=1/GPa)
#
#
# Indices 1 2 3 4 5 6 
#
# 1 0.010934 -0.002359 -0.002678 0.000000 0.000000 0.000000
# 2 -0.002359 0.012576 -0.001021 0.000000 0.000000 0.000000
# 3 -0.002678 -0.001021 0.010448 0.000000 0.000000 0.000000
# 4 0.000000 0.000000 0.000000 0.034178 0.000000 0.000000
# 5 0.000000 0.000000 0.000000 0.000000 0.039906 0.000000
# 6 0.000000 0.000000 0.000000 0.000000 0.000000 0.039147
#
#
# Mechanical properties :
#
#
# Convention : Reuss Voigt Hill
#
# Bulk Modulus (GPa) = 45.78327 46.69904 46.24115
# Shear Modulus (GPa) = 30.01473 31.18379 30.59926
#
# Velocity S-wave (km/s) = 3.81590 3.88950 3.85287
# Velocity P-wave (km/s) = 6.45179 6.54416 6.49814
#
# Compressibility (1/GPa) = 0.02184204
#
# Stress axis : x y z
#
# Youngs Moduli (GPa) = 91.46169 79.51347 95.71279
#
# Poissons Ratio (x) = 0.18760 0.25631
# Poissons Ratio (y) = 0.21579 0.09770
# Poissons Ratio (z) = 0.24492 0.08117
#
# Static dielectric constant tensor:
#      x y z
#    x 3.847170 0.000000 0.000000 
#    y 0.000000 3.728710 0.000000 
#    z 0.000000 0.000000 4.035160 
# 
# 
# High freq. dielectric constant tensor:
#      x y z
#    x 1.799130 0.000000 0.000000 
#    y 0.000000 1.799830 0.000000 
#    z 0.000000 0.000000 1.823350 
# 
# From -- ./inp_files/27224.got.cif
#   From: 2010.03.12/outbox.cif.g09.slc.cpg/sg24_14_cif.got.tgz:27224.got - 2010.04.14 03:06:53.
