data_PCOD8165258
_publ_section_title
;
Structure prediction by ZEFSAII (Michael W. Deem and Ramdas Pophale) SiO2 
 PCOD8165258
Probable space group: I 21 21 21
;
_chemical_formula_sum "Si O2"
_cell_formula_units_Z 28
_cell_length_a 5.624017
_cell_length_b 25.965207
_cell_length_c 8.535516
_cell_angle_alpha 90.000000
_cell_angle_beta 90.000000
_cell_angle_gamma 90.000000
_cell_volume 1246.430865
_symmetry_space_group_name_H-M "I 21 21 21"
_symmetry_group_IT_number 24
_symmetry_cell_setting 'orthorhombic'
loop_
_space_group_symop_operation_xyz
x,y,z
-x,1/2-y,z
x,-y,1/2-z
1/2-x,y,-z
1/2+x,1/2+y,1/2+z
1/2-x,-y,1/2+z
1/2+x,1/2-y,-z
-x,1/2+y,1/2-z
loop_
_atom_site_type_symbol
_atom_site_label
_atom_site_fract_x
_atom_site_fract_y
_atom_site_fract_z
Si Si1 0.250000 0.396237 0.000000
Si Si2 0.572926 0.645370 0.745631
Si Si3 0.250000 0.780084 0.500000
Si Si4 0.750000 0.117310 0.500000
Si Si5 0.442524 0.940367 0.253657
O O1 0.453915 0.431693 0.073127
O O2 0.144818 0.357600 0.126632
O O3 0.748537 0.687410 0.665600
O O4 0.699607 0.590623 0.766910
O O5 0.447295 0.655072 0.916043
O O6 0.500000 0.750000 0.493252
O O7 0.630833 0.078765 0.375401
O O8 0.378389 0.000000 0.250000
#
# Coordination Sequence:
#
# PCOD8165258 Si02
#       5
#     4   8   4   4   8
#     4  10  20  38  64  92 140 182 244 289 359 418
#     4  11  23  44  69 102 140 184 239 314 363 449
#     4  12  27  48  85 110 134 195 268 319 382 446
#     4  10  25  40  67  98 154 189 232 302 387 420
#     4  11  22  38  64 100 144 196 243 289 368 449
#
# _framework density 22.464138999999999
#
# number of rings (size 3 to 8) (size 9 to 14) (size 15 to 20)
#    0.000    1.143    2.857    2.571    4.000    9.143 
#    0.000    0.000    6.286    0.000    0.000    0.000 
#    0.000    0.000    0.000    0.000    0.000    0.000 
#
# Total GULP energy -173440.852272 kJ/mol
# GULP energy per Si atom -12388.632305 kJ/mol
# Density = 2.241301 g / cm^3
# Si number density = 22.464139 Si / 1000 Ang^3
#
#
#
# Elastic Constant Matrix: (Units=GPa)
#
#
# Indices 1 2 3 4 5 6 
#
# 1 118.2041 42.1307 37.5447 0.0000 0.0000 0.0000
# 2 42.1307 96.0059 31.3437 0.0002 0.0000 0.0000
# 3 37.5447 31.3437 112.6691 0.0000 0.0000 -0.0001
# 4 0.0000 0.0002 0.0000 20.3512 0.0000 0.0000
# 5 0.0000 0.0000 0.0000 0.0000 51.8429 0.0000
# 6 0.0000 0.0000 -0.0001 0.0000 0.0000 39.0712
#
#
#
# Elastic Compliance Matrix: (Units=1/GPa)
#
#
# Indices 1 2 3 4 5 6 
#
# 1 0.010617 -0.003854 -0.002466 0.000000 0.000000 0.000000
# 2 -0.003854 0.012856 -0.002292 0.000000 0.000000 0.000000
# 3 -0.002466 -0.002292 0.010335 0.000000 0.000000 0.000000
# 4 0.000000 0.000000 0.000000 0.049137 0.000000 0.000000
# 5 0.000000 0.000000 0.000000 0.000000 0.019289 0.000000
# 6 0.000000 0.000000 0.000000 0.000000 0.000000 0.025594
#
#
# Mechanical properties :
#
#
# Convention : Reuss Voigt Hill
#
# Bulk Modulus (GPa) = 60.30017 60.99081 60.64549
# Shear Modulus (GPa) = 33.20514 36.64373 34.92443
#
# Velocity S-wave (km/s) = 3.84883 4.04321 3.94721
# Velocity P-wave (km/s) = 6.83026 7.00042 6.91586
#
# Compressibility (1/GPa) = 0.01658370
#
# Stress axis : x y z
#
# Youngs Moduli (GPa) = 94.19062 77.78710 96.76037
#
# Poissons Ratio (x) = 0.29979 0.23858
# Poissons Ratio (y) = 0.36301 0.22178
# Poissons Ratio (z) = 0.23224 0.17829
#
# Static dielectric constant tensor:
#      x y z
#    x 4.261500 0.000000 0.000000 
#    y 0.000000 3.825440 0.000000 
#    z 0.000000 0.000000 4.771690 
# 
# 
# High freq. dielectric constant tensor:
#      x y z
#    x 1.907310 0.000000 0.000000 
#    y 0.000000 1.845310 0.000000 
#    z 0.000000 0.000000 1.898220 
# 
# From -- ./inp_files/1026.got.cif
#   From: 2010.03.12/outbox.cif.g09.slc.cpg/sg24_1_cif.got.tgz:1026.got - 2010.04.14 03:06:53.
