data_PCOD8165182
_publ_section_title
;
Structure prediction by ZEFSAII (Michael W. Deem and Ramdas Pophale) SiO2 
 PCOD8165182
Probable space group: I 21 21 21
;
_chemical_formula_sum "Si O2"
_cell_formula_units_Z 40
_cell_length_a 5.073312
_cell_length_b 25.854076
_cell_length_c 16.443674
_cell_angle_alpha 90.000000
_cell_angle_beta 90.000000
_cell_angle_gamma 90.000000
_cell_volume 2156.847557
_symmetry_space_group_name_H-M "I 21 21 21"
_symmetry_group_IT_number 24
_symmetry_cell_setting 'orthorhombic'
loop_
_space_group_symop_operation_xyz
x,y,z
-x,1/2-y,z
x,-y,1/2-z
1/2-x,y,-z
1/2+x,1/2+y,1/2+z
1/2-x,-y,1/2+z
1/2+x,1/2-y,-z
-x,1/2+y,1/2-z
loop_
_atom_site_type_symbol
_atom_site_label
_atom_site_fract_x
_atom_site_fract_y
_atom_site_fract_z
Si Si1 0.874815 0.531894 0.326095
Si Si2 0.038858 0.364423 0.255332
Si Si3 0.824478 0.118482 0.588981
Si Si4 0.376803 0.501653 0.084413
Si Si5 0.037306 0.189720 0.713141
O O1 0.757147 0.500000 0.250000
O O2 0.944551 0.590764 0.304818
O O3 0.644059 0.530114 0.394542
O O4 0.149048 0.505297 0.349416
O O5 0.821623 0.319622 0.248766
O O6 0.074379 0.385320 0.348557
O O7 0.313000 0.336550 0.228658
O O8 0.750000 0.139039 0.500000
O O9 0.028683 0.160314 0.625693
O O10 0.957633 0.061976 0.580235
O O11 0.250000 0.481624 0.000000
O O12 0.000000 0.250000 0.699985
#
# Coordination Sequence:
#
# PCOD8165182 Si02
#       5
#     8   8   8   8   8
#     4  12  20  36  57  80 110 148 192 224 281 335
#     4  10  21  35  53  79 102 148 186 232 273 325
#     4   9  21  36  51  77 113 149 191 228 273 321
#     4  11  23  36  55  82 116 150 186 228 275 338
#     4  10  20  37  52  76 108 145 193 236 276 315
#
# _framework density 18.545586
#
# number of rings (size 3 to 8) (size 9 to 14) (size 15 to 20)
#    1.200    0.400    2.000    4.200    0.000    0.800 
#    3.600    0.000    0.000    0.000    0.000    0.000 
#    0.000   44.800    0.000    0.000    0.000    0.000 
#
# Total GULP energy -247811.464537 kJ/mol
# GULP energy per Si atom -12390.573227 kJ/mol
# Density = 1.850338 g / cm^3
# Si number density = 18.545586 Si / 1000 Ang^3
#
#
#
# Elastic Constant Matrix: (Units=GPa)
#
#
# Indices 1 2 3 4 5 6 
#
# 1 97.6059 23.5299 9.8057 0.0000 0.0000 0.0000
# 2 23.5299 88.9779 29.6459 0.0000 0.0000 0.0000
# 3 9.8057 29.6459 39.9484 -0.0001 0.0000 0.0000
# 4 0.0000 0.0000 -0.0001 19.3306 0.0000 0.0000
# 5 0.0000 0.0000 0.0000 0.0000 31.0079 0.0000
# 6 0.0000 0.0000 0.0000 0.0000 0.0000 27.6388
#
#
#
# Elastic Compliance Matrix: (Units=1/GPa)
#
#
# Indices 1 2 3 4 5 6 
#
# 1 0.010958 -0.002659 -0.000716 0.000000 0.000000 0.000000
# 2 -0.002659 0.015576 -0.010906 0.000000 0.000000 0.000000
# 3 -0.000716 -0.010906 0.033302 0.000000 0.000000 0.000000
# 4 0.000000 0.000000 0.000000 0.051732 0.000000 0.000000
# 5 0.000000 0.000000 0.000000 0.000000 0.032250 0.000000
# 6 0.000000 0.000000 0.000000 0.000000 0.000000 0.036181
#
#
# Mechanical properties :
#
#
# Convention : Reuss Voigt Hill
#
# Bulk Modulus (GPa) = 31.97724 39.16613 35.57169
# Shear Modulus (GPa) = 22.83257 26.49883 24.66570
#
# Velocity S-wave (km/s) = 3.51259 3.78411 3.65088
# Velocity P-wave (km/s) = 5.80784 6.34487 6.08229
#
# Compressibility (1/GPa) = 0.03127224
#
# Stress axis : x y z
#
# Youngs Moduli (GPa) = 91.25498 64.20263 30.02859
#
# Poissons Ratio (x) = 0.17073 0.02151
# Poissons Ratio (y) = 0.24267 0.32749
# Poissons Ratio (z) = 0.06537 0.70020
#
# Static dielectric constant tensor:
#      x y z
#    x 3.413090 0.000000 0.000000 
#    y 0.000000 3.156490 0.000000 
#    z 0.000000 0.000000 3.226070 
# 
# 
# High freq. dielectric constant tensor:
#      x y z
#    x 1.730800 0.000000 0.000000 
#    y 0.000000 1.704140 0.000000 
#    z 0.000000 0.000000 1.682100 
# 
# From -- ./inp_files/23719.got.cif
#   From: 2010.03.12/outbox.cif.g09.slc.cpg/sg24_12_cif.got.tgz:23719.got - 2010.04.14 03:06:53.
