data_PCOD8165367
_publ_section_title
;
Structure prediction by ZEFSAII (Michael W. Deem and Ramdas Pophale) SiO2 
 PCOD8165367
Probable space group: I 21 21 21
;
_chemical_formula_sum "Si O2"
_cell_formula_units_Z 56
_cell_length_a 21.126920
_cell_length_b 9.041325
_cell_length_c 13.371920
_cell_angle_alpha 90.000000
_cell_angle_beta 90.000000
_cell_angle_gamma 90.000000
_cell_volume 2554.241979
_symmetry_space_group_name_H-M "I 21 21 21"
_symmetry_group_IT_number 24
_symmetry_cell_setting 'orthorhombic'
loop_
_space_group_symop_operation_xyz
x,y,z
-x,1/2-y,z
x,-y,1/2-z
1/2-x,y,-z
1/2+x,1/2+y,1/2+z
1/2-x,-y,1/2+z
1/2+x,1/2-y,-z
-x,1/2+y,1/2-z
loop_
_atom_site_type_symbol
_atom_site_label
_atom_site_fract_x
_atom_site_fract_y
_atom_site_fract_z
Si Si1 0.750000 0.628754 0.500000
Si Si2 0.119958 0.489521 0.952162
Si Si3 0.738665 0.111061 0.141451
Si Si4 0.354106 0.500000 0.750000
Si Si5 0.132900 0.068750 0.523878
Si Si6 0.356358 0.710421 0.197544
Si Si7 0.930119 0.696280 0.617928
Si Si8 0.927285 0.203287 0.382298
O O1 0.744349 0.723855 0.399926
O O2 0.811206 0.530303 0.484010
O O3 0.197552 0.486606 0.939381
O O4 0.099802 0.579465 0.851004
O O5 0.101233 0.318395 0.953747
O O6 0.085389 0.563720 0.045335
O O7 0.705446 0.134309 0.251327
O O8 0.808821 0.042545 0.155887
O O9 0.397268 0.643480 0.778165
O O10 0.161253 0.180167 0.606598
O O11 0.107343 0.154388 0.426966
O O12 0.076179 0.965479 0.568057
O O13 0.395240 0.806528 0.276093
O O14 0.000000 0.750000 0.637348
O O15 0.000000 0.250000 0.366838
#
# Coordination Sequence:
#
# PCOD8165367 Si02
#       8
#     4   8   8   4   8   8   8   8
#     4  12  24  38  66 100 138 168 222 278 356 414
#     4  10  20  42  69  93 136 175 226 288 338 425
#     4  11  21  41  66 106 131 177 229 284 354 418
#     4  12  26  46  76  98 132 190 238 300 346 420
#     4  11  25  41  65 100 136 182 216 292 353 404
#     4  10  21  38  62  96 141 168 222 281 342 419
#     4  11  21  36  62  98 134 183 218 265 339 418
#     4  11  27  50  69  99 133 184 239 287 347 422
#
# _framework density 21.924313999999999
#
# number of rings (size 3 to 8) (size 9 to 14) (size 15 to 20)
#    0.000    1.143    4.286    3.429    2.000    4.571 
#    2.571    0.714    0.000    0.000    0.000    0.000 
#    0.000    0.000    0.000    0.000    0.000    0.000 
#
# Total GULP energy -346989.055904 kJ/mol
# GULP energy per Si atom -12392.466282 kJ/mol
# Density = 2.187441 g / cm^3
# Si number density = 21.924314 Si / 1000 Ang^3
#
#
#
# Elastic Constant Matrix: (Units=GPa)
#
#
# Indices 1 2 3 4 5 6 
#
# 1 131.0290 39.6607 35.1021 0.0000 0.0000 0.0000
# 2 39.6607 121.8691 30.0113 0.0000 0.0000 0.0000
# 3 35.1021 30.0113 55.1242 0.0000 0.0000 0.0000
# 4 0.0000 0.0000 0.0000 39.6640 0.0000 0.0000
# 5 0.0000 0.0000 0.0000 0.0000 19.6134 0.0000
# 6 0.0000 0.0000 0.0000 0.0000 0.0000 40.4789
#
#
#
# Elastic Compliance Matrix: (Units=1/GPa)
#
#
# Indices 1 2 3 4 5 6 
#
# 1 0.009553 -0.001860 -0.005071 0.000000 0.000000 0.000000
# 2 -0.001860 0.009838 -0.004172 0.000000 0.000000 0.000000
# 3 -0.005071 -0.004172 0.023641 0.000000 0.000000 0.000000
# 4 0.000000 0.000000 0.000000 0.025212 0.000000 0.000000
# 5 0.000000 0.000000 0.000000 0.000000 0.050986 0.000000
# 6 0.000000 0.000000 0.000000 0.000000 0.000000 0.024704
#
#
# Mechanical properties :
#
#
# Convention : Reuss Voigt Hill
#
# Bulk Modulus (GPa) = 48.01369 57.50785 52.76077
# Shear Modulus (GPa) = 28.88809 33.50114 31.19462
#
# Velocity S-wave (km/s) = 3.63385 3.91325 3.77614
# Velocity P-wave (km/s) = 6.28918 6.83412 6.56730
#
# Compressibility (1/GPa) = 0.02082739
#
# Stress axis : x y z
#
# Youngs Moduli (GPa) = 104.67488 101.64416 42.29965
#
# Poissons Ratio (x) = 0.18909 0.21448
# Poissons Ratio (y) = 0.19473 0.17646
# Poissons Ratio (z) = 0.53076 0.42402
#
# Static dielectric constant tensor:
#      x y z
#    x 3.980250 0.000000 0.000000 
#    y 0.000000 4.250760 0.000000 
#    z 0.000000 0.000000 3.885600 
# 
# 
# High freq. dielectric constant tensor:
#      x y z
#    x 1.849400 0.000000 0.000000 
#    y 0.000000 1.878480 0.000000 
#    z 0.000000 0.000000 1.850970 
# 
# From -- ./inp_files/27580.got.cif
#   From: 2010.03.12/outbox.cif.g09.slc.cpg/sg24_14_cif.got.tgz:27580.got - 2010.04.14 03:06:53.
