data_PCOD8165411
_publ_section_title
;
Structure prediction by ZEFSAII (Michael W. Deem and Ramdas Pophale) SiO2 
 PCOD8165411
Probable space group: I 21 21 21
;
_chemical_formula_sum "Si O2"
_cell_formula_units_Z 48
_cell_length_a 24.507980
_cell_length_b 10.732364
_cell_length_c 8.968404
_cell_angle_alpha 90.000000
_cell_angle_beta 90.000000
_cell_angle_gamma 90.000000
_cell_volume 2358.946410
_symmetry_space_group_name_H-M "I 21 21 21"
_symmetry_group_IT_number 24
_symmetry_cell_setting 'orthorhombic'
loop_
_space_group_symop_operation_xyz
x,y,z
-x,1/2-y,z
x,-y,1/2-z
1/2-x,y,-z
1/2+x,1/2+y,1/2+z
1/2-x,-y,1/2+z
1/2+x,1/2-y,-z
-x,1/2+y,1/2-z
loop_
_atom_site_type_symbol
_atom_site_label
_atom_site_fract_x
_atom_site_fract_y
_atom_site_fract_z
Si Si1 0.530348 0.573447 0.022711
Si Si2 0.948735 0.679508 0.669380
Si Si3 0.385939 0.190334 0.684898
Si Si4 0.589612 0.047381 0.588681
Si Si5 0.250000 0.833262 0.500000
Si Si6 0.702595 0.500000 0.750000
Si Si7 0.362103 0.701415 0.502444
O O1 0.542686 0.670701 0.153930
O O2 0.558227 0.447596 0.078475
O O3 0.558378 0.622578 0.870080
O O4 0.465455 0.559610 0.007024
O O5 0.894362 0.760038 0.645937
O O6 0.000000 0.750000 0.596454
O O7 0.378566 0.320521 0.595839
O O8 0.335319 0.096627 0.656113
O O9 0.389432 0.222561 0.860000
O O10 0.570627 0.000000 0.750000
O O11 0.632134 0.947660 0.520334
O O12 0.241723 0.922592 0.358577
O O13 0.299947 0.739294 0.477995
#
# Coordination Sequence:
#
# PCOD8165411 Si02
#       7
#     8   8   8   8   4   4   8
#     4  11  22  35  57  86 124 165 198 244 307 374
#     4  11  22  36  56  85 127 159 196 244 311 372
#     4  10  21  38  59  89 119 157 208 257 297 358
#     4  10  21  36  61  88 125 162 205 252 308 371
#     4  10  22  42  68  88 116 160 212 260 310 362
#     4  10  22  40  64  90 120 154 210 262 304 360
#     4  10  22  40  63  89 122 161 208 254 307 366
#
# _framework density 20.348067
#
# number of rings (size 3 to 8) (size 9 to 14) (size 15 to 20)
#    0.000    1.667    1.667    3.500    3.500    2.667 
#    0.000    0.833    0.000   14.000    0.000    0.000 
#    0.000    0.000    0.000    0.000    0.000    0.000 
#
# Total GULP energy -297543.475822 kJ/mol
# GULP energy per Si atom -12397.644826 kJ/mol
# Density = 2.030175 g / cm^3
# Si number density = 20.348067 Si / 1000 Ang^3
#
#
#
# Elastic Constant Matrix: (Units=GPa)
#
#
# Indices 1 2 3 4 5 6 
#
# 1 142.9214 67.1017 54.6415 0.0000 0.0000 0.0000
# 2 67.1017 124.4911 45.6656 0.0000 0.0000 0.0000
# 3 54.6415 45.6656 64.5172 0.0000 0.0000 0.0000
# 4 0.0000 0.0000 0.0000 21.3105 0.0000 0.0000
# 5 0.0000 0.0000 0.0000 0.0000 27.5290 0.0000
# 6 0.0000 0.0000 0.0000 0.0000 0.0000 34.3268
#
#
#
# Elastic Compliance Matrix: (Units=1/GPa)
#
#
# Indices 1 2 3 4 5 6 
#
# 1 0.011380 -0.003510 -0.007154 0.000000 0.000000 0.000000
# 2 -0.003510 0.011932 -0.005473 0.000000 0.000000 0.000000
# 3 -0.007154 -0.005473 0.025432 0.000000 0.000000 0.000000
# 4 0.000000 0.000000 0.000000 0.046925 0.000000 0.000000
# 5 0.000000 0.000000 0.000000 0.000000 0.036325 0.000000
# 6 0.000000 0.000000 0.000000 0.000000 0.000000 0.029132
#
#
# Mechanical properties :
#
#
# Convention : Reuss Voigt Hill
#
# Bulk Modulus (GPa) = 60.71216 74.08303 67.39759
# Shear Modulus (GPa) = 25.13961 27.60132 26.37046
#
# Velocity S-wave (km/s) = 3.51875 3.68701 3.60386
# Velocity P-wave (km/s) = 6.81252 7.39001 7.10713
#
# Compressibility (1/GPa) = 0.01647117
#
# Stress axis : x y z
#
# Youngs Moduli (GPa) = 87.87684 83.80771 39.32015
#
# Poissons Ratio (x) = 0.29413 0.28128
# Poissons Ratio (y) = 0.30841 0.21521
# Poissons Ratio (z) = 0.62863 0.45869
#
# Static dielectric constant tensor:
#      x y z
#    x 3.411580 0.000000 0.000000 
#    y 0.000000 4.070470 0.000000 
#    z 0.000000 0.000000 3.591010 
# 
# 
# High freq. dielectric constant tensor:
#      x y z
#    x 1.768140 0.000000 0.000000 
#    y 0.000000 1.818680 0.000000 
#    z 0.000000 0.000000 1.784270 
# 
# From -- ./inp_files/15858.got.cif
#   From: 2010.03.12/outbox.cif.g09.slc.cpg/sg24_8_cif.got.tgz:15858.got - 2010.04.14 03:06:53.
