data_PCOD8165423
_publ_section_title
;
Structure prediction by ZEFSAII (Michael W. Deem and Ramdas Pophale) SiO2 
 PCOD8165423
Probable space group: I 21 21 21
;
_chemical_formula_sum "Si O2"
_cell_formula_units_Z 56
_cell_length_a 15.354223
_cell_length_b 8.517021
_cell_length_c 20.778082
_cell_angle_alpha 90.000000
_cell_angle_beta 90.000000
_cell_angle_gamma 90.000000
_cell_volume 2717.196320
_symmetry_space_group_name_H-M "I 21 21 21"
_symmetry_group_IT_number 24
_symmetry_cell_setting 'orthorhombic'
loop_
_space_group_symop_operation_xyz
x,y,z
-x,1/2-y,z
x,-y,1/2-z
1/2-x,y,-z
1/2+x,1/2+y,1/2+z
1/2-x,-y,1/2+z
1/2+x,1/2-y,-z
-x,1/2+y,1/2-z
loop_
_atom_site_type_symbol
_atom_site_label
_atom_site_fract_x
_atom_site_fract_y
_atom_site_fract_z
Si Si1 0.582325 0.649560 0.425603
Si Si2 0.769429 0.093826 0.188363
Si Si3 0.814044 0.948174 0.556850
Si Si4 0.881320 0.407779 0.317044
Si Si5 0.430229 0.555823 0.854858
Si Si6 0.530114 0.924774 0.997526
Si Si7 0.791170 0.445405 0.819485
O O1 0.500000 0.750000 0.398809
O O2 0.656254 0.766865 0.452394
O O3 0.551575 0.537665 0.484566
O O4 0.626295 0.550806 0.367608
O O5 0.727215 0.014928 0.125624
O O6 0.746507 0.273468 0.193903
O O7 0.733901 0.000000 0.250000
O O8 0.874330 0.078058 0.180706
O O9 0.750000 0.993952 0.500000
O O10 0.899041 0.058815 0.553845
O O11 0.870104 0.500000 0.250000
O O12 0.896587 0.219415 0.321796
O O13 0.787999 0.448859 0.350306
O O14 0.967646 0.481901 0.347479
O O15 0.418842 0.537702 0.931394
O O16 0.500000 0.750000 0.991331
O O17 0.825830 0.500000 0.750000
#
# Coordination Sequence:
#
# PCOD8165423 Si02
#       7
#     8   8   8   8   8   8   8
#     4   9  22  43  65  88 125 163 215 264 316 388
#     4  11  22  38  65  93 125 166 213 266 318 381
#     4  10  21  42  64  90 124 171 215 256 319 387
#     4  10  21  37  58  87 130 165 209 259 307 381
#     4  11  22  39  58  87 130 173 211 253 321 376
#     4  11  22  41  61  92 127 163 210 271 315 377
#     4  10  22  41  63  94 126 162 213 266 320 384
#
# _framework density 20.609479
#
# number of rings (size 3 to 8) (size 9 to 14) (size 15 to 20)
#    0.000    1.714    2.857    2.143    0.000    7.429 
#    2.571    7.143    0.000    0.000    0.000    0.000 
#    0.000    0.000    0.000    0.000    0.000    0.000 
#
# Total GULP energy -346913.292487 kJ/mol
# GULP energy per Si atom -12389.760446 kJ/mol
# Density = 2.056257 g / cm^3
# Si number density = 20.609479 Si / 1000 Ang^3
#
#
#
# Elastic Constant Matrix: (Units=GPa)
#
#
# Indices 1 2 3 4 5 6 
#
# 1 77.2839 15.1396 31.3067 0.0000 0.0000 0.0000
# 2 15.1396 45.3889 37.4803 0.0000 0.0000 0.0000
# 3 31.3067 37.4803 111.4786 0.0000 0.0000 0.0000
# 4 0.0000 0.0000 0.0000 27.7918 0.0000 0.0000
# 5 0.0000 0.0000 0.0000 0.0000 36.6261 0.0000
# 6 0.0000 0.0000 0.0000 0.0000 0.0000 24.8146
#
#
#
# Elastic Compliance Matrix: (Units=1/GPa)
#
#
# Indices 1 2 3 4 5 6 
#
# 1 0.014740 -0.002074 -0.003442 0.000000 0.000000 0.000000
# 2 -0.002074 0.030791 -0.009770 0.000000 0.000000 0.000000
# 3 -0.003442 -0.009770 0.013222 0.000000 0.000000 0.000000
# 4 0.000000 0.000000 0.000000 0.035982 0.000000 0.000000
# 5 0.000000 0.000000 0.000000 0.000000 0.027303 0.000000
# 6 0.000000 0.000000 0.000000 0.000000 0.000000 0.040299
#
#
# Mechanical properties :
#
#
# Convention : Reuss Voigt Hill
#
# Bulk Modulus (GPa) = 35.48540 44.66718 40.07629
# Shear Modulus (GPa) = 24.71549 27.86149 26.28849
#
# Velocity S-wave (km/s) = 3.46675 3.68078 3.57536
# Velocity P-wave (km/s) = 5.76887 6.30748 6.04418
#
# Compressibility (1/GPa) = 0.02818060
#
# Stress axis : x y z
#
# Youngs Moduli (GPa) = 67.84266 32.47680 75.63332
#
# Poissons Ratio (x) = 0.06737 0.26033
# Poissons Ratio (y) = 0.14072 0.73892
# Poissons Ratio (z) = 0.23352 0.31729
#
# Static dielectric constant tensor:
#      x y z
#    x 4.125490 0.000000 0.000000 
#    y 0.000000 3.662000 0.000000 
#    z 0.000000 0.000000 3.934790 
# 
# 
# High freq. dielectric constant tensor:
#      x y z
#    x 1.815500 0.000000 0.000000 
#    y 0.000000 1.797340 0.000000 
#    z 0.000000 0.000000 1.799700 
# 
# From -- ./inp_files/25077.got.cif
#   From: 2010.03.12/outbox.cif.g09.slc.cpg/sg24_13_cif.got.tgz:25077.got - 2010.04.14 03:06:53.
