data_PCOD8165407
_publ_section_title
;
Structure prediction by ZEFSAII (Michael W. Deem and Ramdas Pophale) SiO2 
 PCOD8165407
Probable space group: I 21 21 21
;
_chemical_formula_sum "Si O2"
_cell_formula_units_Z 64
_cell_length_a 13.911275
_cell_length_b 24.361594
_cell_length_c 9.462040
_cell_angle_alpha 90.000000
_cell_angle_beta 90.000000
_cell_angle_gamma 90.000000
_cell_volume 3206.693243
_symmetry_space_group_name_H-M "I 21 21 21"
_symmetry_group_IT_number 24
_symmetry_cell_setting 'orthorhombic'
loop_
_space_group_symop_operation_xyz
x,y,z
-x,1/2-y,z
x,-y,1/2-z
1/2-x,y,-z
1/2+x,1/2+y,1/2+z
1/2-x,-y,1/2+z
1/2+x,1/2-y,-z
-x,1/2+y,1/2-z
loop_
_atom_site_type_symbol
_atom_site_label
_atom_site_fract_x
_atom_site_fract_y
_atom_site_fract_z
Si Si1 0.643655 0.339898 0.665669
Si Si2 0.858062 0.770445 0.337530
Si Si3 0.360580 0.432066 0.473861
Si Si4 0.637136 0.057658 0.972717
Si Si5 0.359811 0.159329 0.333107
Si Si6 0.953189 0.880415 0.718049
Si Si7 0.360190 0.269307 0.159428
Si Si8 0.050280 0.620286 0.228929
O O1 0.627313 0.281303 0.737562
O O2 0.624339 0.332262 0.499313
O O3 0.751191 0.362273 0.696108
O O4 0.566543 0.382681 0.732202
O O5 0.889224 0.755371 0.497698
O O6 0.748577 0.790846 0.334532
O O7 0.922490 0.819273 0.279302
O O8 0.250000 0.421488 0.500000
O O9 0.388746 0.494798 0.502380
O O10 0.384834 0.418524 0.312825
O O11 0.420391 0.389386 0.567214
O O12 0.606303 0.072702 0.813783
O O13 0.750000 0.070253 0.000000
O O14 0.566015 0.096630 0.062033
O O15 0.435297 0.115294 0.267751
O O16 0.376068 0.216597 0.255056
O O17 0.926100 0.816575 0.724960
#
# Coordination Sequence:
#
# PCOD8165407 Si02
#       8
#     8   8   8   8   8   8   8   8
#     4  10  23  41  59  86 123 160 200 246 289 342
#     4  10  21  36  58  90 126 159 194 238 292 356
#     4  11  24  40  62  91 119 153 198 246 300 359
#     4  11  24  42  62  89 125 153 190 248 304 357
#     4  10  23  41  59  86 123 160 200 246 289 342
#     4  12  22  38  64  88 118 162 198 240 296 355
#     4  10  21  36  58  90 126 159 194 238 292 356
#     4  12  22  38  64  88 118 162 198 240 296 355
#
# _framework density 19.958252999999999
#
# number of rings (size 3 to 8) (size 9 to 14) (size 15 to 20)
#    0.000    1.250    2.500    3.750    3.500    4.000 
#    0.000    0.000    0.000    4.500    0.000    0.000 
#    0.000    0.000    0.000    0.000    0.000    0.000 
#
# Total GULP energy -396812.908619 kJ/mol
# GULP energy per Si atom -12400.403394 kJ/mol
# Density = 1.991283 g / cm^3
# Si number density = 19.958253 Si / 1000 Ang^3
#
#
#
# Elastic Constant Matrix: (Units=GPa)
#
#
# Indices 1 2 3 4 5 6 
#
# 1 135.9944 48.5915 30.8520 0.0003 0.0000 -0.0001
# 2 48.5915 39.4094 24.8669 -0.0103 0.0002 -0.0002
# 3 30.8520 24.8669 70.0401 0.0436 0.0022 -0.0005
# 4 0.0003 -0.0103 0.0436 -46.1773 -0.0036 -0.0015
# 5 0.0000 0.0002 0.0022 -0.0036 30.4011 -0.0003
# 6 -0.0001 -0.0002 -0.0005 -0.0015 -0.0003 22.2757
#
#
#
# Elastic Compliance Matrix: (Units=1/GPa)
#
#
# Indices 1 2 3 4 5 6 
#
# 1 0.013144 -0.016177 -0.000046 0.000004 0.000000 0.000000
# 2 -0.016177 0.052611 -0.011553 -0.000023 0.000000 0.000000
# 3 -0.000046 -0.011553 0.018400 0.000020 -0.000001 0.000000
# 4 0.000004 -0.000023 0.000020 -0.021656 -0.000003 -0.000001
# 5 0.000000 0.000000 -0.000001 -0.000003 0.032894 0.000000
# 6 0.000000 0.000000 0.000000 -0.000001 0.000000 0.044892
#
#
# Mechanical properties :
#
#
# Convention : Reuss Voigt Hill
#
# Bulk Modulus (GPa) = 34.96304 50.45163 42.70733
# Shear Modulus (GPa) = 24.34621 10.70880 17.52751
#
# Velocity S-wave (km/s) = 3.49643 2.31889 2.96667
# Velocity P-wave (km/s) = 5.81861 5.70115 5.76018
#
# Compressibility (1/GPa) = 0.02860163
#
# Stress axis : x y z
#
# Youngs Moduli (GPa) = 76.08079 19.00751 54.34897
#
# Poissons Ratio (x) = 0.30749 0.00251
# Poissons Ratio (y) = 1.23077 0.62789
# Poissons Ratio (z) = 0.00352 0.21959
#
# Static dielectric constant tensor:
#      x y z
#    x 4.062150 0.000030 0.000020 
#    y 0.000030 3.337680 0.000000 
#    z 0.000020 0.000000 3.750680 
# 
# 
# High freq. dielectric constant tensor:
#      x y z
#    x 1.789870 0.000000 0.000000 
#    y 0.000000 1.751360 0.000000 
#    z 0.000000 0.000000 1.794300 
# 
# From -- ./inp_files/13384.got.cif
#   From: 2010.03.12/outbox.cif.g09.slc.cpg/sg24_7_cif.got.tgz:13384.got - 2010.04.14 03:06:53.
