data_PCOD8165393
_publ_section_title
;
Structure prediction by ZEFSAII (Michael W. Deem and Ramdas Pophale) SiO2 
 PCOD8165393
Probable space group: I 21 21 21
;
_chemical_formula_sum "Si O2"
_cell_formula_units_Z 64
_cell_length_a 22.918315
_cell_length_b 14.557203
_cell_length_c 8.889817
_cell_angle_alpha 90.000000
_cell_angle_beta 90.000000
_cell_angle_gamma 90.000000
_cell_volume 2965.879099
_symmetry_space_group_name_H-M "I 21 21 21"
_symmetry_group_IT_number 24
_symmetry_cell_setting 'orthorhombic'
loop_
_space_group_symop_operation_xyz
x,y,z
-x,1/2-y,z
x,-y,1/2-z
1/2-x,y,-z
1/2+x,1/2+y,1/2+z
1/2-x,-y,1/2+z
1/2+x,1/2-y,-z
-x,1/2+y,1/2-z
loop_
_atom_site_type_symbol
_atom_site_label
_atom_site_fract_x
_atom_site_fract_y
_atom_site_fract_z
Si Si1 0.968078 0.903234 0.681459
Si Si2 0.412157 0.896088 0.197677
Si Si3 0.360722 0.273754 0.153458
Si Si4 0.009370 0.359948 0.145672
Si Si5 0.252362 0.708827 0.820626
Si Si6 0.598768 0.624819 0.847144
Si Si7 0.725473 0.584930 0.834161
Si Si8 0.631205 0.192310 0.804707
O O1 0.916076 0.832769 0.700949
O O2 0.992847 0.913596 0.511598
O O3 0.022572 0.862911 0.770519
O O4 0.947595 0.000000 0.750000
O O5 0.366370 0.829694 0.282334
O O6 0.400139 0.000000 0.250000
O O7 0.409228 0.885552 0.021879
O O8 0.305648 0.323891 0.233455
O O9 0.356761 0.270177 0.973209
O O10 0.076077 0.377478 0.203757
O O11 0.000000 0.250000 0.121639
O O12 0.959640 0.404213 0.253306
O O13 0.260057 0.814842 0.768259
O O14 0.307936 0.650157 0.758054
O O15 0.250000 0.695946 0.000000
O O16 0.656326 0.565597 0.812769
O O17 0.613108 0.729302 0.811211
O O18 0.757303 0.500000 0.750000
O O19 0.750000 0.581759 0.000000
#
# Coordination Sequence:
#
# PCOD8165393 Si02
#       8
#     8   8   8   8   8   8   8   8
#     4  10  22  39  59  86 117 152 198 252 312 370
#     4  11  23  36  55  87 122 157 199 245 298 360
#     4  11  21  38  62  82 118 161 197 248 305 363
#     4   9  18  37  62  88 121 157 200 251 304 364
#     4  10  21  36  55  83 113 149 200 245 294 363
#     4  10  21  35  56  85 119 159 202 248 296 352
#     4  10  22  36  49  73 113 155 193 235 279 337
#     4   9  19  35  57  86 114 154 203 248 303 359
#
# _framework density 21.578762000000001
#
# number of rings (size 3 to 8) (size 9 to 14) (size 15 to 20)
#    0.000    2.000    0.000    5.250    0.000   12.000 
#    0.000    0.000    0.000    3.000    0.000    0.000 
#    0.000    0.000    0.000    0.000    0.000    0.000 
#
# Total GULP energy -396472.429367 kJ/mol
# GULP energy per Si atom -12389.763418 kJ/mol
# Density = 2.152965 g / cm^3
# Si number density = 21.578762 Si / 1000 Ang^3
#
#
#
# Elastic Constant Matrix: (Units=GPa)
#
#
# Indices 1 2 3 4 5 6 
#
# 1 112.1186 14.2140 14.2433 0.0000 0.0000 0.0000
# 2 14.2140 36.2715 31.8895 0.0000 0.0000 0.0000
# 3 14.2433 31.8895 98.0662 0.0000 0.0000 0.0000
# 4 0.0000 0.0000 0.0000 -328.9660 0.0000 0.0000
# 5 0.0000 0.0000 0.0000 0.0000 43.7802 0.0000
# 6 0.0000 0.0000 0.0000 0.0000 0.0000 21.6080
#
#
#
# Elastic Compliance Matrix: (Units=1/GPa)
#
#
# Indices 1 2 3 4 5 6 
#
# 1 0.009389 -0.003474 -0.000234 0.000000 0.000000 0.000000
# 2 -0.003474 0.039893 -0.012468 0.000000 0.000000 0.000000
# 3 -0.000234 -0.012468 0.014286 0.000000 0.000000 0.000000
# 4 0.000000 0.000000 0.000000 -0.003040 0.000000 0.000000
# 5 0.000000 0.000000 0.000000 0.000000 0.022841 0.000000
# 6 0.000000 0.000000 0.000000 0.000000 0.000000 0.046279
#
#
# Mechanical properties :
#
#
# Convention : Reuss Voigt Hill
#
# Bulk Modulus (GPa) = 32.03463 40.79445 36.41454
# Shear Modulus (GPa) = 29.00143 -40.30828 -5.65343
#
# Velocity S-wave (km/s) = 3.67001 -4.32668 -1.62037
# Velocity P-wave (km/s) = 5.73030 2.45240 3.66211
#
# Compressibility (1/GPa) = 0.03121622
#
# Stress axis : x y z
#
# Youngs Moduli (GPa) = 106.50485 25.06714 70.00054
#
# Poissons Ratio (x) = 0.08707 0.01639
# Poissons Ratio (y) = 0.36995 0.87277
# Poissons Ratio (z) = 0.02494 0.31254
#
# Static dielectric constant tensor:
#      x y z
#    x 5.378000 0.000000 0.000000 
#    y 0.000000 4.113720 0.000000 
#    z 0.000000 0.000000 3.859550 
# 
# 
# High freq. dielectric constant tensor:
#      x y z
#    x 1.872500 0.000000 0.000000 
#    y 0.000000 1.802980 0.000000 
#    z 0.000000 0.000000 1.852620 
# 
# From -- ./inp_files/16058.got.cif
#   From: 2010.03.12/outbox.cif.g09.slc.cpg/sg24_9_cif.got.tgz:16058.got - 2010.04.14 03:06:53.
