data_PCOD8165971
_publ_section_title
;
Structure prediction by ZEFSAII (Michael W. Deem and Ramdas Pophale) SiO2 
 PCOD8165971
Probable space group: I 21 21 21
;
_chemical_formula_sum "Si O2"
_cell_formula_units_Z 32
_cell_length_a 8.601540
_cell_length_b 30.736567
_cell_length_c 5.067987
_cell_angle_alpha 90.000000
_cell_angle_beta 90.000000
_cell_angle_gamma 90.000000
_cell_volume 1339.883579
_symmetry_space_group_name_H-M "I 21 21 21"
_symmetry_group_IT_number 24
_symmetry_cell_setting 'orthorhombic'
loop_
_space_group_symop_operation_xyz
x,y,z
-x,1/2-y,z
x,-y,1/2-z
1/2-x,y,-z
1/2+x,1/2+y,1/2+z
1/2-x,-y,1/2+z
1/2+x,1/2-y,-z
-x,1/2+y,1/2-z
loop_
_atom_site_type_symbol
_atom_site_label
_atom_site_fract_x
_atom_site_fract_y
_atom_site_fract_z
Si Si1 0.355249 0.450547 0.248512
Si Si2 0.920673 0.290879 0.904285
Si Si3 0.354386 0.664029 0.748097
Si Si4 0.078883 0.119125 0.585548
O O1 0.417177 0.500000 0.250000
O O2 0.250000 0.439988 0.500000
O O3 0.505769 0.419075 0.236948
O O4 0.250000 0.440897 0.000000
O O5 0.915664 0.334586 0.733616
O O6 0.000000 0.250000 0.748345
O O7 0.750000 0.278092 0.000000
O O8 0.034591 0.296657 0.157067
O O9 0.250000 0.648076 0.500000
O O10 0.250000 0.678301 0.000000
O O11 0.468231 0.624454 0.830156
O O12 0.250000 0.104608 0.500000
#
# Coordination Sequence:
#
# PCOD8165971 Si02
#       4
#     8   8   8   8
#     4  10  25  48  79 115 149 192 247 302 370 457
#     4  12  28  50  73 111 152 201 256 317 369 442
#     4  12  26  47  75 108 142 198 250 305 372 438
#     4  12  27  48  78 112 154 196 250 313 375 444
#
# _framework density 23.882674999999999
#
# number of rings (size 3 to 8) (size 9 to 14) (size 15 to 20)
#    0.000    0.500    5.000    1.500    7.000    1.000 
#    4.500    5.000    0.000    0.000    0.000    0.000 
#    0.000    0.000    0.000    0.000    0.000    0.000 
#
# Total GULP energy -198331.659811 kJ/mol
# GULP energy per Si atom -12395.728738 kJ/mol
# Density = 2.382832 g / cm^3
# Si number density = 23.882675 Si / 1000 Ang^3
#
#
#
# Elastic Constant Matrix: (Units=GPa)
#
#
# Indices 1 2 3 4 5 6 
#
# 1 215.5221 88.2323 72.5626 0.0901 -0.0622 0.0416
# 2 88.2323 162.7020 34.4100 0.1500 -0.0732 -0.0017
# 3 72.5626 34.4100 143.7740 0.2929 -0.2539 0.1306
# 4 0.0901 0.1500 0.2929 36.2268 -0.0232 -0.0163
# 5 -0.0622 -0.0732 -0.2539 -0.0232 5.9148 0.1053
# 6 0.0416 -0.0017 0.1306 -0.0163 0.1053 39.9377
#
#
#
# Elastic Compliance Matrix: (Units=1/GPa)
#
#
# Indices 1 2 3 4 5 6 
#
# 1 0.006831 -0.003134 -0.002698 0.000018 -0.000083 0.000002
# 2 -0.003134 0.007912 -0.000312 -0.000022 0.000051 0.000004
# 3 -0.002698 -0.000312 0.008392 -0.000060 0.000328 -0.000026
# 4 0.000018 -0.000022 -0.000060 0.027604 0.000105 0.000011
# 5 -0.000083 0.000051 0.000328 0.000105 0.169090 -0.000447
# 6 0.000002 0.000004 -0.000026 0.000011 -0.000447 0.025040
#
#
# Mechanical properties :
#
#
# Convention : Reuss Voigt Hill
#
# Bulk Modulus (GPa) = 92.18132 101.37867 96.78000
# Shear Modulus (GPa) = 19.17377 38.20208 28.68792
#
# Velocity S-wave (km/s) = 2.83650 4.00380 3.46960
# Velocity P-wave (km/s) = 7.02916 7.99467 7.52741
#
# Compressibility (1/GPa) = 0.01084819
#
# Stress axis : x y z
#
# Youngs Moduli (GPa) = 146.38724 126.39473 119.15742
#
# Poissons Ratio (x) = 0.39612 0.32146
# Poissons Ratio (y) = 0.45878 0.03714
# Poissons Ratio (z) = 0.39492 0.03939
#
# Static dielectric constant tensor:
#      x y z
#    x 4.860760 0.000000 -0.000980 
#    y 0.000000 4.339200 0.000120 
#    z -0.000980 0.000120 4.558380 
# 
# 
# High freq. dielectric constant tensor:
#      x y z
#    x 1.960230 0.000000 0.000000 
#    y 0.000000 1.945410 0.000000 
#    z 0.000000 0.000000 1.946950 
# 
# From -- ./inp_files/1277.got.cif
#   From: 2010.03.12/outbox.cif.g09.slc.cpg/sg24_1_cif.got.tgz:1277.got - 2010.04.14 03:06:53.
