data_PCOD8165543
_publ_section_title
;
Structure prediction by ZEFSAII (Michael W. Deem and Ramdas Pophale) SiO2 
 PCOD8165543
Probable space group: I 21 21 21
;
_chemical_formula_sum "Si O2"
_cell_formula_units_Z 60
_cell_length_a 10.127668
_cell_length_b 16.665216
_cell_length_c 16.623353
_cell_angle_alpha 90.000000
_cell_angle_beta 90.000000
_cell_angle_gamma 90.000000
_cell_volume 2805.685776
_symmetry_space_group_name_H-M "I 21 21 21"
_symmetry_group_IT_number 24
_symmetry_cell_setting 'orthorhombic'
loop_
_space_group_symop_operation_xyz
x,y,z
-x,1/2-y,z
x,-y,1/2-z
1/2-x,y,-z
1/2+x,1/2+y,1/2+z
1/2-x,-y,1/2+z
1/2+x,1/2-y,-z
-x,1/2+y,1/2-z
loop_
_atom_site_type_symbol
_atom_site_label
_atom_site_fract_x
_atom_site_fract_y
_atom_site_fract_z
Si Si1 0.206631 0.387932 0.193583
Si Si2 0.859593 0.833159 0.836923
Si Si3 0.644852 0.753949 0.570112
Si Si4 0.002968 0.000000 0.250000
Si Si5 0.162339 0.843336 0.839653
Si Si6 0.159889 0.491804 0.574615
Si Si7 0.288847 0.898294 0.676990
Si Si8 0.145004 0.003273 0.566959
O O1 0.296410 0.333895 0.249214
O O2 0.141973 0.331369 0.127078
O O3 0.096431 0.424035 0.255868
O O4 0.297226 0.455516 0.151245
O O5 0.817331 0.746885 0.873591
O O6 0.010966 0.847597 0.813219
O O7 0.813610 0.899813 0.900462
O O8 0.500000 0.750000 0.529771
O O9 0.750000 0.765434 0.500000
O O10 0.670119 0.673986 0.620170
O O11 0.098879 0.030376 0.177797
O O12 0.259569 0.865027 0.766028
O O13 0.186126 0.905772 0.911561
O O14 0.250000 0.515635 0.500000
O O15 0.009142 0.504283 0.544298
O O16 0.160133 0.942883 0.642345
O O17 0.250000 0.973538 0.500000
#
# Coordination Sequence:
#
# PCOD8165543 Si02
#       8
#     8   8   8   4   8   8   8   8
#     4  12  23  42  68  95 129 169 222 269 333 392
#     4  10  21  40  67  95 124 162 215 271 328 391
#     4  12  28  44  64  98 139 176 221 268 333 408
#     4  12  24  38  74  96 128 170 220 286 318 398
#     4  10  21  40  67  95 124 162 215 271 328 391
#     4  11  25  41  64  93 130 171 217 269 328 393
#     4  12  23  42  68  95 129 169 222 269 333 392
#     4  11  25  41  64  93 130 171 217 269 328 393
#
# _framework density 21.385145000000001
#
# number of rings (size 3 to 8) (size 9 to 14) (size 15 to 20)
#    0.000    0.800    5.333    1.600    1.867    6.933 
#    0.000    0.000    0.000    0.000    0.000    0.000 
#    0.000    0.000    0.000    0.000    0.000    0.000 
#
# Total GULP energy -371716.302313 kJ/mol
# GULP energy per Si atom -12390.543410 kJ/mol
# Density = 2.133647 g / cm^3
# Si number density = 21.385145 Si / 1000 Ang^3
#
#
#
# Elastic Constant Matrix: (Units=GPa)
#
#
# Indices 1 2 3 4 5 6 
#
# 1 108.7899 31.3567 30.9665 0.0000 0.0000 0.0000
# 2 31.3567 118.2217 13.5519 0.0000 0.0000 0.0000
# 3 30.9665 13.5519 44.4959 0.0000 0.0000 0.0000
# 4 0.0000 0.0000 0.0000 29.9467 0.0000 0.0000
# 5 0.0000 0.0000 0.0000 0.0000 34.2587 0.0000
# 6 0.0000 0.0000 0.0000 0.0000 0.0000 26.3180
#
#
#
# Elastic Compliance Matrix: (Units=1/GPa)
#
#
# Indices 1 2 3 4 5 6 
#
# 1 0.012044 -0.002315 -0.007677 0.000000 0.000000 0.000000
# 2 -0.002315 0.009209 -0.001194 0.000000 0.000000 0.000000
# 3 -0.007677 -0.001194 0.028181 0.000000 0.000000 0.000000
# 4 0.000000 0.000000 0.000000 0.033393 0.000000 0.000000
# 5 0.000000 0.000000 0.000000 0.000000 0.029190 0.000000
# 6 0.000000 0.000000 0.000000 0.000000 0.000000 0.037997
#
#
# Mechanical properties :
#
#
# Convention : Reuss Voigt Hill
#
# Bulk Modulus (GPa) = 36.95129 47.02865 41.98997
# Shear Modulus (GPa) = 27.56240 31.14683 29.35462
#
# Velocity S-wave (km/s) = 3.59396 3.82051 3.70897
# Velocity P-wave (km/s) = 5.87695 6.44211 6.16601
#
# Compressibility (1/GPa) = 0.02706265
#
# Stress axis : x y z
#
# Youngs Moduli (GPa) = 83.02566 108.58386 35.48537
#
# Poissons Ratio (x) = 0.25133 0.27243
# Poissons Ratio (y) = 0.19217 0.04237
# Poissons Ratio (z) = 0.63741 0.12966
#
# Static dielectric constant tensor:
#      x y z
#    x 4.003090 0.000000 0.000000 
#    y 0.000000 4.242160 0.000000 
#    z 0.000000 0.000000 3.557280 
# 
# 
# High freq. dielectric constant tensor:
#      x y z
#    x 1.847670 0.000000 0.000000 
#    y 0.000000 1.858830 0.000000 
#    z 0.000000 0.000000 1.813290 
# 
# From -- ./inp_files/29711.got.cif
#   From: 2010.03.12/outbox.cif.g09.slc.cpg/sg24_15_cif.got.tgz:29711.got - 2010.04.14 03:06:53.
