data_PCOD8165979
_publ_section_title
;
Structure prediction by ZEFSAII (Michael W. Deem and Ramdas Pophale) SiO2 
 PCOD8165979
Probable space group: I 21 21 21
;
_chemical_formula_sum "Si O2"
_cell_formula_units_Z 36
_cell_length_a 23.453347
_cell_length_b 5.324040
_cell_length_c 12.509287
_cell_angle_alpha 90.000000
_cell_angle_beta 90.000000
_cell_angle_gamma 90.000000
_cell_volume 1561.991605
_symmetry_space_group_name_H-M "I 21 21 21"
_symmetry_group_IT_number 24
_symmetry_cell_setting 'orthorhombic'
loop_
_space_group_symop_operation_xyz
x,y,z
-x,1/2-y,z
x,-y,1/2-z
1/2-x,y,-z
1/2+x,1/2+y,1/2+z
1/2-x,-y,1/2+z
1/2+x,1/2-y,-z
-x,1/2+y,1/2-z
loop_
_atom_site_type_symbol
_atom_site_label
_atom_site_fract_x
_atom_site_fract_y
_atom_site_fract_z
Si Si1 0.095488 0.502443 0.967191
Si Si2 0.416124 0.000000 0.750000
Si Si3 0.750000 0.424406 0.000000
Si Si4 0.671693 0.867659 0.646440
Si Si5 0.858087 0.520168 0.873596
Si Si6 0.500000 0.250000 0.584832
O O1 0.107672 0.228911 0.914399
O O2 0.102825 0.732685 0.884310
O O3 0.141527 0.552458 0.061802
O O4 0.030994 0.534121 0.012922
O O5 0.378025 0.184311 0.818038
O O6 0.453229 0.129835 0.660146
O O7 0.773306 0.258269 0.096357
O O8 0.698448 0.576822 0.054894
O O9 0.697498 0.000000 0.750000
O O10 0.841273 0.500000 0.750000
#
# Coordination Sequence:
#
# PCOD8165979 Si02
#       6
#     8   4   4   8   8   4
#     4  11  25  45  70 105 142 182 240 289 356 420
#     4  12  24  42  68 106 148 180 240 290 366 414
#     4  10  26  40  72 100 138 192 236 284 360 412
#     4  11  24  44  64 105 145 182 231 296 347 433
#     4  11  26  48  71 103 143 189 239 297 341 424
#     4  12  22  42  74 102 142 194 226 300 362 412
#
# _framework density 23.047499999999999
#
# number of rings (size 3 to 8) (size 9 to 14) (size 15 to 20)
#    0.000    0.889    2.222    4.667    1.556    9.778 
#    0.000    2.222    0.000    0.000    0.000    0.000 
#    0.000    0.000    0.000    0.000    0.000    0.000 
#
# Total GULP energy -223087.003765 kJ/mol
# GULP energy per Si atom -12393.722431 kJ/mol
# Density = 2.299504 g / cm^3
# Si number density = 23.047500 Si / 1000 Ang^3
#
#
#
# Elastic Constant Matrix: (Units=GPa)
#
#
# Indices 1 2 3 4 5 6 
#
# 1 105.9463 39.7354 32.1497 0.0000 0.0000 0.0000
# 2 39.7354 114.0600 37.3354 0.0000 0.0000 0.0000
# 3 32.1497 37.3354 124.1367 0.0000 0.0000 0.0000
# 4 0.0000 0.0000 0.0000 34.0924 0.0000 0.0000
# 5 0.0000 0.0000 0.0000 0.0000 55.7475 0.0000
# 6 0.0000 0.0000 0.0000 0.0000 0.0000 -5.0638
#
#
#
# Elastic Compliance Matrix: (Units=1/GPa)
#
#
# Indices 1 2 3 4 5 6 
#
# 1 0.011258 -0.003292 -0.001926 0.000000 0.000000 0.000000
# 2 -0.003292 0.010687 -0.002362 0.000000 0.000000 0.000000
# 3 -0.001926 -0.002362 0.009265 0.000000 0.000000 0.000000
# 4 0.000000 0.000000 0.000000 0.029332 0.000000 0.000000
# 5 0.000000 0.000000 0.000000 0.000000 0.017938 0.000000
# 6 0.000000 0.000000 0.000000 0.000000 0.000000 -0.197480
#
#
# Mechanical properties :
#
#
# Convention : Reuss Voigt Hill
#
# Bulk Modulus (GPa) = 62.29949 62.50935 62.40442
# Shear Modulus (GPa) = -50.76530 32.61671 -9.07429
#
# Velocity S-wave (km/s) = -4.69832 3.76599 -1.98639
# Velocity P-wave (km/s) = 1.53058 6.78904 4.67699
#
# Compressibility (1/GPa) = 0.01605150
#
# Stress axis : x y z
#
# Youngs Moduli (GPa) = 88.82916 93.57094 107.93683
#
# Poissons Ratio (x) = 0.30799 0.20784
# Poissons Ratio (y) = 0.29238 0.25492
# Poissons Ratio (z) = 0.17105 0.22100
#
# Static dielectric constant tensor:
#      x y z
#    x 4.131950 0.000000 0.000000 
#    y 0.000000 4.062390 0.000000 
#    z 0.000000 0.000000 4.483570 
# 
# 
# High freq. dielectric constant tensor:
#      x y z
#    x 1.910290 0.000000 0.000000 
#    y 0.000000 1.905060 0.000000 
#    z 0.000000 0.000000 1.924130 
# 
# From -- ./inp_files/22478.got.cif
#   From: 2010.03.12/outbox.cif.g09.slc.cpg/sg24_12_cif.got.tgz:22478.got - 2010.04.14 03:06:53.
