data_PCOD8165114
_publ_section_title
;
Structure prediction by ZEFSAII (Michael W. Deem and Ramdas Pophale) SiO2 
 PCOD8165114
Probable space group: I 21 21 21
;
_chemical_formula_sum "Si O2"
_cell_formula_units_Z 48
_cell_length_a 22.409429
_cell_length_b 18.132787
_cell_length_c 5.307374
_cell_angle_alpha 90.000000
_cell_angle_beta 90.000000
_cell_angle_gamma 90.000000
_cell_volume 2156.627026
_symmetry_space_group_name_H-M "I 21 21 21"
_symmetry_group_IT_number 24
_symmetry_cell_setting 'orthorhombic'
loop_
_space_group_symop_operation_xyz
x,y,z
-x,1/2-y,z
x,-y,1/2-z
1/2-x,y,-z
1/2+x,1/2+y,1/2+z
1/2-x,-y,1/2+z
1/2+x,1/2-y,-z
-x,1/2+y,1/2-z
loop_
_atom_site_type_symbol
_atom_site_label
_atom_site_fract_x
_atom_site_fract_y
_atom_site_fract_z
Si Si1 0.250000 0.375177 0.500000
Si Si2 0.958632 0.588520 0.494427
Si Si3 0.683904 0.000000 0.750000
Si Si4 0.122942 0.325510 0.535798
Si Si5 0.917752 0.340896 0.504652
Si Si6 0.591165 0.912395 0.524879
Si Si7 0.653119 0.522893 0.999751
O O1 0.273543 0.429756 0.717483
O O2 0.194734 0.323953 0.581428
O O3 0.954966 0.638149 0.746374
O O4 0.910465 0.522187 0.496260
O O5 0.024582 0.553379 0.476061
O O6 0.952590 0.642389 0.253656
O O7 0.639024 0.019799 0.985013
O O8 0.099286 0.243522 0.509494
O O9 0.104939 0.369204 0.285066
O O10 0.094919 0.359620 0.785735
O O11 0.857353 0.389930 0.502686
O O12 0.689548 0.500000 0.250000
O O13 0.689934 0.500000 0.750000
#
# Coordination Sequence:
#
# PCOD8165114 Si02
#       7
#     4   8   4   8   8   8   8
#     4  10  22  44  62  84 112 152 204 266 286 332
#     4  10  20  35  56  82 122 151 189 230 281 354
#     4  10  22  40  66  84 114 152 206 256 298 326
#     4  11  24  40  58  83 112 152 199 241 304 345
#     4  10  20  35  55  81 116 157 188 229 288 356
#     4  11  24  37  58  88 113 152 194 238 291 362
#     4   8  16  30  49  76 103 149 180 215 264 328
#
# _framework density 22.256979000000001
#
# number of rings (size 3 to 8) (size 9 to 14) (size 15 to 20)
#    0.000    2.000    0.000    3.000    3.500    8.000 
#    9.000    0.000    0.000    0.000    0.000   10.500 
#    0.000    0.000    0.000    0.000    0.000    0.000 
#
# Total GULP energy -297328.613854 kJ/mol
# GULP energy per Si atom -12388.692244 kJ/mol
# Density = 2.220632 g / cm^3
# Si number density = 22.256979 Si / 1000 Ang^3
#
#
#
# Elastic Constant Matrix: (Units=GPa)
#
#
# Indices 1 2 3 4 5 6 
#
# 1 80.9316 14.2704 2.2705 0.0000 0.0000 0.0000
# 2 14.2704 74.5546 23.5851 0.0000 0.0000 0.0000
# 3 2.2705 23.5851 177.4993 0.0000 0.0000 0.0000
# 4 0.0000 0.0000 0.0000 28.9745 0.0000 0.0000
# 5 0.0000 0.0000 0.0000 0.0000 4.5481 0.0000
# 6 0.0000 0.0000 0.0000 0.0000 0.0000 -39.7072
#
#
#
# Elastic Compliance Matrix: (Units=1/GPa)
#
#
# Indices 1 2 3 4 5 6 
#
# 1 0.012793 -0.002502 0.000169 0.000000 0.000000 0.000000
# 2 -0.002502 0.014491 -0.001893 0.000000 0.000000 0.000000
# 3 0.000169 -0.001893 0.005883 0.000000 0.000000 0.000000
# 4 0.000000 0.000000 0.000000 0.034513 0.000000 0.000000
# 5 0.000000 0.000000 0.000000 0.000000 0.219871 0.000000
# 6 0.000000 0.000000 0.000000 0.000000 0.000000 -0.025184
#
#
# Mechanical properties :
#
#
# Convention : Reuss Voigt Hill
#
# Bulk Modulus (GPa) = 40.46392 45.91528 43.18960
# Shear Modulus (GPa) = 17.91746 18.28705 18.10226
#
# Velocity S-wave (km/s) = 2.84038 2.86952 2.85499
# Velocity P-wave (km/s) = 5.38301 5.62612 5.50591
#
# Compressibility (1/GPa) = 0.02471337
#
# Stress axis : x y z
#
# Youngs Moduli (GPa) = 78.17049 69.00886 169.97388
#
# Poissons Ratio (x) = 0.17266 -0.02869
# Poissons Ratio (y) = 0.19558 0.32184
# Poissons Ratio (z) = -0.01320 0.13067
#
# Static dielectric constant tensor:
#      x y z
#    x 3.982210 0.000000 0.000000 
#    y 0.000000 3.918330 0.000000 
#    z 0.000000 0.000000 4.998270 
# 
# 
# High freq. dielectric constant tensor:
#      x y z
#    x 1.857880 0.000000 0.000000 
#    y 0.000000 1.862990 0.000000 
#    z 0.000000 0.000000 1.902010 
# 
# From -- ./inp_files/4869.got.cif
#   From: 2010.03.12/outbox.cif.g09.slc.cpg/sg24_3_cif.got.tgz:4869.got - 2010.04.14 03:06:53.
