data_PCOD8165287
_publ_section_title
;
Structure prediction by ZEFSAII (Michael W. Deem and Ramdas Pophale) SiO2 
 PCOD8165287
Probable space group: I 21 21 21
;
_chemical_formula_sum "Si O2"
_cell_formula_units_Z 56
_cell_length_a 7.794236
_cell_length_b 17.162892
_cell_length_c 20.698810
_cell_angle_alpha 90.000000
_cell_angle_beta 90.000000
_cell_angle_gamma 90.000000
_cell_volume 2768.913567
_symmetry_space_group_name_H-M "I 21 21 21"
_symmetry_group_IT_number 24
_symmetry_cell_setting 'orthorhombic'
loop_
_space_group_symop_operation_xyz
x,y,z
-x,1/2-y,z
x,-y,1/2-z
1/2-x,y,-z
1/2+x,1/2+y,1/2+z
1/2-x,-y,1/2+z
1/2+x,1/2-y,-z
-x,1/2+y,1/2-z
loop_
_atom_site_type_symbol
_atom_site_label
_atom_site_fract_x
_atom_site_fract_y
_atom_site_fract_z
Si Si1 0.361694 0.573659 0.599085
Si Si2 0.507797 0.587291 0.733270
Si Si3 0.505339 0.834196 0.392493
Si Si4 0.806379 0.918754 0.929231
Si Si5 0.927690 0.465473 0.975810
Si Si6 0.363960 0.161938 0.248514
Si Si7 0.203815 0.329684 0.694812
O O1 0.488790 0.599476 0.656252
O O2 0.314909 0.482373 0.605709
O O3 0.451433 0.577065 0.529062
O O4 0.196816 0.629722 0.605310
O O5 0.458592 0.500000 0.750000
O O6 0.703710 0.603968 0.752946
O O7 0.378730 0.642756 0.771953
O O8 0.500000 0.750000 0.427953
O O9 0.381014 0.895849 0.426961
O O10 0.418486 0.817348 0.323697
O O11 0.800630 0.843677 0.882605
O O12 0.750000 0.890035 0.000000
O O13 0.988309 0.961574 0.939003
O O14 0.750000 0.500621 0.000000
O O15 0.314957 0.239007 0.288809
O O16 0.535295 0.123257 0.279490
#
# Coordination Sequence:
#
# PCOD8165287 Si02
#       7
#     8   8   8   8   8   8   8
#     4  10  20  39  60  90 125 167 210 265 328 376
#     4  12  23  37  66  97 124 167 219 269 326 386
#     4  11  20  38  59  85 127 177 209 254 321 391
#     4   9  20  40  68  86 122 170 213 265 334 380
#     4  10  22  37  59  94 131 162 215 279 313 387
#     4  11  24  39  64  93 131 170 217 262 323 384
#     4  11  22  44  63  88 131 175 206 275 327 378
#
# _framework density 20.224540000000001
#
# number of rings (size 3 to 8) (size 9 to 14) (size 15 to 20)
#    0.000    1.429    4.286    2.571    0.000    5.143 
#    0.000    2.857    6.286    0.000    0.000    0.000 
#    0.000    0.000    0.000    0.000    0.000    0.000 
#
# Total GULP energy -346953.888797 kJ/mol
# GULP energy per Si atom -12391.210314 kJ/mol
# Density = 2.017851 g / cm^3
# Si number density = 20.224540 Si / 1000 Ang^3
#
#
#
# Elastic Constant Matrix: (Units=GPa)
#
#
# Indices 1 2 3 4 5 6 
#
# 1 95.7768 4.1138 20.0524 0.0000 0.0000 0.0000
# 2 4.1138 59.8904 34.8553 0.0000 0.0000 0.0000
# 3 20.0524 34.8553 108.1157 0.0000 0.0000 0.0000
# 4 0.0000 0.0000 0.0000 32.8085 0.0000 0.0000
# 5 0.0000 0.0000 0.0000 0.0000 19.8061 0.0000
# 6 0.0000 0.0000 0.0000 0.0000 0.0000 19.7460
#
#
#
# Elastic Compliance Matrix: (Units=1/GPa)
#
#
# Indices 1 2 3 4 5 6 
#
# 1 0.010876 0.000526 -0.002187 0.000000 0.000000 0.000000
# 2 0.000526 0.020579 -0.006732 0.000000 0.000000 0.000000
# 3 -0.002187 -0.006732 0.011825 0.000000 0.000000 0.000000
# 4 0.000000 0.000000 0.000000 0.030480 0.000000 0.000000
# 5 0.000000 0.000000 0.000000 0.000000 0.050490 0.000000
# 6 0.000000 0.000000 0.000000 0.000000 0.000000 0.050643
#
#
# Mechanical properties :
#
#
# Convention : Reuss Voigt Hill
#
# Bulk Modulus (GPa) = 37.74400 42.42511 40.08455
# Shear Modulus (GPa) = 24.93636 28.12287 26.52961
#
# Velocity S-wave (km/s) = 3.51518 3.73303 3.62574
# Velocity P-wave (km/s) = 5.93113 6.29311 6.11480
#
# Compressibility (1/GPa) = 0.02649428
#
# Stress axis : x y z
#
# Youngs Moduli (GPa) = 91.94408 48.59336 84.56511
#
# Poissons Ratio (x) = -0.02554 0.18491
# Poissons Ratio (y) = -0.04832 0.56928
# Poissons Ratio (z) = 0.20105 0.32713
#
# Static dielectric constant tensor:
#      x y z
#    x 3.838310 0.000000 0.000000 
#    y 0.000000 3.387140 0.000000 
#    z 0.000000 0.000000 3.808350 
# 
# 
# High freq. dielectric constant tensor:
#      x y z
#    x 1.795840 0.000000 0.000000 
#    y 0.000000 1.766690 0.000000 
#    z 0.000000 0.000000 1.793930 
# 
# From -- ./inp_files/32826.got.cif
#   From: 2010.03.12/outbox.cif.g09.slc.cpg/sg24_17_cif.got.tgz:32826.got - 2010.04.14 03:06:53.
