data_PCOD8165642
_publ_section_title
;
Structure prediction by ZEFSAII (Michael W. Deem and Ramdas Pophale) SiO2 
 PCOD8165642
Probable space group: I 21 21 21
;
_chemical_formula_sum "Si O2"
_cell_formula_units_Z 44
_cell_length_a 25.179535
_cell_length_b 5.031516
_cell_length_c 16.368710
_cell_angle_alpha 90.000000
_cell_angle_beta 90.000000
_cell_angle_gamma 90.000000
_cell_volume 2073.772056
_symmetry_space_group_name_H-M "I 21 21 21"
_symmetry_group_IT_number 24
_symmetry_cell_setting 'orthorhombic'
loop_
_space_group_symop_operation_xyz
x,y,z
-x,1/2-y,z
x,-y,1/2-z
1/2-x,y,-z
1/2+x,1/2+y,1/2+z
1/2-x,-y,1/2+z
1/2+x,1/2-y,-z
-x,1/2+y,1/2-z
loop_
_atom_site_type_symbol
_atom_site_label
_atom_site_fract_x
_atom_site_fract_y
_atom_site_fract_z
Si Si1 0.551034 0.123282 0.171456
Si Si2 0.748633 0.928087 0.595054
Si Si3 0.000000 0.750000 0.962790
Si Si4 0.189403 0.923243 0.156351
Si Si5 0.111528 0.761621 0.028920
Si Si6 0.359167 0.241153 0.066496
O O1 0.500000 0.250000 0.214804
O O2 0.594199 0.316127 0.131963
O O3 0.580767 0.000000 0.250000
O O4 0.527342 0.961342 0.095630
O O5 0.750000 0.007454 0.500000
O O6 0.707613 0.686697 0.608080
O O7 0.807700 0.829949 0.618005
O O8 0.732889 0.186740 0.647927
O O9 0.048956 0.845371 0.021296
O O10 0.181021 0.000000 0.250000
O O11 0.133212 0.810218 0.120902
O O12 0.123593 0.461816 0.000681
O O13 0.148747 0.955738 0.974713
#
# Coordination Sequence:
#
# PCOD8165642 Si02
#       6
#     8   8   4   8   8   8
#     4  11  21  36  55  85 124 159 199 258 314 371
#     4  12  22  42  67  94 126 175 218 262 315 397
#     4  10  22  36  62  84 118 162 218 250 310 384
#     4  12  25  41  66  96 133 165 212 273 336 375
#     4  11  21  40  62  93 118 166 210 268 305 390
#     4  11  23  37  64  88 124 165 219 248 312 381
#
# _framework density 21.217376000000002
#
# number of rings (size 3 to 8) (size 9 to 14) (size 15 to 20)
#    0.000    0.727    6.364    2.182    0.000    1.455 
#    0.000    0.909    0.000    6.545    0.000    0.000 
#    0.000    0.000    0.000    0.000    0.000    0.000 
#
# Total GULP energy -272551.723412 kJ/mol
# GULP energy per Si atom -12388.714701 kJ/mol
# Density = 2.116908 g / cm^3
# Si number density = 21.217376 Si / 1000 Ang^3
#
#
#
# Elastic Constant Matrix: (Units=GPa)
#
#
# Indices 1 2 3 4 5 6 
#
# 1 109.9448 5.9917 40.9046 0.0000 0.0000 0.0000
# 2 5.9917 78.9760 9.6569 0.0000 0.0000 0.0000
# 3 40.9046 9.6569 89.5586 0.0000 0.0000 0.0000
# 4 0.0000 0.0000 0.0000 14.8309 0.0000 0.0000
# 5 0.0000 0.0000 0.0000 0.0000 22.6574 0.0000
# 6 0.0000 0.0000 0.0000 0.0000 0.0000 27.2440
#
#
#
# Elastic Compliance Matrix: (Units=1/GPa)
#
#
# Indices 1 2 3 4 5 6 
#
# 1 0.010961 -0.000222 -0.004982 0.000000 0.000000 0.000000
# 2 -0.000222 0.012836 -0.001282 0.000000 0.000000 0.000000
# 3 -0.004982 -0.001282 0.013580 0.000000 0.000000 0.000000
# 4 0.000000 0.000000 0.000000 0.067427 0.000000 0.000000
# 5 0.000000 0.000000 0.000000 0.000000 0.044136 0.000000
# 6 0.000000 0.000000 0.000000 0.000000 0.000000 0.036705
#
#
# Mechanical properties :
#
#
# Convention : Reuss Voigt Hill
#
# Bulk Modulus (GPa) = 40.97978 43.50955 42.24467
# Shear Modulus (GPa) = 24.18340 27.74154 25.96247
#
# Velocity S-wave (km/s) = 3.37974 3.61985 3.50185
# Velocity P-wave (km/s) = 5.88102 6.16621 6.02530
#
# Compressibility (1/GPa) = 0.02440228
#
# Stress axis : x y z
#
# Youngs Moduli (GPa) = 91.23019 77.90733 73.63875
#
# Poissons Ratio (x) = 0.01732 0.36690
# Poissons Ratio (y) = 0.02029 0.09444
# Poissons Ratio (z) = 0.45455 0.09991
#
# Static dielectric constant tensor:
#      x y z
#    x 4.550160 0.000000 0.000000 
#    y 0.000000 4.174380 0.000000 
#    z 0.000000 0.000000 3.645300 
# 
# 
# High freq. dielectric constant tensor:
#      x y z
#    x 1.838230 0.000000 0.000000 
#    y 0.000000 1.837050 0.000000 
#    z 0.000000 0.000000 1.805820 
# 
# From -- ./inp_files/27978.got.cif
#   From: 2010.03.12/outbox.cif.g09.slc.cpg/sg24_14_cif.got.tgz:27978.got - 2010.04.14 03:06:53.
