data_PCOD8165666
_publ_section_title
;
Structure prediction by ZEFSAII (Michael W. Deem and Ramdas Pophale) SiO2 
 PCOD8165666
Probable space group: I 21 21 21
;
_chemical_formula_sum "Si O2"
_cell_formula_units_Z 36
_cell_length_a 18.065294
_cell_length_b 8.565083
_cell_length_c 9.567874
_cell_angle_alpha 90.000000
_cell_angle_beta 90.000000
_cell_angle_gamma 90.000000
_cell_volume 1480.444248
_symmetry_space_group_name_H-M "I 21 21 21"
_symmetry_group_IT_number 24
_symmetry_cell_setting 'orthorhombic'
loop_
_space_group_symop_operation_xyz
x,y,z
-x,1/2-y,z
x,-y,1/2-z
1/2-x,y,-z
1/2+x,1/2+y,1/2+z
1/2-x,-y,1/2+z
1/2+x,1/2-y,-z
-x,1/2+y,1/2-z
loop_
_atom_site_type_symbol
_atom_site_label
_atom_site_fract_x
_atom_site_fract_y
_atom_site_fract_z
Si Si1 0.000000 0.750000 0.639164
Si Si2 0.732328 0.500000 0.250000
Si Si3 0.250000 0.201188 0.000000
Si Si4 0.371585 0.559853 0.457844
Si Si5 0.408656 0.500000 0.750000
Si Si6 0.887270 0.714413 0.868941
Si Si7 0.000000 0.250000 0.396550
O O1 0.042399 0.617333 0.549497
O O2 0.063253 0.827347 0.734375
O O3 0.779669 0.400623 0.134723
O O4 0.684731 0.607897 0.143638
O O5 0.186729 0.303964 0.921375
O O6 0.354076 0.531060 0.620661
O O7 0.364312 0.400203 0.367507
O O8 0.463946 0.364945 0.710814
O O9 0.935100 0.675248 0.006755
#
# Coordination Sequence:
#
# PCOD8165666 Si02
#       7
#     4   4   4   8   4   8   4
#     4  11  21  40  78 108 133 185 248 314 354 437
#     4  12  28  48  69 111 142 200 252 318 380 450
#     4  12  30  48  74 100 152 202 254 318 380 466
#     4  11  25  45  70 105 145 198 242 304 385 454
#     4  10  22  38  63 103 144 184 224 294 376 450
#     4  10  24  41  73 105 138 184 252 312 367 444
#     4   9  21  38  66 104 137 177 224 304 366 437
#
# _framework density 24.317025000000001
#
# number of rings (size 3 to 8) (size 9 to 14) (size 15 to 20)
#    0.000    1.333    2.222    1.333    9.333    8.000 
#    0.000    1.111    0.000    0.000    0.000    0.000 
#    0.000    0.000    0.000    0.000    0.000    0.000 
#
# Total GULP energy -222989.980306 kJ/mol
# GULP energy per Si atom -12388.332239 kJ/mol
# Density = 2.426168 g / cm^3
# Si number density = 24.317025 Si / 1000 Ang^3
#
#
#
# Elastic Constant Matrix: (Units=GPa)
#
#
# Indices 1 2 3 4 5 6 
#
# 1 64.4980 35.5560 6.2718 0.0000 0.0000 0.0000
# 2 35.5560 100.5215 20.9231 0.0000 0.0000 0.0000
# 3 6.2718 20.9231 54.3092 0.0000 0.0000 0.0000
# 4 0.0000 0.0000 0.0000 38.3631 0.0000 0.0000
# 5 0.0000 0.0000 0.0000 0.0000 -6.3291 0.0000
# 6 0.0000 0.0000 0.0000 0.0000 0.0000 37.5105
#
#
#
# Elastic Compliance Matrix: (Units=1/GPa)
#
#
# Indices 1 2 3 4 5 6 
#
# 1 0.019269 -0.006907 0.000435 0.000000 0.000000 0.000000
# 2 -0.006907 0.013291 -0.004323 0.000000 0.000000 0.000000
# 3 0.000435 -0.004323 0.020028 0.000000 0.000000 0.000000
# 4 0.000000 0.000000 0.000000 0.026067 0.000000 0.000000
# 5 0.000000 0.000000 0.000000 0.000000 -0.158000 0.000000
# 6 0.000000 0.000000 0.000000 0.000000 0.000000 0.026659
#
#
# Mechanical properties :
#
#
# Convention : Reuss Voigt Hill
#
# Bulk Modulus (GPa) = 32.25731 38.31451 35.28591
# Shear Modulus (GPa) = -240.80081 24.34741 -108.22670
#
# Velocity S-wave (km/s) = -9.96196 3.16769 -6.67856
# Velocity P-wave (km/s) = 10.90993 5.40087 6.70288
#
# Compressibility (1/GPa) = 0.03100073
#
# Stress axis : x y z
#
# Youngs Moduli (GPa) = 51.89573 75.23979 49.92961
#
# Poissons Ratio (x) = 0.51965 -0.02174
# Poissons Ratio (y) = 0.35842 0.21584
# Poissons Ratio (z) = -0.02260 0.32525
#
# Static dielectric constant tensor:
#      x y z
#    x 4.189420 0.000000 0.000000 
#    y 0.000000 4.489320 0.000000 
#    z 0.000000 0.000000 4.454760 
# 
# 
# High freq. dielectric constant tensor:
#      x y z
#    x 1.931470 0.000000 0.000000 
#    y 0.000000 1.971360 0.000000 
#    z 0.000000 0.000000 1.983600 
# 
# From -- ./inp_files/9137.got.cif
#   From: 2010.03.12/outbox.cif.g09.slc.cpg/sg24_5_cif.got.tgz:9137.got - 2010.04.14 03:06:53.
