data_PCOD8165297
_publ_section_title
;
Structure prediction by ZEFSAII (Michael W. Deem and Ramdas Pophale) SiO2 
 PCOD8165297
Probable space group: I 21 21 21
;
_chemical_formula_sum "Si O2"
_cell_formula_units_Z 56
_cell_length_a 21.336990
_cell_length_b 8.436394
_cell_length_c 13.735685
_cell_angle_alpha 90.000000
_cell_angle_beta 90.000000
_cell_angle_gamma 90.000000
_cell_volume 2472.522944
_symmetry_space_group_name_H-M "I 21 21 21"
_symmetry_group_IT_number 24
_symmetry_cell_setting 'orthorhombic'
loop_
_space_group_symop_operation_xyz
x,y,z
-x,1/2-y,z
x,-y,1/2-z
1/2-x,y,-z
1/2+x,1/2+y,1/2+z
1/2-x,-y,1/2+z
1/2+x,1/2-y,-z
-x,1/2+y,1/2-z
loop_
_atom_site_type_symbol
_atom_site_label
_atom_site_fract_x
_atom_site_fract_y
_atom_site_fract_z
Si Si1 0.221447 0.667506 0.853548
Si Si2 0.818241 0.831745 0.634489
Si Si3 0.869597 0.838588 0.135323
Si Si4 0.723134 0.583731 0.644933
Si Si5 0.887488 0.195193 0.155457
Si Si6 0.145092 0.099692 0.514381
Si Si7 0.568059 0.696603 0.461980
O O1 0.186683 0.664386 0.750547
O O2 0.208332 0.499232 0.907833
O O3 0.295543 0.688889 0.845223
O O4 0.192185 0.822069 0.907043
O O5 0.786273 0.663928 0.599316
O O6 0.888185 0.821882 0.593555
O O7 0.909883 0.790804 0.232161
O O8 0.893005 0.738010 0.042630
O O9 0.884617 0.019275 0.113530
O O10 0.734681 0.500000 0.750000
O O11 0.682921 0.741736 0.658918
O O12 0.689192 0.473240 0.568492
O O13 0.930424 0.292509 0.080275
O O14 0.092639 0.982644 0.561681
O O15 0.500000 0.750000 0.424359
#
# Coordination Sequence:
#
# PCOD8165297 Si02
#       7
#     8   8   8   8   8   8   8
#     4  11  22  41  65 106 136 164 211 271 345 431
#     4  11  23  42  65  89 139 175 214 269 348 390
#     4  11  19  38  62 106 137 161 202 265 344 432
#     4  11  20  37  61 105 138 170 202 266 347 432
#     4  10  20  39  64  90 138 172 204 267 344 394
#     4  11  25  37  68  98 138 170 223 268 333 410
#     4  11  28  46  59  86 129 176 236 286 317 379
#
# _framework density 22.648931999999999
#
# number of rings (size 3 to 8) (size 9 to 14) (size 15 to 20)
#    0.000    1.143    4.286    2.143    6.000    1.714 
#    0.000    8.571    0.000    0.000    0.000    0.000 
#    0.000    0.000    0.000    0.000    0.000    0.000 
#
# Total GULP energy -346868.052302 kJ/mol
# GULP energy per Si atom -12388.144725 kJ/mol
# Density = 2.259738 g / cm^3
# Si number density = 22.648932 Si / 1000 Ang^3
#
#
#
# Elastic Constant Matrix: (Units=GPa)
#
#
# Indices 1 2 3 4 5 6 
#
# 1 70.6650 20.4116 1.8970 0.0000 0.0000 0.0000
# 2 20.4116 94.6236 2.2377 0.0000 0.0000 0.0000
# 3 1.8970 2.2377 52.9524 0.0000 0.0000 0.0000
# 4 0.0000 0.0000 0.0000 32.5777 0.0000 0.0000
# 5 0.0000 0.0000 0.0000 0.0000 17.0348 0.0000
# 6 0.0000 0.0000 0.0000 0.0000 0.0000 23.3810
#
#
#
# Elastic Compliance Matrix: (Units=1/GPa)
#
#
# Indices 1 2 3 4 5 6 
#
# 1 0.015100 -0.003248 -0.000404 0.000000 0.000000 0.000000
# 2 -0.003248 0.011277 -0.000360 0.000000 0.000000 0.000000
# 3 -0.000404 -0.000360 0.018915 0.000000 0.000000 0.000000
# 4 0.000000 0.000000 0.000000 0.030696 0.000000 0.000000
# 5 0.000000 0.000000 0.000000 0.000000 0.058703 0.000000
# 6 0.000000 0.000000 0.000000 0.000000 0.000000 0.042770
#
#
# Mechanical properties :
#
#
# Convention : Reuss Voigt Hill
#
# Bulk Modulus (GPa) = 26.83215 29.70372 28.26794
# Shear Modulus (GPa) = 25.26433 27.51168 26.38800
#
# Velocity S-wave (km/s) = 3.34350 3.48904 3.41704
# Velocity P-wave (km/s) = 5.17475 5.41982 5.29870
#
# Compressibility (1/GPa) = 0.03726872
#
# Stress axis : x y z
#
# Youngs Moduli (GPa) = 66.22411 88.67371 52.86925
#
# Poissons Ratio (x) = 0.28799 0.02134
# Poissons Ratio (y) = 0.21508 0.01904
# Poissons Ratio (z) = 0.02674 0.03194
#
# Static dielectric constant tensor:
#      x y z
#    x 3.490480 0.000000 0.000000 
#    y 0.000000 4.904220 0.000000 
#    z 0.000000 0.000000 4.265670 
# 
# 
# High freq. dielectric constant tensor:
#      x y z
#    x 1.827890 0.000000 0.000000 
#    y 0.000000 1.927140 0.000000 
#    z 0.000000 0.000000 1.898190 
# 
# From -- ./inp_files/27561.got.cif
#   From: 2010.03.12/outbox.cif.g09.slc.cpg/sg24_14_cif.got.tgz:27561.got - 2010.04.14 03:06:53.
