data_PCOD8165273
_publ_section_title
;
Structure prediction by ZEFSAII (Michael W. Deem and Ramdas Pophale) SiO2 
 PCOD8165273
Probable space group: I 21 21 21
;
_chemical_formula_sum "Si O2"
_cell_formula_units_Z 64
_cell_length_a 17.527718
_cell_length_b 19.600369
_cell_length_c 9.329116
_cell_angle_alpha 90.000000
_cell_angle_beta 90.000000
_cell_angle_gamma 90.000000
_cell_volume 3205.015381
_symmetry_space_group_name_H-M "I 21 21 21"
_symmetry_group_IT_number 24
_symmetry_cell_setting 'orthorhombic'
loop_
_space_group_symop_operation_xyz
x,y,z
-x,1/2-y,z
x,-y,1/2-z
1/2-x,y,-z
1/2+x,1/2+y,1/2+z
1/2-x,-y,1/2+z
1/2+x,1/2-y,-z
-x,1/2+y,1/2-z
loop_
_atom_site_type_symbol
_atom_site_label
_atom_site_fract_x
_atom_site_fract_y
_atom_site_fract_z
Si Si1 0.691253 0.301747 0.182657
Si Si2 0.929663 0.137026 0.954370
Si Si3 0.832610 0.132292 0.455700
Si Si4 0.659953 0.215124 0.825556
Si Si5 0.720519 0.433355 0.842388
Si Si6 0.408282 0.842579 0.591515
Si Si7 0.074379 0.283766 0.667088
Si Si8 0.177580 0.485121 0.918837
O O1 0.754484 0.243234 0.160222
O O2 0.730287 0.372623 0.229901
O O3 0.635798 0.275954 0.307311
O O4 0.643874 0.315074 0.038927
O O5 0.950032 0.175194 0.808654
O O6 0.898520 0.060971 0.924808
O O7 0.861609 0.178564 0.026542
O O8 0.005676 0.137728 0.051912
O O9 0.750000 0.160878 0.500000
O O10 0.847841 0.156015 0.293839
O O11 0.897602 0.162850 0.553048
O O12 0.837346 0.051512 0.482679
O O13 0.599396 0.278184 0.798245
O O14 0.730423 0.500000 0.750000
O O15 0.631595 0.410437 0.845727
O O16 0.750000 0.450613 0.000000
O O17 0.000000 0.250000 0.600047
O O18 0.196087 0.500000 0.750000
O O19 0.250000 0.449303 0.000000
#
# Coordination Sequence:
#
# PCOD8165273 Si02
#       8
#     8   8   8   8   8   8   8   8
#     4  10  20  38  66  93 119 163 214 261 308 382
#     4  12  24  39  70  89 128 175 214 263 317 389
#     4  11  25  43  62  92 137 166 209 272 323 376
#     4  11  22  38  68  96 126 162 215 266 321 368
#     4   9  20  41  64  88 126 162 211 266 308 380
#     4  10  21  41  64  99 125 162 218 261 318 388
#     4  12  22  39  66  97 124 164 214 264 321 380
#     4  11  27  45  65  94 127 175 227 265 321 390
#
# _framework density 19.968703999999999
#
# number of rings (size 3 to 8) (size 9 to 14) (size 15 to 20)
#    0.000    1.250    5.000    1.500    5.250    1.000 
#    6.750    5.000    0.000    0.000    0.000    0.000 
#    0.000    0.000    0.000    0.000    0.000    0.000 
#
# Total GULP energy -396631.440368 kJ/mol
# GULP energy per Si atom -12394.732511 kJ/mol
# Density = 1.992325 g / cm^3
# Si number density = 19.968704 Si / 1000 Ang^3
#
#
#
# Elastic Constant Matrix: (Units=GPa)
#
#
# Indices 1 2 3 4 5 6 
#
# 1 122.5218 42.1689 13.3368 0.0000 0.0000 0.0000
# 2 42.1689 106.1164 23.2743 0.0000 0.0000 0.0000
# 3 13.3368 23.2743 40.1454 0.0000 0.0000 0.0000
# 4 0.0000 0.0000 0.0000 34.6186 0.0000 0.0000
# 5 0.0000 0.0000 0.0000 0.0000 29.8795 0.0000
# 6 0.0000 0.0000 0.0000 0.0000 0.0000 26.4113
#
#
#
# Elastic Compliance Matrix: (Units=1/GPa)
#
#
# Indices 1 2 3 4 5 6 
#
# 1 0.009498 -0.003531 -0.001108 0.000000 0.000000 0.000000
# 2 -0.003531 0.012109 -0.005847 0.000000 0.000000 0.000000
# 3 -0.001108 -0.005847 0.028668 0.000000 0.000000 0.000000
# 4 0.000000 0.000000 0.000000 0.028886 0.000000 0.000000
# 5 0.000000 0.000000 0.000000 0.000000 0.033468 0.000000
# 6 0.000000 0.000000 0.000000 0.000000 0.000000 0.037863
#
#
# Mechanical properties :
#
#
# Convention : Reuss Voigt Hill
#
# Bulk Modulus (GPa) = 34.12787 47.37151 40.74969
# Shear Modulus (GPa) = 27.58902 30.84879 29.21890
#
# Velocity S-wave (km/s) = 3.72104 3.93473 3.82938
# Velocity P-wave (km/s) = 5.96568 6.66462 6.32481
#
# Compressibility (1/GPa) = 0.02930156
#
# Stress axis : x y z
#
# Youngs Moduli (GPa) = 105.28766 82.58087 34.88265
#
# Poissons Ratio (x) = 0.29161 0.03865
# Poissons Ratio (y) = 0.37180 0.20397
# Poissons Ratio (z) = 0.11666 0.48287
#
# Static dielectric constant tensor:
#      x y z
#    x 3.729490 0.000000 0.000000 
#    y 0.000000 3.459290 0.000000 
#    z 0.000000 0.000000 3.565340 
# 
# 
# High freq. dielectric constant tensor:
#      x y z
#    x 1.781730 0.000000 0.000000 
#    y 0.000000 1.782510 0.000000 
#    z 0.000000 0.000000 1.759680 
# 
# From -- ./inp_files/14612.got.cif
#   From: 2010.03.12/outbox.cif.g09.slc.cpg/sg24_8_cif.got.tgz:14612.got - 2010.04.14 03:06:53.
