data_PCOD8165161
_publ_section_title
;
Structure prediction by ZEFSAII (Michael W. Deem and Ramdas Pophale) SiO2 
 PCOD8165161
Probable space group: I 21 21 21
;
_chemical_formula_sum "Si O2"
_cell_formula_units_Z 60
_cell_length_a 16.131560
_cell_length_b 18.819853
_cell_length_c 8.914746
_cell_angle_alpha 90.000000
_cell_angle_beta 90.000000
_cell_angle_gamma 90.000000
_cell_volume 2706.459723
_symmetry_space_group_name_H-M "I 21 21 21"
_symmetry_group_IT_number 24
_symmetry_cell_setting 'orthorhombic'
loop_
_space_group_symop_operation_xyz
x,y,z
-x,1/2-y,z
x,-y,1/2-z
1/2-x,y,-z
1/2+x,1/2+y,1/2+z
1/2-x,-y,1/2+z
1/2+x,1/2-y,-z
-x,1/2+y,1/2-z
loop_
_atom_site_type_symbol
_atom_site_label
_atom_site_fract_x
_atom_site_fract_y
_atom_site_fract_z
Si Si1 0.998058 0.934892 0.079095
Si Si2 0.250000 0.559999 0.000000
Si Si3 0.723247 0.278414 0.829875
Si Si4 0.670170 0.377151 0.589702
Si Si5 0.854854 0.138653 0.258395
Si Si6 0.526125 0.865812 0.222403
Si Si7 0.615548 0.273382 0.338271
Si Si8 0.388710 0.549587 0.489924
O O1 0.946659 0.876345 0.174460
O O2 0.096255 0.933742 0.113910
O O3 0.961536 0.014548 0.095562
O O4 0.987133 0.926187 0.899792
O O5 0.216521 0.611590 0.129568
O O6 0.174491 0.512030 0.932904
O O7 0.696526 0.353376 0.756591
O O8 0.652225 0.220674 0.792201
O O9 0.803493 0.249927 0.747242
O O10 0.750000 0.290153 0.000000
O O11 0.750000 0.409471 0.500000
O O12 0.635062 0.308911 0.498945
O O13 0.837332 0.097610 0.103744
O O14 0.572735 0.802195 0.134977
O O15 0.437703 0.829040 0.265073
O O16 0.573055 0.900168 0.362263
#
# Coordination Sequence:
#
# PCOD8165161 Si02
#       8
#     8   4   8   8   8   8   8   8
#     4  10  21  39  62  89 120 166 213 254 314 383
#     4  10  24  38  56  84 122 174 226 248 310 390
#     4  11  23  37  58  90 122 160 200 266 329 371
#     4   9  20  40  66  91 120 157 214 266 307 386
#     4  11  25  39  56  87 126 167 215 258 322 390
#     4  10  20  36  60  87 118 164 205 260 311 369
#     4   9  20  36  58  88 120 158 209 251 312 374
#     4  11  24  39  58  90 128 167 211 267 317 385
#
# _framework density 22.169184999999999
#
# number of rings (size 3 to 8) (size 9 to 14) (size 15 to 20)
#    0.000    1.867    0.000    3.600    9.333    4.800 
#    0.000    0.000    0.000   10.400    0.000    0.000 
#    0.000    0.000    0.000    0.000    0.000    0.000 
#
# Total GULP energy -371753.056468 kJ/mol
# GULP energy per Si atom -12391.768549 kJ/mol
# Density = 2.211873 g / cm^3
# Si number density = 22.169185 Si / 1000 Ang^3
#
#
#
# Elastic Constant Matrix: (Units=GPa)
#
#
# Indices 1 2 3 4 5 6 
#
# 1 118.6415 19.1056 19.8870 0.0000 0.0000 0.0000
# 2 19.1056 39.5824 15.6345 0.0000 0.0000 0.0000
# 3 19.8870 15.6345 102.5320 0.0000 0.0000 0.0000
# 4 0.0000 0.0000 0.0000 15.8262 0.0000 0.0000
# 5 0.0000 0.0000 0.0000 0.0000 29.8721 0.0000
# 6 0.0000 0.0000 0.0000 0.0000 0.0000 32.0583
#
#
#
# Elastic Compliance Matrix: (Units=1/GPa)
#
#
# Indices 1 2 3 4 5 6 
#
# 1 0.009273 -0.004007 -0.001188 0.000000 0.000000 0.000000
# 2 -0.004007 0.028614 -0.003586 0.000000 0.000000 0.000000
# 3 -0.001188 -0.003586 0.010530 0.000000 0.000000 0.000000
# 4 0.000000 0.000000 0.000000 0.063186 0.000000 0.000000
# 5 0.000000 0.000000 0.000000 0.000000 0.033476 0.000000
# 6 0.000000 0.000000 0.000000 0.000000 0.000000 0.031193
#
#
# Mechanical properties :
#
#
# Convention : Reuss Voigt Hill
#
# Bulk Modulus (GPa) = 32.40807 41.11223 36.76015
# Shear Modulus (GPa) = 24.49545 29.29323 26.89434
#
# Velocity S-wave (km/s) = 3.32766 3.63898 3.48680
# Velocity P-wave (km/s) = 5.42353 6.02007 5.72957
#
# Compressibility (1/GPa) = 0.03085651
#
# Stress axis : x y z
#
# Youngs Moduli (GPa) = 107.83919 34.94771 94.96479
#
# Poissons Ratio (x) = 0.14003 0.11278
# Poissons Ratio (y) = 0.43209 0.34055
# Poissons Ratio (z) = 0.12807 0.12532
#
# Static dielectric constant tensor:
#      x y z
#    x 4.417280 0.000000 0.000000 
#    y 0.000000 3.772030 0.000000 
#    z 0.000000 0.000000 4.433580 
# 
# 
# High freq. dielectric constant tensor:
#      x y z
#    x 1.878780 0.000000 0.000000 
#    y 0.000000 1.849280 0.000000 
#    z 0.000000 0.000000 1.866680 
# 
# From -- ./inp_files/14471.got.cif
#   From: 2010.03.12/outbox.cif.g09.slc.cpg/sg24_8_cif.got.tgz:14471.got - 2010.04.14 03:06:53.
