data_PCOD8165930
_publ_section_title
;
Structure prediction by ZEFSAII (Michael W. Deem and Ramdas Pophale) SiO2 
 PCOD8165930
Probable space group: I 21 21 21
;
_chemical_formula_sum "Si O2"
_cell_formula_units_Z 32
_cell_length_a 13.173232
_cell_length_b 8.575521
_cell_length_c 11.314320
_cell_angle_alpha 90.000000
_cell_angle_beta 90.000000
_cell_angle_gamma 90.000000
_cell_volume 1278.148495
_symmetry_space_group_name_H-M "I 21 21 21"
_symmetry_group_IT_number 24
_symmetry_cell_setting 'orthorhombic'
loop_
_space_group_symop_operation_xyz
x,y,z
-x,1/2-y,z
x,-y,1/2-z
1/2-x,y,-z
1/2+x,1/2+y,1/2+z
1/2-x,-y,1/2+z
1/2+x,1/2-y,-z
-x,1/2+y,1/2-z
loop_
_atom_site_type_symbol
_atom_site_label
_atom_site_fract_x
_atom_site_fract_y
_atom_site_fract_z
Si Si1 0.250000 0.228514 0.000000
Si Si2 0.083731 0.000000 0.750000
Si Si3 0.855605 0.726940 0.944295
Si Si4 0.080367 0.026006 0.113079
Si Si5 0.427997 0.567727 0.430708
O O1 0.316158 0.121508 0.912601
O O2 0.176287 0.335396 0.918903
O O3 0.154802 0.111705 0.669302
O O4 0.014054 0.110856 0.834057
O O5 0.911312 0.884302 0.905818
O O6 0.750000 0.778117 0.000000
O O7 0.916499 0.640365 0.047914
O O8 0.063801 0.000000 0.250000
O O9 0.978079 0.105781 0.059271
#
# Coordination Sequence:
#
# PCOD8165930 Si02
#       5
#     4   4   8   8   8
#     4  12  26  48  74 112 148 192 260 300 378 448
#     4  10  24  44  76 110 148 198 244 314 366 448
#     4  11  24  47  76 107 146 191 254 302 378 447
#     4  11  26  47  73 104 149 197 242 309 374 444
#     4  11  26  49  74 110 150 193 252 313 371 444
#
# _framework density 25.036214000000001
#
# number of rings (size 3 to 8) (size 9 to 14) (size 15 to 20)
#    0.000    1.000    2.500    3.750    1.750   14.000 
#    6.750    0.000    0.000    0.000    0.000    0.000 
#    0.000    0.000    0.000    0.000    0.000    0.000 
#
# Total GULP energy -198356.703539 kJ/mol
# GULP energy per Si atom -12397.293971 kJ/mol
# Density = 2.497923 g / cm^3
# Si number density = 25.036214 Si / 1000 Ang^3
#
#
#
# Elastic Constant Matrix: (Units=GPa)
#
#
# Indices 1 2 3 4 5 6 
#
# 1 108.1383 22.5012 30.3404 0.0000 0.0000 0.0000
# 2 22.5012 109.1254 14.1871 0.0000 0.0000 0.0000
# 3 30.3404 14.1871 162.2725 0.0000 0.0000 0.0000
# 4 0.0000 0.0000 0.0000 5.3417 0.0000 0.0000
# 5 0.0000 0.0000 0.0000 0.0000 28.6232 0.0000
# 6 0.0000 0.0000 0.0000 0.0000 0.0000 32.9754
#
#
#
# Elastic Compliance Matrix: (Units=1/GPa)
#
#
# Indices 1 2 3 4 5 6 
#
# 1 0.010120 -0.001862 -0.001729 0.000000 0.000000 0.000000
# 2 -0.001862 0.009612 -0.000492 0.000000 0.000000 0.000000
# 3 -0.001729 -0.000492 0.006529 0.000000 0.000000 0.000000
# 4 0.000000 0.000000 0.000000 0.187206 0.000000 0.000000
# 5 0.000000 0.000000 0.000000 0.000000 0.034937 0.000000
# 6 0.000000 0.000000 0.000000 0.000000 0.000000 0.030326
#
#
# Mechanical properties :
#
#
# Convention : Reuss Voigt Hill
#
# Bulk Modulus (GPa) = 55.26808 57.06597 56.16702
# Shear Modulus (GPa) = 17.06908 34.22189 25.64548
#
# Velocity S-wave (km/s) = 2.61392 3.70117 3.20400
# Velocity P-wave (km/s) = 5.58867 6.41153 6.01419
#
# Compressibility (1/GPa) = 0.01809363
#
# Stress axis : x y z
#
# Youngs Moduli (GPa) = 98.81371 104.04022 153.16628
#
# Poissons Ratio (x) = 0.19371 0.26488
# Poissons Ratio (y) = 0.18398 0.07539
# Poissons Ratio (z) = 0.17089 0.05121
#
# Static dielectric constant tensor:
#      x y z
#    x 5.361670 0.000000 0.000000 
#    y 0.000000 4.573110 0.000000 
#    z 0.000000 0.000000 4.427430 
# 
# 
# High freq. dielectric constant tensor:
#      x y z
#    x 2.007410 0.000000 0.000000 
#    y 0.000000 2.014970 0.000000 
#    z 0.000000 0.000000 1.980060 
# 
# From -- ./inp_files/10287.got.cif
#   From: 2010.03.12/outbox.cif.g09.slc.cpg/sg24_6_cif.got.tgz:10287.got - 2010.04.14 03:06:53.
