data_PCOD8165643
_publ_section_title
;
Structure prediction by ZEFSAII (Michael W. Deem and Ramdas Pophale) SiO2 
 PCOD8165643
Probable space group: I 21 21 21
;
_chemical_formula_sum "Si O2"
_cell_formula_units_Z 40
_cell_length_a 12.973237
_cell_length_b 5.199978
_cell_length_c 30.202990
_cell_angle_alpha 90.000000
_cell_angle_beta 90.000000
_cell_angle_gamma 90.000000
_cell_volume 2037.510226
_symmetry_space_group_name_H-M "I 21 21 21"
_symmetry_group_IT_number 24
_symmetry_cell_setting 'orthorhombic'
loop_
_space_group_symop_operation_xyz
x,y,z
-x,1/2-y,z
x,-y,1/2-z
1/2-x,y,-z
1/2+x,1/2+y,1/2+z
1/2-x,-y,1/2+z
1/2+x,1/2-y,-z
-x,1/2+y,1/2-z
loop_
_atom_site_type_symbol
_atom_site_label
_atom_site_fract_x
_atom_site_fract_y
_atom_site_fract_z
Si Si1 0.110166 0.107091 0.844221
Si Si2 0.068158 0.000000 0.750000
Si Si3 0.910748 0.922281 0.524608
Si Si4 0.738574 0.718618 0.582694
Si Si5 0.384257 0.703782 0.938366
Si Si6 0.000000 0.250000 0.599353
O O1 0.139904 0.058412 0.792811
O O2 0.202417 0.246171 0.870223
O O3 0.000000 0.250000 0.845602
O O4 0.095121 0.838628 0.870140
O O5 0.000000 0.250000 0.738389
O O6 0.811610 0.758174 0.539587
O O7 0.000000 0.750000 0.500693
O O8 0.880836 0.155100 0.491742
O O9 0.959866 0.018100 0.569989
O O10 0.686582 0.442332 0.575327
O O11 0.654390 0.943153 0.584787
O O12 0.500000 0.750000 0.921747
#
# Coordination Sequence:
#
# PCOD8165643 Si02
#       6
#     8   4   8   8   8   4
#     4  11  22  38  61  97 126 157 193 237 306 378
#     4  10  22  36  62  92 132 160 178 230 302 386
#     4  12  24  37  61  87 123 163 203 255 296 362
#     4  12  25  41  63  86 116 165 209 252 303 360
#     4  12  28  43  56  81 121 164 220 265 294 327
#     4  12  18  36  60  86 132 162 192 234 290 360
#
# _framework density 19.631803999999999
#
# number of rings (size 3 to 8) (size 9 to 14) (size 15 to 20)
#    0.000    0.400    6.000    3.600    0.000    4.800 
#    0.000    0.000    0.000    0.000    0.000    2.800 
#    0.000    1.600    0.000    0.000    0.000    0.000 
#
# Total GULP energy -247921.248700 kJ/mol
# GULP energy per Si atom -12396.062435 kJ/mol
# Density = 1.958712 g / cm^3
# Si number density = 19.631804 Si / 1000 Ang^3
#
#
#
# Elastic Constant Matrix: (Units=GPa)
#
#
# Indices 1 2 3 4 5 6 
#
# 1 98.3711 37.2579 48.0090 0.0000 0.0000 0.0000
# 2 37.2579 106.4191 33.1725 0.0000 0.0000 0.0000
# 3 48.0090 33.1725 139.4499 0.0000 0.0000 0.0000
# 4 0.0000 0.0000 0.0000 12.9614 0.0000 0.0000
# 5 0.0000 0.0000 0.0000 0.0000 8.1700 0.0000
# 6 0.0000 0.0000 0.0000 0.0000 0.0000 41.5315
#
#
#
# Elastic Compliance Matrix: (Units=1/GPa)
#
#
# Indices 1 2 3 4 5 6 
#
# 1 0.013321 -0.003493 -0.003755 0.000000 0.000000 0.000000
# 2 -0.003493 0.011065 -0.001430 0.000000 0.000000 0.000000
# 3 -0.003755 -0.001430 0.008804 0.000000 0.000000 0.000000
# 4 0.000000 0.000000 0.000000 0.077152 0.000000 0.000000
# 5 0.000000 0.000000 0.000000 0.000000 0.122399 0.000000
# 6 0.000000 0.000000 0.000000 0.000000 0.000000 0.024078
#
#
# Mechanical properties :
#
#
# Convention : Reuss Voigt Hill
#
# Bulk Modulus (GPa) = 63.15328 64.56879 63.86104
# Shear Modulus (GPa) = 17.89198 27.58596 22.73897
#
# Velocity S-wave (km/s) = 3.02218 3.75262 3.40703
# Velocity P-wave (km/s) = 6.66459 7.19288 6.93377
#
# Compressibility (1/GPa) = 0.01583449
#
# Stress axis : x y z
#
# Youngs Moduli (GPa) = 75.06738 90.37124 113.58564
#
# Poissons Ratio (x) = 0.31570 0.42654
# Poissons Ratio (y) = 0.26223 0.16238
# Poissons Ratio (z) = 0.28189 0.12920
#
# Static dielectric constant tensor:
#      x y z
#    x 3.680190 0.000000 0.000000 
#    y 0.000000 3.847490 0.000000 
#    z 0.000000 0.000000 3.587420 
# 
# 
# High freq. dielectric constant tensor:
#      x y z
#    x 1.742880 0.000000 0.000000 
#    y 0.000000 1.788010 0.000000 
#    z 0.000000 0.000000 1.739270 
# 
# From -- ./inp_files/17759.got.cif
#   From: 2010.03.12/outbox.cif.g09.slc.cpg/sg24_9_cif.got.tgz:17759.got - 2010.04.14 03:06:53.
