data_PCOD8165843
_publ_section_title
;
Structure prediction by ZEFSAII (Michael W. Deem and Ramdas Pophale) SiO2 
 PCOD8165843
Probable space group: I 21 21 21
;
_chemical_formula_sum "Si O2"
_cell_formula_units_Z 24
_cell_length_a 7.788560
_cell_length_b 15.798876
_cell_length_c 8.848822
_cell_angle_alpha 90.000000
_cell_angle_beta 90.000000
_cell_angle_gamma 90.000000
_cell_volume 1088.851915
_symmetry_space_group_name_H-M "I 21 21 21"
_symmetry_group_IT_number 24
_symmetry_cell_setting 'orthorhombic'
loop_
_space_group_symop_operation_xyz
x,y,z
-x,1/2-y,z
x,-y,1/2-z
1/2-x,y,-z
1/2+x,1/2+y,1/2+z
1/2-x,-y,1/2+z
1/2+x,1/2-y,-z
-x,1/2+y,1/2-z
loop_
_atom_site_type_symbol
_atom_site_label
_atom_site_fract_x
_atom_site_fract_y
_atom_site_fract_z
Si Si1 0.043968 0.157004 0.130493
Si Si2 0.760506 0.091593 0.677303
Si Si3 0.099040 0.093481 0.812699
O O1 0.232386 0.152108 0.207482
O O2 0.000000 0.250000 0.066582
O O3 0.904567 0.138269 0.257900
O O4 0.042968 0.090777 0.990638
O O5 0.750000 0.086343 0.500000
O O6 0.940922 0.136447 0.721875
O O7 0.772706 0.000000 0.750000
O O8 0.142537 0.000000 0.750000
#
# Coordination Sequence:
#
# PCOD8165843 Si02
#       3
#     8   8   8
#     4  11  25  43  70 105 139 185 231 297 355 407
#     4  11  23  42  69 100 138 184 235 286 344 423
#     4  10  23  42  71 102 136 187 234 279 344 430
#
# _framework density 22.041564000000001
#
# number of rings (size 3 to 8) (size 9 to 14) (size 15 to 20)
#    0.000    1.333    0.000    6.000    9.333    6.667 
#    6.000    0.000    0.000    0.000    0.000    0.000 
#    0.000    0.000    0.000    0.000    0.000    0.000 
#
# Total GULP energy -148755.542802 kJ/mol
# GULP energy per Si atom -12396.295234 kJ/mol
# Density = 2.199140 g / cm^3
# Si number density = 22.041564 Si / 1000 Ang^3
#
#
#
# Elastic Constant Matrix: (Units=GPa)
#
#
# Indices 1 2 3 4 5 6 
#
# 1 219.0411 38.8379 88.1242 0.0000 0.0000 0.0000
# 2 38.8379 78.5000 53.1488 0.0002 -0.0001 -0.0001
# 3 88.1242 53.1488 173.4502 0.0001 -0.0003 -0.0002
# 4 0.0000 0.0002 0.0001 21.2453 -0.0001 -0.0001
# 5 0.0000 -0.0001 -0.0003 -0.0001 26.9844 0.0000
# 6 0.0000 -0.0001 -0.0002 -0.0001 0.0000 23.2788
#
#
#
# Elastic Compliance Matrix: (Units=1/GPa)
#
#
# Indices 1 2 3 4 5 6 
#
# 1 0.005813 -0.001106 -0.002615 0.000000 0.000000 0.000000
# 2 -0.001106 0.016284 -0.004428 0.000000 0.000000 0.000000
# 3 -0.002615 -0.004428 0.008451 0.000000 0.000000 0.000000
# 4 0.000000 0.000000 0.000000 0.047069 0.000000 0.000000
# 5 0.000000 0.000000 0.000000 0.000000 0.037058 0.000000
# 6 0.000000 0.000000 0.000000 0.000000 0.000000 0.042958
#
#
# Mechanical properties :
#
#
# Convention : Reuss Voigt Hill
#
# Bulk Modulus (GPa) = 70.17079 92.35701 81.26390
# Shear Modulus (GPa) = 27.98292 33.69372 30.83832
#
# Velocity S-wave (km/s) = 3.56694 3.91403 3.74451
# Velocity P-wave (km/s) = 6.99063 7.90053 7.45947
#
# Compressibility (1/GPa) = 0.01425094
#
# Stress axis : x y z
#
# Youngs Moduli (GPa) = 172.01692 61.41036 118.33494
#
# Poissons Ratio (x) = 0.06791 0.30941
# Poissons Ratio (y) = 0.19023 0.52397
# Poissons Ratio (z) = 0.44978 0.27192
#
# Static dielectric constant tensor:
#      x y z
#    x 4.885700 0.000000 0.000000 
#    y 0.000000 3.851410 0.000000 
#    z 0.000000 0.000000 3.887130 
# 
# 
# High freq. dielectric constant tensor:
#      x y z
#    x 1.903070 0.000000 0.000000 
#    y 0.000000 1.837230 0.000000 
#    z 0.000000 0.000000 1.861430 
# 
# From -- ./inp_files/8557.got.cif
#   From: 2010.03.12/outbox.cif.g09.slc.cpg/sg24_5_cif.got.tgz:8557.got - 2010.04.14 03:06:53.
