data_PCOD8165874
_publ_section_title
;
Structure prediction by ZEFSAII (Michael W. Deem and Ramdas Pophale) SiO2 
 PCOD8165874
Probable space group: I 21 21 21
;
_chemical_formula_sum "Si O2"
_cell_formula_units_Z 28
_cell_length_a 19.167939
_cell_length_b 11.089408
_cell_length_c 5.101348
_cell_angle_alpha 90.000000
_cell_angle_beta 90.000000
_cell_angle_gamma 90.000000
_cell_volume 1084.348122
_symmetry_space_group_name_H-M "I 21 21 21"
_symmetry_group_IT_number 24
_symmetry_cell_setting 'orthorhombic'
loop_
_space_group_symop_operation_xyz
x,y,z
-x,1/2-y,z
x,-y,1/2-z
1/2-x,y,-z
1/2+x,1/2+y,1/2+z
1/2-x,-y,1/2+z
1/2+x,1/2-y,-z
-x,1/2+y,1/2-z
loop_
_atom_site_type_symbol
_atom_site_label
_atom_site_fract_x
_atom_site_fract_y
_atom_site_fract_z
Si Si1 0.526889 0.376993 0.096561
Si Si2 0.174240 0.356503 0.543467
Si Si3 0.931036 0.000000 0.250000
Si Si4 0.173419 0.797637 0.458598
O O1 0.500000 0.250000 0.231078
O O2 0.509306 0.500000 0.250000
O O3 0.608949 0.384842 0.025848
O O4 0.479491 0.387105 0.835282
O O5 0.250000 0.416060 0.500000
O O6 0.116529 0.457225 0.492296
O O7 0.167133 0.315183 0.843642
O O8 0.165732 0.244510 0.341510
O O9 0.250000 0.860405 0.500000
#
# Coordination Sequence:
#
# PCOD8165874 Si02
#       4
#     8   8   4   8
#     4  12  27  48  77 112 158 207 263 325 394 469
#     4  10  23  44  75 107 152 196 260 321 390 459
#     4  12  26  42  74 110 156 202 260 326 396 466
#     4  10  23  48  74 109 150 205 255 320 386 470
#
# _framework density 25.821967000000001
#
# number of rings (size 3 to 8) (size 9 to 14) (size 15 to 20)
#    0.000    1.143    2.857    1.714    4.000    4.571 
#    2.571    0.000    0.000    0.000    0.000    0.000 
#    0.000    0.000    0.000    0.000    0.000    0.000 
#
# Total GULP energy -173506.127415 kJ/mol
# GULP energy per Si atom -12393.294815 kJ/mol
# Density = 2.576320 g / cm^3
# Si number density = 25.821967 Si / 1000 Ang^3
#
#
#
# Elastic Constant Matrix: (Units=GPa)
#
#
# Indices 1 2 3 4 5 6 
#
# 1 227.9391 56.1184 16.4271 0.0000 0.0000 0.0000
# 2 56.1184 120.0577 22.8746 0.0000 0.0000 0.0000
# 3 16.4271 22.8746 75.2106 0.0000 0.0000 0.0000
# 4 0.0000 0.0000 0.0000 19.8877 0.0000 0.0000
# 5 0.0000 0.0000 0.0000 0.0000 35.6505 0.0000
# 6 0.0000 0.0000 0.0000 0.0000 0.0000 36.3248
#
#
#
# Elastic Compliance Matrix: (Units=1/GPa)
#
#
# Indices 1 2 3 4 5 6 
#
# 1 0.004969 -0.002246 -0.000402 0.000000 0.000000 0.000000
# 2 -0.002246 0.009857 -0.002507 0.000000 0.000000 0.000000
# 3 -0.000402 -0.002507 0.014146 0.000000 0.000000 0.000000
# 4 0.000000 0.000000 0.000000 0.050282 0.000000 0.000000
# 5 0.000000 0.000000 0.000000 0.000000 0.028050 0.000000
# 6 0.000000 0.000000 0.000000 0.000000 0.000000 0.027529
#
#
# Mechanical properties :
#
#
# Convention : Reuss Voigt Hill
#
# Bulk Modulus (GPa) = 53.58692 68.22752 60.90722
# Shear Modulus (GPa) = 33.03254 40.22509 36.62881
#
# Velocity S-wave (km/s) = 3.58053 3.95116 3.77040
# Velocity P-wave (km/s) = 6.15557 6.87715 6.52634
#
# Compressibility (1/GPa) = 0.01866127
#
# Stress axis : x y z
#
# Youngs Moduli (GPa) = 201.24355 101.45147 70.68921
#
# Poissons Ratio (x) = 0.22787 0.02843
# Poissons Ratio (y) = 0.45201 0.17724
# Poissons Ratio (z) = 0.08094 0.25437
#
# Static dielectric constant tensor:
#      x y z
#    x 5.320090 0.000000 0.000000 
#    y 0.000000 4.145290 0.000000 
#    z 0.000000 0.000000 4.610560 
# 
# 
# High freq. dielectric constant tensor:
#      x y z
#    x 2.072680 0.000000 0.000000 
#    y 0.000000 1.988040 0.000000 
#    z 0.000000 0.000000 2.030200 
# 
# From -- ./inp_files/5217.got.cif
#   From: 2010.03.12/outbox.cif.g09.slc.cpg/sg24_3_cif.got.tgz:5217.got - 2010.04.14 03:06:53.
