data_PCOD8165165
_publ_section_title
;
Structure prediction by ZEFSAII (Michael W. Deem and Ramdas Pophale) SiO2 
 PCOD8165165
Probable space group: I 21 21 21
;
_chemical_formula_sum "Si O2"
_cell_formula_units_Z 28
_cell_length_a 16.330505
_cell_length_b 16.466537
_cell_length_c 5.004519
_cell_angle_alpha 90.000000
_cell_angle_beta 90.000000
_cell_angle_gamma 90.000000
_cell_volume 1345.749514
_symmetry_space_group_name_H-M "I 21 21 21"
_symmetry_group_IT_number 24
_symmetry_cell_setting 'orthorhombic'
loop_
_space_group_symop_operation_xyz
x,y,z
-x,1/2-y,z
x,-y,1/2-z
1/2-x,y,-z
1/2+x,1/2+y,1/2+z
1/2-x,-y,1/2+z
1/2+x,1/2-y,-z
-x,1/2+y,1/2-z
loop_
_atom_site_type_symbol
_atom_site_label
_atom_site_fract_x
_atom_site_fract_y
_atom_site_fract_z
Si Si1 0.657225 0.056449 0.998136
Si Si2 0.250000 0.945328 0.000000
Si Si3 0.994275 0.842165 0.370645
Si Si4 0.076633 0.909425 0.860819
O O1 0.636601 0.000000 0.250000
O O2 0.750000 0.090834 0.000000
O O3 0.596087 0.132745 0.974401
O O4 0.642966 0.000000 0.750000
O O5 0.171419 0.890571 0.930226
O O6 0.276588 0.000000 0.750000
O O7 0.054342 0.848263 0.623923
O O8 0.000000 0.750000 0.268835
O O9 0.021189 0.898675 0.123475
O O10 0.064031 0.000000 0.750000
#
# Coordination Sequence:
#
# PCOD8165165 Si02
#       4
#     8   4   8   8
#     4  10  21  39  63  88 115 158 213 259 298 363
#     4  10  20  36  60  92 118 148 208 254 294 358
#     4  12  24  39  60  93 129 160 204 256 327 374
#     4  11  22  40  64  89 120 165 210 252 296 368
#
# _framework density 20.806248
#
# number of rings (size 3 to 8) (size 9 to 14) (size 15 to 20)
#    0.000    1.143    0.000    9.429    0.000    0.000 
#    5.143    0.000    0.000    0.000    0.000    0.000 
#    0.000    0.000    0.000    0.000    0.000    0.000 
#
# Total GULP energy -173624.701592 kJ/mol
# GULP energy per Si atom -12401.764399 kJ/mol
# Density = 2.075889 g / cm^3
# Si number density = 20.806248 Si / 1000 Ang^3
#
#
#
# Elastic Constant Matrix: (Units=GPa)
#
#
# Indices 1 2 3 4 5 6 
#
# 1 160.3972 70.7996 58.6318 0.0000 0.0000 0.0000
# 2 70.7996 88.0548 29.5882 0.0000 0.0000 0.0000
# 3 58.6318 29.5882 154.4532 0.0000 0.0000 0.0000
# 4 0.0000 0.0000 0.0000 50.2566 0.0000 0.0000
# 5 0.0000 0.0000 0.0000 0.0000 37.3038 0.0000
# 6 0.0000 0.0000 0.0000 0.0000 0.0000 16.4969
#
#
#
# Elastic Compliance Matrix: (Units=1/GPa)
#
#
# Indices 1 2 3 4 5 6 
#
# 1 0.010518 -0.007605 -0.002536 0.000000 0.000000 0.000000
# 2 -0.007605 0.017637 -0.000492 0.000000 0.000000 0.000000
# 3 -0.002536 -0.000492 0.007531 0.000000 0.000000 0.000000
# 4 0.000000 0.000000 0.000000 0.019898 0.000000 0.000000
# 5 0.000000 0.000000 0.000000 0.000000 0.026807 0.000000
# 6 0.000000 0.000000 0.000000 0.000000 0.000000 0.060617
#
#
# Mechanical properties :
#
#
# Convention : Reuss Voigt Hill
#
# Bulk Modulus (GPa) = 69.34394 80.10493 74.72443
# Shear Modulus (GPa) = 29.57165 37.07051 33.32108
#
# Velocity S-wave (km/s) = 3.77409 4.22560 4.00621
# Velocity P-wave (km/s) = 7.23826 7.89883 7.57575
#
# Compressibility (1/GPa) = 0.01442087
#
# Stress axis : x y z
#
# Youngs Moduli (GPa) = 95.07110 56.70031 132.77886
#
# Poissons Ratio (x) = 0.43121 0.33673
# Poissons Ratio (y) = 0.72303 0.06528
# Poissons Ratio (z) = 0.24110 0.02788
#
# Static dielectric constant tensor:
#      x y z
#    x 2.096820 0.000000 0.000000 
#    y 0.000000 3.278010 0.000000 
#    z 0.000000 0.000000 3.961010 
# 
# 
# High freq. dielectric constant tensor:
#      x y z
#    x 1.830910 0.000000 0.000000 
#    y 0.000000 1.769720 0.000000 
#    z 0.000000 0.000000 1.844550 
# 
# From -- ./inp_files/2988.got.cif
#   From: 2010.03.12/outbox.cif.g09.slc.cpg/sg24_2_cif.got.tgz:2988.got - 2010.04.14 03:06:53.
