data_PCOD8165994
_publ_section_title
;
Structure prediction by ZEFSAII (Michael W. Deem and Ramdas Pophale) SiO2 
 PCOD8165994
Probable space group: I 21 21 21
;
_chemical_formula_sum "Si O2"
_cell_formula_units_Z 52
_cell_length_a 9.472634
_cell_length_b 22.412078
_cell_length_c 12.608147
_cell_angle_alpha 90.000000
_cell_angle_beta 90.000000
_cell_angle_gamma 90.000000
_cell_volume 2676.727412
_symmetry_space_group_name_H-M "I 21 21 21"
_symmetry_group_IT_number 24
_symmetry_cell_setting 'orthorhombic'
loop_
_space_group_symop_operation_xyz
x,y,z
-x,1/2-y,z
x,-y,1/2-z
1/2-x,y,-z
1/2+x,1/2+y,1/2+z
1/2-x,-y,1/2+z
1/2+x,1/2-y,-z
-x,1/2+y,1/2-z
loop_
_atom_site_type_symbol
_atom_site_label
_atom_site_fract_x
_atom_site_fract_y
_atom_site_fract_z
Si Si1 0.773355 0.756061 0.123856
Si Si2 0.399250 0.064581 0.796147
Si Si3 0.609668 0.373771 0.201107
Si Si4 0.500000 0.750000 0.253878
Si Si5 0.403837 0.090716 0.443765
Si Si6 0.483728 0.844713 0.863945
Si Si7 0.582411 0.541203 0.478914
O O1 0.628160 0.771324 0.180760
O O2 0.833820 0.690145 0.152463
O O3 0.886217 0.803375 0.165441
O O4 0.750000 0.760183 0.000000
O O5 0.272429 0.110593 0.819690
O O6 0.495619 0.096368 0.708588
O O7 0.486107 0.056951 0.906051
O O8 0.346438 0.000000 0.750000
O O9 0.559413 0.305698 0.176430
O O10 0.581633 0.387232 0.324054
O O11 0.528046 0.414594 0.114097
O O12 0.250000 0.091766 0.500000
O O13 0.499761 0.134969 0.513700
O O14 0.465892 0.024325 0.444232
O O15 0.750000 0.542251 0.500000
#
# Coordination Sequence:
#
# PCOD8165994 Si02
#       7
#     8   8   8   4   8   8   8
#     4  11  22  37  55  87 123 155 191 238 291 355
#     4  11  18  36  60  88 116 143 196 249 293 346
#     4  11  20  32  53  84 119 153 196 236 291 343
#     4  12  22  38  56  78 124 162 192 242 286 340
#     4  11  16  29  53  88 119 145 181 245 301 341
#     4  11  21  34  61  91 115 150 197 237 296 351
#     4   9  19  30  52  85 116 148 188 244 290 343
#
# _framework density 19.426707
#
# number of rings (size 3 to 8) (size 9 to 14) (size 15 to 20)
#    0.000    1.231    4.615    5.538    0.000    0.000 
#    0.000    1.538    0.000    4.615    0.000    0.000 
#    0.000    0.000    0.000    0.000    0.000    0.000 
#
# Total GULP energy -322149.563541 kJ/mol
# GULP energy per Si atom -12390.367828 kJ/mol
# Density = 1.938249 g / cm^3
# Si number density = 19.426707 Si / 1000 Ang^3
#
#
#
# Elastic Constant Matrix: (Units=GPa)
#
#
# Indices 1 2 3 4 5 6 
#
# 1 51.1073 26.8982 7.6586 0.0000 0.0000 0.0000
# 2 26.8982 148.9083 44.1517 -0.0001 0.0000 0.0000
# 3 7.6586 44.1517 108.7581 -0.0007 0.0001 0.0001
# 4 0.0000 -0.0001 -0.0007 35.3292 0.0000 0.0000
# 5 0.0000 0.0000 0.0001 0.0000 10.7374 0.0000
# 6 0.0000 0.0000 0.0001 0.0000 0.0000 21.4468
#
#
#
# Elastic Compliance Matrix: (Units=1/GPa)
#
#
# Indices 1 2 3 4 5 6 
#
# 1 0.021623 -0.003927 0.000072 0.000000 0.000000 0.000000
# 2 -0.003927 0.008348 -0.003112 0.000000 0.000000 0.000000
# 3 0.000072 -0.003112 0.010453 0.000000 0.000000 0.000000
# 4 0.000000 0.000000 0.000000 0.028305 0.000000 0.000000
# 5 0.000000 0.000000 0.000000 0.000000 0.093133 0.000000
# 6 0.000000 0.000000 0.000000 0.000000 0.000000 0.046627
#
#
# Mechanical properties :
#
#
# Convention : Reuss Voigt Hill
#
# Bulk Modulus (GPa) = 37.75282 51.79896 44.77589
# Shear Modulus (GPa) = 21.62131 28.84036 25.23084
#
# Velocity S-wave (km/s) = 3.33974 3.85720 3.60776
# Velocity P-wave (km/s) = 5.86067 6.82341 6.36028
#
# Compressibility (1/GPa) = 0.02648809
#
# Stress axis : x y z
#
# Youngs Moduli (GPa) = 46.24743 119.79307 95.66485
#
# Poissons Ratio (x) = 0.47044 -0.00685
# Poissons Ratio (y) = 0.18162 0.29774
# Poissons Ratio (z) = -0.00331 0.37283
#
# Static dielectric constant tensor:
#      x y z
#    x 3.080100 0.000000 0.000000 
#    y 0.000000 3.940200 0.000000 
#    z 0.000000 0.000000 3.957760 
# 
# 
# High freq. dielectric constant tensor:
#      x y z
#    x 1.691890 0.000000 0.000000 
#    y 0.000000 1.775550 0.000000 
#    z 0.000000 0.000000 1.756960 
# 
# From -- ./inp_files/25002.got.cif
#   From: 2010.03.12/outbox.cif.g09.slc.cpg/sg24_13_cif.got.tgz:25002.got - 2010.04.14 03:06:53.
