data_PCOD8165223
_publ_section_title
;
Structure prediction by ZEFSAII (Michael W. Deem and Ramdas Pophale) SiO2 
 PCOD8165223
Probable space group: I 21 21 21
;
_chemical_formula_sum "Si O2"
_cell_formula_units_Z 64
_cell_length_a 9.247706
_cell_length_b 11.193176
_cell_length_c 30.850351
_cell_angle_alpha 90.000000
_cell_angle_beta 90.000000
_cell_angle_gamma 90.000000
_cell_volume 3193.356879
_symmetry_space_group_name_H-M "I 21 21 21"
_symmetry_group_IT_number 24
_symmetry_cell_setting 'orthorhombic'
loop_
_space_group_symop_operation_xyz
x,y,z
-x,1/2-y,z
x,-y,1/2-z
1/2-x,y,-z
1/2+x,1/2+y,1/2+z
1/2-x,-y,1/2+z
1/2+x,1/2-y,-z
-x,1/2+y,1/2-z
loop_
_atom_site_type_symbol
_atom_site_label
_atom_site_fract_x
_atom_site_fract_y
_atom_site_fract_z
Si Si1 0.223005 0.475162 0.860838
Si Si2 0.339805 0.410679 0.041729
Si Si3 0.340440 0.871176 0.460847
Si Si4 0.053247 0.875527 0.848145
Si Si5 0.173245 0.762206 0.687663
Si Si6 0.996907 0.880961 0.156786
Si Si7 0.765981 0.627717 0.228543
Si Si8 0.226792 0.039951 0.122969
O O1 0.232462 0.456426 0.913334
O O2 0.245203 0.347532 0.838026
O O3 0.333053 0.572645 0.840603
O O4 0.070019 0.524997 0.845800
O O5 0.356058 0.269841 0.035820
O O6 0.509959 0.446695 0.042044
O O7 0.250000 0.461949 0.000000
O O8 0.250000 0.926332 0.500000
O O9 0.236364 0.883203 0.419711
O O10 0.126350 0.855923 0.801585
O O11 0.000000 0.750000 0.867116
O O12 0.173413 0.922546 0.881491
O O13 0.248099 0.769029 0.735039
O O14 0.216973 0.884441 0.663815
O O15 0.000000 0.750000 0.689859
O O16 0.000000 0.750000 0.133866
O O17 0.082215 0.861852 0.202456
O O18 0.066369 0.989043 0.129169
O O19 0.758750 0.500000 0.250000
#
# Coordination Sequence:
#
# PCOD8165223 Si02
#       8
#     8   8   8   8   8   8   8   8
#     4  12  23  41  70  97 130 180 221 270 338 399
#     4  10  21  37  62 104 139 163 209 270 332 413
#     4  10  20  37  64  97 137 167 195 267 347 401
#     4  11  22  39  65  89 120 177 229 265 323 382
#     4  12  21  40  70 101 125 165 220 285 332 396
#     4  11  27  45  61  87 133 184 224 269 324 392
#     4  11  22  43  62  90 133 166 216 282 330 384
#     4  11  21  42  65  89 133 168 215 269 327 390
#
# _framework density 20.041605000000001
#
# number of rings (size 3 to 8) (size 9 to 14) (size 15 to 20)
#    0.000    1.000    6.250    1.875    1.750    1.500 
#    0.000    1.875    0.000    4.500    0.000    0.000 
#    0.000    0.000    0.000    0.000    0.000    0.000 
#
# Total GULP energy -396527.499264 kJ/mol
# GULP energy per Si atom -12391.484352 kJ/mol
# Density = 1.999599 g / cm^3
# Si number density = 20.041605 Si / 1000 Ang^3
#
#
#
# Elastic Constant Matrix: (Units=GPa)
#
#
# Indices 1 2 3 4 5 6 
#
# 1 64.0716 9.7118 40.5398 0.0000 0.0000 0.0000
# 2 9.7118 60.9204 10.2430 0.0000 0.0000 0.0000
# 3 40.5398 10.2430 124.6616 0.0000 0.0000 0.0000
# 4 0.0000 0.0000 0.0000 19.4967 0.0000 0.0000
# 5 0.0000 0.0000 0.0000 0.0000 19.7418 0.0000
# 6 0.0000 0.0000 0.0000 0.0000 0.0000 38.7801
#
#
#
# Elastic Compliance Matrix: (Units=1/GPa)
#
#
# Indices 1 2 3 4 5 6 
#
# 1 0.019916 -0.002115 -0.006303 0.000000 0.000000 0.000000
# 2 -0.002115 0.016869 -0.000698 0.000000 0.000000 0.000000
# 3 -0.006303 -0.000698 0.010129 0.000000 0.000000 0.000000
# 4 0.000000 0.000000 0.000000 0.051291 0.000000 0.000000
# 5 0.000000 0.000000 0.000000 0.000000 0.050654 0.000000
# 6 0.000000 0.000000 0.000000 0.000000 0.000000 0.025786
#
#
# Mechanical properties :
#
#
# Convention : Reuss Voigt Hill
#
# Bulk Modulus (GPa) = 34.86547 41.18253 38.02400
# Shear Modulus (GPa) = 24.69881 28.21432 26.45657
#
# Velocity S-wave (km/s) = 3.51433 3.75612 3.63724
# Velocity P-wave (km/s) = 5.82251 6.27729 6.05417
#
# Compressibility (1/GPa) = 0.02868167
#
# Stress axis : x y z
#
# Youngs Moduli (GPa) = 50.21040 59.27866 98.72853
#
# Poissons Ratio (x) = 0.12539 0.62228
# Poissons Ratio (y) = 0.10621 0.06894
# Poissons Ratio (z) = 0.31647 0.04139
#
# Static dielectric constant tensor:
#      x y z
#    x 3.845220 0.000000 0.000000 
#    y 0.000000 3.612050 0.000000 
#    z 0.000000 0.000000 3.707540 
# 
# 
# High freq. dielectric constant tensor:
#      x y z
#    x 1.789900 0.000000 0.000000 
#    y 0.000000 1.774060 0.000000 
#    z 0.000000 0.000000 1.768620 
# 
# From -- ./inp_files/38411.got.cif
#   From: 2010.03.12/outbox.cif.g09.slc.cpg/sg24_20_cif.got.tgz:38411.got - 2010.04.14 03:06:53.
