data_PCOD8165213
_publ_section_title
;
Structure prediction by ZEFSAII (Michael W. Deem and Ramdas Pophale) SiO2 
 PCOD8165213
Probable space group: I 21 21 21
;
_chemical_formula_sum "Si O2"
_cell_formula_units_Z 56
_cell_length_a 14.155898
_cell_length_b 12.091391
_cell_length_c 15.753239
_cell_angle_alpha 90.000000
_cell_angle_beta 90.000000
_cell_angle_gamma 90.000000
_cell_volume 2696.395240
_symmetry_space_group_name_H-M "I 21 21 21"
_symmetry_group_IT_number 24
_symmetry_cell_setting 'orthorhombic'
loop_
_space_group_symop_operation_xyz
x,y,z
-x,1/2-y,z
x,-y,1/2-z
1/2-x,y,-z
1/2+x,1/2+y,1/2+z
1/2-x,-y,1/2+z
1/2+x,1/2-y,-z
-x,1/2+y,1/2-z
loop_
_atom_site_type_symbol
_atom_site_label
_atom_site_fract_x
_atom_site_fract_y
_atom_site_fract_z
Si Si1 0.888720 0.157033 0.667071
Si Si2 0.388719 0.342965 0.667070
Si Si3 0.414609 0.122048 0.596437
Si Si4 0.250000 0.722685 0.308912
Si Si5 0.750000 0.010179 0.097155
Si Si6 0.750000 0.545332 0.400692
Si Si7 0.914608 0.377951 0.596438
O O1 0.846406 0.197371 0.757103
O O2 0.865213 0.257191 0.601497
O O3 0.000361 0.127536 0.665526
O O4 0.841407 0.042987 0.640072
O O5 0.365212 0.242807 0.601497
O O6 0.500361 0.372463 0.665525
O O7 0.346406 0.302626 0.757103
O O8 0.341406 0.457010 0.640072
O O9 0.451337 0.103317 0.499999
O O10 0.342287 0.026134 0.622412
O O11 0.249998 0.641549 0.389552
O O12 0.250001 0.847595 0.341787
O O13 0.750000 0.981653 0.000000
O O14 0.750000 0.577076 0.500000
O O15 0.657716 0.473863 0.377588
#
# Coordination Sequence:
#
# PCOD8165213 Si02
#       7
#     8   8   8   8   8   8   8
#     4  10  20  37  61  91 123 152 207 267 310 361
#     4  10  20  37  61  91 123 152 207 267 310 361
#     4  10  20  38  65  94 120 158 208 259 313 366
#     4  11  24  41  55  93 128 167 206 244 322 377
#     4  11  21  39  63  82 118 165 210 256 298 366
#     4  10  22  42  65  90 129 168 209 253 308 387
#     4  10  20  38  65  94 120 158 208 259 313 366
#
# _framework density 20.768469
#
# number of rings (size 3 to 8) (size 9 to 14) (size 15 to 20)
#    0.000    1.714    0.000    7.286    0.000    3.429 
#   20.571    0.000    0.000    5.143    0.000    0.000 
#    0.000    0.000    0.000    0.000    0.000    0.000 
#
# Total GULP energy -346996.106444 kJ/mol
# GULP energy per Si atom -12392.718087 kJ/mol
# Density = 2.072120 g / cm^3
# Si number density = 20.768469 Si / 1000 Ang^3
#
#
#
# Elastic Constant Matrix: (Units=GPa)
#
#
# Indices 1 2 3 4 5 6 
#
# 1 128.5812 63.5034 51.3638 0.0000 0.0000 0.0000
# 2 63.5034 157.7585 45.5446 0.0000 0.0000 0.0000
# 3 51.3638 45.5446 74.2438 0.0000 0.0000 0.0000
# 4 0.0000 0.0000 0.0000 40.3893 0.0000 0.0000
# 5 0.0000 0.0000 0.0000 0.0000 18.5909 0.0000
# 6 0.0000 0.0000 0.0000 0.0000 0.0000 6.1426
#
#
#
# Elastic Compliance Matrix: (Units=1/GPa)
#
#
# Indices 1 2 3 4 5 6 
#
# 1 0.011742 -0.002894 -0.006348 0.000000 0.000000 0.000000
# 2 -0.002894 0.008416 -0.003161 0.000000 0.000000 0.000000
# 3 -0.006348 -0.003161 0.019800 0.000000 0.000000 0.000000
# 4 0.000000 0.000000 0.000000 0.024759 0.000000 0.000000
# 5 0.000000 0.000000 0.000000 0.000000 0.053790 0.000000
# 6 0.000000 0.000000 0.000000 0.000000 0.000000 0.162798
#
#
# Mechanical properties :
#
#
# Convention : Reuss Voigt Hill
#
# Bulk Modulus (GPa) = 65.99604 75.71190 70.85397
# Shear Modulus (GPa) = 16.06874 26.36933 21.21904
#
# Velocity S-wave (km/s) = 2.78458 3.56712 3.19986
# Velocity P-wave (km/s) = 6.49496 7.31438 6.91682
#
# Compressibility (1/GPa) = 0.01515242
#
# Stress axis : x y z
#
# Youngs Moduli (GPa) = 85.16130 118.81780 50.50477
#
# Poissons Ratio (x) = 0.34385 0.32063
# Poissons Ratio (y) = 0.24645 0.15964
# Poissons Ratio (z) = 0.54064 0.37556
#
# Static dielectric constant tensor:
#      x y z
#    x 3.740560 0.000000 0.000000 
#    y 0.000000 3.782620 0.000000 
#    z 0.000000 0.000000 3.548870 
# 
# 
# High freq. dielectric constant tensor:
#      x y z
#    x 1.810490 0.000000 0.000000 
#    y 0.000000 1.819800 0.000000 
#    z 0.000000 0.000000 1.795530 
# 
# From -- ./inp_files/26495.got.cif
#   From: 2010.03.12/outbox.cif.g09.slc.cpg/sg24_14_cif.got.tgz:26495.got - 2010.04.14 03:06:53.
