data_PCOD8165527
_publ_section_title
;
Structure prediction by ZEFSAII (Michael W. Deem and Ramdas Pophale) SiO2 
 PCOD8165527
Probable space group: I 21 21 21
;
_chemical_formula_sum "Si O2"
_cell_formula_units_Z 52
_cell_length_a 8.835307
_cell_length_b 11.229488
_cell_length_c 27.594310
_cell_angle_alpha 90.000000
_cell_angle_beta 90.000000
_cell_angle_gamma 90.000000
_cell_volume 2737.796342
_symmetry_space_group_name_H-M "I 21 21 21"
_symmetry_group_IT_number 24
_symmetry_cell_setting 'orthorhombic'
loop_
_space_group_symop_operation_xyz
x,y,z
-x,1/2-y,z
x,-y,1/2-z
1/2-x,y,-z
1/2+x,1/2+y,1/2+z
1/2-x,-y,1/2+z
1/2+x,1/2-y,-z
-x,1/2+y,1/2-z
loop_
_atom_site_type_symbol
_atom_site_label
_atom_site_fract_x
_atom_site_fract_y
_atom_site_fract_z
Si Si1 0.750000 0.403932 0.500000
Si Si2 0.457933 0.613385 0.130459
Si Si3 0.000000 0.750000 0.027588
Si Si4 0.000000 0.750000 0.150473
Si Si5 0.962633 0.113068 0.123194
Si Si6 0.197702 0.457022 0.304599
Si Si7 0.792004 0.954233 0.054899
Si Si8 0.284246 0.055876 0.608135
O O1 0.606728 0.319072 0.490233
O O2 0.724818 0.473666 0.550105
O O3 0.500000 0.750000 0.126441
O O4 0.366367 0.583406 0.179640
O O5 0.359186 0.571163 0.084731
O O6 0.618287 0.545721 0.131282
O O7 0.094196 0.657970 0.061625
O O8 0.917084 0.847455 0.184499
O O9 0.870558 0.682609 0.117736
O O10 0.000000 0.250000 0.121759
O O11 0.850742 0.075372 0.166316
O O12 0.882180 0.070142 0.073553
O O13 0.123024 0.049965 0.132269
O O14 0.197760 0.500000 0.250000
O O15 0.750000 0.978825 0.000000
#
# Coordination Sequence:
#
# PCOD8165527 Si02
#       8
#     4   8   4   4   8   8   8   8
#     4  12  22  28  56  94 128 164 196 246 298 374
#     4  11  22  37  60  95 133 152 192 258 322 362
#     4  12  21  30  52  90 128 160 204 258 302 349
#     4  10  21  40  64  92 126 152 204 262 300 373
#     4  10  24  45  62  82 123 166 216 253 291 365
#     4  10  23  42  67  92 120 157 204 256 318 369
#     4  11  23  36  55  91 129 169 206 249 303 362
#     4  11  22  37  61  96 124 166 202 247 307 355
#
# _framework density 18.993376999999999
#
# number of rings (size 3 to 8) (size 9 to 14) (size 15 to 20)
#    0.000    1.231    3.846    2.308    5.385    0.000 
#    1.385    7.692    0.000    0.000    0.000    0.000 
#    0.000    0.000    0.000    0.000    0.000    0.000 
#
# Total GULP energy -322235.348903 kJ/mol
# GULP energy per Si atom -12393.667266 kJ/mol
# Density = 1.895015 g / cm^3
# Si number density = 18.993377 Si / 1000 Ang^3
#
#
#
# Elastic Constant Matrix: (Units=GPa)
#
#
# Indices 1 2 3 4 5 6 
#
# 1 147.2386 48.9915 36.4568 0.0000 0.0000 0.0000
# 2 48.9915 125.3901 35.9736 0.0000 0.0000 0.0000
# 3 36.4568 35.9736 115.9959 0.0000 0.0000 0.0000
# 4 0.0000 0.0000 0.0000 13.7060 0.0000 0.0000
# 5 0.0000 0.0000 0.0000 0.0000 21.9899 0.0000
# 6 0.0000 0.0000 0.0000 0.0000 0.0000 16.6784
#
#
#
# Elastic Compliance Matrix: (Units=1/GPa)
#
#
# Indices 1 2 3 4 5 6 
#
# 1 0.008107 -0.002675 -0.001719 0.000000 0.000000 0.000000
# 2 -0.002675 0.009636 -0.002148 0.000000 0.000000 0.000000
# 3 -0.001719 -0.002148 0.009827 0.000000 0.000000 0.000000
# 4 0.000000 0.000000 0.000000 0.072961 0.000000 0.000000
# 5 0.000000 0.000000 0.000000 0.000000 0.045475 0.000000
# 6 0.000000 0.000000 0.000000 0.000000 0.000000 0.059958
#
#
# Mechanical properties :
#
#
# Convention : Reuss Voigt Hill
#
# Bulk Modulus (GPa) = 69.01933 70.16316 69.59124
# Shear Modulus (GPa) = 22.33376 28.28836 25.31106
#
# Velocity S-wave (km/s) = 3.43282 3.86344 3.65447
# Velocity P-wave (km/s) = 7.22010 7.54470 7.38419
#
# Compressibility (1/GPa) = 0.01448870
#
# Stress axis : x y z
#
# Youngs Moduli (GPa) = 123.34824 103.77432 101.75773
#
# Poissons Ratio (x) = 0.27755 0.17488
# Poissons Ratio (y) = 0.32990 0.21857
# Poissons Ratio (z) = 0.21198 0.22290
#
# Static dielectric constant tensor:
#      x y z
#    x 4.126680 0.000000 0.000000 
#    y 0.000000 3.215590 0.000000 
#    z 0.000000 0.000000 3.285540 
# 
# 
# High freq. dielectric constant tensor:
#      x y z
#    x 1.765580 0.000000 0.000000 
#    y 0.000000 1.704920 0.000000 
#    z 0.000000 0.000000 1.723810 
# 
# From -- ./inp_files/38375.got.cif
#   From: 2010.03.12/outbox.cif.g09.slc.cpg/sg24_20_cif.got.tgz:38375.got - 2010.04.14 03:06:53.
