data_PCOD8165733
_publ_section_title
;
Structure prediction by ZEFSAII (Michael W. Deem and Ramdas Pophale) SiO2 
 PCOD8165733
Probable space group: I 21 21 21
;
_chemical_formula_sum "Si O2"
_cell_formula_units_Z 56
_cell_length_a 16.022270
_cell_length_b 11.595321
_cell_length_c 13.580990
_cell_angle_alpha 90.000000
_cell_angle_beta 90.000000
_cell_angle_gamma 90.000000
_cell_volume 2523.122006
_symmetry_space_group_name_H-M "I 21 21 21"
_symmetry_group_IT_number 24
_symmetry_cell_setting 'orthorhombic'
loop_
_space_group_symop_operation_xyz
x,y,z
-x,1/2-y,z
x,-y,1/2-z
1/2-x,y,-z
1/2+x,1/2+y,1/2+z
1/2-x,-y,1/2+z
1/2+x,1/2-y,-z
-x,1/2+y,1/2-z
loop_
_atom_site_type_symbol
_atom_site_label
_atom_site_fract_x
_atom_site_fract_y
_atom_site_fract_z
Si Si1 0.819911 0.000000 0.250000
Si Si2 0.379218 0.873335 0.223293
Si Si3 0.910685 0.219668 0.904046
Si Si4 0.407430 0.717219 0.819957
Si Si5 0.750000 0.668028 0.500000
Si Si6 0.192805 0.488904 0.910928
Si Si7 0.803307 0.389034 0.206367
Si Si8 0.659439 0.749701 0.032644
O O1 0.882294 0.084442 0.308121
O O2 0.754106 0.055039 0.174911
O O3 0.417438 0.778514 0.296638
O O4 0.280867 0.878631 0.232676
O O5 0.390634 0.833304 0.109201
O O6 0.418233 0.000000 0.250000
O O7 0.894751 0.081524 0.899053
O O8 0.000000 0.250000 0.956378
O O9 0.830290 0.261659 0.964110
O O10 0.500000 0.750000 0.790724
O O11 0.354411 0.776669 0.733710
O O12 0.394307 0.750711 0.933334
O O13 0.784802 0.592563 0.409428
O O14 0.170919 0.624778 0.915640
O O15 0.250000 0.449638 0.000000
O O16 0.852315 0.500000 0.250000
O O17 0.750000 0.701677 0.000000
#
# Coordination Sequence:
#
# PCOD8165733 Si02
#       8
#     4   8   8   8   4   8   8   8
#     4  12  22  46  72  98 144 188 250 296 376 458
#     4  10  22  44  70  97 137 183 234 298 365 441
#     4  11  24  43  67 107 138 181 244 301 374 442
#     4  12  27  42  67 107 145 189 239 314 374 440
#     4  10  22  44  68  96 142 188 228 294 362 436
#     4  11  21  42  75 101 131 189 244 306 364 430
#     4  10  22  41  66  95 129 185 231 279 361 436
#     4  11  21  45  73 103 134 188 255 298 369 454
#
# _framework density 22.194724000000001
#
# number of rings (size 3 to 8) (size 9 to 14) (size 15 to 20)
#    0.000    1.143    5.000    2.571    1.000    4.571 
#   10.286    0.000    0.000    0.000    0.000    0.000 
#    0.000    0.000    0.000    0.000    0.000    0.000 
#
# Total GULP energy -346880.508126 kJ/mol
# GULP energy per Si atom -12388.589576 kJ/mol
# Density = 2.214421 g / cm^3
# Si number density = 22.194724 Si / 1000 Ang^3
#
#
#
# Elastic Constant Matrix: (Units=GPa)
#
#
# Indices 1 2 3 4 5 6 
#
# 1 101.9061 31.6868 27.6779 0.0000 0.0000 0.0000
# 2 31.6868 97.9231 48.7882 0.0000 0.0000 0.0000
# 3 27.6779 48.7882 160.0701 0.0000 0.0000 0.0000
# 4 0.0000 0.0000 0.0000 27.3799 0.0000 0.0000
# 5 0.0000 0.0000 0.0000 0.0000 20.0148 0.0000
# 6 0.0000 0.0000 0.0000 0.0000 0.0000 21.4304
#
#
#
# Elastic Compliance Matrix: (Units=1/GPa)
#
#
# Indices 1 2 3 4 5 6 
#
# 1 0.011036 -0.003090 -0.000967 0.000000 0.000000 0.000000
# 2 -0.003090 0.012905 -0.003399 0.000000 0.000000 0.000000
# 3 -0.000967 -0.003399 0.007450 0.000000 0.000000 0.000000
# 4 0.000000 0.000000 0.000000 0.036523 0.000000 0.000000
# 5 0.000000 0.000000 0.000000 0.000000 0.049963 0.000000
# 6 0.000000 0.000000 0.000000 0.000000 0.000000 0.046663
#
#
# Mechanical properties :
#
#
# Convention : Reuss Voigt Hill
#
# Bulk Modulus (GPa) = 60.67521 64.02280 62.34900
# Shear Modulus (GPa) = 27.03499 30.54812 28.79156
#
# Velocity S-wave (km/s) = 3.49389 3.71397 3.60561
# Velocity P-wave (km/s) = 6.60858 6.87750 6.74438
#
# Compressibility (1/GPa) = 0.01648120
#
# Stress axis : x y z
#
# Youngs Moduli (GPa) = 90.61120 77.48654 134.21973
#
# Poissons Ratio (x) = 0.23940 0.12974
# Poissons Ratio (y) = 0.27995 0.45625
# Poissons Ratio (z) = 0.08758 0.26340
#
# Static dielectric constant tensor:
#      x y z
#    x 3.855530 0.000000 0.000000 
#    y 0.000000 4.233260 0.000000 
#    z 0.000000 0.000000 3.999550 
# 
# 
# High freq. dielectric constant tensor:
#      x y z
#    x 1.853020 0.000000 0.000000 
#    y 0.000000 1.869450 0.000000 
#    z 0.000000 0.000000 1.883730 
# 
# From -- ./inp_files/26565.got.cif
#   From: 2010.03.12/outbox.cif.g09.slc.cpg/sg24_14_cif.got.tgz:26565.got - 2010.04.14 03:06:53.
