data_PCOD8165278
_publ_section_title
;
Structure prediction by ZEFSAII (Michael W. Deem and Ramdas Pophale) SiO2 
 PCOD8165278
Probable space group: I 21 21 21
;
_chemical_formula_sum "Si O2"
_cell_formula_units_Z 28
_cell_length_a 11.495865
_cell_length_b 12.380453
_cell_length_c 9.488729
_cell_angle_alpha 90.000000
_cell_angle_beta 90.000000
_cell_angle_gamma 90.000000
_cell_volume 1350.474021
_symmetry_space_group_name_H-M "I 21 21 21"
_symmetry_group_IT_number 24
_symmetry_cell_setting 'orthorhombic'
loop_
_space_group_symop_operation_xyz
x,y,z
-x,1/2-y,z
x,-y,1/2-z
1/2-x,y,-z
1/2+x,1/2+y,1/2+z
1/2-x,-y,1/2+z
1/2+x,1/2-y,-z
-x,1/2+y,1/2-z
loop_
_atom_site_type_symbol
_atom_site_label
_atom_site_fract_x
_atom_site_fract_y
_atom_site_fract_z
Si Si1 0.165833 0.931666 0.388076
Si Si2 0.088914 0.415133 0.010685
Si Si3 0.255030 0.297443 0.201126
Si Si4 0.750000 0.888386 0.000000
O O1 0.250000 0.993171 0.500000
O O2 0.236180 0.825679 0.341866
O O3 0.048501 0.906932 0.473380
O O4 0.137067 0.000000 0.250000
O O5 0.129357 0.344845 0.874929
O O6 0.144646 0.366976 0.151969
O O7 0.133709 0.538264 0.997734
O O8 0.260942 0.308434 0.368242
#
# Coordination Sequence:
#
# PCOD8165278 Si02
#       4
#     8   8   8   4
#     4  12  26  42  63  93 134 174 212 266 330 384
#     4  10  20  42  66  94 124 173 209 261 321 386
#     4  10  21  39  70  92 126 165 221 259 319 377
#     4  10  20  38  70 102 118 162 222 274 298 386
#
# _framework density 20.733460000000001
#
# number of rings (size 3 to 8) (size 9 to 14) (size 15 to 20)
#    0.000    1.714    2.857    6.000    2.000    2.286 
#    0.000    0.000    6.286    0.000    0.000    0.000 
#    0.000    0.000    0.000    0.000    0.000    0.000 
#
# Total GULP energy -173564.360849 kJ/mol
# GULP energy per Si atom -12397.454346 kJ/mol
# Density = 2.068627 g / cm^3
# Si number density = 20.733460 Si / 1000 Ang^3
#
#
#
# Elastic Constant Matrix: (Units=GPa)
#
#
# Indices 1 2 3 4 5 6 
#
# 1 138.7013 29.1948 66.8284 0.0000 0.0000 0.0000
# 2 29.1948 57.7697 27.2305 0.0000 0.0000 0.0000
# 3 66.8284 27.2305 164.7434 0.0000 0.0000 0.0000
# 4 0.0000 0.0000 0.0000 29.0421 0.0000 0.0000
# 5 0.0000 0.0000 0.0000 0.0000 15.4132 0.0000
# 6 0.0000 0.0000 0.0000 0.0000 0.0000 13.2149
#
#
#
# Elastic Compliance Matrix: (Units=1/GPa)
#
#
# Indices 1 2 3 4 5 6 
#
# 1 0.009487 -0.003232 -0.003314 0.000000 0.000000 0.000000
# 2 -0.003232 0.019874 -0.001974 0.000000 0.000000 0.000000
# 3 -0.003314 -0.001974 0.007741 0.000000 0.000000 0.000000
# 4 0.000000 0.000000 0.000000 0.034433 0.000000 0.000000
# 5 0.000000 0.000000 0.000000 0.000000 0.064880 0.000000
# 6 0.000000 0.000000 0.000000 0.000000 0.000000 0.075672
#
#
# Mechanical properties :
#
#
# Convention : Reuss Voigt Hill
#
# Bulk Modulus (GPa) = 49.84741 67.52465 58.68603
# Shear Modulus (GPa) = 21.20321 27.39809 24.30065
#
# Velocity S-wave (km/s) = 3.20137 3.63911 3.42724
# Velocity P-wave (km/s) = 6.14485 7.09198 6.63534
#
# Compressibility (1/GPa) = 0.02006122
#
# Stress axis : x y z
#
# Youngs Moduli (GPa) = 105.40904 50.31719 129.18771
#
# Poissons Ratio (x) = 0.16263 0.42814
# Poissons Ratio (y) = 0.34070 0.25499
# Poissons Ratio (z) = 0.34934 0.09932
#
# Static dielectric constant tensor:
#      x y z
#    x 3.570550 0.000000 0.000000 
#    y 0.000000 3.621470 0.000000 
#    z 0.000000 0.000000 4.009630 
# 
# 
# High freq. dielectric constant tensor:
#      x y z
#    x 1.800410 0.000000 0.000000 
#    y 0.000000 1.798980 0.000000 
#    z 0.000000 0.000000 1.819530 
# 
# From -- ./inp_files/10101.got.cif
#   From: 2010.03.12/outbox.cif.g09.slc.cpg/sg24_6_cif.got.tgz:10101.got - 2010.04.14 03:06:53.
