data_PCOD8165925
_publ_section_title
;
Structure prediction by ZEFSAII (Michael W. Deem and Ramdas Pophale) SiO2 
 PCOD8165925
Probable space group: I 21 21 21
;
_chemical_formula_sum "Si O2"
_cell_formula_units_Z 40
_cell_length_a 7.918240
_cell_length_b 11.871012
_cell_length_c 19.924217
_cell_angle_alpha 90.000000
_cell_angle_beta 90.000000
_cell_angle_gamma 90.000000
_cell_volume 1872.827027
_symmetry_space_group_name_H-M "I 21 21 21"
_symmetry_group_IT_number 24
_symmetry_cell_setting 'orthorhombic'
loop_
_space_group_symop_operation_xyz
x,y,z
-x,1/2-y,z
x,-y,1/2-z
1/2-x,y,-z
1/2+x,1/2+y,1/2+z
1/2-x,-y,1/2+z
1/2+x,1/2-y,-z
-x,1/2+y,1/2-z
loop_
_atom_site_type_symbol
_atom_site_label
_atom_site_fract_x
_atom_site_fract_y
_atom_site_fract_z
Si Si1 0.056644 0.367013 0.985806
Si Si2 0.859133 0.441973 0.440593
Si Si3 0.637097 0.000000 0.250000
Si Si4 0.000000 0.750000 0.139118
Si Si5 0.108421 0.922664 0.648574
Si Si6 0.188235 0.737845 0.266299
O O1 0.000000 0.250000 0.019322
O O2 0.007037 0.363034 0.907489
O O3 0.250000 0.387999 0.000000
O O4 0.957428 0.462634 0.021895
O O5 0.750000 0.381281 0.500000
O O6 0.996078 0.358193 0.408885
O O7 0.754650 0.500609 0.381587
O O8 0.511037 0.011816 0.313046
O O9 0.749227 0.891110 0.268215
O O10 0.832423 0.739947 0.185964
O O11 0.183573 0.824948 0.698173
O O12 0.000000 0.750000 0.299784
#
# Coordination Sequence:
#
# PCOD8165925 Si02
#       6
#     8   8   4   4   8   8
#     4  11  24  41  68 101 132 180 233 290 354 416
#     4  10  24  45  67  97 134 189 226 292 345 425
#     4  12  24  40  68 102 130 186 222 290 366 406
#     4  10  24  44  66  96 138 174 246 266 372 410
#     4  11  24  44  68  99 143 175 240 292 356 424
#     4  10  26  41  67 101 136 185 227 298 356 428
#
# _framework density 21.358084999999999
#
# number of rings (size 3 to 8) (size 9 to 14) (size 15 to 20)
#    0.600    0.800    0.000    4.800    5.600    3.200 
#    3.600    0.000    0.000    0.000    0.000    0.000 
#    0.000    0.000    0.000    0.000    0.000    0.000 
#
# Total GULP energy -247773.426352 kJ/mol
# GULP energy per Si atom -12388.671318 kJ/mol
# Density = 2.130947 g / cm^3
# Si number density = 21.358085 Si / 1000 Ang^3
#
#
#
# Elastic Constant Matrix: (Units=GPa)
#
#
# Indices 1 2 3 4 5 6 
#
# 1 113.0709 38.6691 56.6274 0.0000 0.0000 0.0000
# 2 38.6691 109.5413 68.3939 0.0000 0.0000 0.0000
# 3 56.6274 68.3939 129.1911 0.0000 0.0000 0.0000
# 4 0.0000 0.0000 0.0000 69.7225 0.0000 0.0000
# 5 0.0000 0.0000 0.0000 0.0000 21.8364 0.0000
# 6 0.0000 0.0000 0.0000 0.0000 0.0000 22.5309
#
#
#
# Elastic Compliance Matrix: (Units=1/GPa)
#
#
# Indices 1 2 3 4 5 6 
#
# 1 0.011465 -0.001359 -0.004306 0.000000 0.000000 0.000000
# 2 -0.001359 0.013797 -0.006709 0.000000 0.000000 0.000000
# 3 -0.004306 -0.006709 0.013180 0.000000 0.000000 0.000000
# 4 0.000000 0.000000 0.000000 0.014343 0.000000 0.000000
# 5 0.000000 0.000000 0.000000 0.000000 0.045795 0.000000
# 6 0.000000 0.000000 0.000000 0.000000 0.000000 0.044384
#
#
# Mechanical properties :
#
#
# Convention : Reuss Voigt Hill
#
# Bulk Modulus (GPa) = 73.02000 75.46488 74.24244
# Shear Modulus (GPa) = 29.02323 35.35880 32.19102
#
# Velocity S-wave (km/s) = 3.69031 4.07323 3.88649
# Velocity P-wave (km/s) = 7.24020 7.58495 7.41458
#
# Compressibility (1/GPa) = 0.01369488
#
# Stress axis : x y z
#
# Youngs Moduli (GPa) = 87.21993 72.47773 75.87479
#
# Poissons Ratio (x) = 0.09848 0.32673
# Poissons Ratio (y) = 0.11851 0.50903
# Poissons Ratio (z) = 0.37559 0.48624
#
# Static dielectric constant tensor:
#      x y z
#    x 3.334960 0.000000 0.000000 
#    y 0.000000 3.743580 0.000000 
#    z 0.000000 0.000000 5.126710 
# 
# 
# High freq. dielectric constant tensor:
#      x y z
#    x 1.839920 0.000000 0.000000 
#    y 0.000000 1.835780 0.000000 
#    z 0.000000 0.000000 1.848170 
# 
# From -- ./inp_files/29290.got.cif
#   From: 2010.03.12/outbox.cif.g09.slc.cpg/sg24_15_cif.got.tgz:29290.got - 2010.04.14 03:06:53.
