data_PCOD8165164
_publ_section_title
;
Structure prediction by ZEFSAII (Michael W. Deem and Ramdas Pophale) SiO2 
 PCOD8165164
Probable space group: I 21 21 21
;
_chemical_formula_sum "Si O2"
_cell_formula_units_Z 40
_cell_length_a 23.251167
_cell_length_b 8.563879
_cell_length_c 9.732269
_cell_angle_alpha 90.000000
_cell_angle_beta 90.000000
_cell_angle_gamma 90.000000
_cell_volume 1937.891163
_symmetry_space_group_name_H-M "I 21 21 21"
_symmetry_group_IT_number 24
_symmetry_cell_setting 'orthorhombic'
loop_
_space_group_symop_operation_xyz
x,y,z
-x,1/2-y,z
x,-y,1/2-z
1/2-x,y,-z
1/2+x,1/2+y,1/2+z
1/2-x,-y,1/2+z
1/2+x,1/2-y,-z
-x,1/2+y,1/2-z
loop_
_atom_site_type_symbol
_atom_site_label
_atom_site_fract_x
_atom_site_fract_y
_atom_site_fract_z
Si Si1 0.333836 0.599494 0.113071
Si Si2 0.769718 0.322251 0.785438
Si Si3 0.329340 0.305839 0.955774
Si Si4 0.462701 0.403663 0.388397
Si Si5 0.045569 0.379738 0.130103
O O1 0.336146 0.500000 0.250000
O O2 0.291828 0.744809 0.142675
O O3 0.398227 0.656630 0.080452
O O4 0.312561 0.486537 0.989903
O O5 0.759232 0.500000 0.750000
O O6 0.708654 0.246242 0.826335
O O7 0.815266 0.301890 0.910710
O O8 0.396524 0.291606 0.919983
O O9 0.500000 0.250000 0.383590
O O10 0.468844 0.500000 0.250000
O O11 0.483080 0.521838 0.507252
O O12 0.061362 0.500000 0.250000
O O13 0.000000 0.250000 0.180522
#
# Coordination Sequence:
#
# PCOD8165164 Si02
#       5
#     8   8   8   8   8
#     4   8  17  35  56  79 113 153 194 234 287 360
#     4  10  20  37  60  90 118 148 199 258 300 344
#     4   9  21  40  57  81 118 159 195 238 305 370
#     4  10  20  36  60  91 122 160 202 245 299 354
#     4  11  24  42  62  87 120 160 204 249 298 358
#
# _framework density 20.640996000000001
#
# number of rings (size 3 to 8) (size 9 to 14) (size 15 to 20)
#    0.000    2.400    0.000    2.400    0.000    7.200 
#    0.000   20.000    0.000    0.000    0.000    0.000 
#    0.000    0.000    0.000    0.000    0.000    0.000 
#
# Total GULP energy -247935.288846 kJ/mol
# GULP energy per Si atom -12396.764442 kJ/mol
# Density = 2.059402 g / cm^3
# Si number density = 20.640996 Si / 1000 Ang^3
#
#
#
# Elastic Constant Matrix: (Units=GPa)
#
#
# Indices 1 2 3 4 5 6 
#
# 1 120.5917 80.9329 31.2955 0.0000 0.0000 0.0000
# 2 80.9329 142.3133 44.9665 0.0000 0.0000 0.0000
# 3 31.2955 44.9665 72.9351 0.0000 0.0000 0.0000
# 4 0.0000 0.0000 0.0000 37.5264 0.0000 0.0000
# 5 0.0000 0.0000 0.0000 0.0000 -1.2909 0.0000
# 6 0.0000 0.0000 0.0000 0.0000 0.0000 57.6808
#
#
#
# Elastic Compliance Matrix: (Units=1/GPa)
#
#
# Indices 1 2 3 4 5 6 
#
# 1 0.013512 -0.007268 -0.001317 0.000000 0.000000 0.000000
# 2 -0.007268 0.012636 -0.004672 0.000000 0.000000 0.000000
# 3 -0.001317 -0.004672 0.017156 0.000000 0.000000 0.000000
# 4 0.000000 0.000000 0.000000 0.026648 0.000000 0.000000
# 5 0.000000 0.000000 0.000000 0.000000 -0.774651 0.000000
# 6 0.000000 0.000000 0.000000 0.000000 0.000000 0.017337
#
#
# Mechanical properties :
#
#
# Convention : Reuss Voigt Hill
#
# Bulk Modulus (GPa) = 59.55671 72.24779 65.90225
# Shear Modulus (GPa) = -7.63066 30.69293 11.53113
#
# Velocity S-wave (km/s) = -1.92480 3.86033 2.36615
# Velocity P-wave (km/s) = 4.89657 7.41267 6.28188
#
# Compressibility (1/GPa) = 0.01679072
#
# Stress axis : x y z
#
# Youngs Moduli (GPa) = 74.00771 79.13687 58.28775
#
# Poissons Ratio (x) = 0.57518 0.07676
# Poissons Ratio (y) = 0.53790 0.27232
# Poissons Ratio (z) = 0.09746 0.36972
#
# Static dielectric constant tensor:
#      x y z
#    x 3.746240 0.000000 0.000000 
#    y 0.000000 3.695650 0.000000 
#    z 0.000000 0.000000 3.881170 
# 
# 
# High freq. dielectric constant tensor:
#      x y z
#    x 1.805730 0.000000 0.000000 
#    y 0.000000 1.795200 0.000000 
#    z 0.000000 0.000000 1.804270 
# 
# From -- ./inp_files/15639.got.cif
#   From: 2010.03.12/outbox.cif.g09.slc.cpg/sg24_8_cif.got.tgz:15639.got - 2010.04.14 03:06:53.
