data_PCOD8165879
_publ_section_title
;
Structure prediction by ZEFSAII (Michael W. Deem and Ramdas Pophale) SiO2 
 PCOD8165879
Probable space group: I 21 21 21
;
_chemical_formula_sum "Si O2"
_cell_formula_units_Z 48
_cell_length_a 9.086261
_cell_length_b 29.355695
_cell_length_c 8.863597
_cell_angle_alpha 90.000000
_cell_angle_beta 90.000000
_cell_angle_gamma 90.000000
_cell_volume 2364.218309
_symmetry_space_group_name_H-M "I 21 21 21"
_symmetry_group_IT_number 24
_symmetry_cell_setting 'orthorhombic'
loop_
_space_group_symop_operation_xyz
x,y,z
-x,1/2-y,z
x,-y,1/2-z
1/2-x,y,-z
1/2+x,1/2+y,1/2+z
1/2-x,-y,1/2+z
1/2+x,1/2-y,-z
-x,1/2+y,1/2-z
loop_
_atom_site_type_symbol
_atom_site_label
_atom_site_fract_x
_atom_site_fract_y
_atom_site_fract_z
Si Si1 0.025613 0.432972 0.896652
Si Si2 0.799221 0.353219 0.835808
Si Si3 0.464407 0.878400 0.883905
Si Si4 0.323640 0.000000 0.250000
Si Si5 0.162681 0.553706 0.281842
Si Si6 0.250000 0.939207 0.000000
Si Si7 0.406764 0.795078 0.071453
O O1 0.163487 0.436659 0.783433
O O2 0.925865 0.389962 0.862705
O O3 0.924024 0.477093 0.877266
O O4 0.083894 0.432631 0.064973
O O5 0.655862 0.373659 0.750769
O O6 0.876878 0.313744 0.739270
O O7 0.750000 0.334108 0.000000
O O8 0.604114 0.908883 0.837877
O O9 0.391107 0.906848 0.022186
O O10 0.498666 0.829538 0.960512
O O11 0.220474 0.966434 0.154897
O O12 0.132181 0.500000 0.250000
O O13 0.500000 0.750000 0.088457
O O14 0.250000 0.783433 0.000000
#
# Coordination Sequence:
#
# PCOD8165879 Si02
#       7
#     8   8   8   4   8   4   8
#     4  11  23  39  57  87 131 172 219 267 318 368
#     4  11  21  41  68  91 124 166 208 268 320 386
#     4  11  21  41  64  93 127 165 219 268 317 380
#     4  12  24  36  54  90 124 172 220 266 302 368
#     4  11  24  38  57  90 135 182 220 265 316 374
#     4  12  24  36  60  94 124 168 226 262 312 364
#     4  10  23  45  71 101 125 157 207 267 335 400
#
# _framework density 20.302693999999999
#
# number of rings (size 3 to 8) (size 9 to 14) (size 15 to 20)
#    0.000    1.000    6.667    1.000    4.667    1.333 
#    0.000    3.333    3.667    0.000    0.000    0.000 
#    0.000    0.000    0.000    0.000    0.000    0.000 
#
# Total GULP energy -297412.582190 kJ/mol
# GULP energy per Si atom -12392.190925 kJ/mol
# Density = 2.025648 g / cm^3
# Si number density = 20.302694 Si / 1000 Ang^3
#
#
#
# Elastic Constant Matrix: (Units=GPa)
#
#
# Indices 1 2 3 4 5 6 
#
# 1 67.3165 54.6886 28.8834 -0.0014 0.0015 -0.0012
# 2 54.6886 140.8956 56.0286 -0.0043 0.0007 0.0005
# 3 28.8834 56.0286 92.7171 -0.0001 0.0084 -0.0057
# 4 -0.0014 -0.0043 -0.0001 27.0708 -0.0020 0.0034
# 5 0.0015 0.0007 0.0084 -0.0020 30.4223 -0.0028
# 6 -0.0012 0.0005 -0.0057 0.0034 -0.0028 31.1807
#
#
#
# Elastic Compliance Matrix: (Units=1/GPa)
#
#
# Indices 1 2 3 4 5 6 
#
# 1 0.022043 -0.007668 -0.002233 0.000000 0.000000 0.000001
# 2 -0.007668 0.012010 -0.004869 0.000001 0.000001 -0.000001
# 3 -0.002233 -0.004869 0.014423 -0.000001 -0.000004 0.000003
# 4 0.000000 0.000001 -0.000001 0.036940 0.000002 -0.000004
# 5 0.000000 0.000001 -0.000004 0.000002 0.032871 0.000003
# 6 0.000001 -0.000001 0.000003 -0.000004 0.000003 0.032071
#
#
# Mechanical properties :
#
#
# Convention : Reuss Voigt Hill
#
# Bulk Modulus (GPa) = 52.80833 64.45893 58.63363
# Shear Modulus (GPa) = 26.85141 28.48999 27.67070
#
# Velocity S-wave (km/s) = 3.64064 3.75008 3.69576
# Velocity P-wave (km/s) = 6.61357 7.11116 6.86688
#
# Compressibility (1/GPa) = 0.01893640
#
# Stress axis : x y z
#
# Youngs Moduli (GPa) = 45.36615 83.26482 69.33195
#
# Poissons Ratio (x) = 0.63847 0.15483
# Poissons Ratio (y) = 0.34786 0.33756
# Poissons Ratio (z) = 0.10131 0.40540
#
# Static dielectric constant tensor:
#      x y z
#    x 3.754190 0.000000 -0.000030 
#    y 0.000000 3.553310 0.000010 
#    z -0.000030 0.000010 4.163330 
# 
# 
# High freq. dielectric constant tensor:
#      x y z
#    x 1.789970 0.000000 0.000000 
#    y 0.000000 1.778380 0.000000 
#    z 0.000000 0.000000 1.804500 
# 
# From -- ./inp_files/9781.got.cif
#   From: 2010.03.12/outbox.cif.g09.slc.cpg/sg24_5_cif.got.tgz:9781.got - 2010.04.14 03:06:53.
