data_PCOD8165871
_publ_section_title
;
Structure prediction by ZEFSAII (Michael W. Deem and Ramdas Pophale) SiO2 
 PCOD8165871
Probable space group: I 21 21 21
;
_chemical_formula_sum "Si O2"
_cell_formula_units_Z 40
_cell_length_a 23.091862
_cell_length_b 7.252853
_cell_length_c 9.006424
_cell_angle_alpha 90.000000
_cell_angle_beta 90.000000
_cell_angle_gamma 90.000000
_cell_volume 1508.412829
_symmetry_space_group_name_H-M "I 21 21 21"
_symmetry_group_IT_number 24
_symmetry_cell_setting 'orthorhombic'
loop_
_space_group_symop_operation_xyz
x,y,z
-x,1/2-y,z
x,-y,1/2-z
1/2-x,y,-z
1/2+x,1/2+y,1/2+z
1/2-x,-y,1/2+z
1/2+x,1/2-y,-z
-x,1/2+y,1/2-z
loop_
_atom_site_type_symbol
_atom_site_label
_atom_site_fract_x
_atom_site_fract_y
_atom_site_fract_z
Si Si1 0.195158 0.987072 0.580578
Si Si2 0.926973 0.138536 0.009423
Si Si3 0.496625 0.500000 0.250000
Si Si4 0.575790 0.566814 0.989845
Si Si5 0.308300 0.443827 0.077564
Si Si6 0.500000 0.750000 0.751702
O O1 0.250000 0.075174 0.500000
O O2 0.141702 0.119445 0.534415
O O3 0.187487 0.772764 0.546563
O O4 0.209106 0.000000 0.750000
O O5 0.974325 0.082968 0.138720
O O6 0.956072 0.136121 0.846278
O O7 0.917814 0.351749 0.050999
O O8 0.870067 0.004100 0.003601
O O9 0.536266 0.613205 0.133187
O O10 0.554437 0.684068 0.849561
O O11 0.308028 0.500000 0.250000
O O12 0.250000 0.524806 0.000000
#
# Coordination Sequence:
#
# PCOD8165871 Si02
#       6
#     8   8   4   8   8   4
#     4  10  23  44  72  99 136 185 242 298 357 426
#     4  11  24  45  68 102 141 191 239 297 363 436
#     4  12  22  42  72  92 142 192 240 286 360 436
#     4  11  25  43  68 104 142 190 237 302 358 436
#     4  10  23  46  70  98 137 184 241 302 360 425
#     4  12  26  42  70 108 152 182 238 302 364 428
#
# _framework density 26.517938999999998
#
# number of rings (size 3 to 8) (size 9 to 14) (size 15 to 20)
#    0.000    1.200    4.000    0.600    2.800    5.600 
#    3.600    0.000    0.000    0.000    0.000    0.000 
#    0.000    0.000    0.000    0.000    0.000    0.000 
#
# Total GULP energy -247763.742433 kJ/mol
# GULP energy per Si atom -12388.187122 kJ/mol
# Density = 2.645758 g / cm^3
# Si number density = 26.517939 Si / 1000 Ang^3
#
#
#
# Elastic Constant Matrix: (Units=GPa)
#
#
# Indices 1 2 3 4 5 6 
#
# 1 247.7538 10.0092 113.1929 0.0000 0.0000 0.0000
# 2 10.0092 38.5175 14.8311 0.0000 0.0000 0.0000
# 3 113.1929 14.8311 217.1417 0.0000 0.0000 0.0000
# 4 0.0000 0.0000 0.0000 39.8073 0.0000 0.0000
# 5 0.0000 0.0000 0.0000 0.0000 56.3243 0.0000
# 6 0.0000 0.0000 0.0000 0.0000 0.0000 17.0342
#
#
#
# Elastic Compliance Matrix: (Units=1/GPa)
#
#
# Indices 1 2 3 4 5 6 
#
# 1 0.005302 -0.000322 -0.002742 0.000000 0.000000 0.000000
# 2 -0.000322 0.026683 -0.001655 0.000000 0.000000 0.000000
# 3 -0.002742 -0.001655 0.006148 0.000000 0.000000 0.000000
# 4 0.000000 0.000000 0.000000 0.025121 0.000000 0.000000
# 5 0.000000 0.000000 0.000000 0.000000 0.017754 0.000000
# 6 0.000000 0.000000 0.000000 0.000000 0.000000 0.058705
#
#
# Mechanical properties :
#
#
# Convention : Reuss Voigt Hill
#
# Bulk Modulus (GPa) = 34.84858 86.60883 60.72870
# Shear Modulus (GPa) = 31.50293 46.99183 39.24738
#
# Velocity S-wave (km/s) = 3.45046 4.21417 3.85129
# Velocity P-wave (km/s) = 5.38927 7.51068 6.53661
#
# Compressibility (1/GPa) = 0.02869557
#
# Stress axis : x y z
#
# Youngs Moduli (GPa) = 188.60954 37.47703 162.66559
#
# Poissons Ratio (x) = 0.01207 0.44600
# Poissons Ratio (y) = 0.06074 0.26915
# Poissons Ratio (z) = 0.51714 0.06201
#
# Static dielectric constant tensor:
#      x y z
#    x 6.118270 0.000000 0.000000 
#    y 0.000000 4.275130 0.000000 
#    z 0.000000 0.000000 5.002320 
# 
# 
# High freq. dielectric constant tensor:
#      x y z
#    x 2.083410 0.000000 0.000000 
#    y 0.000000 2.051880 0.000000 
#    z 0.000000 0.000000 2.070350 
# 
# From -- ./inp_files/15665.got.cif
#   From: 2010.03.12/outbox.cif.g09.slc.cpg/sg24_8_cif.got.tgz:15665.got - 2010.04.14 03:06:53.
