data_PCOD8165052
_publ_section_title
;
Structure prediction by ZEFSAII (Michael W. Deem and Ramdas Pophale) SiO2 
 PCOD8165052
Probable space group: I 21 21 21
;
_chemical_formula_sum "Si O2"
_cell_formula_units_Z 60
_cell_length_a 5.192890
_cell_length_b 23.837912
_cell_length_c 25.211167
_cell_angle_alpha 90.000000
_cell_angle_beta 90.000000
_cell_angle_gamma 90.000000
_cell_volume 3120.831239
_symmetry_space_group_name_H-M "I 21 21 21"
_symmetry_group_IT_number 24
_symmetry_cell_setting 'orthorhombic'
loop_
_space_group_symop_operation_xyz
x,y,z
-x,1/2-y,z
x,-y,1/2-z
1/2-x,y,-z
1/2+x,1/2+y,1/2+z
1/2-x,-y,1/2+z
1/2+x,1/2-y,-z
-x,1/2+y,1/2-z
loop_
_atom_site_type_symbol
_atom_site_label
_atom_site_fract_x
_atom_site_fract_y
_atom_site_fract_z
Si Si1 0.381635 0.694634 0.450190
Si Si2 0.500000 0.750000 0.630030
Si Si3 0.997755 0.384166 0.532810
Si Si4 0.999919 0.601660 0.623300
Si Si5 0.025147 0.137692 0.181216
Si Si6 0.001398 0.984418 0.533223
Si Si7 0.990162 0.185092 0.292765
Si Si8 0.009457 0.814347 0.861084
O O1 0.500000 0.750000 0.477579
O O2 0.250000 0.662560 0.500000
O O3 0.208871 0.718898 0.404183
O O4 0.565873 0.649828 0.421215
O O5 0.616692 0.700635 0.665812
O O6 0.750000 0.363796 0.500000
O O7 0.983261 0.449886 0.544788
O O8 0.007573 0.352943 0.588099
O O9 0.250000 0.367896 0.500000
O O10 0.266106 0.614537 0.653690
O O11 0.763481 0.597750 0.664578
O O12 0.016141 0.543774 0.591217
O O13 0.991937 0.140778 0.244336
O O14 0.250000 0.963950 0.500000
O O15 0.750000 0.968050 0.500000
O O16 0.228504 0.171510 0.330581
O O17 0.000000 0.250000 0.273581
O O18 0.727539 0.172054 0.323002
O O19 0.000000 0.750000 0.879805
#
# Coordination Sequence:
#
# PCOD8165052 Si02
#       8
#     8   4   8   8   8   8   8   8
#     4  11  20  30  43  64 100 135 172 221 295 341
#     4  10  20  32  44  68  96 138 178 230 274 334
#     4  10  21  38  63  90 118 150 178 217 269 335
#     4  11  23  34  53  76 102 142 193 244 280 323
#     4  11  21  35  54  75 106 141 193 238 282 315
#     4  10  21  39  59  80 108 147 192 231 280 337
#     4  10  20  36  57  81 116 155 187 229 268 334
#     4  10  21  36  59  92 120 148 180 213 274 334
#
# _framework density 19.225646000000001
#
# number of rings (size 3 to 8) (size 9 to 14) (size 15 to 20)
#    0.000    1.600    2.667    2.800    0.000    2.133 
#    0.000    0.000    0.000    4.800    0.000    0.000 
#    0.000    0.000    0.000    0.000    0.000    0.000 
#
# Total GULP energy -371890.268768 kJ/mol
# GULP energy per Si atom -12396.342292 kJ/mol
# Density = 1.918189 g / cm^3
# Si number density = 19.225646 Si / 1000 Ang^3
#
#
#
# Elastic Constant Matrix: (Units=GPa)
#
#
# Indices 1 2 3 4 5 6 
#
# 1 2417.9235 549.8539 2168.2875 0.0000 0.0000 0.0000
# 2 549.8539 170.3580 532.6558 0.0000 0.0000 0.0000
# 3 2168.2875 532.6558 2088.3358 0.0000 0.0000 0.0000
# 4 0.0000 0.0000 0.0000 35.2340 0.0000 0.0000
# 5 0.0000 0.0000 0.0000 0.0000 26.7871 0.0000
# 6 0.0000 0.0000 0.0000 0.0000 0.0000 -8.5010
#
#
#
# Elastic Compliance Matrix: (Units=1/GPa)
#
#
# Indices 1 2 3 4 5 6 
#
# 1 0.006012 0.000557 -0.006384 0.000000 0.000000 0.000000
# 2 0.000557 0.029039 -0.007985 0.000000 0.000000 0.000000
# 3 -0.006384 -0.007985 0.009144 0.000000 0.000000 0.000000
# 4 0.000000 0.000000 0.000000 0.028382 0.000000 0.000000
# 5 0.000000 0.000000 0.000000 0.000000 0.037331 0.000000
# 6 0.000000 0.000000 0.000000 0.000000 0.000000 -0.117634
#
#
# Mechanical properties :
#
#
# Convention : Reuss Voigt Hill
#
# Bulk Modulus (GPa) = 60.34782 1242.02352 651.18567
# Shear Modulus (GPa) = 196.67010 105.75871 151.21440
#
# Velocity S-wave (km/s) = 10.12511 7.42486 8.87824
# Velocity P-wave (km/s) = 12.96718 26.85017 21.08411
#
# Compressibility (1/GPa) = 0.01657061
#
# Stress axis : x y z
#
# Youngs Moduli (GPa) = 166.32745 34.43639 109.35747
#
# Poissons Ratio (x) = -0.01917 0.69818
# Poissons Ratio (y) = -0.09260 0.87320
# Poissons Ratio (z) = 1.06190 0.27497
#
# Static dielectric constant tensor:
#      x y z
#    x 3.850300 0.000000 0.000000 
#    y 0.000000 3.574500 0.000000 
#    z 0.000000 0.000000 3.461250 
# 
# 
# High freq. dielectric constant tensor:
#      x y z
#    x 1.761010 0.000000 0.000000 
#    y 0.000000 1.721350 0.000000 
#    z 0.000000 0.000000 1.747800 
# 
# From -- ./inp_files/32299.got.cif
#   From: 2010.03.12/outbox.cif.g09.slc.cpg/sg24_17_cif.got.tgz:32299.got - 2010.04.14 03:06:53.
