data_PCOD8165537
_publ_section_title
;
Structure prediction by ZEFSAII (Michael W. Deem and Ramdas Pophale) SiO2 
 PCOD8165537
Probable space group: I 21 21 21
;
_chemical_formula_sum "Si O2"
_cell_formula_units_Z 60
_cell_length_a 25.301565
_cell_length_b 9.276293
_cell_length_c 12.173311
_cell_angle_alpha 90.000000
_cell_angle_beta 90.000000
_cell_angle_gamma 90.000000
_cell_volume 2857.133675
_symmetry_space_group_name_H-M "I 21 21 21"
_symmetry_group_IT_number 24
_symmetry_cell_setting 'orthorhombic'
loop_
_space_group_symop_operation_xyz
x,y,z
-x,1/2-y,z
x,-y,1/2-z
1/2-x,y,-z
1/2+x,1/2+y,1/2+z
1/2-x,-y,1/2+z
1/2+x,1/2-y,-z
-x,1/2+y,1/2-z
loop_
_atom_site_type_symbol
_atom_site_label
_atom_site_fract_x
_atom_site_fract_y
_atom_site_fract_z
Si Si1 0.662158 0.156738 0.728189
Si Si2 0.286949 0.084768 0.649609
Si Si3 0.173197 0.996209 0.925821
Si Si4 0.917255 0.302935 0.623236
Si Si5 0.912123 0.053030 0.459425
Si Si6 0.382225 0.760488 0.545583
Si Si7 0.000000 0.750000 0.692908
Si Si8 0.479070 0.957218 0.493994
O O1 0.711449 0.244685 0.675966
O O2 0.612590 0.131357 0.646663
O O3 0.642518 0.250771 0.832489
O O4 0.686889 0.000000 0.750000
O O5 0.230195 0.010963 0.630444
O O6 0.325081 0.074628 0.545817
O O7 0.313698 0.000000 0.750000
O O8 0.134760 0.899157 0.849636
O O9 0.153355 0.158752 0.952115
O O10 0.904819 0.152176 0.565820
O O11 0.947265 0.269291 0.735708
O O12 0.950591 0.395183 0.536839
O O13 0.972713 0.008978 0.428589
O O14 0.884244 0.903873 0.494277
O O15 0.439636 0.841032 0.550762
O O16 0.004837 0.609024 0.616852
#
# Coordination Sequence:
#
# PCOD8165537 Si02
#       8
#     8   8   8   8   8   8   4   8
#     4  10  22  40  69  93 128 172 208 268 337 387
#     4  11  21  42  70  90 126 162 214 269 329 384
#     4  10  23  40  66  98 122 163 216 270 317 389
#     4  11  23  37  62  94 125 172 215 258 323 385
#     4  11  20  40  61  93 132 163 212 264 320 389
#     4  10  21  40  65  92 129 168 213 265 322 383
#     4  12  22  38  66  86 134 178 214 262 322 376
#     4  11  22  39  60  92 133 173 215 261 317 385
#
# _framework density 21.000069
#
# number of rings (size 3 to 8) (size 9 to 14) (size 15 to 20)
#    0.000    1.333    5.333    0.400    0.000    2.133 
#    0.000    9.333    0.000    0.000    0.000    0.000 
#    0.000    0.000    0.000    0.000    0.000    0.000 
#
# Total GULP energy -371708.002897 kJ/mol
# GULP energy per Si atom -12390.266763 kJ/mol
# Density = 2.095227 g / cm^3
# Si number density = 21.000069 Si / 1000 Ang^3
#
#
#
# Elastic Constant Matrix: (Units=GPa)
#
#
# Indices 1 2 3 4 5 6 
#
# 1 78.3036 37.4373 13.2613 0.0000 0.0000 0.0000
# 2 37.4373 126.5348 29.0430 0.0000 0.0000 0.0000
# 3 13.2613 29.0430 60.1337 0.0000 0.0000 0.0000
# 4 0.0000 0.0000 0.0000 35.1263 0.0000 0.0000
# 5 0.0000 0.0000 0.0000 0.0000 3.2492 0.0000
# 6 0.0000 0.0000 0.0000 0.0000 0.0000 28.5486
#
#
#
# Elastic Compliance Matrix: (Units=1/GPa)
#
#
# Indices 1 2 3 4 5 6 
#
# 1 0.014966 -0.004128 -0.001307 0.000000 0.000000 0.000000
# 2 -0.004128 0.010027 -0.003932 0.000000 0.000000 0.000000
# 3 -0.001307 -0.003932 0.018817 0.000000 0.000000 0.000000
# 4 0.000000 0.000000 0.000000 0.028469 0.000000 0.000000
# 5 0.000000 0.000000 0.000000 0.000000 0.307772 0.000000
# 6 0.000000 0.000000 0.000000 0.000000 0.000000 0.035028
#
#
# Mechanical properties :
#
#
# Convention : Reuss Voigt Hill
#
# Bulk Modulus (GPa) = 39.87945 47.16167 43.52056
# Shear Modulus (GPa) = 11.30784 25.73352 18.52068
#
# Velocity S-wave (km/s) = 2.32301 3.50437 2.97296
# Velocity P-wave (km/s) = 5.12118 6.23544 5.70558
#
# Compressibility (1/GPa) = 0.02507557
#
# Stress axis : x y z
#
# Youngs Moduli (GPa) = 66.81955 99.73220 53.14338
#
# Poissons Ratio (x) = 0.41169 0.06944
# Poissons Ratio (y) = 0.27582 0.20898
# Poissons Ratio (z) = 0.08731 0.39218
#
# Static dielectric constant tensor:
#      x y z
#    x 3.798760 0.000000 0.000000 
#    y 0.000000 4.105000 0.000000 
#    z 0.000000 0.000000 3.817120 
# 
# 
# High freq. dielectric constant tensor:
#      x y z
#    x 1.806470 0.000000 0.000000 
#    y 0.000000 1.841850 0.000000 
#    z 0.000000 0.000000 1.813200 
# 
# From -- ./inp_files/22963.got.cif
#   From: 2010.03.12/outbox.cif.g09.slc.cpg/sg24_12_cif.got.tgz:22963.got - 2010.04.14 03:06:53.
