data_PCOD8165976
_publ_section_title
;
Structure prediction by ZEFSAII (Michael W. Deem and Ramdas Pophale) SiO2 
 PCOD8165976
Probable space group: I 21 21 21
;
_chemical_formula_sum "Si O2"
_cell_formula_units_Z 56
_cell_length_a 21.800116
_cell_length_b 21.456343
_cell_length_c 6.062031
_cell_angle_alpha 90.000000
_cell_angle_beta 90.000000
_cell_angle_gamma 90.000000
_cell_volume 2835.519646
_symmetry_space_group_name_H-M "I 21 21 21"
_symmetry_group_IT_number 24
_symmetry_cell_setting 'orthorhombic'
loop_
_space_group_symop_operation_xyz
x,y,z
-x,1/2-y,z
x,-y,1/2-z
1/2-x,y,-z
1/2+x,1/2+y,1/2+z
1/2-x,-y,1/2+z
1/2+x,1/2-y,-z
-x,1/2+y,1/2-z
loop_
_atom_site_type_symbol
_atom_site_label
_atom_site_fract_x
_atom_site_fract_y
_atom_site_fract_z
Si Si1 0.987058 0.654423 0.506896
Si Si2 0.410825 0.069150 0.321147
Si Si3 0.182757 0.832104 0.914088
Si Si4 0.977165 0.065938 0.358386
Si Si5 0.416128 0.338328 0.367100
Si Si6 0.401532 0.242174 0.732249
Si Si7 0.315630 0.283228 0.095460
O O1 0.940207 0.608282 0.624278
O O2 0.952935 0.710383 0.383122
O O3 0.026545 0.615410 0.335162
O O4 0.035672 0.681991 0.679422
O O5 0.345108 0.100792 0.358223
O O6 0.455015 0.065687 0.534790
O O7 0.395954 0.000000 0.250000
O O8 0.186733 0.785177 0.706520
O O9 0.250000 0.844057 0.000000
O O10 0.138801 0.808270 0.106605
O O11 0.928475 0.090682 0.544927
O O12 0.958321 0.000000 0.250000
O O13 0.432062 0.288968 0.558370
O O14 0.345946 0.331045 0.275464
O O15 0.358167 0.283613 0.883659
O O16 0.250000 0.305623 0.000000
#
# Coordination Sequence:
#
# PCOD8165976 Si02
#       7
#     8   8   8   8   8   8   8
#     4  11  22  40  60  90 131 166 203 261 325 377
#     4  11  22  39  60  89 122 173 223 261 307 373
#     4  11  22  39  60  89 122 173 223 261 307 373
#     4  11  22  40  63  86 128 167 209 264 321 380
#     4  10  26  37  58  98 126 158 216 254 322 398
#     4  11  22  40  60  90 131 166 203 261 325 377
#     4  11  22  40  63  86 128 167 209 264 321 380
#
# _framework density 19.749468
#
# number of rings (size 3 to 8) (size 9 to 14) (size 15 to 20)
#    0.000    1.143    5.714    0.857    0.000    3.429 
#    0.000    2.857    0.000    0.000    0.000    0.000 
#   60.000    0.000    0.000    0.000    0.000    0.000 
#
# Total GULP energy -347076.827690 kJ/mol
# GULP energy per Si atom -12395.600989 kJ/mol
# Density = 1.970452 g / cm^3
# Si number density = 19.749468 Si / 1000 Ang^3
#
#
#
# Elastic Constant Matrix: (Units=GPa)
#
#
# Indices 1 2 3 4 5 6 
#
# 1 117.2016 78.9142 59.2572 0.0000 0.0000 0.0000
# 2 78.9142 65.5564 36.6520 0.0000 0.0000 0.0000
# 3 59.2572 36.6520 110.4777 0.0000 0.0000 0.0000
# 4 0.0000 0.0000 0.0000 39.7279 0.0000 0.0000
# 5 0.0000 0.0000 0.0000 0.0000 55.7431 0.0000
# 6 0.0000 0.0000 0.0000 0.0000 0.0000 8.7541
#
#
#
# Elastic Compliance Matrix: (Units=1/GPa)
#
#
# Indices 1 2 3 4 5 6 
#
# 1 0.050861 -0.056441 -0.008556 0.000000 0.000000 0.000000
# 2 -0.056441 0.081361 0.003281 0.000000 0.000000 0.000000
# 3 -0.008556 0.003281 0.012552 0.000000 0.000000 0.000000
# 4 0.000000 0.000000 0.000000 0.025171 0.000000 0.000000
# 5 0.000000 0.000000 0.000000 0.000000 0.017939 0.000000
# 6 0.000000 0.000000 0.000000 0.000000 0.000000 0.114232
#
#
# Mechanical properties :
#
#
# Convention : Reuss Voigt Hill
#
# Bulk Modulus (GPa) = 46.85362 71.43140 59.14251
# Shear Modulus (GPa) = 11.55638 28.73918 20.14778
#
# Velocity S-wave (km/s) = 2.42161 3.81883 3.19747
# Velocity P-wave (km/s) = 5.62089 7.46270 6.60630
#
# Compressibility (1/GPa) = 0.02134307
#
# Stress axis : x y z
#
# Youngs Moduli (GPa) = 19.66151 12.29094 79.66838
#
# Poissons Ratio (x) = 0.69371 0.68161
# Poissons Ratio (y) = 1.10971 -0.26140
# Poissons Ratio (z) = 0.16822 -0.04033
#
# Static dielectric constant tensor:
#      x y z
#    x 3.573620 0.000000 0.000000 
#    y 0.000000 3.424450 0.000000 
#    z 0.000000 0.000000 3.975130 
# 
# 
# High freq. dielectric constant tensor:
#      x y z
#    x 1.755900 0.000000 0.000000 
#    y 0.000000 1.751380 0.000000 
#    z 0.000000 0.000000 1.797420 
# 
# From -- ./inp_files/5791.got.cif
#   From: 2010.03.12/outbox.cif.g09.slc.cpg/sg24_3_cif.got.tgz:5791.got - 2010.04.14 03:06:53.
