data_PCOD8165724
_publ_section_title
;
Structure prediction by ZEFSAII (Michael W. Deem and Ramdas Pophale) SiO2 
 PCOD8165724
Probable space group: I 21 21 21
;
_chemical_formula_sum "Si O2"
_cell_formula_units_Z 40
_cell_length_a 5.125156
_cell_length_b 15.436689
_cell_length_c 24.731210
_cell_angle_alpha 90.000000
_cell_angle_beta 90.000000
_cell_angle_gamma 90.000000
_cell_volume 1956.620542
_symmetry_space_group_name_H-M "I 21 21 21"
_symmetry_group_IT_number 24
_symmetry_cell_setting 'orthorhombic'
loop_
_space_group_symop_operation_xyz
x,y,z
-x,1/2-y,z
x,-y,1/2-z
1/2-x,y,-z
1/2+x,1/2+y,1/2+z
1/2-x,-y,1/2+z
1/2+x,1/2-y,-z
-x,1/2+y,1/2-z
loop_
_atom_site_type_symbol
_atom_site_label
_atom_site_fract_x
_atom_site_fract_y
_atom_site_fract_z
Si Si1 0.711103 0.964340 0.936719
Si Si2 0.250236 0.691680 0.861313
Si Si3 0.252341 0.808820 0.309040
Si Si4 0.716024 0.471987 0.118874
Si Si5 0.947418 0.580103 0.784942
O O1 0.705383 0.866897 0.913989
O O2 0.436219 0.009856 0.925202
O O3 0.750000 0.958541 0.000000
O O4 0.934583 0.022474 0.909207
O O5 0.500000 0.750000 0.848771
O O6 0.000000 0.750000 0.873630
O O7 0.194959 0.632147 0.808578
O O8 0.500000 0.750000 0.319801
O O9 0.237879 0.876858 0.357745
O O10 0.271779 0.857040 0.251453
O O11 0.000000 0.750000 0.308766
O O12 0.733960 0.544165 0.166512
O O13 0.062393 0.500000 0.750000
#
# Coordination Sequence:
#
# PCOD8165724 Si02
#       5
#     8   8   8   8   8
#     4  11  23  41  65  87 113 157 202 242 295 356
#     4  11  23  39  59  87 124 157 194 248 296 338
#     4  11  23  38  61  90 122 156 194 241 294 350
#     4  10  22  41  62  87 120 155 197 245 289 349
#     4   9  21  39  59  87 123 165 201 230 281 353
#
# _framework density 20.443414000000001
#
# number of rings (size 3 to 8) (size 9 to 14) (size 15 to 20)
#    0.000    1.600    0.000    4.800    0.000    8.800 
#    0.000   16.000    0.000   12.000    0.000    0.000 
#    0.000    0.000    0.000    0.000    0.000    0.000 
#
# Total GULP energy -248089.934722 kJ/mol
# GULP energy per Si atom -12404.496736 kJ/mol
# Density = 2.039688 g / cm^3
# Si number density = 20.443414 Si / 1000 Ang^3
#
#
#
# Elastic Constant Matrix: (Units=GPa)
#
#
# Indices 1 2 3 4 5 6 
#
# 1 139.0131 66.5874 40.4696 0.0000 0.0000 0.0000
# 2 66.5874 143.4349 64.4487 0.0000 0.0000 0.0000
# 3 40.4696 64.4487 127.7772 0.0000 0.0000 0.0000
# 4 0.0000 0.0000 0.0000 41.8005 0.0000 0.0000
# 5 0.0000 0.0000 0.0000 0.0000 29.4694 0.0000
# 6 0.0000 0.0000 0.0000 0.0000 0.0000 34.6072
#
#
#
# Elastic Compliance Matrix: (Units=1/GPa)
#
#
# Indices 1 2 3 4 5 6 
#
# 1 0.009348 -0.003891 -0.000998 0.000000 0.000000 0.000000
# 2 -0.003891 0.010635 -0.004131 0.000000 0.000000 0.000000
# 3 -0.000998 -0.004131 0.010226 0.000000 0.000000 0.000000
# 4 0.000000 0.000000 0.000000 0.023923 0.000000 0.000000
# 5 0.000000 0.000000 0.000000 0.000000 0.033934 0.000000
# 6 0.000000 0.000000 0.000000 0.000000 0.000000 0.028896
#
#
# Mechanical properties :
#
#
# Convention : Reuss Voigt Hill
#
# Bulk Modulus (GPa) = 82.18819 83.69296 82.94057
# Shear Modulus (GPa) = 35.95611 37.09004 36.52308
#
# Velocity S-wave (km/s) = 4.19837 4.26406 4.23134
# Velocity P-wave (km/s) = 7.98698 8.07902 8.03313
#
# Compressibility (1/GPa) = 0.01216720
#
# Stress axis : x y z
#
# Youngs Moduli (GPa) = 106.97457 94.03253 97.78925
#
# Poissons Ratio (x) = 0.36590 0.09760
# Poissons Ratio (y) = 0.41626 0.40402
# Poissons Ratio (z) = 0.10676 0.38849
#
# Static dielectric constant tensor:
#      x y z
#    x 3.041110 0.000000 0.000000 
#    y 0.000000 3.987270 0.000000 
#    z 0.000000 0.000000 3.668550 
# 
# 
# High freq. dielectric constant tensor:
#      x y z
#    x 1.806790 0.000000 0.000000 
#    y 0.000000 1.810060 0.000000 
#    z 0.000000 0.000000 1.787470 
# 
# From -- ./inp_files/34619.got.cif
#   From: 2010.03.12/outbox.cif.g09.slc.cpg/sg24_18_cif.got.tgz:34619.got - 2010.04.14 03:06:53.
