data_PCOD8165978
_publ_section_title
;
Structure prediction by ZEFSAII (Michael W. Deem and Ramdas Pophale) SiO2 
 PCOD8165978
Probable space group: I 21 21 21
;
_chemical_formula_sum "Si O2"
_cell_formula_units_Z 60
_cell_length_a 8.061218
_cell_length_b 30.311839
_cell_length_c 11.173080
_cell_angle_alpha 90.000000
_cell_angle_beta 90.000000
_cell_angle_gamma 90.000000
_cell_volume 2730.145921
_symmetry_space_group_name_H-M "I 21 21 21"
_symmetry_group_IT_number 24
_symmetry_cell_setting 'orthorhombic'
loop_
_space_group_symop_operation_xyz
x,y,z
-x,1/2-y,z
x,-y,1/2-z
1/2-x,y,-z
1/2+x,1/2+y,1/2+z
1/2-x,-y,1/2+z
1/2+x,1/2-y,-z
-x,1/2+y,1/2-z
loop_
_atom_site_type_symbol
_atom_site_label
_atom_site_fract_x
_atom_site_fract_y
_atom_site_fract_z
Si Si1 0.119123 0.119233 0.160507
Si Si2 0.084264 0.592753 0.561226
Si Si3 0.076089 0.115466 0.561627
Si Si4 0.722757 0.713876 0.366231
Si Si5 0.000000 0.750000 0.206392
Si Si6 0.059607 0.668325 0.736563
Si Si7 0.398075 0.340617 0.644911
Si Si8 0.877367 0.550477 0.754383
O O1 0.225515 0.162766 0.137039
O O2 0.218584 0.080473 0.225467
O O3 0.961487 0.131835 0.241573
O O4 0.060680 0.100070 0.034113
O O5 0.250000 0.574200 0.500000
O O6 0.123488 0.639002 0.626097
O O7 0.024308 0.557011 0.658324
O O8 0.250000 0.124988 0.500000
O O9 0.060073 0.064903 0.611035
O O10 0.080066 0.144001 0.683658
O O11 0.925067 0.129224 0.473197
O O12 0.750000 0.732176 0.500000
O O13 0.833624 0.747044 0.287355
O O14 0.528887 0.712398 0.318941
O O15 0.995090 0.794144 0.126241
O O16 0.210012 0.674782 0.830302
O O17 0.821546 0.500000 0.750000
#
# Coordination Sequence:
#
# PCOD8165978 Si02
#       8
#     8   8   8   8   4   8   8   8
#     4  11  19  40  69  93 132 176 223 277 339 421
#     4  11  21  39  67 100 130 174 218 280 348 419
#     4  11  21  42  68  91 130 180 225 276 338 417
#     4  11  20  39  64  96 133 177 222 285 356 403
#     4  10  26  40  60  96 138 172 236 290 324 416
#     4  11  22  38  69  95 126 177 232 273 345 425
#     4  11  23  42  64  97 132 184 230 273 351 407
#     4  11  24  42  69 105 133 175 235 284 343 421
#
# _framework density 21.976846999999999
#
# number of rings (size 3 to 8) (size 9 to 14) (size 15 to 20)
#    0.000    1.067    6.667    1.600    0.000    2.667 
#    0.000    7.333    0.000    0.000    0.000    0.000 
#    0.000    0.000    0.000    0.000    0.000    0.000 
#
# Total GULP energy -371827.302155 kJ/mol
# GULP energy per Si atom -12394.243405 kJ/mol
# Density = 2.192683 g / cm^3
# Si number density = 21.976847 Si / 1000 Ang^3
#
#
#
# Elastic Constant Matrix: (Units=GPa)
#
#
# Indices 1 2 3 4 5 6 
#
# 1 106.8088 18.9961 34.0118 -0.0021 -0.0004 0.0000
# 2 18.9961 109.4812 32.6368 -0.0033 -0.0007 0.0002
# 3 34.0118 32.6368 107.9522 -0.0025 -0.0006 0.0006
# 4 -0.0021 -0.0033 -0.0025 21.7707 -0.0005 0.0004
# 5 -0.0004 -0.0007 -0.0006 -0.0005 43.5988 -0.0003
# 6 0.0000 0.0002 0.0006 0.0004 -0.0003 18.3633
#
#
#
# Elastic Compliance Matrix: (Units=1/GPa)
#
#
# Indices 1 2 3 4 5 6 
#
# 1 0.010490 -0.000918 -0.003028 0.000001 0.000000 0.000000
# 2 -0.000918 0.010119 -0.002770 0.000001 0.000000 0.000000
# 3 -0.003028 -0.002770 0.011055 0.000001 0.000000 0.000000
# 4 0.000001 0.000001 0.000001 0.045933 0.000000 -0.000001
# 5 0.000000 0.000000 0.000000 0.000000 0.022936 0.000000
# 6 0.000000 0.000000 0.000000 -0.000001 0.000000 0.054456
#
#
# Mechanical properties :
#
#
# Convention : Reuss Voigt Hill
#
# Bulk Modulus (GPa) = 54.84566 55.05907 54.95236
# Shear Modulus (GPa) = 28.65367 32.65306 30.65336
#
# Velocity S-wave (km/s) = 3.61475 3.85878 3.73876
# Velocity P-wave (km/s) = 6.51400 6.70531 6.61035
#
# Compressibility (1/GPa) = 0.01823298
#
# Stress axis : x y z
#
# Youngs Moduli (GPa) = 95.33068 98.82420 90.45914
#
# Poissons Ratio (x) = 0.09068 0.27387
# Poissons Ratio (y) = 0.08747 0.25058
# Poissons Ratio (z) = 0.28862 0.27376
#
# Static dielectric constant tensor:
#      x y z
#    x 3.964160 0.000000 0.000000 
#    y 0.000000 3.621920 0.000000 
#    z 0.000000 0.000000 4.221740 
# 
# 
# High freq. dielectric constant tensor:
#      x y z
#    x 1.869120 0.000000 0.000000 
#    y 0.000000 1.828690 0.000000 
#    z 0.000000 0.000000 1.876100 
# 
# From -- ./inp_files/18887.got.cif
#   From: 2010.03.12/outbox.cif.g09.slc.cpg/sg24_10_cif.got.tgz:18887.got - 2010.04.14 03:06:53.
