data_PCOD8165730
_publ_section_title
;
Structure prediction by ZEFSAII (Michael W. Deem and Ramdas Pophale) SiO2 
 PCOD8165730
Probable space group: I 21 21 21
;
_chemical_formula_sum "Si O2"
_cell_formula_units_Z 32
_cell_length_a 25.774356
_cell_length_b 4.915850
_cell_length_c 12.374186
_cell_angle_alpha 90.000000
_cell_angle_beta 90.000000
_cell_angle_gamma 90.000000
_cell_volume 1567.844855
_symmetry_space_group_name_H-M "I 21 21 21"
_symmetry_group_IT_number 24
_symmetry_cell_setting 'orthorhombic'
loop_
_space_group_symop_operation_xyz
x,y,z
-x,1/2-y,z
x,-y,1/2-z
1/2-x,y,-z
1/2+x,1/2+y,1/2+z
1/2-x,-y,1/2+z
1/2+x,1/2-y,-z
-x,1/2+y,1/2-z
loop_
_atom_site_type_symbol
_atom_site_label
_atom_site_fract_x
_atom_site_fract_y
_atom_site_fract_z
Si Si1 0.828966 0.007205 0.375182
Si Si2 0.777480 0.751700 0.822174
Si Si3 0.641723 0.524887 0.006162
Si Si4 0.035408 0.002750 0.875012
O O1 0.770320 0.120144 0.388737
O O2 0.868225 0.223259 0.426650
O O3 0.844092 0.000000 0.250000
O O4 0.833595 0.723701 0.438988
O O5 0.756350 0.500000 0.750000
O O6 0.801510 0.000000 0.750000
O O7 0.820397 0.628227 0.899879
O O8 0.586766 0.453296 0.055900
O O9 0.000000 0.250000 0.905539
O O10 0.052093 0.000000 0.750000
O O11 0.000000 0.750000 0.907551
#
# Coordination Sequence:
#
# PCOD8165730 Si02
#       4
#     8   8   8   8
#     4  11  24  40  58  87 127 168 207 249 293 352
#     4  11  23  39  60  93 131 162 204 254 306 369
#     4  12  23  40  66  89 121 166 208 246 306 371
#     4  10  22  41  65  93 121 148 190 253 317 370
#
# _framework density 20.410184999999998
#
# number of rings (size 3 to 8) (size 9 to 14) (size 15 to 20)
#    0.000    1.000    0.000    8.250    0.000    7.000 
#    0.000    0.000    0.000   15.000    0.000    0.000 
#    0.000    0.000    0.000    0.000    0.000    0.000 
#
# Total GULP energy -198356.088378 kJ/mol
# GULP energy per Si atom -12397.255524 kJ/mol
# Density = 2.036373 g / cm^3
# Si number density = 20.410185 Si / 1000 Ang^3
#
#
#
# Elastic Constant Matrix: (Units=GPa)
#
#
# Indices 1 2 3 4 5 6 
#
# 1 101.4844 36.1911 69.1053 0.0000 0.0000 0.0000
# 2 36.1911 163.5762 63.5381 0.0000 0.0000 0.0000
# 3 69.1053 63.5381 115.7935 0.0000 0.0000 0.0000
# 4 0.0000 0.0000 0.0000 56.8675 0.0000 0.0000
# 5 0.0000 0.0000 0.0000 0.0000 17.8735 0.0000
# 6 0.0000 0.0000 0.0000 0.0000 0.0000 49.4635
#
#
#
# Elastic Compliance Matrix: (Units=1/GPa)
#
#
# Indices 1 2 3 4 5 6 
#
# 1 0.016606 0.000223 -0.010033 0.000000 0.000000 0.000000
# 2 0.000223 0.007772 -0.004398 0.000000 0.000000 0.000000
# 3 -0.010033 -0.004398 0.017037 0.000000 0.000000 0.000000
# 4 0.000000 0.000000 0.000000 0.017585 0.000000 0.000000
# 5 0.000000 0.000000 0.000000 0.000000 0.055949 0.000000
# 6 0.000000 0.000000 0.000000 0.000000 0.000000 0.020217
#
#
# Mechanical properties :
#
#
# Convention : Reuss Voigt Hill
#
# Bulk Modulus (GPa) = 76.92461 79.83589 78.38025
# Shear Modulus (GPa) = 29.77717 38.97554 34.37636
#
# Velocity S-wave (km/s) = 3.82375 4.37465 4.10844
# Velocity P-wave (km/s) = 7.56742 8.04471 7.80971
#
# Compressibility (1/GPa) = 0.01299974
#
# Stress axis : x y z
#
# Youngs Moduli (GPa) = 60.21935 128.66205 58.69655
#
# Poissons Ratio (x) = -0.02869 0.58889
# Poissons Ratio (y) = -0.01343 0.25814
# Poissons Ratio (z) = 0.60417 0.56584
#
# Static dielectric constant tensor:
#      x y z
#    x 3.453060 0.000000 0.000000 
#    y 0.000000 4.162600 0.000000 
#    z 0.000000 0.000000 3.980820 
# 
# 
# High freq. dielectric constant tensor:
#      x y z
#    x 1.774110 0.000000 0.000000 
#    y 0.000000 1.829630 0.000000 
#    z 0.000000 0.000000 1.805830 
# 
# From -- ./inp_files/6119.got.cif
#   From: 2010.03.12/outbox.cif.g09.slc.cpg/sg24_4_cif.got.tgz:6119.got - 2010.04.14 03:06:53.
