data_PCOD8165883
_publ_section_title
;
Structure prediction by ZEFSAII (Michael W. Deem and Ramdas Pophale) SiO2 
 PCOD8165883
Probable space group: I 21 21 21
;
_chemical_formula_sum "Si O2"
_cell_formula_units_Z 40
_cell_length_a 8.500196
_cell_length_b 13.184544
_cell_length_c 17.570697
_cell_angle_alpha 90.000000
_cell_angle_beta 90.000000
_cell_angle_gamma 90.000000
_cell_volume 1969.169241
_symmetry_space_group_name_H-M "I 21 21 21"
_symmetry_group_IT_number 24
_symmetry_cell_setting 'orthorhombic'
loop_
_space_group_symop_operation_xyz
x,y,z
-x,1/2-y,z
x,-y,1/2-z
1/2-x,y,-z
1/2+x,1/2+y,1/2+z
1/2-x,-y,1/2+z
1/2+x,1/2-y,-z
-x,1/2+y,1/2-z
loop_
_atom_site_type_symbol
_atom_site_label
_atom_site_fract_x
_atom_site_fract_y
_atom_site_fract_z
Si Si1 0.252806 0.754370 0.694782
Si Si2 0.068385 0.054280 0.981986
Si Si3 0.077890 0.351277 0.465799
Si Si4 0.000000 0.250000 0.065968
Si Si5 0.500000 0.750000 0.820167
Si Si6 0.482066 0.585616 0.312843
O O1 0.346905 0.770885 0.616857
O O2 0.358722 0.785366 0.766604
O O3 0.110177 0.829721 0.701315
O O4 0.189773 0.638280 0.694347
O O5 0.017757 0.037596 0.894876
O O6 0.250000 0.074959 0.000000
O O7 0.971822 0.151244 0.013468
O O8 0.025236 0.950241 0.022603
O O9 0.250000 0.366928 0.500000
O O10 0.000000 0.250000 0.504009
O O11 0.073932 0.338101 0.373912
O O12 0.495243 0.500000 0.250000
#
# Coordination Sequence:
#
# PCOD8165883 Si02
#       6
#     8   8   8   4   4   8
#     4  10  23  46  65  98 133 180 222 283 339 417
#     4  12  26  43  70 101 137 180 227 291 345 405
#     4  10  25  44  71 103 132 179 231 282 344 414
#     4  11  24  44  72  93 140 174 240 277 342 418
#     4   9  24  44  70  91 136 176 222 281 342 402
#     4  11  26  40  67  99 135 175 225 278 350 406
#
# _framework density 20.313134000000002
#
# number of rings (size 3 to 8) (size 9 to 14) (size 15 to 20)
#    0.600    0.800    2.000    1.800    8.400    0.000 
#    0.000    4.000    0.000    0.000    0.000    0.000 
#    0.000    0.000    0.000    0.000    0.000    0.000 
#
# Total GULP energy -247925.201115 kJ/mol
# GULP energy per Si atom -12396.260056 kJ/mol
# Density = 2.026690 g / cm^3
# Si number density = 20.313134 Si / 1000 Ang^3
#
#
#
# Elastic Constant Matrix: (Units=GPa)
#
#
# Indices 1 2 3 4 5 6 
#
# 1 74.3443 11.3916 26.1629 0.0000 0.0000 0.0000
# 2 11.3916 123.8430 39.5868 0.0000 0.0000 0.0000
# 3 26.1629 39.5868 141.5552 0.0000 0.0000 0.0000
# 4 0.0000 0.0000 0.0000 34.8651 0.0000 0.0000
# 5 0.0000 0.0000 0.0000 0.0000 15.2322 0.0000
# 6 0.0000 0.0000 0.0000 0.0000 0.0000 28.6153
#
#
#
# Elastic Compliance Matrix: (Units=1/GPa)
#
#
# Indices 1 2 3 4 5 6 
#
# 1 0.014417 -0.000521 -0.002519 0.000000 0.000000 0.000000
# 2 -0.000521 0.008886 -0.002389 0.000000 0.000000 0.000000
# 3 -0.002519 -0.002389 0.008198 0.000000 0.000000 0.000000
# 4 0.000000 0.000000 0.000000 0.028682 0.000000 0.000000
# 5 0.000000 0.000000 0.000000 0.000000 0.065651 0.000000
# 6 0.000000 0.000000 0.000000 0.000000 0.000000 0.034946
#
#
# Mechanical properties :
#
#
# Convention : Reuss Voigt Hill
#
# Bulk Modulus (GPa) = 48.44024 54.89167 51.66595
# Shear Modulus (GPa) = 28.00820 33.24925 30.62872
#
# Velocity S-wave (km/s) = 3.71728 4.05017 3.88729
# Velocity P-wave (km/s) = 6.50559 6.99666 6.75559
#
# Compressibility (1/GPa) = 0.02064399
#
# Stress axis : x y z
#
# Youngs Moduli (GPa) = 69.36148 112.53336 121.98110
#
# Poissons Ratio (x) = 0.05863 0.30727
# Poissons Ratio (y) = 0.03613 0.29139
# Poissons Ratio (z) = 0.17472 0.26882
#
# Static dielectric constant tensor:
#      x y z
#    x 3.863910 0.000000 0.000000 
#    y 0.000000 3.725850 0.000000 
#    z 0.000000 0.000000 3.786250 
# 
# 
# High freq. dielectric constant tensor:
#      x y z
#    x 1.801940 0.000000 0.000000 
#    y 0.000000 1.793760 0.000000 
#    z 0.000000 0.000000 1.801210 
# 
# From -- ./inp_files/29279.got.cif
#   From: 2010.03.12/outbox.cif.g09.slc.cpg/sg24_15_cif.got.tgz:29279.got - 2010.04.14 03:06:53.
