data_PCOD8165658
_publ_section_title
;
Structure prediction by ZEFSAII (Michael W. Deem and Ramdas Pophale) SiO2 
 PCOD8165658
Probable space group: I 21 21 21
;
_chemical_formula_sum "Si O2"
_cell_formula_units_Z 32
_cell_length_a 5.151488
_cell_length_b 15.422833
_cell_length_c 18.266473
_cell_angle_alpha 90.000000
_cell_angle_beta 90.000000
_cell_angle_gamma 90.000000
_cell_volume 1451.281128
_symmetry_space_group_name_H-M "I 21 21 21"
_symmetry_group_IT_number 24
_symmetry_cell_setting 'orthorhombic'
loop_
_space_group_symop_operation_xyz
x,y,z
-x,1/2-y,z
x,-y,1/2-z
1/2-x,y,-z
1/2+x,1/2+y,1/2+z
1/2-x,-y,1/2+z
1/2+x,1/2-y,-z
-x,1/2+y,1/2-z
loop_
_atom_site_type_symbol
_atom_site_label
_atom_site_fract_x
_atom_site_fract_y
_atom_site_fract_z
Si Si1 0.168886 0.675369 0.779756
Si Si2 0.504587 0.514136 0.132153
Si Si3 0.250000 0.891480 0.000000
Si Si4 0.011577 0.435080 0.184758
Si Si5 0.000000 0.750000 0.096589
O O1 0.403248 0.656056 0.722139
O O2 0.261957 0.719614 0.854498
O O3 0.000000 0.750000 0.740192
O O4 0.003654 0.589423 0.804315
O O5 0.228083 0.465262 0.125064
O O6 0.721916 0.440694 0.152280
O O7 0.572379 0.550708 0.052712
O O8 0.438760 0.832703 0.952259
O O9 0.039931 0.500000 0.250000
#
# Coordination Sequence:
#
# PCOD8165658 Si02
#       5
#     8   8   4   8   4
#     4  11  23  39  62  92 128 165 218 268 328 376
#     4  11  23  39  57  86 123 174 202 254 300 384
#     4  12  22  38  58  86 134 168 212 236 314 396
#     4  10  22  38  60  81 122 164 213 255 310 362
#     4  12  24  36  58  94 132 174 204 264 320 396
#
# _framework density 22.049484
#
# number of rings (size 3 to 8) (size 9 to 14) (size 15 to 20)
#    0.000    1.000    2.500    6.750    3.500    3.000 
#    0.000    0.000    0.000    0.000    0.000    3.500 
#    0.000    0.000    0.000    0.000    0.000    0.000 
#
# Total GULP energy -198282.434722 kJ/mol
# GULP energy per Si atom -12392.652170 kJ/mol
# Density = 2.199930 g / cm^3
# Si number density = 22.049484 Si / 1000 Ang^3
#
#
#
# Elastic Constant Matrix: (Units=GPa)
#
#
# Indices 1 2 3 4 5 6 
#
# 1 103.8816 14.4815 13.8357 0.0000 0.0000 0.0000
# 2 14.4815 56.2467 19.4714 0.0000 0.0000 0.0000
# 3 13.8357 19.4714 68.7715 0.0000 0.0000 0.0000
# 4 0.0000 0.0000 0.0000 35.5251 0.0000 0.0000
# 5 0.0000 0.0000 0.0000 0.0000 -9.3588 0.0000
# 6 0.0000 0.0000 0.0000 0.0000 0.0000 29.6620
#
#
#
# Elastic Compliance Matrix: (Units=1/GPa)
#
#
# Indices 1 2 3 4 5 6 
#
# 1 0.010111 -0.002105 -0.001438 0.000000 0.000000 0.000000
# 2 -0.002105 0.020149 -0.005281 0.000000 0.000000 0.000000
# 3 -0.001438 -0.005281 0.016326 0.000000 0.000000 0.000000
# 4 0.000000 0.000000 0.000000 0.028149 0.000000 0.000000
# 5 0.000000 0.000000 0.000000 0.000000 -0.106852 0.000000
# 6 0.000000 0.000000 0.000000 0.000000 0.000000 0.033713
#
#
# Mechanical properties :
#
#
# Convention : Reuss Voigt Hill
#
# Bulk Modulus (GPa) = 34.55860 36.05299 35.30580
# Shear Modulus (GPa) = 173.05874 23.23975 98.14924
#
# Velocity S-wave (km/s) = 8.86887 3.25003 6.67906
# Velocity P-wave (km/s) = 10.98103 5.51997 8.69060
#
# Compressibility (1/GPa) = 0.02893635
#
# Stress axis : x y z
#
# Youngs Moduli (GPa) = 98.89835 49.62981 61.25375
#
# Poissons Ratio (x) = 0.10449 0.08809
# Poissons Ratio (y) = 0.20823 0.32350
# Poissons Ratio (z) = 0.14223 0.26211
#
# Static dielectric constant tensor:
#      x y z
#    x 4.555030 0.000000 0.000000 
#    y 0.000000 2.026800 0.000000 
#    z 0.000000 0.000000 4.538120 
# 
# 
# High freq. dielectric constant tensor:
#      x y z
#    x 1.886250 0.000000 0.000000 
#    y 0.000000 1.843340 0.000000 
#    z 0.000000 0.000000 1.832040 
# 
# From -- ./inp_files/3090.got.cif
#   From: 2010.03.12/outbox.cif.g09.slc.cpg/sg24_2_cif.got.tgz:3090.got - 2010.04.14 03:06:53.
