data_PCOD8165561
_publ_section_title
;
Structure prediction by ZEFSAII (Michael W. Deem and Ramdas Pophale) SiO2 
 PCOD8165561
Probable space group: I 21 21 21
;
_chemical_formula_sum "Si O2"
_cell_formula_units_Z 64
_cell_length_a 11.202872
_cell_length_b 17.376743
_cell_length_c 15.770786
_cell_angle_alpha 90.000000
_cell_angle_beta 90.000000
_cell_angle_gamma 90.000000
_cell_volume 3070.089884
_symmetry_space_group_name_H-M "I 21 21 21"
_symmetry_group_IT_number 24
_symmetry_cell_setting 'orthorhombic'
loop_
_space_group_symop_operation_xyz
x,y,z
-x,1/2-y,z
x,-y,1/2-z
1/2-x,y,-z
1/2+x,1/2+y,1/2+z
1/2-x,-y,1/2+z
1/2+x,1/2-y,-z
-x,1/2+y,1/2-z
loop_
_atom_site_type_symbol
_atom_site_label
_atom_site_fract_x
_atom_site_fract_y
_atom_site_fract_z
Si Si1 0.917935 0.603921 0.139390
Si Si2 0.296121 0.393172 0.095925
Si Si3 0.711261 0.284531 0.096851
Si Si4 0.071150 0.471148 0.156694
Si Si5 0.877313 0.702324 0.977490
Si Si6 0.844463 0.576693 0.836953
Si Si7 0.056401 0.081729 0.849776
Si Si8 0.561255 0.327341 0.812783
O O1 0.797410 0.567192 0.179954
O O2 0.966717 0.660869 0.212916
O O3 0.017790 0.543137 0.104703
O O4 0.884420 0.647180 0.056109
O O5 0.302717 0.304158 0.125437
O O6 0.208770 0.449160 0.148524
O O7 0.421783 0.430351 0.118497
O O8 0.250000 0.399913 0.000000
O O9 0.594963 0.337903 0.105805
O O10 0.800464 0.323711 0.163871
O O11 0.750000 0.288439 0.000000
O O12 0.040000 0.500000 0.250000
O O13 0.996464 0.395431 0.132203
O O14 0.869988 0.652398 0.892299
O O15 0.000000 0.750000 0.971541
O O16 0.750000 0.747517 0.000000
O O17 0.879762 0.496285 0.882925
O O18 0.922700 0.587226 0.751491
O O19 0.500000 0.250000 0.845581
#
# Coordination Sequence:
#
# PCOD8165561 Si02
#       8
#     8   8   8   8   8   8   8   8
#     4  10  21  41  67  96 126 169 221 273 332 395
#     4  11  26  43  60  94 137 171 213 272 331 407
#     4  11  24  39  65  92 124 173 218 266 334 388
#     4  10  23  39  63  91 125 167 214 267 333 393
#     4  10  23  45  67 101 135 172 227 281 336 405
#     4  10  23  42  69  96 128 169 224 273 321 398
#     4  11  24  43  65  93 132 172 221 266 329 396
#     4  11  20  37  63  91 127 164 214 274 330 386
#
# _framework density 20.846295999999999
#
# number of rings (size 3 to 8) (size 9 to 14) (size 15 to 20)
#    0.000    1.500    2.500    1.500    8.750    2.500 
#    2.250    0.000    0.000    0.000    0.000    0.000 
#    0.000    0.000    0.000    0.000    0.000    0.000 
#
# Total GULP energy -396433.691008 kJ/mol
# GULP energy per Si atom -12388.552844 kJ/mol
# Density = 2.079885 g / cm^3
# Si number density = 20.846296 Si / 1000 Ang^3
#
#
#
# Elastic Constant Matrix: (Units=GPa)
#
#
# Indices 1 2 3 4 5 6 
#
# 1 133.2188 58.4071 16.0109 0.0000 0.0000 0.0001
# 2 58.4071 93.7327 13.0713 0.0000 0.0000 -0.0001
# 3 16.0109 13.0713 50.4810 0.0001 0.0000 -0.0001
# 4 0.0000 0.0000 0.0001 16.8439 0.0000 -0.0001
# 5 0.0000 0.0000 0.0000 0.0000 30.0398 0.0000
# 6 0.0001 -0.0001 -0.0001 -0.0001 0.0000 -48.5110
#
#
#
# Elastic Compliance Matrix: (Units=1/GPa)
#
#
# Indices 1 2 3 4 5 6 
#
# 1 0.010465 -0.006285 -0.001692 0.000000 0.000000 0.000000
# 2 -0.006285 0.014843 -0.001850 0.000000 0.000000 0.000000
# 3 -0.001692 -0.001850 0.020825 0.000000 0.000000 0.000000
# 4 0.000000 0.000000 0.000000 0.059369 0.000000 0.000000
# 5 0.000000 0.000000 0.000000 0.000000 0.033289 0.000000
# 6 0.000000 0.000000 0.000000 0.000000 0.000000 -0.020614
#
#
# Mechanical properties :
#
#
# Convention : Reuss Voigt Hill
#
# Bulk Modulus (GPa) = 37.76501 50.26789 44.01645
# Shear Modulus (GPa) = 34.09291 12.33744 23.21518
#
# Velocity S-wave (km/s) = 4.04845 2.43539 3.34074
# Velocity P-wave (km/s) = 6.32523 5.66340 6.00344
#
# Compressibility (1/GPa) = 0.02647954
#
# Stress axis : x y z
#
# Youngs Moduli (GPa) = 95.55241 67.37104 48.01912
#
# Poissons Ratio (x) = 0.42345 0.08124
# Poissons Ratio (y) = 0.60058 0.08883
# Poissons Ratio (z) = 0.16166 0.12463
#
# Static dielectric constant tensor:
#      x y z
#    x 4.057850 0.000000 0.000000 
#    y 0.000000 3.933020 0.000000 
#    z 0.000000 0.000000 3.673740 
# 
# 
# High freq. dielectric constant tensor:
#      x y z
#    x 1.823160 0.000000 0.000000 
#    y 0.000000 1.819000 0.000000 
#    z 0.000000 0.000000 1.806530 
# 
# From -- ./inp_files/26000.got.cif
#   From: 2010.03.12/outbox.cif.g09.slc.cpg/sg24_13_cif.got.tgz:26000.got - 2010.04.14 03:06:53.
