data_PCOD8165238
_publ_section_title
;
Structure prediction by ZEFSAII (Michael W. Deem and Ramdas Pophale) SiO2 
 PCOD8165238
Probable space group: I 21 21 21
;
_chemical_formula_sum "Si O2"
_cell_formula_units_Z 60
_cell_length_a 25.346663
_cell_length_b 17.075459
_cell_length_c 6.285211
_cell_angle_alpha 90.000000
_cell_angle_beta 90.000000
_cell_angle_gamma 90.000000
_cell_volume 2720.276434
_symmetry_space_group_name_H-M "I 21 21 21"
_symmetry_group_IT_number 24
_symmetry_cell_setting 'orthorhombic'
loop_
_space_group_symop_operation_xyz
x,y,z
-x,1/2-y,z
x,-y,1/2-z
1/2-x,y,-z
1/2+x,1/2+y,1/2+z
1/2-x,-y,1/2+z
1/2+x,1/2-y,-z
-x,1/2+y,1/2-z
loop_
_atom_site_type_symbol
_atom_site_label
_atom_site_fract_x
_atom_site_fract_y
_atom_site_fract_z
Si Si1 0.879343 0.971439 0.009846
Si Si2 0.412990 0.914748 0.243299
Si Si3 0.492285 0.569320 0.922639
Si Si4 0.172514 0.667481 0.174433
Si Si5 0.340218 0.228604 0.299056
Si Si6 0.895753 0.137933 0.935795
Si Si7 0.250000 0.723030 0.500000
Si Si8 0.492585 0.839620 0.541911
O O1 0.935743 0.930757 0.954296
O O2 0.831489 0.907880 0.015129
O O3 0.886752 0.000000 0.250000
O O4 0.868391 0.947309 0.629170
O O5 0.367914 0.854813 0.168610
O O6 0.437965 0.877790 0.458630
O O7 0.384586 0.000000 0.250000
O O8 0.461276 0.932351 0.089465
O O9 0.498685 0.500000 0.750000
O O10 0.502334 0.650369 0.795451
O O11 0.121171 0.667835 0.328372
O O12 0.223326 0.664932 0.328375
O O13 0.179010 0.746134 0.034175
O O14 0.381883 0.295712 0.233231
O O15 0.293133 0.223392 0.123657
O O16 0.957425 0.117136 0.934744
O O17 0.500000 0.750000 0.477232
#
# Coordination Sequence:
#
# PCOD8165238 Si02
#       8
#     8   8   8   8   8   8   4   8
#     4   9  17  35  61  90 134 179 215 248 309 383
#     4  12  26  40  64 101 140 177 228 274 335 402
#     4  11  21  38  59  90 139 187 213 259 320 382
#     4  10  21  40  69  95 120 170 221 271 334 394
#     4  11  25  42  68  94 122 174 221 280 345 397
#     4  10  20  38  59  94 137 179 218 258 311 385
#     4  10  24  48  72  86 128 164 220 294 348 390
#     4  12  23  37  58  95 143 187 222 259 312 395
#
# _framework density 22.056583
#
# number of rings (size 3 to 8) (size 9 to 14) (size 15 to 20)
#    0.000    1.333    6.667    0.400    3.733    1.067 
#    0.000    0.000   61.600    0.000    0.000    0.000 
#    0.000    0.000    0.000    0.000    0.000    0.000 
#
# Total GULP energy -371716.441091 kJ/mol
# GULP energy per Si atom -12390.548036 kJ/mol
# Density = 2.200638 g / cm^3
# Si number density = 22.056583 Si / 1000 Ang^3
#
#
#
# Elastic Constant Matrix: (Units=GPa)
#
#
# Indices 1 2 3 4 5 6 
#
# 1 89.2557 43.2961 20.8391 0.0000 0.0000 0.0000
# 2 43.2961 155.9355 42.0932 0.0000 0.0000 0.0000
# 3 20.8391 42.0932 60.8298 0.0000 0.0000 0.0000
# 4 0.0000 0.0000 0.0000 29.5627 0.0000 0.0000
# 5 0.0000 0.0000 0.0000 0.0000 26.5499 0.0000
# 6 0.0000 0.0000 0.0000 0.0000 0.0000 18.9507
#
#
#
# Elastic Compliance Matrix: (Units=1/GPa)
#
#
# Indices 1 2 3 4 5 6 
#
# 1 0.013238 -0.003014 -0.002449 0.000000 0.000000 0.000000
# 2 -0.003014 0.008572 -0.004899 0.000000 0.000000 0.000000
# 3 -0.002449 -0.004899 0.020669 0.000000 0.000000 0.000000
# 4 0.000000 0.000000 0.000000 0.033826 0.000000 0.000000
# 5 0.000000 0.000000 0.000000 0.000000 0.037665 0.000000
# 6 0.000000 0.000000 0.000000 0.000000 0.000000 0.052769
#
#
# Mechanical properties :
#
#
# Convention : Reuss Voigt Hill
#
# Bulk Modulus (GPa) = 45.97032 57.60865 51.78949
# Shear Modulus (GPa) = 25.67854 28.33217 27.00536
#
# Velocity S-wave (km/s) = 3.41576 3.58791 3.50289
# Velocity P-wave (km/s) = 6.03687 6.58327 6.31598
#
# Compressibility (1/GPa) = 0.02175317
#
# Stress axis : x y z
#
# Youngs Moduli (GPa) = 75.54127 116.65374 48.38280
#
# Poissons Ratio (x) = 0.35164 0.11849
# Poissons Ratio (y) = 0.22771 0.23704
# Poissons Ratio (z) = 0.18501 0.57152
#
# Static dielectric constant tensor:
#      x y z
#    x 3.761880 0.000000 0.000000 
#    y 0.000000 4.262720 0.000000 
#    z 0.000000 0.000000 4.567670 
# 
# 
# High freq. dielectric constant tensor:
#      x y z
#    x 1.831600 0.000000 0.000000 
#    y 0.000000 1.856670 0.000000 
#    z 0.000000 0.000000 1.890590 
# 
# From -- ./inp_files/7292.got.cif
#   From: 2010.03.12/outbox.cif.g09.slc.cpg/sg24_4_cif.got.tgz:7292.got - 2010.04.14 03:06:53.
