data_PCOD8165358
_publ_section_title
;
Structure prediction by ZEFSAII (Michael W. Deem and Ramdas Pophale) SiO2 
 PCOD8165358
Probable space group: I 21 21 21
;
_chemical_formula_sum "Si O2"
_cell_formula_units_Z 40
_cell_length_a 24.215563
_cell_length_b 5.873986
_cell_length_c 12.075519
_cell_angle_alpha 90.000000
_cell_angle_beta 90.000000
_cell_angle_gamma 90.000000
_cell_volume 1717.644501
_symmetry_space_group_name_H-M "I 21 21 21"
_symmetry_group_IT_number 24
_symmetry_cell_setting 'orthorhombic'
loop_
_space_group_symop_operation_xyz
x,y,z
-x,1/2-y,z
x,-y,1/2-z
1/2-x,y,-z
1/2+x,1/2+y,1/2+z
1/2-x,-y,1/2+z
1/2+x,1/2-y,-z
-x,1/2+y,1/2-z
loop_
_atom_site_type_symbol
_atom_site_label
_atom_site_fract_x
_atom_site_fract_y
_atom_site_fract_z
Si Si1 0.526699 0.000000 0.250000
Si Si2 0.355695 0.958828 0.588656
Si Si3 0.201361 0.283279 0.578177
Si Si4 0.062699 0.688285 0.162130
Si Si5 0.236961 0.000000 0.250000
Si Si6 0.598993 0.055189 0.044088
O O1 0.500000 0.750000 0.214266
O O2 0.560921 0.897703 0.351748
O O3 0.394211 0.764213 0.539664
O O4 0.332660 0.086110 0.481430
O O5 0.394231 0.104159 0.672585
O O6 0.301814 0.876865 0.658119
O O7 0.250000 0.375617 0.500000
O O8 0.224896 0.194537 0.695242
O O9 0.158531 0.488061 0.594654
O O10 0.083424 0.500000 0.250000
O O11 0.000000 0.750000 0.192146
O O12 0.067425 0.624688 0.032981
#
# Coordination Sequence:
#
# PCOD8165358 Si02
#       6
#     4   8   8   8   4   8
#     4  12  32  51  82 114 152 213 266 334 388 458
#     4  10  23  43  67 104 146 194 242 313 377 459
#     4   9  22  42  65 103 143 190 247 304 385 452
#     4  11  26  42  71 106 144 191 246 312 386 459
#     4  10  20  41  74  98 148 191 248 316 382 464
#     4  11  26  46  71 103 151 198 259 314 378 466
#
# _framework density 23.287706
#
# number of rings (size 3 to 8) (size 9 to 14) (size 15 to 20)
#    0.000    1.600    0.000    1.800   15.400    2.400 
#    0.000    4.000    0.000    0.000    0.000    0.000 
#    0.000    0.000    0.000    0.000    0.000    0.000 
#
# Total GULP energy -247778.231696 kJ/mol
# GULP energy per Si atom -12388.911585 kJ/mol
# Density = 2.323470 g / cm^3
# Si number density = 23.287706 Si / 1000 Ang^3
#
#
#
# Elastic Constant Matrix: (Units=GPa)
#
#
# Indices 1 2 3 4 5 6 
#
# 1 119.6340 50.1973 48.2616 0.0000 0.0000 0.0000
# 2 50.1973 106.7050 40.6179 0.0000 0.0000 0.0000
# 3 48.2616 40.6179 121.8878 0.0000 0.0000 0.0000
# 4 0.0000 0.0000 0.0000 26.9616 0.0000 0.0000
# 5 0.0000 0.0000 0.0000 0.0000 46.9149 0.0000
# 6 0.0000 0.0000 0.0000 0.0000 0.0000 11.3869
#
#
#
# Elastic Compliance Matrix: (Units=1/GPa)
#
#
# Indices 1 2 3 4 5 6 
#
# 1 0.011359 -0.004159 -0.003112 0.000000 0.000000 0.000000
# 2 -0.004159 0.012256 -0.002437 0.000000 0.000000 0.000000
# 3 -0.003112 -0.002437 0.010249 0.000000 0.000000 0.000000
# 4 0.000000 0.000000 0.000000 0.037090 0.000000 0.000000
# 5 0.000000 0.000000 0.000000 0.000000 0.021315 0.000000
# 6 0.000000 0.000000 0.000000 0.000000 0.000000 0.087820
#
#
# Mechanical properties :
#
#
# Convention : Reuss Voigt Hill
#
# Bulk Modulus (GPa) = 69.21700 69.59782 69.40741
# Shear Modulus (GPa) = 24.47125 30.99602 27.73364
#
# Velocity S-wave (km/s) = 3.24516 3.65225 3.45470
# Velocity P-wave (km/s) = 6.62031 6.90914 6.76626
#
# Compressibility (1/GPa) = 0.01444732
#
# Stress axis : x y z
#
# Youngs Moduli (GPa) = 88.03356 81.59221 97.57468
#
# Poissons Ratio (x) = 0.33936 0.30362
# Poissons Ratio (y) = 0.36616 0.23782
# Poissons Ratio (z) = 0.27393 0.19887
#
# Static dielectric constant tensor:
#      x y z
#    x 4.342920 0.000000 0.000000 
#    y 0.000000 4.085840 0.000000 
#    z 0.000000 0.000000 4.160430 
# 
# 
# High freq. dielectric constant tensor:
#      x y z
#    x 1.928190 0.000000 0.000000 
#    y 0.000000 1.901960 0.000000 
#    z 0.000000 0.000000 1.937550 
# 
# From -- ./inp_files/22813.got.cif
#   From: 2010.03.12/outbox.cif.g09.slc.cpg/sg24_12_cif.got.tgz:22813.got - 2010.04.14 03:06:53.
