data_PCOD8165573
_publ_section_title
;
Structure prediction by ZEFSAII (Michael W. Deem and Ramdas Pophale) SiO2 
 PCOD8165573
Probable space group: I 21 21 21
;
_chemical_formula_sum "Si O2"
_cell_formula_units_Z 44
_cell_length_a 7.809301
_cell_length_b 16.208285
_cell_length_c 17.392613
_cell_angle_alpha 90.000000
_cell_angle_beta 90.000000
_cell_angle_gamma 90.000000
_cell_volume 2201.476535
_symmetry_space_group_name_H-M "I 21 21 21"
_symmetry_group_IT_number 24
_symmetry_cell_setting 'orthorhombic'
loop_
_space_group_symop_operation_xyz
x,y,z
-x,1/2-y,z
x,-y,1/2-z
1/2-x,y,-z
1/2+x,1/2+y,1/2+z
1/2-x,-y,1/2+z
1/2+x,1/2-y,-z
-x,1/2+y,1/2-z
loop_
_atom_site_type_symbol
_atom_site_label
_atom_site_fract_x
_atom_site_fract_y
_atom_site_fract_z
Si Si1 0.799372 0.260321 0.264143
Si Si2 0.750000 0.919193 0.500000
Si Si3 0.090538 0.993801 0.057534
Si Si4 0.142222 0.187548 0.425621
Si Si5 0.100125 0.332423 0.859707
Si Si6 0.294299 0.929176 0.312138
O O1 0.752684 0.271035 0.354583
O O2 0.699012 0.185835 0.221489
O O3 0.749949 0.343956 0.225410
O O4 0.000000 0.250000 0.256994
O O5 0.729243 0.858430 0.427128
O O6 0.583717 0.976051 0.516503
O O7 0.062562 0.902437 0.094274
O O8 0.142601 0.051969 0.128365
O O9 0.250000 0.995756 0.000000
O O10 0.250000 0.171184 0.500000
O O11 0.000000 0.250000 0.452905
O O12 0.000000 0.250000 0.886234
O O13 0.978334 0.412579 0.851383
O O14 0.316542 0.000000 0.250000
#
# Coordination Sequence:
#
# PCOD8165573 Si02
#       6
#     8   4   8   8   8   8
#     4  10  21  42  62  92 128 169 222 269 337 404
#     4  12  24  42  70 104 132 176 224 284 340 418
#     4  11  23  43  67  97 136 173 218 275 342 398
#     4  10  23  41  63  92 128 177 219 279 334 402
#     4  10  24  41  65  97 129 177 223 274 341 411
#     4  11  21  42  65  93 134 178 214 279 339 396
#
# _framework density 19.986587
#
# number of rings (size 3 to 8) (size 9 to 14) (size 15 to 20)
#    0.000    1.455    3.636    1.091    1.273    5.818 
#    6.545    0.000    0.000    0.000    0.000    0.000 
#    0.000    0.000    0.000    0.000    0.000    0.000 
#
# Total GULP energy -272639.518784 kJ/mol
# GULP energy per Si atom -12392.705399 kJ/mol
# Density = 1.994110 g / cm^3
# Si number density = 19.986587 Si / 1000 Ang^3
#
#
#
# Elastic Constant Matrix: (Units=GPa)
#
#
# Indices 1 2 3 4 5 6 
#
# 1 100.0737 37.8507 52.6893 0.0000 0.0000 0.0000
# 2 37.8507 61.0994 32.3674 0.0000 0.0000 0.0000
# 3 52.6893 32.3674 92.0104 0.0000 0.0000 0.0000
# 4 0.0000 0.0000 0.0000 44.6296 0.0000 0.0000
# 5 0.0000 0.0000 0.0000 0.0000 -47.7380 0.0000
# 6 0.0000 0.0000 0.0000 0.0000 0.0000 14.7734
#
#
#
# Elastic Compliance Matrix: (Units=1/GPa)
#
#
# Indices 1 2 3 4 5 6 
#
# 1 0.016027 -0.006227 -0.006987 0.000000 0.000000 0.000000
# 2 -0.006227 0.022535 -0.004361 0.000000 0.000000 0.000000
# 3 -0.006987 -0.004361 0.016404 0.000000 0.000000 0.000000
# 4 0.000000 0.000000 0.000000 0.022407 0.000000 0.000000
# 5 0.000000 0.000000 0.000000 0.000000 -0.020948 0.000000
# 6 0.000000 0.000000 0.000000 0.000000 0.000000 0.067689
#
#
# Mechanical properties :
#
#
# Convention : Reuss Voigt Hill
#
# Bulk Modulus (GPa) = 50.46890 55.44427 52.95658
# Shear Modulus (GPa) = 30.14433 11.01808 20.58121
#
# Velocity S-wave (km/s) = 3.88780 2.35047 3.21245
# Velocity P-wave (km/s) = 6.74237 5.93020 6.34928
#
# Compressibility (1/GPa) = 0.01981418
#
# Stress axis : x y z
#
# Youngs Moduli (GPa) = 62.39647 44.37578 60.96198
#
# Poissons Ratio (x) = 0.27633 0.42594
# Poissons Ratio (y) = 0.38854 0.26588
# Poissons Ratio (z) = 0.43596 0.19354
#
# Static dielectric constant tensor:
#      x y z
#    x 4.625310 0.000000 0.000000 
#    y 0.000000 10.326410 0.000000 
#    z 0.000000 0.000000 4.178400 
# 
# 
# High freq. dielectric constant tensor:
#      x y z
#    x 1.773510 0.000000 0.000000 
#    y 0.000000 1.787390 0.000000 
#    z 0.000000 0.000000 1.791120 
# 
# From -- ./inp_files/12693.got.cif
#   From: 2010.03.12/outbox.cif.g09.slc.cpg/sg24_7_cif.got.tgz:12693.got - 2010.04.14 03:06:53.
