data_PCOD8165984
_publ_section_title
;
Structure prediction by ZEFSAII (Michael W. Deem and Ramdas Pophale) SiO2 
 PCOD8165984
Probable space group: I 21 21 21
;
_chemical_formula_sum "Si O2"
_cell_formula_units_Z 36
_cell_length_a 23.188654
_cell_length_b 5.393538
_cell_length_c 13.849369
_cell_angle_alpha 90.000000
_cell_angle_beta 90.000000
_cell_angle_gamma 90.000000
_cell_volume 1732.125160
_symmetry_space_group_name_H-M "I 21 21 21"
_symmetry_group_IT_number 24
_symmetry_cell_setting 'orthorhombic'
loop_
_space_group_symop_operation_xyz
x,y,z
-x,1/2-y,z
x,-y,1/2-z
1/2-x,y,-z
1/2+x,1/2+y,1/2+z
1/2-x,-y,1/2+z
1/2+x,1/2-y,-z
-x,1/2+y,1/2-z
loop_
_atom_site_type_symbol
_atom_site_label
_atom_site_fract_x
_atom_site_fract_y
_atom_site_fract_z
Si Si1 0.282431 0.585524 0.350452
Si Si2 0.336719 0.243826 0.807884
Si Si3 0.964193 0.500238 0.860210
Si Si4 0.640402 0.370825 0.012506
Si Si5 0.750000 0.707798 0.000000
O O1 0.310268 0.500000 0.250000
O O2 0.231990 0.788331 0.332094
O O3 0.248004 0.366665 0.402652
O O4 0.336714 0.664824 0.413575
O O5 0.348494 0.500000 0.750000
O O6 0.357018 0.000000 0.750000
O O7 0.373735 0.250744 0.908126
O O8 0.940505 0.500000 0.750000
O O9 0.913199 0.507813 0.938398
O O10 0.000000 0.750000 0.879237
O O11 0.000000 0.250000 0.879147
O O12 0.691510 0.559655 0.995061
#
# Coordination Sequence:
#
# PCOD8165984 Si02
#       5
#     8   8   8   8   4
#     4  11  24  35  57  94 140 179 218 271 331 418
#     4  11  23  40  61  93 138 174 211 269 335 408
#     4  10  26  47  69  99 135 181 236 284 337 400
#     4  12  24  40  67  96 137 183 227 283 342 409
#     4  12  22  40  58 102 140 172 232 268 350 424
#
# _framework density 20.783716999999999
#
# number of rings (size 3 to 8) (size 9 to 14) (size 15 to 20)
#    0.000    0.889    4.444    2.667    6.222    0.889 
#    0.000    0.000    0.000    2.667    0.000    0.000 
#    0.000    0.000    0.000    0.000    0.000    0.000 
#
# Total GULP energy -223147.866200 kJ/mol
# GULP energy per Si atom -12397.103678 kJ/mol
# Density = 2.073641 g / cm^3
# Si number density = 20.783717 Si / 1000 Ang^3
#
#
#
# Elastic Constant Matrix: (Units=GPa)
#
#
# Indices 1 2 3 4 5 6 
#
# 1 90.2890 49.0414 62.8720 0.0000 0.0000 0.0000
# 2 49.0414 135.8838 71.1294 0.0000 0.0000 0.0000
# 3 62.8720 71.1294 196.6591 0.0000 0.0000 0.0000
# 4 0.0000 0.0000 0.0000 56.5851 0.0000 0.0000
# 5 0.0000 0.0000 0.0000 0.0000 26.7173 0.0000
# 6 0.0000 0.0000 0.0000 0.0000 0.0000 9.9053
#
#
#
# Elastic Compliance Matrix: (Units=1/GPa)
#
#
# Indices 1 2 3 4 5 6 
#
# 1 0.015647 -0.003736 -0.003651 0.000000 0.000000 0.000000
# 2 -0.003736 0.009970 -0.002412 0.000000 0.000000 0.000000
# 3 -0.003651 -0.002412 0.007124 0.000000 0.000000 0.000000
# 4 0.000000 0.000000 0.000000 0.017673 0.000000 0.000000
# 5 0.000000 0.000000 0.000000 0.000000 0.037429 0.000000
# 6 0.000000 0.000000 0.000000 0.000000 0.000000 0.100956
#
#
# Mechanical properties :
#
#
# Convention : Reuss Voigt Hill
#
# Bulk Modulus (GPa) = 76.07952 87.65747 81.86849
# Shear Modulus (GPa) = 23.49869 34.62748 29.06309
#
# Velocity S-wave (km/s) = 3.36613 4.08620 3.74352
# Velocity P-wave (km/s) = 7.19671 8.03308 7.62637
#
# Compressibility (1/GPa) = 0.01314414
#
# Stress axis : x y z
#
# Youngs Moduli (GPa) = 63.90908 100.30141 140.36113
#
# Poissons Ratio (x) = 0.37472 0.51248
# Poissons Ratio (y) = 0.23876 0.33850
# Poissons Ratio (z) = 0.23334 0.24189
#
# Static dielectric constant tensor:
#      x y z
#    x 3.232460 0.000000 0.000000 
#    y 0.000000 3.890190 0.000000 
#    z 0.000000 0.000000 4.371620 
# 
# 
# High freq. dielectric constant tensor:
#      x y z
#    x 1.758230 0.000000 0.000000 
#    y 0.000000 1.825570 0.000000 
#    z 0.000000 0.000000 1.840380 
# 
# From -- ./inp_files/2289.got.cif
#   From: 2010.03.12/outbox.cif.g09.slc.cpg/sg24_2_cif.got.tgz:2289.got - 2010.04.14 03:06:53.
