data_PCOD8165377
_publ_section_title
;
Structure prediction by ZEFSAII (Michael W. Deem and Ramdas Pophale) SiO2 
 PCOD8165377
Probable space group: I 21 21 21
;
_chemical_formula_sum "Si O2"
_cell_formula_units_Z 40
_cell_length_a 16.467329
_cell_length_b 7.835686
_cell_length_c 14.311838
_cell_angle_alpha 90.000000
_cell_angle_beta 90.000000
_cell_angle_gamma 90.000000
_cell_volume 1846.696807
_symmetry_space_group_name_H-M "I 21 21 21"
_symmetry_group_IT_number 24
_symmetry_cell_setting 'orthorhombic'
loop_
_space_group_symop_operation_xyz
x,y,z
-x,1/2-y,z
x,-y,1/2-z
1/2-x,y,-z
1/2+x,1/2+y,1/2+z
1/2-x,-y,1/2+z
1/2+x,1/2-y,-z
-x,1/2+y,1/2-z
loop_
_atom_site_type_symbol
_atom_site_label
_atom_site_fract_x
_atom_site_fract_y
_atom_site_fract_z
Si Si1 0.500000 0.250000 0.962064
Si Si2 0.827246 0.500000 0.250000
Si Si3 0.163812 0.649977 0.545612
Si Si4 0.667591 0.238902 0.451158
Si Si5 0.444794 0.096680 0.590622
Si Si6 0.219277 0.688705 0.743570
O O1 0.500603 0.425809 0.904819
O O2 0.586053 0.260200 0.015495
O O3 0.874434 0.579827 0.164720
O O4 0.778347 0.338594 0.210604
O O5 0.250000 0.713388 0.500000
O O6 0.150148 0.453914 0.515554
O O7 0.157954 0.668645 0.657436
O O8 0.750000 0.304510 0.500000
O O9 0.593877 0.357420 0.488498
O O10 0.674157 0.247482 0.338640
O O11 0.500000 0.250000 0.626130
O O12 0.262270 0.500000 0.750000
#
# Coordination Sequence:
#
# PCOD8165377 Si02
#       6
#     4   4   8   8   8   8
#     4  12  26  44  70 104 142 192 240 296 358 430
#     4  12  26  42  72 102 138 186 244 294 360 444
#     4  10  22  43  71 104 143 188 241 296 354 428
#     4  10  20  45  71  96 141 184 236 295 359 423
#     4  12  27  45  65 102 144 189 234 296 368 424
#     4  10  23  43  72 106 135 184 237 299 358 424
#
# _framework density 21.660295000000001
#
# number of rings (size 3 to 8) (size 9 to 14) (size 15 to 20)
#    0.000    1.200    4.000    1.200    4.200    2.400 
#    1.800    0.000    0.000    0.000    0.000    0.000 
#    0.000    0.000    0.000    0.000    0.000    0.000 
#
# Total GULP energy -247830.694016 kJ/mol
# GULP energy per Si atom -12391.534701 kJ/mol
# Density = 2.161100 g / cm^3
# Si number density = 21.660295 Si / 1000 Ang^3
#
#
#
# Elastic Constant Matrix: (Units=GPa)
#
#
# Indices 1 2 3 4 5 6 
#
# 1 92.1132 45.9005 13.3969 0.0000 0.0000 0.0000
# 2 45.9005 155.7180 19.0228 0.0000 0.0000 0.0000
# 3 13.3969 19.0228 87.2571 0.0000 0.0000 0.0000
# 4 0.0000 0.0000 0.0000 11.5221 0.0000 0.0000
# 5 0.0000 0.0000 0.0000 0.0000 185.6067 0.0000
# 6 0.0000 0.0000 0.0000 0.0000 0.0000 42.1077
#
#
#
# Elastic Compliance Matrix: (Units=1/GPa)
#
#
# Indices 1 2 3 4 5 6 
#
# 1 0.012842 -0.003642 -0.001178 0.000000 0.000000 0.000000
# 2 -0.003642 0.007630 -0.001104 0.000000 0.000000 0.000000
# 3 -0.001178 -0.001104 0.011882 0.000000 0.000000 0.000000
# 4 0.000000 0.000000 0.000000 0.086790 0.000000 0.000000
# 5 0.000000 0.000000 0.000000 0.000000 0.005388 0.000000
# 6 0.000000 0.000000 0.000000 0.000000 0.000000 0.023749
#
#
# Mechanical properties :
#
#
# Convention : Reuss Voigt Hill
#
# Bulk Modulus (GPa) = 48.76413 54.63652 51.70033
# Shear Modulus (GPa) = 29.94668 64.96518 47.45593
#
# Velocity S-wave (km/s) = 3.72231 5.48250 4.68580
# Velocity P-wave (km/s) = 6.40595 8.08432 7.29357
#
# Compressibility (1/GPa) = 0.02050688
#
# Stress axis : x y z
#
# Youngs Moduli (GPa) = 77.86885 131.05850 84.16108
#
# Poissons Ratio (x) = 0.47726 0.09913
# Poissons Ratio (y) = 0.28356 0.09294
# Poissons Ratio (z) = 0.09171 0.14473
#
# Static dielectric constant tensor:
#      x y z
#    x 3.727210 0.000000 0.000000 
#    y 0.000000 1.988820 0.000000 
#    z 0.000000 0.000000 3.927680 
# 
# 
# High freq. dielectric constant tensor:
#      x y z
#    x 1.828890 0.000000 0.000000 
#    y 0.000000 1.870890 0.000000 
#    z 0.000000 0.000000 1.845790 
# 
# From -- ./inp_files/10740.got.cif
#   From: 2010.03.12/outbox.cif.g09.slc.cpg/sg24_6_cif.got.tgz:10740.got - 2010.04.14 03:06:53.
