data_PCOD8165816
_publ_section_title
;
Structure prediction by ZEFSAII (Michael W. Deem and Ramdas Pophale) SiO2 
 PCOD8165816
Probable space group: I 21 21 21
;
_chemical_formula_sum "Si O2"
_cell_formula_units_Z 40
_cell_length_a 17.535440
_cell_length_b 11.653822
_cell_length_c 9.320174
_cell_angle_alpha 90.000000
_cell_angle_beta 90.000000
_cell_angle_gamma 90.000000
_cell_volume 1904.623193
_symmetry_space_group_name_H-M "I 21 21 21"
_symmetry_group_IT_number 24
_symmetry_cell_setting 'orthorhombic'
loop_
_space_group_symop_operation_xyz
x,y,z
-x,1/2-y,z
x,-y,1/2-z
1/2-x,y,-z
1/2+x,1/2+y,1/2+z
1/2-x,-y,1/2+z
1/2+x,1/2-y,-z
-x,1/2+y,1/2-z
loop_
_atom_site_type_symbol
_atom_site_label
_atom_site_fract_x
_atom_site_fract_y
_atom_site_fract_z
Si Si1 0.807515 0.819415 0.621850
Si Si2 0.584612 0.285314 0.922897
Si Si3 0.541806 0.500000 0.750000
Si Si4 0.914083 0.000000 0.750000
Si Si5 0.545992 0.866231 0.988382
Si Si6 0.327545 0.368150 0.713786
O O1 0.750000 0.863189 0.500000
O O2 0.857656 0.710728 0.561996
O O3 0.864946 0.922495 0.645215
O O4 0.753237 0.797623 0.762605
O O5 0.500000 0.250000 0.974934
O O6 0.592327 0.403181 0.831432
O O7 0.608875 0.179965 0.822483
O O8 0.487980 0.550928 0.870251
O O9 0.964708 0.079603 0.646057
O O10 0.500000 0.750000 0.988405
O O11 0.636101 0.849114 0.945679
O O12 0.309930 0.500000 0.750000
#
# Coordination Sequence:
#
# PCOD8165816 Si02
#       6
#     8   8   4   4   8   8
#     4  10  23  38  63 101 131 174 219 279 346 396
#     4  11  20  36  66 101 134 179 227 277 331 411
#     4  12  20  41  70  94 137 186 232 272 328 427
#     4  12  26  37  62  96 147 170 210 298 344 399
#     4  12  24  40  66 104 136 179 229 279 341 406
#     4  11  18  38  68 100 135 171 223 280 344 408
#
# _framework density 21.001529999999999
#
# number of rings (size 3 to 8) (size 9 to 14) (size 15 to 20)
#    0.000    0.800    6.000    3.600    0.000    2.400 
#    0.000    0.000    0.000   14.400    0.000    1.400 
#    0.000    0.000    0.000    0.000    0.000    0.000 
#
# Total GULP energy -247767.500515 kJ/mol
# GULP energy per Si atom -12388.375026 kJ/mol
# Density = 2.095373 g / cm^3
# Si number density = 21.001530 Si / 1000 Ang^3
#
#
#
# Elastic Constant Matrix: (Units=GPa)
#
#
# Indices 1 2 3 4 5 6 
#
# 1 97.6707 51.7945 51.0112 0.0000 0.0000 0.0000
# 2 51.7945 97.2488 52.5768 0.0000 0.0000 0.0000
# 3 51.0112 52.5768 104.0366 0.0000 0.0000 0.0000
# 4 0.0000 0.0000 0.0000 42.9979 0.0000 0.0000
# 5 0.0000 0.0000 0.0000 0.0000 25.9826 0.0000
# 6 0.0000 0.0000 0.0000 0.0000 0.0000 -3.6389
#
#
#
# Elastic Compliance Matrix: (Units=1/GPa)
#
#
# Indices 1 2 3 4 5 6 
#
# 1 0.015852 -0.005835 -0.004824 0.000000 0.000000 0.000000
# 2 -0.005835 0.016296 -0.005375 0.000000 0.000000 0.000000
# 3 -0.004824 -0.005375 0.014693 0.000000 0.000000 0.000000
# 4 0.000000 0.000000 0.000000 0.023257 0.000000 0.000000
# 5 0.000000 0.000000 0.000000 0.000000 0.038487 0.000000
# 6 0.000000 0.000000 0.000000 0.000000 0.000000 -0.274805
#
#
# Mechanical properties :
#
#
# Convention : Reuss Voigt Hill
#
# Bulk Modulus (GPa) = 67.68159 67.74679 67.71419
# Shear Modulus (GPa) = -38.69160 22.63988 -8.02586
#
# Velocity S-wave (km/s) = -4.29689 3.28687 -1.95700
# Velocity P-wave (km/s) = 2.77116 6.83613 5.21594
#
# Compressibility (1/GPa) = 0.01477507
#
# Stress axis : x y z
#
# Youngs Moduli (GPa) = 63.08340 61.36362 68.05758
#
# Poissons Ratio (x) = 0.35804 0.32830
# Poissons Ratio (y) = 0.36808 0.36579
# Poissons Ratio (z) = 0.30430 0.32981
#
# Static dielectric constant tensor:
#      x y z
#    x 4.221250 0.000000 0.000000 
#    y 0.000000 3.835650 0.000000 
#    z 0.000000 0.000000 4.219560 
# 
# 
# High freq. dielectric constant tensor:
#      x y z
#    x 1.820860 0.000000 0.000000 
#    y 0.000000 1.795550 0.000000 
#    z 0.000000 0.000000 1.820510 
# 
# From -- ./inp_files/13868.got.cif
#   From: 2010.03.12/outbox.cif.g09.slc.cpg/sg24_7_cif.got.tgz:13868.got - 2010.04.14 03:06:53.
