data_PCOD8165139
_publ_section_title
;
Structure prediction by ZEFSAII (Michael W. Deem and Ramdas Pophale) SiO2 
 PCOD8165139
Probable space group: I 21 21 21
;
_chemical_formula_sum "Si O2"
_cell_formula_units_Z 64
_cell_length_a 13.861786
_cell_length_b 18.446248
_cell_length_c 12.012944
_cell_angle_alpha 90.000000
_cell_angle_beta 90.000000
_cell_angle_gamma 90.000000
_cell_volume 3071.685062
_symmetry_space_group_name_H-M "I 21 21 21"
_symmetry_group_IT_number 24
_symmetry_cell_setting 'orthorhombic'
loop_
_space_group_symop_operation_xyz
x,y,z
-x,1/2-y,z
x,-y,1/2-z
1/2-x,y,-z
1/2+x,1/2+y,1/2+z
1/2-x,-y,1/2+z
1/2+x,1/2-y,-z
-x,1/2+y,1/2-z
loop_
_atom_site_type_symbol
_atom_site_label
_atom_site_fract_x
_atom_site_fract_y
_atom_site_fract_z
Si Si1 0.074953 0.579948 0.707586
Si Si2 0.782307 0.702740 0.245699
Si Si3 0.427740 0.919595 0.732904
Si Si4 0.093245 0.598802 0.105706
Si Si5 0.103140 0.248035 0.456396
Si Si6 0.431884 0.812607 0.197995
Si Si7 0.216831 0.361823 0.190424
Si Si8 0.580794 0.939950 0.541709
O O1 0.098843 0.500000 0.750000
O O2 0.170220 0.629007 0.712813
O O3 0.041766 0.581114 0.579326
O O4 0.989030 0.612288 0.784034
O O5 0.841879 0.635723 0.294993
O O6 0.810330 0.714157 0.115455
O O7 0.670049 0.684081 0.260323
O O8 0.808451 0.776263 0.310962
O O9 0.483739 0.895413 0.845544
O O10 0.498242 0.919516 0.628223
O O11 0.383930 0.000000 0.750000
O O12 0.122422 0.665534 0.023656
O O13 0.163928 0.595929 0.210645
O O14 0.106334 0.525083 0.037835
O O15 0.089306 0.202530 0.568454
O O16 0.000000 0.250000 0.390333
O O17 0.500000 0.750000 0.249306
O O18 0.178416 0.396027 0.074653
#
# Coordination Sequence:
#
# PCOD8165139 Si02
#       8
#     8   8   8   8   8   8   8   8
#     4  12  26  43  62  86 128 174 211 250 311 375
#     4  11  21  40  65  92 125 162 205 256 314 373
#     4   9  19  37  64  96 122 152 206 269 311 358
#     4   9  18  36  64  98 128 150 199 268 315 367
#     4  10  20  35  68  98 122 153 200 252 324 371
#     4  11  25  43  57  88 130 164 204 253 306 369
#     4  10  21  39  62  97 126 162 207 260 311 370
#     4  10  22  39  62  92 127 167 209 253 310 365
#
# _framework density 20.835470000000001
#
# number of rings (size 3 to 8) (size 9 to 14) (size 15 to 20)
#    0.000    1.750    2.500    2.625    3.500    0.500 
#    2.250    1.875    0.000    0.000    0.000    0.000 
#    0.000    0.000    0.000    0.000    0.000    0.000 
#
# Total GULP energy -396719.810367 kJ/mol
# GULP energy per Si atom -12397.494074 kJ/mol
# Density = 2.078805 g / cm^3
# Si number density = 20.835470 Si / 1000 Ang^3
#
#
#
# Elastic Constant Matrix: (Units=GPa)
#
#
# Indices 1 2 3 4 5 6 
#
# 1 119.5171 50.9637 20.2742 0.0000 0.0000 0.0000
# 2 50.9637 132.2155 42.2811 0.0000 0.0000 0.0000
# 3 20.2742 42.2811 79.7868 0.0001 0.0000 0.0000
# 4 0.0000 0.0000 0.0001 27.3255 0.0000 0.0000
# 5 0.0000 0.0000 0.0000 0.0000 21.2590 0.0000
# 6 0.0000 0.0000 0.0000 0.0000 0.0000 34.8450
#
#
#
# Elastic Compliance Matrix: (Units=1/GPa)
#
#
# Indices 1 2 3 4 5 6 
#
# 1 0.010037 -0.003676 -0.000602 0.000000 0.000000 0.000000
# 2 -0.003676 0.010453 -0.004605 0.000000 0.000000 0.000000
# 3 -0.000602 -0.004605 0.015127 0.000000 0.000000 0.000000
# 4 0.000000 0.000000 0.000000 0.036596 0.000000 0.000000
# 5 0.000000 0.000000 0.000000 0.000000 0.047039 0.000000
# 6 0.000000 0.000000 0.000000 0.000000 0.000000 0.028699
#
#
# Mechanical properties :
#
#
# Convention : Reuss Voigt Hill
#
# Bulk Modulus (GPa) = 56.02442 62.06191 59.04317
# Shear Modulus (GPa) = 29.12614 31.21928 30.17271
#
# Velocity S-wave (km/s) = 3.74292 3.87508 3.80957
# Velocity P-wave (km/s) = 6.75475 7.06208 6.91012
#
# Compressibility (1/GPa) = 0.01784936
#
# Stress axis : x y z
#
# Youngs Moduli (GPa) = 99.63410 95.66521 66.10748
#
# Poissons Ratio (x) = 0.35168 0.03982
# Poissons Ratio (y) = 0.36627 0.30444
# Poissons Ratio (z) = 0.06001 0.44056
#
# Static dielectric constant tensor:
#      x y z
#    x 3.831010 0.000000 0.000000 
#    y 0.000000 3.831570 0.000000 
#    z 0.000000 0.000000 3.449170 
# 
# 
# High freq. dielectric constant tensor:
#      x y z
#    x 1.811570 0.000000 0.000000 
#    y 0.000000 1.821860 0.000000 
#    z 0.000000 0.000000 1.789120 
# 
# From -- ./inp_files/21047.got.cif
#   From: 2010.03.12/outbox.cif.g09.slc.cpg/sg24_11_cif.got.tgz:21047.got - 2010.04.14 03:06:53.
