data_PCOD8165354
_publ_section_title
;
Structure prediction by ZEFSAII (Michael W. Deem and Ramdas Pophale) SiO2 
 PCOD8165354
Probable space group: I 21 21 21
;
_chemical_formula_sum "Si O2"
_cell_formula_units_Z 64
_cell_length_a 8.293233
_cell_length_b 28.761581
_cell_length_c 12.796663
_cell_angle_alpha 90.000000
_cell_angle_beta 90.000000
_cell_angle_gamma 90.000000
_cell_volume 3052.343143
_symmetry_space_group_name_H-M "I 21 21 21"
_symmetry_group_IT_number 24
_symmetry_cell_setting 'orthorhombic'
loop_
_space_group_symop_operation_xyz
x,y,z
-x,1/2-y,z
x,-y,1/2-z
1/2-x,y,-z
1/2+x,1/2+y,1/2+z
1/2-x,-y,1/2+z
1/2+x,1/2-y,-z
-x,1/2+y,1/2-z
loop_
_atom_site_type_symbol
_atom_site_label
_atom_site_fract_x
_atom_site_fract_y
_atom_site_fract_z
Si Si1 0.535091 0.950155 0.792178
Si Si2 0.560413 0.401244 0.494513
Si Si3 0.597029 0.620792 0.633172
Si Si4 0.861845 0.090965 0.712132
Si Si5 0.957813 0.377068 0.904826
Si Si6 0.434687 0.299465 0.529999
Si Si7 0.855838 0.820906 0.247819
Si Si8 0.143623 0.716721 0.595564
O O1 0.425624 0.916821 0.722443
O O2 0.727411 0.948766 0.773424
O O3 0.475373 0.000000 0.750000
O O4 0.511063 0.933155 0.912121
O O5 0.750000 0.410437 0.500000
O O6 0.477178 0.418704 0.387152
O O7 0.531882 0.345457 0.495481
O O8 0.780698 0.639440 0.632994
O O9 0.554086 0.598861 0.519164
O O10 0.477658 0.662931 0.660870
O O11 0.760747 0.138857 0.701039
O O12 0.969750 0.088943 0.817220
O O13 0.078930 0.334840 0.922520
O O14 0.500000 0.250000 0.483865
O O15 0.250000 0.305262 0.500000
O O16 0.455150 0.297864 0.654785
O O17 0.748046 0.781045 0.299212
O O18 0.250000 0.734784 0.500000
O O19 0.000000 0.750000 0.617864
#
# Coordination Sequence:
#
# PCOD8165354 Si02
#       8
#     8   8   8   8   8   8   8   8
#     4  11  24  45  71 100 132 172 220 269 337 413
#     4  12  23  45  72  99 138 181 221 282 345 399
#     4  10  20  41  68  93 129 170 211 270 337 393
#     4  10  21  42  69  94 130 176 215 267 337 396
#     4  10  22  40  66  94 129 173 218 269 330 401
#     4  12  24  42  64  97 133 177 230 277 335 402
#     4  10  21  40  62  86 131 173 217 272 335 392
#     4  11  24  37  57  90 128 174 226 279 325 392
#
# _framework density 20.967497999999999
#
# number of rings (size 3 to 8) (size 9 to 14) (size 15 to 20)
#    0.000    1.250    5.000    1.500    1.750    2.000 
#    9.000    1.250    0.000    0.000    0.000    0.000 
#    0.000    0.000    0.000    0.000    0.000    0.000 
#
# Total GULP energy -396526.049007 kJ/mol
# GULP energy per Si atom -12391.439031 kJ/mol
# Density = 2.091978 g / cm^3
# Si number density = 20.967498 Si / 1000 Ang^3
#
#
#
# Elastic Constant Matrix: (Units=GPa)
#
#
# Indices 1 2 3 4 5 6 
#
# 1 104.7362 0.2036 27.3608 0.0001 0.0001 0.0000
# 2 0.2036 52.6518 4.9924 -0.0002 0.0002 0.0002
# 3 27.3608 4.9924 115.4764 0.0011 0.0006 0.0005
# 4 0.0001 -0.0002 0.0011 11.7818 0.0003 0.0004
# 5 0.0001 0.0002 0.0006 0.0003 33.2320 0.0002
# 6 0.0000 0.0002 0.0005 0.0004 0.0002 20.0338
#
#
#
# Elastic Compliance Matrix: (Units=1/GPa)
#
#
# Indices 1 2 3 4 5 6 
#
# 1 0.010180 0.000190 -0.002420 0.000000 0.000000 0.000000
# 2 0.000190 0.019074 -0.000870 0.000000 0.000000 0.000000
# 3 -0.002420 -0.000870 0.009271 -0.000001 0.000000 0.000000
# 4 0.000000 0.000000 -0.000001 0.084877 -0.000001 -0.000002
# 5 0.000000 0.000000 0.000000 -0.000001 0.030091 0.000000
# 6 0.000000 0.000000 0.000000 -0.000002 0.000000 0.049916
#
#
# Mechanical properties :
#
#
# Convention : Reuss Voigt Hill
#
# Bulk Modulus (GPa) = 30.93544 37.55313 34.24428
# Shear Modulus (GPa) = 22.68773 29.03003 25.85888
#
# Velocity S-wave (km/s) = 3.29301 3.72496 3.51562
# Velocity P-wave (km/s) = 5.40783 6.03734 5.73123
#
# Compressibility (1/GPa) = 0.03232538
#
# Stress axis : x y z
#
# Youngs Moduli (GPa) = 98.23514 52.42623 107.86550
#
# Poissons Ratio (x) = -0.00997 0.26105
# Poissons Ratio (y) = -0.01868 0.09381
# Poissons Ratio (z) = 0.23775 0.04559
#
# Static dielectric constant tensor:
#      x y z
#    x 3.965970 0.000000 0.000000 
#    y 0.000000 3.527650 -0.000010 
#    z 0.000000 -0.000010 4.017060 
# 
# 
# High freq. dielectric constant tensor:
#      x y z
#    x 1.835930 0.000000 0.000000 
#    y 0.000000 1.778610 0.000000 
#    z 0.000000 0.000000 1.837250 
# 
# From -- ./inp_files/18908.got.cif
#   From: 2010.03.12/outbox.cif.g09.slc.cpg/sg24_10_cif.got.tgz:18908.got - 2010.04.14 03:06:53.
