data_PCOD8165406
_publ_section_title
;
Structure prediction by ZEFSAII (Michael W. Deem and Ramdas Pophale) SiO2 
 PCOD8165406
Probable space group: I 21 21 21
;
_chemical_formula_sum "Si O2"
_cell_formula_units_Z 32
_cell_length_a 34.583149
_cell_length_b 8.256824
_cell_length_c 4.959779
_cell_angle_alpha 90.000000
_cell_angle_beta 90.000000
_cell_angle_gamma 90.000000
_cell_volume 1416.249888
_symmetry_space_group_name_H-M "I 21 21 21"
_symmetry_group_IT_number 24
_symmetry_cell_setting 'orthorhombic'
loop_
_space_group_symop_operation_xyz
x,y,z
-x,1/2-y,z
x,-y,1/2-z
1/2-x,y,-z
1/2+x,1/2+y,1/2+z
1/2-x,-y,1/2+z
1/2+x,1/2-y,-z
-x,1/2+y,1/2-z
loop_
_atom_site_type_symbol
_atom_site_label
_atom_site_fract_x
_atom_site_fract_y
_atom_site_fract_z
Si Si1 0.910844 0.808165 0.238459
Si Si2 0.711557 0.818324 0.349075
Si Si3 0.671314 0.316352 0.670289
Si Si4 0.457804 0.309743 0.242291
O O1 0.873727 0.714588 0.118912
O O2 0.925548 0.747224 0.529084
O O3 0.902630 0.000000 0.250000
O O4 0.945044 0.753312 0.037515
O O5 0.750000 0.750653 0.500000
O O6 0.679326 0.805719 0.580151
O O7 0.718234 0.000000 0.250000
O O8 0.698525 0.715787 0.088718
O O9 0.679706 0.500000 0.750000
O O10 0.500000 0.250000 0.161734
O O11 0.458930 0.500000 0.250000
#
# Coordination Sequence:
#
# PCOD8165406 Si02
#       4
#     8   8   8   8
#     4  10  21  39  61  88 123 168 215 257 311 384
#     4  12  25  46  71  96 128 173 220 261 317 396
#     4  12  26  43  68 101 134 168 213 275 333 376
#     4  10  21  36  58  87 121 163 211 263 316 372
#
# _framework density 22.594882999999999
#
# number of rings (size 3 to 8) (size 9 to 14) (size 15 to 20)
#    0.000    1.000    0.000    7.500    0.000    6.000 
#    0.000    1.250    0.000    0.000    0.000    0.000 
#    0.000    0.000    0.000    0.000    0.000    0.000 
#
# Total GULP energy -198347.039906 kJ/mol
# GULP energy per Si atom -12396.689994 kJ/mol
# Density = 2.254346 g / cm^3
# Si number density = 22.594883 Si / 1000 Ang^3
#
#
#
# Elastic Constant Matrix: (Units=GPa)
#
#
# Indices 1 2 3 4 5 6 
#
# 1 129.9933 56.0630 61.1535 -0.0002 -0.0001 -0.0001
# 2 56.0630 48.1419 49.2049 -0.0004 -0.0002 -0.0003
# 3 61.1535 49.2049 169.0721 -0.0004 -0.0001 -0.0004
# 4 -0.0002 -0.0004 -0.0004 34.3028 -0.0001 -0.0003
# 5 -0.0001 -0.0002 -0.0001 -0.0001 37.8445 -0.0001
# 6 -0.0001 -0.0003 -0.0004 -0.0003 -0.0001 28.2520
#
#
#
# Elastic Compliance Matrix: (Units=1/GPa)
#
#
# Indices 1 2 3 4 5 6 
#
# 1 0.015484 -0.017519 -0.000502 0.000000 0.000000 0.000000
# 2 -0.017519 0.049387 -0.008037 0.000000 0.000000 0.000000
# 3 -0.000502 -0.008037 0.008435 0.000000 0.000000 0.000000
# 4 0.000000 0.000000 0.000000 0.029152 0.000000 0.000000
# 5 0.000000 0.000000 0.000000 0.000000 0.026424 0.000000
# 6 0.000000 0.000000 0.000000 0.000000 0.000000 0.035396
#
#
# Mechanical properties :
#
#
# Convention : Reuss Voigt Hill
#
# Bulk Modulus (GPa) = 47.18856 75.56113 61.37485
# Shear Modulus (GPa) = 22.37559 32.13226 27.25392
#
# Velocity S-wave (km/s) = 3.15031 3.77517 3.47681
# Velocity P-wave (km/s) = 5.84487 7.24685 6.58329
#
# Compressibility (1/GPa) = 0.02119157
#
# Stress axis : x y z
#
# Youngs Moduli (GPa) = 64.58096 20.24814 118.55142
#
# Poissons Ratio (x) = 0.35472 0.05954
# Poissons Ratio (y) = 1.13139 0.95274
# Poissons Ratio (z) = 0.03243 0.16272
#
# Static dielectric constant tensor:
#      x y z
#    x 3.812180 0.000000 0.000000 
#    y 0.000000 3.871700 0.000000 
#    z 0.000000 0.000000 4.706950 
# 
# 
# High freq. dielectric constant tensor:
#      x y z
#    x 1.900500 0.000000 0.000000 
#    y 0.000000 1.868390 0.000000 
#    z 0.000000 0.000000 1.913330 
# 
# From -- ./inp_files/7521.got.cif
#   From: 2010.03.12/outbox.cif.g09.slc.cpg/sg24_4_cif.got.tgz:7521.got - 2010.04.14 03:06:53.
