data_PCOD8165454
_publ_section_title
;
Structure prediction by ZEFSAII (Michael W. Deem and Ramdas Pophale) SiO2 
 PCOD8165454
Probable space group: I 21 21 21
;
_chemical_formula_sum "Si O2"
_cell_formula_units_Z 64
_cell_length_a 9.388624
_cell_length_b 23.513291
_cell_length_c 14.131037
_cell_angle_alpha 90.000000
_cell_angle_beta 90.000000
_cell_angle_gamma 90.000000
_cell_volume 3119.531669
_symmetry_space_group_name_H-M "I 21 21 21"
_symmetry_group_IT_number 24
_symmetry_cell_setting 'orthorhombic'
loop_
_space_group_symop_operation_xyz
x,y,z
-x,1/2-y,z
x,-y,1/2-z
1/2-x,y,-z
1/2+x,1/2+y,1/2+z
1/2-x,-y,1/2+z
1/2+x,1/2-y,-z
-x,1/2+y,1/2-z
loop_
_atom_site_type_symbol
_atom_site_label
_atom_site_fract_x
_atom_site_fract_y
_atom_site_fract_z
Si Si1 0.880992 0.793993 0.429696
Si Si2 0.345080 0.727621 0.785846
Si Si3 0.470289 0.588370 0.639804
Si Si4 0.984182 0.035218 0.439313
Si Si5 0.139187 0.786632 0.917343
Si Si6 0.717609 0.898421 0.814428
Si Si7 0.531116 0.591865 0.131676
Si Si8 0.813565 0.562364 0.217103
O O1 0.750000 0.792042 0.500000
O O2 0.826311 0.776256 0.326479
O O3 0.000000 0.750000 0.466299
O O4 0.945367 0.857761 0.427796
O O5 0.500000 0.750000 0.815248
O O6 0.219901 0.769640 0.820506
O O7 0.330552 0.666081 0.834334
O O8 0.485759 0.532772 0.574810
O O9 0.340682 0.578787 0.713878
O O10 0.612336 0.602310 0.703182
O O11 0.111439 0.068733 0.385143
O O12 0.836603 0.062094 0.400832
O O13 0.005743 0.045192 0.550425
O O14 0.000000 0.750000 0.935485
O O15 0.090077 0.851307 0.915537
O O16 0.250000 0.774703 0.000000
O O17 0.887857 0.899347 0.809417
O O18 0.645589 0.571213 0.209182
O O19 0.854102 0.500000 0.250000
#
# Coordination Sequence:
#
# PCOD8165454 Si02
#       8
#     8   8   8   8   8   8   8   8
#     4  10  23  44  69  98 124 162 216 274 334 392
#     4  10  23  42  66  88 127 176 217 265 327 393
#     4   9  21  44  67  86 121 175 213 257 329 397
#     4  10  21  39  62  86 126 169 210 259 320 383
#     4  12  26  39  59  93 136 178 220 263 326 396
#     4  10  21  38  60  92 124 164 216 262 318 384
#     4  12  24  36  59  98 129 160 212 275 319 379
#     4   9  20  39  62  88 123 165 212 250 316 394
#
# _framework density 20.515900999999999
#
# number of rings (size 3 to 8) (size 9 to 14) (size 15 to 20)
#    0.000    1.750    1.250    3.000   10.500    2.500 
#    0.000    3.750    0.000    0.000    0.000    0.000 
#    0.000    0.000    0.000    0.000    0.000    0.000 
#
# Total GULP energy -396852.424613 kJ/mol
# GULP energy per Si atom -12401.638269 kJ/mol
# Density = 2.046921 g / cm^3
# Si number density = 20.515901 Si / 1000 Ang^3
#
#
#
# Elastic Constant Matrix: (Units=GPa)
#
#
# Indices 1 2 3 4 5 6 
#
# 1 167.3326 53.6819 52.6363 0.0001 0.0000 0.0000
# 2 53.6819 110.5038 48.0334 0.0001 0.0000 0.0000
# 3 52.6363 48.0334 72.3040 0.0007 -0.0001 -0.0001
# 4 0.0001 0.0001 0.0007 23.4108 0.0000 0.0000
# 5 0.0000 0.0000 -0.0001 0.0000 28.7938 0.0000
# 6 0.0000 0.0000 -0.0001 0.0000 0.0000 31.2896
#
#
#
# Elastic Compliance Matrix: (Units=1/GPa)
#
#
# Indices 1 2 3 4 5 6 
#
# 1 0.008028 -0.001912 -0.004575 0.000000 0.000000 0.000000
# 2 -0.001912 0.013179 -0.007363 0.000000 0.000000 0.000000
# 3 -0.004575 -0.007363 0.022052 -0.000001 0.000000 0.000000
# 4 0.000000 0.000000 -0.000001 0.042715 0.000000 0.000000
# 5 0.000000 0.000000 0.000000 0.000000 0.034730 0.000000
# 6 0.000000 0.000000 0.000000 0.000000 0.000000 0.031959
#
#
# Mechanical properties :
#
#
# Convention : Reuss Voigt Hill
#
# Bulk Modulus (GPa) = 64.26579 73.20485 68.73532
# Shear Modulus (GPa) = 26.94692 29.75144 28.34918
#
# Velocity S-wave (km/s) = 3.62811 3.81223 3.72131
# Velocity P-wave (km/s) = 6.99598 7.42543 7.21390
#
# Compressibility (1/GPa) = 0.01556038
#
# Stress axis : x y z
#
# Youngs Moduli (GPa) = 124.55794 75.87946 45.34659
#
# Poissons Ratio (x) = 0.14506 0.20744
# Poissons Ratio (y) = 0.23811 0.33390
# Poissons Ratio (z) = 0.56980 0.55873
#
# Static dielectric constant tensor:
#      x y z
#    x 4.014300 0.000000 0.000000 
#    y 0.000000 3.841760 0.000000 
#    z 0.000000 0.000000 3.467860 
# 
# 
# High freq. dielectric constant tensor:
#      x y z
#    x 1.808180 0.000000 0.000000 
#    y 0.000000 1.808660 0.000000 
#    z 0.000000 0.000000 1.782230 
# 
# From -- ./inp_files/25225.got.cif
#   From: 2010.03.12/outbox.cif.g09.slc.cpg/sg24_13_cif.got.tgz:25225.got - 2010.04.14 03:06:53.
