data_PCOD8165220
_publ_section_title
;
Structure prediction by ZEFSAII (Michael W. Deem and Ramdas Pophale) SiO2 
 PCOD8165220
Probable space group: I 21 21 21
;
_chemical_formula_sum "Si O2"
_cell_formula_units_Z 60
_cell_length_a 27.501300
_cell_length_b 8.991408
_cell_length_c 12.662387
_cell_angle_alpha 90.000000
_cell_angle_beta 90.000000
_cell_angle_gamma 90.000000
_cell_volume 3131.096922
_symmetry_space_group_name_H-M "I 21 21 21"
_symmetry_group_IT_number 24
_symmetry_cell_setting 'orthorhombic'
loop_
_space_group_symop_operation_xyz
x,y,z
-x,1/2-y,z
x,-y,1/2-z
1/2-x,y,-z
1/2+x,1/2+y,1/2+z
1/2-x,-y,1/2+z
1/2+x,1/2-y,-z
-x,1/2+y,1/2-z
loop_
_atom_site_type_symbol
_atom_site_label
_atom_site_fract_x
_atom_site_fract_y
_atom_site_fract_z
Si Si1 0.206613 0.423053 0.565740
Si Si2 0.884817 0.265582 0.508948
Si Si3 0.578191 0.013587 0.629863
Si Si4 0.330860 0.341107 0.920480
Si Si5 0.465318 0.113585 0.346077
Si Si6 0.016303 0.089681 0.039159
Si Si7 0.377048 0.040830 0.873730
Si Si8 0.733502 0.000000 0.750000
O O1 0.250000 0.348155 0.500000
O O2 0.157876 0.331036 0.556720
O O3 0.197264 0.594644 0.524044
O O4 0.227446 0.409012 0.682360
O O5 0.917144 0.177106 0.422172
O O6 0.915160 0.317922 0.610854
O O7 0.861962 0.401477 0.444523
O O8 0.595327 0.000000 0.750000
O O9 0.614764 0.905632 0.568654
O O10 0.522586 0.961995 0.625935
O O11 0.337283 0.164264 0.908629
O O12 0.301314 0.394881 0.817906
O O13 0.500000 0.250000 0.310393
O O14 0.455219 0.000000 0.250000
O O15 0.489132 0.021856 0.441275
O O16 0.068467 0.092392 0.095633
O O17 0.000000 0.250000 0.996432
O O18 0.374023 0.000000 0.750000
#
# Coordination Sequence:
#
# PCOD8165220 Si02
#       8
#     8   8   8   8   8   8   8   4
#     4   9  21  41  68  90 115 155 206 260 305 370
#     4  10  23  41  61  92 128 161 207 261 310 369
#     4  11  19  35  63  88 123 168 206 243 304 366
#     4  10  20  37  63  90 116 158 201 251 301 371
#     4  11  23  44  63  87 124 171 215 258 307 359
#     4  11  22  37  56  92 128 163 213 251 288 363
#     4  11  23  35  57  92 132 165 195 244 317 369
#     4  10  20  42  70  88 112 150 214 250 310 366
#
# _framework density 19.162614999999999
#
# number of rings (size 3 to 8) (size 9 to 14) (size 15 to 20)
#    0.000    1.600    3.333    1.600    3.733    0.000 
#    6.000    2.000    0.000    0.000    0.000    0.000 
#    0.000    0.000    0.000    0.000    0.000    0.000 
#
# Total GULP energy -371729.104793 kJ/mol
# GULP energy per Si atom -12390.970160 kJ/mol
# Density = 1.911900 g / cm^3
# Si number density = 19.162615 Si / 1000 Ang^3
#
#
#
# Elastic Constant Matrix: (Units=GPa)
#
#
# Indices 1 2 3 4 5 6 
#
# 1 92.8183 44.4547 34.8571 0.0000 0.0000 0.0000
# 2 44.4547 124.1794 39.0937 0.0000 0.0000 0.0000
# 3 34.8571 39.0937 88.6265 0.0000 0.0000 0.0000
# 4 0.0000 0.0000 0.0000 24.4345 0.0000 0.0000
# 5 0.0000 0.0000 0.0000 0.0000 20.7561 0.0000
# 6 0.0000 0.0000 0.0000 0.0000 0.0000 29.2381
#
#
#
# Elastic Compliance Matrix: (Units=1/GPa)
#
#
# Indices 1 2 3 4 5 6 
#
# 1 0.014045 -0.003819 -0.003839 0.000000 0.000000 0.000000
# 2 -0.003819 0.010390 -0.003081 0.000000 0.000000 0.000000
# 3 -0.003839 -0.003081 0.014152 0.000000 0.000000 0.000000
# 4 0.000000 0.000000 0.000000 0.040926 0.000000 0.000000
# 5 0.000000 0.000000 0.000000 0.000000 0.048179 0.000000
# 6 0.000000 0.000000 0.000000 0.000000 0.000000 0.034202
#
#
# Mechanical properties :
#
#
# Convention : Reuss Voigt Hill
#
# Bulk Modulus (GPa) = 58.45109 60.27058 59.36084
# Shear Modulus (GPa) = 26.44455 27.36698 26.90576
#
# Velocity S-wave (km/s) = 3.71888 3.78318 3.75117
# Velocity P-wave (km/s) = 7.00064 7.11363 7.05736
#
# Compressibility (1/GPa) = 0.01710832
#
# Stress axis : x y z
#
# Youngs Moduli (GPa) = 71.20136 96.24594 70.65990
#
# Poissons Ratio (x) = 0.36758 0.27127
# Poissons Ratio (y) = 0.27193 0.21770
# Poissons Ratio (z) = 0.27335 0.29653
#
# Static dielectric constant tensor:
#      x y z
#    x 3.515390 0.000000 0.000000 
#    y 0.000000 3.635730 0.000000 
#    z 0.000000 0.000000 3.407820 
# 
# 
# High freq. dielectric constant tensor:
#      x y z
#    x 1.749720 0.000000 0.000000 
#    y 0.000000 1.742660 0.000000 
#    z 0.000000 0.000000 1.737520 
# 
# From -- ./inp_files/22976.got.cif
#   From: 2010.03.12/outbox.cif.g09.slc.cpg/sg24_12_cif.got.tgz:22976.got - 2010.04.14 03:06:53.
