data_PCOD8165898
_publ_section_title
;
Structure prediction by ZEFSAII (Michael W. Deem and Ramdas Pophale) SiO2 
 PCOD8165898
Probable space group: I 21 21 21
;
_chemical_formula_sum "Si O2"
_cell_formula_units_Z 48
_cell_length_a 27.809668
_cell_length_b 10.530809
_cell_length_c 8.367582
_cell_angle_alpha 90.000000
_cell_angle_beta 90.000000
_cell_angle_gamma 90.000000
_cell_volume 2450.515857
_symmetry_space_group_name_H-M "I 21 21 21"
_symmetry_group_IT_number 24
_symmetry_cell_setting 'orthorhombic'
loop_
_space_group_symop_operation_xyz
x,y,z
-x,1/2-y,z
x,-y,1/2-z
1/2-x,y,-z
1/2+x,1/2+y,1/2+z
1/2-x,-y,1/2+z
1/2+x,1/2-y,-z
-x,1/2+y,1/2-z
loop_
_atom_site_type_symbol
_atom_site_label
_atom_site_fract_x
_atom_site_fract_y
_atom_site_fract_z
Si Si1 0.434001 0.544968 0.574648
Si Si2 0.038431 0.125038 0.143927
Si Si3 0.802391 0.541033 0.432455
Si Si4 0.126549 0.113533 0.641272
Si Si5 0.948043 0.768282 0.042594
Si Si6 0.376879 0.227708 0.039857
O O1 0.420838 0.500000 0.750000
O O2 0.485520 0.618997 0.561044
O O3 0.433672 0.409221 0.484438
O O4 0.390554 0.628617 0.504390
O O5 0.046691 0.247940 0.263261
O O6 0.045331 0.000000 0.250000
O O7 0.078237 0.134108 0.005381
O O8 0.800278 0.500000 0.250000
O O9 0.750000 0.566752 0.500000
O O10 0.826631 0.431760 0.543005
O O11 0.831429 0.674061 0.441163
O O12 0.087637 0.160315 0.515818
O O13 0.136721 0.224504 0.771454
O O14 0.106054 0.000000 0.750000
O O15 0.000000 0.750000 0.962751
#
# Coordination Sequence:
#
# PCOD8165898 Si02
#       6
#     8   8   8   8   8   8
#     4  11  22  33  58  88 124 174 222 250 304 373
#     4  11  19  33  57  83 118 170 217 260 296 357
#     4  11  23  42  71  97 120 153 200 263 324 380
#     4  10  24  40  58  90 125 159 208 261 320 370
#     4  12  21  36  54  85 124 172 220 257 301 372
#     4  11  21  38  57  87 128 161 202 263 308 371
#
# _framework density 19.587713000000001
#
# number of rings (size 3 to 8) (size 9 to 14) (size 15 to 20)
#    0.000    1.000    5.000    5.500    0.000    2.000 
#    0.000    0.000    0.000    1.000    0.000    0.000 
#    0.000    0.000    0.000    0.000    0.000    0.000 
#
# Total GULP energy -297376.017283 kJ/mol
# GULP energy per Si atom -12390.667387 kJ/mol
# Density = 1.954313 g / cm^3
# Si number density = 19.587713 Si / 1000 Ang^3
#
#
#
# Elastic Constant Matrix: (Units=GPa)
#
#
# Indices 1 2 3 4 5 6 
#
# 1 128.7330 62.4564 44.9458 0.0000 0.0000 0.0000
# 2 62.4564 116.0508 30.1529 0.0000 0.0000 0.0000
# 3 44.9458 30.1529 87.4933 0.0000 0.0000 0.0000
# 4 0.0000 0.0000 0.0000 31.4800 0.0000 0.0000
# 5 0.0000 0.0000 0.0000 0.0000 15.7279 0.0000
# 6 0.0000 0.0000 0.0000 0.0000 0.0000 31.3524
#
#
#
# Elastic Compliance Matrix: (Units=1/GPa)
#
#
# Indices 1 2 3 4 5 6 
#
# 1 0.011797 -0.005244 -0.004253 0.000000 0.000000 0.000000
# 2 -0.005244 0.011795 -0.001371 0.000000 0.000000 0.000000
# 3 -0.004253 -0.001371 0.014087 0.000000 0.000000 0.000000
# 4 0.000000 0.000000 0.000000 0.031766 0.000000 0.000000
# 5 0.000000 0.000000 0.000000 0.000000 0.063581 0.000000
# 6 0.000000 0.000000 0.000000 0.000000 0.000000 0.031896
#
#
# Mechanical properties :
#
#
# Convention : Reuss Voigt Hill
#
# Bulk Modulus (GPa) = 62.72363 67.48747 65.10555
# Shear Modulus (GPa) = 26.04535 28.69351 27.36943
#
# Velocity S-wave (km/s) = 3.65043 3.83152 3.74207
# Velocity P-wave (km/s) = 7.06109 7.35546 7.20978
#
# Compressibility (1/GPa) = 0.01594296
#
# Stress axis : x y z
#
# Youngs Moduli (GPa) = 84.76690 84.77898 70.98844
#
# Poissons Ratio (x) = 0.44457 0.30191
# Poissons Ratio (y) = 0.44451 0.09734
# Poissons Ratio (z) = 0.36051 0.11625
#
# Static dielectric constant tensor:
#      x y z
#    x 3.387230 0.000000 0.000000 
#    y 0.000000 4.167020 0.000000 
#    z 0.000000 0.000000 3.715660 
# 
# 
# High freq. dielectric constant tensor:
#      x y z
#    x 1.731000 0.000000 0.000000 
#    y 0.000000 1.770760 0.000000 
#    z 0.000000 0.000000 1.761350 
# 
# From -- ./inp_files/16351.got.cif
#   From: 2010.03.12/outbox.cif.g09.slc.cpg/sg24_9_cif.got.tgz:16351.got - 2010.04.14 03:06:53.
