data_PCOD8165586
_publ_section_title
;
Structure prediction by ZEFSAII (Michael W. Deem and Ramdas Pophale) SiO2 
 PCOD8165586
Probable space group: I 21 21 21
;
_chemical_formula_sum "Si O2"
_cell_formula_units_Z 56
_cell_length_a 19.284987
_cell_length_b 14.592229
_cell_length_c 8.558097
_cell_angle_alpha 90.000000
_cell_angle_beta 90.000000
_cell_angle_gamma 90.000000
_cell_volume 2408.342178
_symmetry_space_group_name_H-M "I 21 21 21"
_symmetry_group_IT_number 24
_symmetry_cell_setting 'orthorhombic'
loop_
_space_group_symop_operation_xyz
x,y,z
-x,1/2-y,z
x,-y,1/2-z
1/2-x,y,-z
1/2+x,1/2+y,1/2+z
1/2-x,-y,1/2+z
1/2+x,1/2-y,-z
-x,1/2+y,1/2-z
loop_
_atom_site_type_symbol
_atom_site_label
_atom_site_fract_x
_atom_site_fract_y
_atom_site_fract_z
Si Si1 0.399492 0.366728 0.849496
Si Si2 0.976547 0.022011 0.908628
Si Si3 0.379385 0.091712 0.165909
Si Si4 0.858394 0.333011 0.159487
Si Si5 0.018756 0.853337 0.110321
Si Si6 0.721959 0.720804 0.176296
Si Si7 0.750177 0.905539 0.313238
O O1 0.390629 0.262078 0.905449
O O2 0.463392 0.381859 0.737720
O O3 0.330529 0.398570 0.759434
O O4 0.415657 0.431625 0.994594
O O5 0.037402 0.092779 0.856455
O O6 0.935646 0.000000 0.750000
O O7 0.013374 0.930034 0.976700
O O8 0.351001 0.170937 0.283946
O O9 0.352554 0.000000 0.250000
O O10 0.352505 0.098396 0.986782
O O11 0.906235 0.363668 0.306209
O O12 0.779968 0.323676 0.214442
O O13 0.000000 0.750000 0.049511
O O14 0.708177 0.825678 0.226161
O O15 0.750000 0.713407 0.000000
O O16 0.750000 0.895060 0.500000
O O17 0.718608 0.000000 0.250000
#
# Coordination Sequence:
#
# PCOD8165586 Si02
#       7
#     8   8   8   8   8   8   8
#     4  10  21  43  71  99 134 181 225 281 349 425
#     4  11  24  41  65 103 140 175 229 285 344 412
#     4  11  25  44  64 100 138 181 234 285 338 407
#     4  10  22  43  72  95 135 184 232 284 347 409
#     4  10  21  42  68  98 132 181 225 279 346 415
#     4  11  25  44  67 100 141 189 240 290 347 413
#     4  11  23  43  73 104 142 182 233 292 358 425
#
# _framework density 23.252510000000001
#
# number of rings (size 3 to 8) (size 9 to 14) (size 15 to 20)
#    0.000    1.429    1.429    3.857    4.000    1.714 
#    5.143    5.714    0.000    0.000    0.000    0.000 
#    0.000    0.000    0.000    0.000    0.000    0.000 
#
# Total GULP energy -347021.753576 kJ/mol
# GULP energy per Si atom -12393.634056 kJ/mol
# Density = 2.319959 g / cm^3
# Si number density = 23.252510 Si / 1000 Ang^3
#
#
#
# Elastic Constant Matrix: (Units=GPa)
#
#
# Indices 1 2 3 4 5 6 
#
# 1 46.2813 26.2384 -10.1033 0.0000 0.0000 0.0000
# 2 26.2384 124.3380 47.9723 0.0000 0.0000 0.0000
# 3 -10.1033 47.9723 101.2898 0.0000 0.0000 0.0000
# 4 0.0000 0.0000 0.0000 41.3745 0.0000 0.0000
# 5 0.0000 0.0000 0.0000 0.0000 22.1139 0.0000
# 6 0.0000 0.0000 0.0000 0.0000 0.0000 23.4667
#
#
#
# Elastic Compliance Matrix: (Units=1/GPa)
#
#
# Indices 1 2 3 4 5 6 
#
# 1 0.027931 -0.008527 0.006825 0.000000 0.000000 0.000000
# 2 -0.008527 0.012444 -0.006744 0.000000 0.000000 0.000000
# 3 0.006825 -0.006744 0.013748 0.000000 0.000000 0.000000
# 4 0.000000 0.000000 0.000000 0.024169 0.000000 0.000000
# 5 0.000000 0.000000 0.000000 0.000000 0.045221 0.000000
# 6 0.000000 0.000000 0.000000 0.000000 0.000000 0.042613
#
#
# Mechanical properties :
#
#
# Convention : Reuss Voigt Hill
#
# Bulk Modulus (GPa) = 26.86060 44.45822 35.65941
# Shear Modulus (GPa) = 25.58459 31.24447 28.41453
#
# Velocity S-wave (km/s) = 3.32067 3.66963 3.49950
# Velocity P-wave (km/s) = 5.12632 6.09231 5.63007
#
# Compressibility (1/GPa) = 0.03722925
#
# Stress axis : x y z
#
# Youngs Moduli (GPa) = 35.80212 80.35885 72.73989
#
# Poissons Ratio (x) = 0.68525 -0.49643
# Poissons Ratio (y) = 0.30530 0.49058
# Poissons Ratio (z) = -0.24434 0.54197
#
# Static dielectric constant tensor:
#      x y z
#    x 4.141680 0.000000 0.000000 
#    y 0.000000 4.350970 0.000000 
#    z 0.000000 0.000000 4.387630 
# 
# 
# High freq. dielectric constant tensor:
#      x y z
#    x 1.917350 0.000000 0.000000 
#    y 0.000000 1.918730 0.000000 
#    z 0.000000 0.000000 1.923080 
# 
# From -- ./inp_files/15228.got.cif
#   From: 2010.03.12/outbox.cif.g09.slc.cpg/sg24_8_cif.got.tgz:15228.got - 2010.04.14 03:06:53.
