data_PCOD8165137
_publ_section_title
;
Structure prediction by ZEFSAII (Michael W. Deem and Ramdas Pophale) SiO2 
 PCOD8165137
Probable space group: I 21 21 21
;
_chemical_formula_sum "Si O2"
_cell_formula_units_Z 32
_cell_length_a 5.170328
_cell_length_b 19.445592
_cell_length_c 15.268609
_cell_angle_alpha 90.000000
_cell_angle_beta 90.000000
_cell_angle_gamma 90.000000
_cell_volume 1535.107305
_symmetry_space_group_name_H-M "I 21 21 21"
_symmetry_group_IT_number 24
_symmetry_cell_setting 'orthorhombic'
loop_
_space_group_symop_operation_xyz
x,y,z
-x,1/2-y,z
x,-y,1/2-z
1/2-x,y,-z
1/2+x,1/2+y,1/2+z
1/2-x,-y,1/2+z
1/2+x,1/2-y,-z
-x,1/2+y,1/2-z
loop_
_atom_site_type_symbol
_atom_site_label
_atom_site_fract_x
_atom_site_fract_y
_atom_site_fract_z
Si Si1 0.750000 0.337241 0.000000
Si Si2 0.747838 0.289837 0.188978
Si Si3 0.281240 0.074121 0.706326
Si Si4 0.216949 0.561488 0.903335
Si Si5 0.250000 0.429814 0.000000
O O1 0.767175 0.288029 0.916251
O O2 0.500795 0.384342 0.990156
O O3 0.500000 0.250000 0.227662
O O4 0.749400 0.368574 0.219407
O O5 0.000000 0.250000 0.223067
O O6 0.556323 0.085627 0.660559
O O7 0.058180 0.084018 0.634486
O O8 0.257390 0.000000 0.750000
O O9 0.250000 0.595641 0.000000
O O10 0.227670 0.478140 0.913466
#
# Coordination Sequence:
#
# PCOD8165137 Si02
#       5
#     4   8   8   8   4
#     4  12  22  41  62  92 134 181 210 246 320 417
#     4  12  26  43  64  93 136 176 213 265 327 395
#     4  12  23  41  68  98 127 169 226 271 326 375
#     4  10  22  38  63  95 134 162 209 281 326 376
#     4  10  20  35  64  98 126 165 210 260 324 373
#
# _framework density 20.845448000000001
#
# number of rings (size 3 to 8) (size 9 to 14) (size 15 to 20)
#    0.750    0.000    0.000    9.750    0.000    0.000 
#    0.000    0.000    0.000   15.000    0.000    0.000 
#    0.000    0.000    0.000    0.000    0.000    0.000 
#
# Total GULP energy -198448.915450 kJ/mol
# GULP energy per Si atom -12403.057216 kJ/mol
# Density = 2.079800 g / cm^3
# Si number density = 20.845448 Si / 1000 Ang^3
#
#
#
# Elastic Constant Matrix: (Units=GPa)
#
#
# Indices 1 2 3 4 5 6 
#
# 1 125.1263 35.2888 4.9274 0.0000 0.0003 0.0000
# 2 35.2888 105.9779 24.8935 0.0000 0.0000 0.0000
# 3 4.9274 24.8935 77.6037 0.0000 -0.0003 0.0000
# 4 0.0000 0.0000 0.0000 31.1081 -0.0001 0.0000
# 5 0.0003 0.0000 -0.0003 -0.0001 -111.5604 0.0001
# 6 0.0000 0.0000 0.0000 0.0000 0.0001 37.1778
#
#
#
# Elastic Compliance Matrix: (Units=1/GPa)
#
#
# Indices 1 2 3 4 5 6 
#
# 1 0.008833 -0.003038 0.000414 0.000000 0.000000 0.000000
# 2 -0.003038 0.011250 -0.003416 0.000000 0.000000 0.000000
# 3 0.000414 -0.003416 0.013955 0.000000 0.000000 0.000000
# 4 0.000000 0.000000 0.000000 0.032146 0.000000 0.000000
# 5 0.000000 0.000000 0.000000 0.000000 -0.008964 0.000000
# 6 0.000000 0.000000 0.000000 0.000000 0.000000 0.026898
#
#
# Mechanical properties :
#
#
# Convention : Reuss Voigt Hill
#
# Bulk Modulus (GPa) = 45.54291 48.76969 47.15630
# Shear Modulus (GPa) = 48.30097 7.58497 27.94297
#
# Velocity S-wave (km/s) = 4.81885 1.90960 3.66523
# Velocity P-wave (km/s) = 7.27029 5.32059 6.37047
#
# Compressibility (1/GPa) = 0.02195732
#
# Stress axis : x y z
#
# Youngs Moduli (GPa) = 113.21821 88.88914 71.65668
#
# Poissons Ratio (x) = 0.27007 -0.02965
# Poissons Ratio (y) = 0.34399 0.24477
# Poissons Ratio (z) = -0.04685 0.30363
#
# Static dielectric constant tensor:
#      x y z
#    x 3.910300 0.000000 0.000000 
#    y 0.000000 3.604870 0.000000 
#    z 0.000000 0.000000 3.716790 
# 
# 
# High freq. dielectric constant tensor:
#      x y z
#    x 1.841860 0.000000 0.000000 
#    y 0.000000 1.799270 0.000000 
#    z 0.000000 0.000000 1.809280 
# 
# From -- ./inp_files/4305.got.cif
#   From: 2010.03.12/outbox.cif.g09.slc.cpg/sg24_3_cif.got.tgz:4305.got - 2010.04.14 03:06:53.
