data_PCOD8165616
_publ_section_title
;
Structure prediction by ZEFSAII (Michael W. Deem and Ramdas Pophale) SiO2 
 PCOD8165616
Probable space group: I 21 21 21
;
_chemical_formula_sum "Si O2"
_cell_formula_units_Z 40
_cell_length_a 11.469007
_cell_length_b 8.926683
_cell_length_c 18.064762
_cell_angle_alpha 90.000000
_cell_angle_beta 90.000000
_cell_angle_gamma 90.000000
_cell_volume 1849.473763
_symmetry_space_group_name_H-M "I 21 21 21"
_symmetry_group_IT_number 24
_symmetry_cell_setting 'orthorhombic'
loop_
_space_group_symop_operation_xyz
x,y,z
-x,1/2-y,z
x,-y,1/2-z
1/2-x,y,-z
1/2+x,1/2+y,1/2+z
1/2-x,-y,1/2+z
1/2+x,1/2-y,-z
-x,1/2+y,1/2-z
loop_
_atom_site_type_symbol
_atom_site_label
_atom_site_fract_x
_atom_site_fract_y
_atom_site_fract_z
Si Si1 0.225646 0.171164 0.080752
Si Si2 0.944030 0.403323 0.823035
Si Si3 0.830273 0.015363 0.412942
Si Si4 0.582862 0.106828 0.431342
Si Si5 0.527556 0.584257 0.681260
O O1 0.320163 0.124886 0.140467
O O2 0.217596 0.349122 0.072303
O O3 0.106527 0.095478 0.108367
O O4 0.250000 0.100740 0.000000
O O5 0.927141 0.500000 0.750000
O O6 0.000000 0.250000 0.794970
O O7 0.028162 0.472347 0.884835
O O8 0.717888 0.125657 0.402247
O O9 0.909375 0.067297 0.482056
O O10 0.911523 0.010906 0.340354
O O11 0.500000 0.250000 0.418654
O O12 0.500000 0.750000 0.709733
O O13 0.588234 0.500000 0.750000
#
# Coordination Sequence:
#
# PCOD8165616 Si02
#       5
#     8   8   8   8   8
#     4  11  20  42  73 100 132 181 236 289 342 422
#     4  12  24  42  67 103 144 186 233 290 354 427
#     4  10  21  44  70  93 137 181 228 289 355 409
#     4  11  23  44  67 102 135 182 238 287 353 415
#     4  10  23  42  65  99 135 184 226 278 350 420
#
# _framework density 21.627773999999999
#
# number of rings (size 3 to 8) (size 9 to 14) (size 15 to 20)
#    0.000    1.200    4.000    2.400    0.000    3.200 
#   21.600    0.000    0.000    0.000    0.000    0.000 
#    0.000    0.000    0.000    0.000    0.000    0.000 
#
# Total GULP energy -247932.500698 kJ/mol
# GULP energy per Si atom -12396.625035 kJ/mol
# Density = 2.157855 g / cm^3
# Si number density = 21.627774 Si / 1000 Ang^3
#
#
#
# Elastic Constant Matrix: (Units=GPa)
#
#
# Indices 1 2 3 4 5 6 
#
# 1 115.5594 57.2366 47.8650 0.0000 0.0000 0.0000
# 2 57.2366 101.0192 62.0109 0.0000 0.0000 0.0000
# 3 47.8650 62.0109 97.6601 0.0000 0.0000 0.0000
# 4 0.0000 0.0000 0.0000 35.3409 0.0000 0.0000
# 5 0.0000 0.0000 0.0000 0.0000 20.2212 0.0000
# 6 0.0000 0.0000 0.0000 0.0000 0.0000 38.9542
#
#
#
# Elastic Compliance Matrix: (Units=1/GPa)
#
#
# Indices 1 2 3 4 5 6 
#
# 1 0.012436 -0.005416 -0.002657 0.000000 0.000000 0.000000
# 2 -0.005416 0.018580 -0.009144 0.000000 0.000000 0.000000
# 3 -0.002657 -0.009144 0.017348 0.000000 0.000000 0.000000
# 4 0.000000 0.000000 0.000000 0.028296 0.000000 0.000000
# 5 0.000000 0.000000 0.000000 0.000000 0.049453 0.000000
# 6 0.000000 0.000000 0.000000 0.000000 0.000000 0.025671
#
#
# Mechanical properties :
#
#
# Convention : Reuss Voigt Hill
#
# Bulk Modulus (GPa) = 71.77380 72.05151 71.91266
# Shear Modulus (GPa) = 26.19726 28.71169 27.45447
#
# Velocity S-wave (km/s) = 3.48412 3.64749 3.56674
# Velocity P-wave (km/s) = 7.03160 7.15022 7.09116
#
# Compressibility (1/GPa) = 0.01393266
#
# Stress axis : x y z
#
# Youngs Moduli (GPa) = 80.41035 53.82033 57.64511
#
# Poissons Ratio (x) = 0.29146 0.15314
# Poissons Ratio (y) = 0.43546 0.52709
# Poissons Ratio (z) = 0.21361 0.49211
#
# Static dielectric constant tensor:
#      x y z
#    x 4.082830 0.000000 0.000000 
#    y 0.000000 3.758650 0.000000 
#    z 0.000000 0.000000 3.816640 
# 
# 
# High freq. dielectric constant tensor:
#      x y z
#    x 1.861780 0.000000 0.000000 
#    y 0.000000 1.832730 0.000000 
#    z 0.000000 0.000000 1.855200 
# 
# From -- ./inp_files/10711.got.cif
#   From: 2010.03.12/outbox.cif.g09.slc.cpg/sg24_6_cif.got.tgz:10711.got - 2010.04.14 03:06:53.
