data_PCOD8165670
_publ_section_title
;
Structure prediction by ZEFSAII (Michael W. Deem and Ramdas Pophale) SiO2 
 PCOD8165670
Probable space group: I 21 21 21
;
_chemical_formula_sum "Si O2"
_cell_formula_units_Z 36
_cell_length_a 7.949793
_cell_length_b 9.998422
_cell_length_c 23.632194
_cell_angle_alpha 90.000000
_cell_angle_beta 90.000000
_cell_angle_gamma 90.000000
_cell_volume 1878.414044
_symmetry_space_group_name_H-M "I 21 21 21"
_symmetry_group_IT_number 24
_symmetry_cell_setting 'orthorhombic'
loop_
_space_group_symop_operation_xyz
x,y,z
-x,1/2-y,z
x,-y,1/2-z
1/2-x,y,-z
1/2+x,1/2+y,1/2+z
1/2-x,-y,1/2+z
1/2+x,1/2-y,-z
-x,1/2+y,1/2-z
loop_
_atom_site_type_symbol
_atom_site_label
_atom_site_fract_x
_atom_site_fract_y
_atom_site_fract_z
Si Si1 0.500000 0.250000 0.293145
Si Si2 0.093113 0.964590 0.140618
Si Si3 0.736667 0.183023 0.621462
Si Si4 0.797620 0.500000 0.750000
Si Si5 0.750000 0.066985 0.500000
Si Si6 0.930141 0.394981 0.028366
O O1 0.613500 0.159748 0.334583
O O2 0.595590 0.361761 0.255138
O O3 0.198495 0.839512 0.118387
O O4 0.904375 0.911703 0.149066
O O5 0.174284 0.022989 0.197206
O O6 0.095422 0.083371 0.095116
O O7 0.776769 0.152123 0.556503
O O8 0.575279 0.988718 0.503688
O O9 0.000000 0.250000 0.015574
O O10 0.750000 0.420717 0.000000
#
# Coordination Sequence:
#
# PCOD8165670 Si02
#       6
#     4   8   8   4   4   8
#     4  10  22  40  64  92 122 154 210 258 302 360
#     4   9  21  41  61  87 120 162 203 243 310 362
#     4   9  20  38  64  92 118 151 203 254 300 364
#     4  10  22  44  60  90 122 162 206 260 302 362
#     4  10  22  38  64  92 120 160 196 252 314 360
#     4  11  23  41  59  90 127 163 200 247 306 374
#
# _framework density 19.165102999999998
#
# number of rings (size 3 to 8) (size 9 to 14) (size 15 to 20)
#    0.000    2.222    1.111    0.000    7.778    2.667 
#   18.000    0.000    0.000    0.000    0.000    0.000 
#    0.000    0.000    0.000    0.000    0.000    0.000 
#
# Total GULP energy -223070.365397 kJ/mol
# GULP energy per Si atom -12392.798078 kJ/mol
# Density = 1.912148 g / cm^3
# Si number density = 19.165103 Si / 1000 Ang^3
#
#
#
# Elastic Constant Matrix: (Units=GPa)
#
#
# Indices 1 2 3 4 5 6 
#
# 1 135.8109 37.9050 78.6939 0.0000 0.0000 0.0000
# 2 37.9050 63.1399 60.3347 0.0000 0.0000 0.0000
# 3 78.6939 60.3347 149.8549 0.0000 0.0000 0.0000
# 4 0.0000 0.0000 0.0000 83.2386 0.0000 0.0000
# 5 0.0000 0.0000 0.0000 0.0000 38.4627 0.0000
# 6 0.0000 0.0000 0.0000 0.0000 0.0000 18.3746
#
#
#
# Elastic Compliance Matrix: (Units=1/GPa)
#
#
# Indices 1 2 3 4 5 6 
#
# 1 0.010696 -0.001713 -0.004927 0.000000 0.000000 0.000000
# 2 -0.001713 0.026016 -0.009575 0.000000 0.000000 0.000000
# 3 -0.004927 -0.009575 0.013116 0.000000 0.000000 0.000000
# 4 0.000000 0.000000 0.000000 0.012014 0.000000 0.000000
# 5 0.000000 0.000000 0.000000 0.000000 0.025999 0.000000
# 6 0.000000 0.000000 0.000000 0.000000 0.000000 0.054423
#
#
# Mechanical properties :
#
#
# Convention : Reuss Voigt Hill
#
# Bulk Modulus (GPa) = 57.48010 78.07478 67.77744
# Shear Modulus (GPa) = 27.70188 39.47334 33.58761
#
# Velocity S-wave (km/s) = 3.80601 4.54326 4.19088
# Velocity P-wave (km/s) = 7.02648 8.26729 7.67201
#
# Compressibility (1/GPa) = 0.01739733
#
# Stress axis : x y z
#
# Youngs Moduli (GPa) = 93.48976 38.43820 76.24430
#
# Poissons Ratio (x) = 0.06584 0.37568
# Poissons Ratio (y) = 0.16014 0.73004
# Poissons Ratio (z) = 0.46066 0.36805
#
# Static dielectric constant tensor:
#      x y z
#    x 3.818770 0.000000 0.000000 
#    y 0.000000 3.370730 0.000000 
#    z 0.000000 0.000000 3.728590 
# 
# 
# High freq. dielectric constant tensor:
#      x y z
#    x 1.764890 0.000000 0.000000 
#    y 0.000000 1.738200 0.000000 
#    z 0.000000 0.000000 1.746140 
# 
# From -- ./inp_files/9108.got.cif
#   From: 2010.03.12/outbox.cif.g09.slc.cpg/sg24_5_cif.got.tgz:9108.got - 2010.04.14 03:06:53.
