data_PCOD8165008
_publ_section_title
;
Structure prediction by ZEFSAII (Michael W. Deem and Ramdas Pophale) SiO2 
 PCOD8165008
Probable space group: I 21 21 21
;
_chemical_formula_sum "Si O2"
_cell_formula_units_Z 56
_cell_length_a 5.498844
_cell_length_b 23.969449
_cell_length_c 20.397350
_cell_angle_alpha 90.000000
_cell_angle_beta 90.000000
_cell_angle_gamma 90.000000
_cell_volume 2688.457639
_symmetry_space_group_name_H-M "I 21 21 21"
_symmetry_group_IT_number 24
_symmetry_cell_setting 'orthorhombic'
loop_
_space_group_symop_operation_xyz
x,y,z
-x,1/2-y,z
x,-y,1/2-z
1/2-x,y,-z
1/2+x,1/2+y,1/2+z
1/2-x,-y,1/2+z
1/2+x,1/2-y,-z
-x,1/2+y,1/2-z
loop_
_atom_site_type_symbol
_atom_site_label
_atom_site_fract_x
_atom_site_fract_y
_atom_site_fract_z
Si Si1 0.945917 0.024371 0.054844
Si Si2 0.882601 0.029454 0.646503
Si Si3 0.510152 0.895953 0.797283
Si Si4 0.750000 0.383472 0.000000
Si Si5 0.261371 0.000000 0.250000
Si Si6 0.262880 0.914788 0.932025
Si Si7 0.008720 0.184350 0.893375
Si Si8 0.493052 0.684567 0.680981
O O1 0.129650 0.076568 0.055430
O O2 0.817700 0.016694 0.125864
O O3 0.750000 0.037498 0.000000
O O4 0.073703 0.965801 0.043082
O O5 0.778280 0.079894 0.690279
O O6 0.081971 0.993851 0.684421
O O7 0.998012 0.060498 0.584129
O O8 0.375261 0.884295 0.867593
O O9 0.523814 0.840461 0.754289
O O10 0.386867 0.943368 0.753457
O O11 0.545034 0.345913 0.036229
O O12 0.250000 0.877251 0.000000
O O13 0.249802 0.167285 0.851782
O O14 0.000000 0.250000 0.906847
O O15 0.749627 0.166301 0.860439
O O16 0.500000 0.750000 0.691742
#
# Coordination Sequence:
#
# PCOD8165008 Si02
#       8
#     8   8   8   4   4   8   8   8
#     4  11  21  37  55  87 119 171 209 252 311 385
#     4  10  21  37  57  83 130 165 210 253 317 386
#     4  10  23  37  62  92 122 173 211 271 328 393
#     4  12  26  40  64  94 122 172 228 272 328 386
#     4  10  22  38  52  88 130 160 206 262 312 394
#     4  10  19  38  58  87 130 163 208 248 319 399
#     4  10  26  47  69  92 129 169 219 288 337 388
#     4  10  24  49  71  96 126 171 228 281 341 394
#
# _framework density 20.829785000000001
#
# number of rings (size 3 to 8) (size 9 to 14) (size 15 to 20)
#    0.000    1.714    2.143    0.429    6.000    7.429 
#    2.571    0.000    0.000    0.000    3.714    0.000 
#    0.000    0.000    0.000    0.000    0.000    0.000 
#
# Total GULP energy -346889.289606 kJ/mol
# GULP energy per Si atom -12388.903200 kJ/mol
# Density = 2.078238 g / cm^3
# Si number density = 20.829785 Si / 1000 Ang^3
#
#
#
# Elastic Constant Matrix: (Units=GPa)
#
#
# Indices 1 2 3 4 5 6 
#
# 1 119.7353 21.4028 39.8024 0.0000 0.0000 0.0000
# 2 21.4028 48.6490 40.5474 0.0000 0.0000 0.0000
# 3 39.8024 40.5474 118.4218 0.0000 0.0000 0.0000
# 4 0.0000 0.0000 0.0000 55.9530 0.0000 0.0000
# 5 0.0000 0.0000 0.0000 0.0000 22.9387 0.0000
# 6 0.0000 0.0000 0.0000 0.0000 0.0000 22.2963
#
#
#
# Elastic Compliance Matrix: (Units=1/GPa)
#
#
# Indices 1 2 3 4 5 6 
#
# 1 0.009559 -0.002138 -0.002481 0.000000 0.000000 0.000000
# 2 -0.002138 0.029242 -0.009294 0.000000 0.000000 0.000000
# 3 -0.002481 -0.009294 0.012460 0.000000 0.000000 0.000000
# 4 0.000000 0.000000 0.000000 0.017872 0.000000 0.000000
# 5 0.000000 0.000000 0.000000 0.000000 0.043594 0.000000
# 6 0.000000 0.000000 0.000000 0.000000 0.000000 0.044851
#
#
# Mechanical properties :
#
#
# Convention : Reuss Voigt Hill
#
# Bulk Modulus (GPa) = 42.66872 54.47903 48.57387
# Shear Modulus (GPa) = 25.87794 32.57451 29.22622
#
# Velocity S-wave (km/s) = 3.52853 3.95884 3.74986
# Velocity P-wave (km/s) = 6.09341 6.86350 6.48989
#
# Compressibility (1/GPa) = 0.02343637
#
# Stress axis : x y z
#
# Youngs Moduli (GPa) = 104.61881 34.19735 80.25398
#
# Poissons Ratio (x) = 0.07310 0.19909
# Poissons Ratio (y) = 0.22363 0.74588
# Poissons Ratio (z) = 0.25954 0.31783
#
# Static dielectric constant tensor:
#      x y z
#    x 3.743540 0.000000 0.000000 
#    y 0.000000 3.381790 0.000000 
#    z 0.000000 0.000000 3.340520 
# 
# 
# High freq. dielectric constant tensor:
#      x y z
#    x 1.839050 0.000000 0.000000 
#    y 0.000000 1.762160 0.000000 
#    z 0.000000 0.000000 1.825900 
# 
# From -- ./inp_files/32278.got.cif
#   From: 2010.03.12/outbox.cif.g09.slc.cpg/sg24_17_cif.got.tgz:32278.got - 2010.04.14 03:06:53.
