data_PCOD8165441
_publ_section_title
;
Structure prediction by ZEFSAII (Michael W. Deem and Ramdas Pophale) SiO2 
 PCOD8165441
Probable space group: I 21 21 21
;
_chemical_formula_sum "Si O2"
_cell_formula_units_Z 60
_cell_length_a 18.708302
_cell_length_b 7.448969
_cell_length_c 18.320470
_cell_angle_alpha 90.000000
_cell_angle_beta 90.000000
_cell_angle_gamma 90.000000
_cell_volume 2553.096027
_symmetry_space_group_name_H-M "I 21 21 21"
_symmetry_group_IT_number 24
_symmetry_cell_setting 'orthorhombic'
loop_
_space_group_symop_operation_xyz
x,y,z
-x,1/2-y,z
x,-y,1/2-z
1/2-x,y,-z
1/2+x,1/2+y,1/2+z
1/2-x,-y,1/2+z
1/2+x,1/2-y,-z
-x,1/2+y,1/2-z
loop_
_atom_site_type_symbol
_atom_site_label
_atom_site_fract_x
_atom_site_fract_y
_atom_site_fract_z
Si Si1 0.266490 0.938331 0.167629
Si Si2 0.201976 0.453332 0.667026
Si Si3 0.344694 0.590353 0.594542
Si Si4 0.405451 0.425906 0.056017
Si Si5 0.500000 0.250000 0.424185
Si Si6 0.512465 0.957853 0.665275
Si Si7 0.391837 0.969940 0.423668
Si Si8 0.372128 0.001758 0.590014
O O1 0.310385 0.756905 0.163766
O O2 0.252532 0.000000 0.250000
O O3 0.319401 0.072826 0.122693
O O4 0.191868 0.890554 0.128281
O O5 0.212814 0.500000 0.750000
O O6 0.270344 0.520187 0.623209
O O7 0.129476 0.533400 0.634042
O O8 0.346246 0.566221 0.507333
O O9 0.410803 0.484178 0.632548
O O10 0.352417 0.799336 0.612516
O O11 0.463399 0.579646 0.033140
O O12 0.434512 0.219168 0.063925
O O13 0.560633 0.371904 0.383000
O O14 0.500000 0.750000 0.648690
O O15 0.448141 0.062892 0.624345
O O16 0.509747 0.000000 0.750000
O O17 0.371618 0.045444 0.503954
#
# Coordination Sequence:
#
# PCOD8165441 Si02
#       8
#     8   8   8   8   4   8   8   8
#     4  12  25  43  68  99 137 180 234 289 347 415
#     4  12  25  43  68  99 137 180 234 289 347 415
#     4  10  22  41  66  98 135 184 226 277 342 411
#     4  11  24  45  72 101 140 179 230 291 348 409
#     4  12  24  44  70 104 134 180 228 284 342 416
#     4  10  21  38  57  91 136 175 223 267 332 405
#     4  11  24  45  72 101 140 179 230 291 348 409
#     4  10  22  41  66  98 135 184 226 277 342 411
#
# _framework density 23.500878
#
# number of rings (size 3 to 8) (size 9 to 14) (size 15 to 20)
#    0.000    1.067    1.333    5.200    1.867    8.533 
#    2.400    0.667    0.000    0.000    0.000    0.000 
#    0.000    0.000    0.000    0.000    0.000    0.000 
#
# Total GULP energy -371687.113196 kJ/mol
# GULP energy per Si atom -12389.570440 kJ/mol
# Density = 2.344739 g / cm^3
# Si number density = 23.500878 Si / 1000 Ang^3
#
#
#
# Elastic Constant Matrix: (Units=GPa)
#
#
# Indices 1 2 3 4 5 6 
#
# 1 99.8924 14.7310 34.3678 0.0000 0.0000 0.0000
# 2 14.7310 97.3414 17.2992 0.0000 0.0000 0.0000
# 3 34.3678 17.2992 41.6081 0.0000 0.0000 0.0000
# 4 0.0000 0.0000 0.0000 24.5627 0.0000 0.0000
# 5 0.0000 0.0000 0.0000 0.0000 29.2456 0.0000
# 6 0.0000 0.0000 0.0000 0.0000 0.0000 34.9337
#
#
#
# Elastic Compliance Matrix: (Units=1/GPa)
#
#
# Indices 1 2 3 4 5 6 
#
# 1 0.013985 -0.000069 -0.011523 0.000000 0.000000 0.000000
# 2 -0.000069 0.011093 -0.004555 0.000000 0.000000 0.000000
# 3 -0.011523 -0.004555 0.035446 0.000000 0.000000 0.000000
# 4 0.000000 0.000000 0.000000 0.040712 0.000000 0.000000
# 5 0.000000 0.000000 0.000000 0.000000 0.034193 0.000000
# 6 0.000000 0.000000 0.000000 0.000000 0.000000 0.028626
#
#
# Mechanical properties :
#
#
# Convention : Reuss Voigt Hill
#
# Bulk Modulus (GPa) = 35.42366 41.29310 38.35838
# Shear Modulus (GPa) = 24.30015 29.24467 26.77241
#
# Velocity S-wave (km/s) = 3.21909 3.53144 3.37888
# Velocity P-wave (km/s) = 5.37799 5.85125 5.61961
#
# Compressibility (1/GPa) = 0.02822972
#
# Stress axis : x y z
#
# Youngs Moduli (GPa) = 71.50276 90.14627 28.21200
#
# Poissons Ratio (x) = 0.00618 0.32510
# Poissons Ratio (y) = 0.00490 0.12852
# Poissons Ratio (z) = 0.82395 0.41066
#
# Static dielectric constant tensor:
#      x y z
#    x 4.374400 0.000000 0.000000 
#    y 0.000000 4.398080 0.000000 
#    z 0.000000 0.000000 4.308010 
# 
# 
# High freq. dielectric constant tensor:
#      x y z
#    x 1.940510 0.000000 0.000000 
#    y 0.000000 1.940370 0.000000 
#    z 0.000000 0.000000 1.906750 
# 
# From -- ./inp_files/31180.got.cif
#   From: 2010.03.12/outbox.cif.g09.slc.cpg/sg24_16_cif.got.tgz:31180.got - 2010.04.14 03:06:53.
