data_PCOD8165117
_publ_section_title
;
Structure prediction by ZEFSAII (Michael W. Deem and Ramdas Pophale) SiO2 
 PCOD8165117
Probable space group: I 21 21 21
;
_chemical_formula_sum "Si O2"
_cell_formula_units_Z 56
_cell_length_a 13.782856
_cell_length_b 9.209416
_cell_length_c 21.998841
_cell_angle_alpha 90.000000
_cell_angle_beta 90.000000
_cell_angle_gamma 90.000000
_cell_volume 2792.358086
_symmetry_space_group_name_H-M "I 21 21 21"
_symmetry_group_IT_number 24
_symmetry_cell_setting 'orthorhombic'
loop_
_space_group_symop_operation_xyz
x,y,z
-x,1/2-y,z
x,-y,1/2-z
1/2-x,y,-z
1/2+x,1/2+y,1/2+z
1/2-x,-y,1/2+z
1/2+x,1/2-y,-z
-x,1/2+y,1/2-z
loop_
_atom_site_type_symbol
_atom_site_label
_atom_site_fract_x
_atom_site_fract_y
_atom_site_fract_z
Si Si1 0.306619 0.607969 0.936693
Si Si2 0.025428 0.411374 0.031586
Si Si3 0.890710 0.219765 0.787190
Si Si4 0.035286 0.537970 0.603930
Si Si5 0.654115 0.820549 0.159455
Si Si6 0.825667 0.563197 0.053702
Si Si7 0.826439 0.481312 0.854482
O O1 0.391676 0.488411 0.927803
O O2 0.239266 0.597462 0.877278
O O3 0.350280 0.769450 0.933794
O O4 0.250000 0.582165 0.000000
O O5 0.000000 0.250000 0.054323
O O6 0.926648 0.498095 0.034794
O O7 0.067797 0.416108 0.963237
O O8 0.896890 0.127467 0.848974
O O9 0.843790 0.131468 0.730472
O O10 0.826822 0.367678 0.798316
O O11 0.000000 0.250000 0.764752
O O12 0.057336 0.370626 0.622235
O O13 0.920842 0.570893 0.607201
O O14 0.658031 0.647510 0.163195
O O15 0.775586 0.474966 0.109353
O O16 0.750000 0.551154 0.000000
#
# Coordination Sequence:
#
# PCOD8165117 Si02
#       7
#     8   8   8   8   8   8   8
#     4  10  22  40  58  87 116 159 208 252 301 369
#     4  12  24  38  57  86 124 165 199 255 309 360
#     4  10  21  36  54  89 130 165 195 241 302 374
#     4  11  21  34  53  84 125 163 198 237 300 368
#     4  11  21  35  59  83 118 160 202 247 297 361
#     4  10  21  36  60  86 119 162 205 246 303 363
#     4  10  20  35  56  87 119 158 204 245 296 359
#
# _framework density 20.054732999999999
#
# number of rings (size 3 to 8) (size 9 to 14) (size 15 to 20)
#    0.000    1.429    2.857    3.857    0.000    5.143 
#    0.000    0.000    0.000    0.000    0.000   24.000 
#    0.000    0.000    0.000    0.000    0.000    0.000 
#
# Total GULP energy -346891.177062 kJ/mol
# GULP energy per Si atom -12388.970609 kJ/mol
# Density = 2.000909 g / cm^3
# Si number density = 20.054733 Si / 1000 Ang^3
#
#
#
# Elastic Constant Matrix: (Units=GPa)
#
#
# Indices 1 2 3 4 5 6 
#
# 1 75.8926 49.3033 55.4817 0.0000 0.0000 0.0000
# 2 49.3033 93.2899 41.7052 0.0000 0.0000 0.0000
# 3 55.4817 41.7052 101.5912 0.0000 0.0000 0.0000
# 4 0.0000 0.0000 0.0000 26.2670 0.0000 0.0000
# 5 0.0000 0.0000 0.0000 0.0000 23.9340 0.0000
# 6 0.0000 0.0000 0.0000 0.0000 0.0000 35.6159
#
#
#
# Elastic Compliance Matrix: (Units=1/GPa)
#
#
# Indices 1 2 3 4 5 6 
#
# 1 0.027507 -0.009580 -0.011090 0.000000 0.000000 0.000000
# 2 -0.009580 0.016465 -0.001527 0.000000 0.000000 0.000000
# 3 -0.011090 -0.001527 0.016527 0.000000 0.000000 0.000000
# 4 0.000000 0.000000 0.000000 0.038071 0.000000 0.000000
# 5 0.000000 0.000000 0.000000 0.000000 0.041782 0.000000
# 6 0.000000 0.000000 0.000000 0.000000 0.000000 0.028077
#
#
# Mechanical properties :
#
#
# Convention : Reuss Voigt Hill
#
# Bulk Modulus (GPa) = 62.09206 62.63934 62.36570
# Shear Modulus (GPa) = 22.91573 25.44893 24.18233
#
# Velocity S-wave (km/s) = 3.38399 3.56613 3.47625
# Velocity P-wave (km/s) = 6.80419 6.94683 6.87588
#
# Compressibility (1/GPa) = 0.01610512
#
# Stress axis : x y z
#
# Youngs Moduli (GPa) = 36.35415 60.73494 60.50781
#
# Poissons Ratio (x) = 0.58183 0.67101
# Poissons Ratio (y) = 0.34826 0.09242
# Poissons Ratio (z) = 0.40316 0.09277
#
# Static dielectric constant tensor:
#      x y z
#    x 3.789170 0.000000 0.000000 
#    y 0.000000 3.963670 0.000000 
#    z 0.000000 0.000000 3.799400 
# 
# 
# High freq. dielectric constant tensor:
#      x y z
#    x 1.753100 0.000000 0.000000 
#    y 0.000000 1.798220 0.000000 
#    z 0.000000 0.000000 1.766210 
# 
# From -- ./inp_files/33748.got.cif
#   From: 2010.03.12/outbox.cif.g09.slc.cpg/sg24_17_cif.got.tgz:33748.got - 2010.04.14 03:06:53.
