data_PCOD8165260
_publ_section_title
;
Structure prediction by ZEFSAII (Michael W. Deem and Ramdas Pophale) SiO2 
 PCOD8165260
Probable space group: I 21 21 21
;
_chemical_formula_sum "Si O2"
_cell_formula_units_Z 60
_cell_length_a 29.996645
_cell_length_b 11.964137
_cell_length_c 7.834118
_cell_angle_alpha 90.000000
_cell_angle_beta 90.000000
_cell_angle_gamma 90.000000
_cell_volume 2811.539372
_symmetry_space_group_name_H-M "I 21 21 21"
_symmetry_group_IT_number 24
_symmetry_cell_setting 'orthorhombic'
loop_
_space_group_symop_operation_xyz
x,y,z
-x,1/2-y,z
x,-y,1/2-z
1/2-x,y,-z
1/2+x,1/2+y,1/2+z
1/2-x,-y,1/2+z
1/2+x,1/2-y,-z
-x,1/2+y,1/2-z
loop_
_atom_site_type_symbol
_atom_site_label
_atom_site_fract_x
_atom_site_fract_y
_atom_site_fract_z
Si Si1 0.785268 0.106049 0.139737
Si Si2 0.951152 0.739153 0.549957
Si Si3 0.337589 0.000000 0.750000
Si Si4 0.371083 0.615003 0.454175
Si Si5 0.788921 0.289327 0.379996
Si Si6 0.632801 0.148511 0.440674
Si Si7 0.452181 0.776672 0.052986
Si Si8 0.593507 0.506241 0.446771
O O1 0.763727 0.203005 0.254328
O O2 0.799016 0.000000 0.250000
O O3 0.750000 0.065162 0.000000
O O4 0.829791 0.162174 0.061630
O O5 0.917604 0.833955 0.475253
O O6 0.956009 0.757319 0.750488
O O7 0.932856 0.617481 0.508121
O O8 0.000000 0.750000 0.463525
O O9 0.307699 0.109997 0.733576
O O10 0.365321 0.998166 0.574805
O O11 0.368359 0.482310 0.481235
O O12 0.364629 0.660322 0.262939
O O13 0.750000 0.337796 0.500000
O O14 0.826355 0.217191 0.479678
O O15 0.587849 0.201436 0.521790
O O16 0.500000 0.750000 0.964544
O O17 0.441086 0.906084 0.022037
O O18 0.610980 0.500000 0.250000
#
# Coordination Sequence:
#
# PCOD8165260 Si02
#       8
#     8   8   4   8   8   8   8   8
#     4  12  25  41  67  96 131 172 217 277 349 420
#     4   9  19  35  60  98 136 174 225 276 332 403
#     4  12  26  48  72  94 132 180 236 290 350 416
#     4  10  21  36  64  96 129 175 218 268 339 403
#     4  12  26  47  67  96 134 172 225 288 344 418
#     4  10  20  38  64  95 133 169 219 277 329 405
#     4   9  18  34  62  96 129 176 227 274 334 399
#     4  10  21  41  68  93 133 185 227 285 347 409
#
# _framework density 21.340623000000001
#
# number of rings (size 3 to 8) (size 9 to 14) (size 15 to 20)
#    0.000    1.600    2.667    2.000    3.733    0.533 
#    3.600    0.667    1.467    0.000    0.000    0.000 
#    0.000    0.000    0.000    0.000    0.000    0.000 
#
# Total GULP energy -371873.952296 kJ/mol
# GULP energy per Si atom -12395.798410 kJ/mol
# Density = 2.129205 g / cm^3
# Si number density = 21.340623 Si / 1000 Ang^3
#
#
#
# Elastic Constant Matrix: (Units=GPa)
#
#
# Indices 1 2 3 4 5 6 
#
# 1 143.9689 47.2817 41.2885 0.0000 0.0000 0.0000
# 2 47.2817 120.8631 35.9269 0.0000 0.0000 0.0000
# 3 41.2885 35.9269 71.8334 0.0001 0.0000 0.0000
# 4 0.0000 0.0000 0.0001 22.9193 0.0000 0.0000
# 5 0.0000 0.0000 0.0000 0.0000 22.1481 0.0000
# 6 0.0000 0.0000 0.0000 0.0000 0.0000 26.5146
#
#
#
# Elastic Compliance Matrix: (Units=1/GPa)
#
#
# Indices 1 2 3 4 5 6 
#
# 1 0.008823 -0.002284 -0.003929 0.000000 0.000000 0.000000
# 2 -0.002284 0.010310 -0.003844 0.000000 0.000000 0.000000
# 3 -0.003929 -0.003844 0.018102 0.000000 0.000000 0.000000
# 4 0.000000 0.000000 0.000000 0.043631 0.000000 0.000000
# 5 0.000000 0.000000 0.000000 0.000000 0.045151 0.000000
# 6 0.000000 0.000000 0.000000 0.000000 0.000000 0.037715
#
#
# Mechanical properties :
#
#
# Convention : Reuss Voigt Hill
#
# Bulk Modulus (GPa) = 58.40580 65.07328 61.73954
# Shear Modulus (GPa) = 26.37811 28.46097 27.41954
#
# Velocity S-wave (km/s) = 3.51957 3.65588 3.58837
# Velocity P-wave (km/s) = 6.62905 6.95554 6.79425
#
# Compressibility (1/GPa) = 0.01712159
#
# Stress axis : x y z
#
# Youngs Moduli (GPa) = 113.34417 96.99591 55.24291
#
# Poissons Ratio (x) = 0.22149 0.21705
# Poissons Ratio (y) = 0.25882 0.21234
# Poissons Ratio (z) = 0.44533 0.37283
#
# Static dielectric constant tensor:
#      x y z
#    x 4.101200 0.000000 0.000000 
#    y 0.000000 3.895910 0.000000 
#    z 0.000000 0.000000 3.694190 
# 
# 
# High freq. dielectric constant tensor:
#      x y z
#    x 1.841470 0.000000 0.000000 
#    y 0.000000 1.843810 0.000000 
#    z 0.000000 0.000000 1.822620 
# 
# From -- ./inp_files/16465.got.cif
#   From: 2010.03.12/outbox.cif.g09.slc.cpg/sg24_9_cif.got.tgz:16465.got - 2010.04.14 03:06:53.
