data_PCOD8165186
_publ_section_title
;
Structure prediction by ZEFSAII (Michael W. Deem and Ramdas Pophale) SiO2 
 PCOD8165186
Probable space group: I 21 21 21
;
_chemical_formula_sum "Si O2"
_cell_formula_units_Z 28
_cell_length_a 5.159902
_cell_length_b 23.925687
_cell_length_c 13.102909
_cell_angle_alpha 90.000000
_cell_angle_beta 90.000000
_cell_angle_gamma 90.000000
_cell_volume 1617.609151
_symmetry_space_group_name_H-M "I 21 21 21"
_symmetry_group_IT_number 24
_symmetry_cell_setting 'orthorhombic'
loop_
_space_group_symop_operation_xyz
x,y,z
-x,1/2-y,z
x,-y,1/2-z
1/2-x,y,-z
1/2+x,1/2+y,1/2+z
1/2-x,-y,1/2+z
1/2+x,1/2-y,-z
-x,1/2+y,1/2-z
loop_
_atom_site_type_symbol
_atom_site_label
_atom_site_fract_x
_atom_site_fract_y
_atom_site_fract_z
Si Si1 0.999640 0.500000 0.250000
Si Si2 0.250592 0.785151 0.119234
Si Si3 0.760891 0.913053 0.379486
Si Si4 0.739499 0.388292 0.765407
O O1 0.182257 0.523044 0.341947
O O2 0.816530 0.448760 0.287826
O O3 0.500000 0.750000 0.151498
O O4 0.260570 0.843647 0.176483
O O5 0.000000 0.750000 0.151592
O O6 0.250000 0.799211 0.000000
O O7 0.750000 0.911899 0.500000
O O8 0.497713 0.889472 0.332456
O O9 0.998289 0.873818 0.340693
#
# Coordination Sequence:
#
# PCOD8165186 Si02
#       4
#     4   8   8   8
#     4   8  22  34  56  86 116 150 200 214 306 326
#     4  10  21  39  61  87 116 150 190 239 291 337
#     4  10  20  37  56  81 118 151 183 235 283 338
#     4  10  20  38  56  86 116 149 191 231 286 342
#
# _framework density 17.309494999999998
#
# number of rings (size 3 to 8) (size 9 to 14) (size 15 to 20)
#    1.714    0.571    0.000    3.429    0.000    0.000 
#   10.286    0.000    0.000   17.143    0.000    0.000 
#    0.000    0.000    0.000    0.000    0.000    0.000 
#
# Total GULP energy -173458.151343 kJ/mol
# GULP energy per Si atom -12389.867953 kJ/mol
# Density = 1.727010 g / cm^3
# Si number density = 17.309495 Si / 1000 Ang^3
#
#
#
# Elastic Constant Matrix: (Units=GPa)
#
#
# Indices 1 2 3 4 5 6 
#
# 1 160.5917 50.9247 50.7750 0.0000 0.0000 0.0000
# 2 50.9247 120.8270 63.2351 0.0000 0.0003 0.0000
# 3 50.7750 63.2351 90.5694 0.0000 0.0009 0.0000
# 4 0.0000 0.0000 0.0000 31.5144 0.0007 0.0000
# 5 0.0000 0.0003 0.0009 0.0007 342.2654 0.0002
# 6 0.0000 0.0000 0.0000 0.0000 0.0002 11.3554
#
#
#
# Elastic Compliance Matrix: (Units=1/GPa)
#
#
# Indices 1 2 3 4 5 6 
#
# 1 0.007752 -0.001564 -0.003254 0.000000 0.000000 0.000000
# 2 -0.001564 0.013357 -0.008449 0.000000 0.000000 0.000000
# 3 -0.003254 -0.008449 0.018764 0.000000 0.000000 0.000000
# 4 0.000000 0.000000 0.000000 0.031732 0.000000 0.000000
# 5 0.000000 0.000000 0.000000 0.000000 0.002922 0.000000
# 6 0.000000 0.000000 0.000000 0.000000 0.000000 0.088064
#
#
# Mechanical properties :
#
#
# Convention : Reuss Voigt Hill
#
# Bulk Modulus (GPa) = 74.96498 77.98418 76.47458
# Shear Modulus (GPa) = 25.83029 90.83058 58.33043
#
# Velocity S-wave (km/s) = 3.86717 7.25178 5.81134
# Velocity P-wave (km/s) = 7.95881 10.73631 9.45016
#
# Compressibility (1/GPa) = 0.01333956
#
# Stress axis : x y z
#
# Youngs Moduli (GPa) = 129.00353 74.86435 53.29237
#
# Poissons Ratio (x) = 0.11711 0.17339
# Poissons Ratio (y) = 0.20181 0.45027
# Poissons Ratio (z) = 0.41972 0.63254
#
# Static dielectric constant tensor:
#      x y z
#    x 3.487030 0.000000 0.000000 
#    y 0.000000 3.017850 0.000000 
#    z 0.000000 0.000000 2.993600 
# 
# 
# High freq. dielectric constant tensor:
#      x y z
#    x 1.692260 0.000000 0.000000 
#    y 0.000000 1.650870 0.000000 
#    z 0.000000 0.000000 1.649920 
# 
# From -- ./inp_files/17343.got.cif
#   From: 2010.03.12/outbox.cif.g09.slc.cpg/sg24_9_cif.got.tgz:17343.got - 2010.04.14 03:06:53.
