data_PCOD8165168
_publ_section_title
;
Structure prediction by ZEFSAII (Michael W. Deem and Ramdas Pophale) SiO2 
 PCOD8165168
Probable space group: I 21 21 21
;
_chemical_formula_sum "Si O2"
_cell_formula_units_Z 32
_cell_length_a 15.529270
_cell_length_b 11.747634
_cell_length_c 8.066266
_cell_angle_alpha 90.000000
_cell_angle_beta 90.000000
_cell_angle_gamma 90.000000
_cell_volume 1471.546493
_symmetry_space_group_name_H-M "I 21 21 21"
_symmetry_group_IT_number 24
_symmetry_cell_setting 'orthorhombic'
loop_
_space_group_symop_operation_xyz
x,y,z
-x,1/2-y,z
x,-y,1/2-z
1/2-x,y,-z
1/2+x,1/2+y,1/2+z
1/2-x,-y,1/2+z
1/2+x,1/2-y,-z
-x,1/2+y,1/2-z
loop_
_atom_site_type_symbol
_atom_site_label
_atom_site_fract_x
_atom_site_fract_y
_atom_site_fract_z
Si Si1 0.750000 0.844532 0.500000
Si Si2 0.409211 0.771360 0.343077
Si Si3 0.156658 0.500000 0.250000
Si Si4 0.652594 0.500000 0.250000
Si Si5 0.090625 0.697549 0.032576
Si Si6 0.750000 0.655382 0.000000
O O1 0.669854 0.765918 0.454262
O O2 0.778247 0.919237 0.345844
O O3 0.500000 0.750000 0.434741
O O4 0.408806 0.908592 0.336408
O O5 0.408552 0.701249 0.168561
O O6 0.098966 0.572210 0.117113
O O7 0.713677 0.425382 0.361916
O O8 0.000000 0.750000 0.096391
O O9 0.174884 0.769717 0.086964
#
# Coordination Sequence:
#
# PCOD8165168 Si02
#       6
#     4   8   4   4   8   4
#     4  12  24  40  64  94 126 166 214 254 306 376
#     4  10  23  42  64  93 125 162 211 257 310 378
#     4  12  24  40  64  90 128 172 204 258 314 356
#     4  10  20  36  62  86 118 162 196 252 314 356
#     4  10  23  42  63  91 126 163 209 259 311 373
#     4  10  20  38  60  88 122 156 202 250 304 370
#
# _framework density 21.745830000000002
#
# number of rings (size 3 to 8) (size 9 to 14) (size 15 to 20)
#    0.000    1.500    0.000    6.000    0.000    9.000 
#    0.000    0.000    0.000    0.000    0.000    0.000 
#    0.000    0.000    0.000    0.000    0.000    0.000 
#
# Total GULP energy -198270.181141 kJ/mol
# GULP energy per Si atom -12391.886321 kJ/mol
# Density = 2.169634 g / cm^3
# Si number density = 21.745830 Si / 1000 Ang^3
#
#
#
# Elastic Constant Matrix: (Units=GPa)
#
#
# Indices 1 2 3 4 5 6 
#
# 1 206.7521 85.4790 32.9284 0.0000 0.0000 0.0000
# 2 85.4790 144.9976 40.2703 0.0000 0.0000 0.0000
# 3 32.9284 40.2703 53.4072 0.0000 0.0000 0.0000
# 4 0.0000 0.0000 0.0000 45.6570 0.0000 0.0000
# 5 0.0000 0.0000 0.0000 0.0000 64.8707 0.0000
# 6 0.0000 0.0000 0.0000 0.0000 0.0000 55.4328
#
#
#
# Elastic Compliance Matrix: (Units=1/GPa)
#
#
# Indices 1 2 3 4 5 6 
#
# 1 0.006478 -0.003428 -0.001410 0.000000 0.000000 0.000000
# 2 -0.003428 0.010537 -0.005832 0.000000 0.000000 0.000000
# 3 -0.001410 -0.005832 0.023991 0.000000 0.000000 0.000000
# 4 0.000000 0.000000 0.000000 0.021902 0.000000 0.000000
# 5 0.000000 0.000000 0.000000 0.000000 0.015415 0.000000
# 6 0.000000 0.000000 0.000000 0.000000 0.000000 0.018040
#
#
# Mechanical properties :
#
#
# Convention : Reuss Voigt Hill
#
# Bulk Modulus (GPa) = 50.84518 80.27916 65.56217
# Shear Modulus (GPa) = 40.23895 49.62405 44.93150
#
# Velocity S-wave (km/s) = 4.30632 4.78221 4.55049
# Velocity P-wave (km/s) = 6.93961 8.21523 7.60421
#
# Compressibility (1/GPa) = 0.01966755
#
# Stress axis : x y z
#
# Youngs Moduli (GPa) = 154.36105 94.90393 41.68292
#
# Poissons Ratio (x) = 0.32529 0.05876
# Poissons Ratio (y) = 0.52908 0.24309
# Poissons Ratio (z) = 0.21761 0.55347
#
# Static dielectric constant tensor:
#      x y z
#    x 4.238230 0.000000 0.000000 
#    y 0.000000 4.052930 0.000000 
#    z 0.000000 0.000000 3.741370 
# 
# 
# High freq. dielectric constant tensor:
#      x y z
#    x 1.874180 0.000000 0.000000 
#    y 0.000000 1.862100 0.000000 
#    z 0.000000 0.000000 1.836870 
# 
# From -- ./inp_files/10346.got.cif
#   From: 2010.03.12/outbox.cif.g09.slc.cpg/sg24_6_cif.got.tgz:10346.got - 2010.04.14 03:06:53.
