data_PCOD8165731
_publ_section_title
;
Structure prediction by ZEFSAII (Michael W. Deem and Ramdas Pophale) SiO2 
 PCOD8165731
Probable space group: I 21 21 21
;
_chemical_formula_sum "Si O2"
_cell_formula_units_Z 32
_cell_length_a 4.897204
_cell_length_b 8.508727
_cell_length_c 34.700895
_cell_angle_alpha 90.000000
_cell_angle_beta 90.000000
_cell_angle_gamma 90.000000
_cell_volume 1445.950619
_symmetry_space_group_name_H-M "I 21 21 21"
_symmetry_group_IT_number 24
_symmetry_cell_setting 'orthorhombic'
loop_
_space_group_symop_operation_xyz
x,y,z
-x,1/2-y,z
x,-y,1/2-z
1/2-x,y,-z
1/2+x,1/2+y,1/2+z
1/2-x,-y,1/2+z
1/2+x,1/2-y,-z
-x,1/2+y,1/2-z
loop_
_atom_site_type_symbol
_atom_site_label
_atom_site_fract_x
_atom_site_fract_y
_atom_site_fract_z
Si Si1 0.935648 0.432125 0.290425
Si Si2 0.495204 0.420055 0.527585
Si Si3 0.441224 0.566770 0.331169
Si Si4 0.742072 0.146937 0.909270
O O1 0.826504 0.500000 0.250000
O O2 0.705220 0.460807 0.322649
O O3 0.000000 0.250000 0.287269
O O4 0.207551 0.524633 0.301186
O O5 0.500000 0.250000 0.549426
O O6 0.250000 0.391991 0.500000
O O7 0.418654 0.556734 0.557147
O O8 0.750000 0.466812 0.500000
O O9 0.500000 0.750000 0.326263
O O10 0.353774 0.532574 0.375560
O O11 0.500000 0.250000 0.890055
O O12 0.000000 0.250000 0.925231
#
# Coordination Sequence:
#
# PCOD8165731 Si02
#       4
#     8   8   8   8
#     4  12  25  43  67  97 130 171 219 268 323 383
#     4  10  22  41  65  94 129 168 211 263 321 381
#     4  11  23  43  66  94 132 172 214 267 325 383
#     4  11  23  41  66  97 130 169 214 266 325 383
#
# _framework density 22.130770999999999
#
# number of rings (size 3 to 8) (size 9 to 14) (size 15 to 20)
#    0.000    1.000    0.000    8.250    0.000    3.000 
#    0.000   10.000    0.000    0.000    0.000    0.000 
#    0.000    0.000    0.000    0.000    0.000    0.000 
#
# Total GULP energy -198322.601658 kJ/mol
# GULP energy per Si atom -12395.162604 kJ/mol
# Density = 2.208040 g / cm^3
# Si number density = 22.130771 Si / 1000 Ang^3
#
#
#
# Elastic Constant Matrix: (Units=GPa)
#
#
# Indices 1 2 3 4 5 6 
#
# 1 152.5706 58.0474 40.5806 0.0000 0.0000 0.0000
# 2 58.0474 98.8851 78.4591 0.0000 0.0000 0.0000
# 3 40.5806 78.4591 101.7555 0.0000 0.0000 0.0000
# 4 0.0000 0.0000 0.0000 30.8954 0.0000 0.0000
# 5 0.0000 0.0000 0.0000 0.0000 32.4321 0.0000
# 6 0.0000 0.0000 0.0000 0.0000 0.0000 29.8217
#
#
#
# Elastic Compliance Matrix: (Units=1/GPa)
#
#
# Indices 1 2 3 4 5 6 
#
# 1 0.008494 -0.005920 0.001177 0.000000 0.000000 0.000000
# 2 -0.005920 0.030176 -0.020906 0.000000 0.000000 0.000000
# 3 0.001177 -0.020906 0.025478 0.000000 0.000000 0.000000
# 4 0.000000 0.000000 0.000000 0.032367 0.000000 0.000000
# 5 0.000000 0.000000 0.000000 0.000000 0.030834 0.000000
# 6 0.000000 0.000000 0.000000 0.000000 0.000000 0.033533
#
#
# Mechanical properties :
#
#
# Convention : Reuss Voigt Hill
#
# Bulk Modulus (GPa) = 77.82505 78.59836 78.21171
# Shear Modulus (GPa) = 23.09881 30.37144 26.73513
#
# Velocity S-wave (km/s) = 3.23420 3.70856 3.47948
# Velocity P-wave (km/s) = 7.01349 7.34373 7.18051
#
# Compressibility (1/GPa) = 0.01284933
#
# Stress axis : x y z
#
# Youngs Moduli (GPa) = 117.73655 33.13924 39.24996
#
# Poissons Ratio (x) = 0.19619 -0.04622
# Poissons Ratio (y) = 0.69701 0.82057
# Poissons Ratio (z) = -0.13863 0.69281
#
# Static dielectric constant tensor:
#      x y z
#    x 4.334130 0.000000 0.000000 
#    y 0.000000 4.754900 0.000000 
#    z 0.000000 0.000000 3.935950 
# 
# 
# High freq. dielectric constant tensor:
#      x y z
#    x 1.900460 0.000000 0.000000 
#    y 0.000000 1.867020 0.000000 
#    z 0.000000 0.000000 1.863030 
# 
# From -- ./inp_files/37714.got.cif
#   From: 2010.03.12/outbox.cif.g09.slc.cpg/sg24_19_cif.got.tgz:37714.got - 2010.04.14 03:06:53.
