data_PCOD8165368
_publ_section_title
;
Structure prediction by ZEFSAII (Michael W. Deem and Ramdas Pophale) SiO2 
 PCOD8165368
Probable space group: I 21 21 21
;
_chemical_formula_sum "Si O2"
_cell_formula_units_Z 44
_cell_length_a 8.150811
_cell_length_b 12.233093
_cell_length_c 19.563988
_cell_angle_alpha 90.000000
_cell_angle_beta 90.000000
_cell_angle_gamma 90.000000
_cell_volume 1950.717985
_symmetry_space_group_name_H-M "I 21 21 21"
_symmetry_group_IT_number 24
_symmetry_cell_setting 'orthorhombic'
loop_
_space_group_symop_operation_xyz
x,y,z
-x,1/2-y,z
x,-y,1/2-z
1/2-x,y,-z
1/2+x,1/2+y,1/2+z
1/2-x,-y,1/2+z
1/2+x,1/2-y,-z
-x,1/2+y,1/2-z
loop_
_atom_site_type_symbol
_atom_site_label
_atom_site_fract_x
_atom_site_fract_y
_atom_site_fract_z
Si Si1 0.450650 0.500000 0.250000
Si Si2 0.810682 0.780171 0.574874
Si Si3 0.191978 0.740345 0.928514
Si Si4 0.726065 0.021121 0.623557
Si Si5 0.734928 0.381207 0.191947
Si Si6 0.128208 0.098047 0.332010
O O1 0.337536 0.540930 0.189132
O O2 0.554212 0.390857 0.227089
O O3 0.750000 0.743451 0.500000
O O4 0.000000 0.750000 0.578690
O O5 0.270287 0.788469 0.636364
O O6 0.760196 0.904769 0.588186
O O7 0.228174 0.611820 0.931945
O O8 0.309422 0.795887 0.872153
O O9 0.000000 0.750000 0.913614
O O10 0.250000 0.793313 0.000000
O O11 0.540379 0.043720 0.644803
O O12 0.873353 0.369007 0.251295
O O13 0.743111 0.500031 0.155452
#
# Coordination Sequence:
#
# PCOD8165368 Si02
#       6
#     4   8   8   8   8   8
#     4  10  20  42  74 102 140 184 246 310 370 434
#     4  12  29  49  75 107 154 207 254 313 381 461
#     4  12  26  46  72 103 147 193 241 302 370 449
#     4  12  25  46  73 110 144 191 248 312 379 449
#     4  10  23  48  70 106 143 190 251 307 374 443
#     4  10  24  45  74 109 143 189 244 311 375 439
#
# _framework density 22.555796999999998
#
# number of rings (size 3 to 8) (size 9 to 14) (size 15 to 20)
#    0.000    1.091    1.818    5.455    5.091    1.455 
#    6.545    0.000    0.000    0.000    0.000    0.000 
#    0.000    0.000    0.000    0.000    0.000    0.000 
#
# Total GULP energy -272650.670641 kJ/mol
# GULP energy per Si atom -12393.212302 kJ/mol
# Density = 2.250446 g / cm^3
# Si number density = 22.555797 Si / 1000 Ang^3
#
#
#
# Elastic Constant Matrix: (Units=GPa)
#
#
# Indices 1 2 3 4 5 6 
#
# 1 121.7571 35.3239 48.6814 0.0000 0.0000 0.0000
# 2 35.3239 150.9152 63.1763 0.0000 0.0000 0.0000
# 3 48.6814 63.1763 134.2978 0.0000 0.0000 0.0000
# 4 0.0000 0.0000 0.0000 34.8614 0.0000 0.0000
# 5 0.0000 0.0000 0.0000 0.0000 22.8901 0.0000
# 6 0.0000 0.0000 0.0000 0.0000 0.0000 27.2363
#
#
#
# Elastic Compliance Matrix: (Units=1/GPa)
#
#
# Indices 1 2 3 4 5 6 
#
# 1 0.009724 -0.000997 -0.003056 0.000000 0.000000 0.000000
# 2 -0.000997 0.008353 -0.003568 0.000000 0.000000 0.000000
# 3 -0.003056 -0.003568 0.010232 0.000000 0.000000 0.000000
# 4 0.000000 0.000000 0.000000 0.028685 0.000000 0.000000
# 5 0.000000 0.000000 0.000000 0.000000 0.043687 0.000000
# 6 0.000000 0.000000 0.000000 0.000000 0.000000 0.036716
#
#
# Mechanical properties :
#
#
# Convention : Reuss Voigt Hill
#
# Bulk Modulus (GPa) = 76.52342 77.92593 77.22468
# Shear Modulus (GPa) = 31.84803 34.31679 33.08241
#
# Velocity S-wave (km/s) = 3.76169 3.90477 3.83390
# Velocity P-wave (km/s) = 7.27097 7.41301 7.34233
#
# Compressibility (1/GPa) = 0.01306789
#
# Stress axis : x y z
#
# Youngs Moduli (GPa) = 102.83725 119.71340 97.72820
#
# Poissons Ratio (x) = 0.11933 0.29866
# Poissons Ratio (y) = 0.10250 0.34872
# Poissons Ratio (z) = 0.31427 0.42717
#
# Static dielectric constant tensor:
#      x y z
#    x 4.145740 0.000000 0.000000 
#    y 0.000000 4.063040 0.000000 
#    z 0.000000 0.000000 4.448400 
# 
# 
# High freq. dielectric constant tensor:
#      x y z
#    x 1.896400 0.000000 0.000000 
#    y 0.000000 1.888370 0.000000 
#    z 0.000000 0.000000 1.896440 
# 
# From -- ./inp_files/29418.got.cif
#   From: 2010.03.12/outbox.cif.g09.slc.cpg/sg24_15_cif.got.tgz:29418.got - 2010.04.14 03:06:53.
