data_PCOD8165060
_publ_section_title
;
Structure prediction by ZEFSAII (Michael W. Deem and Ramdas Pophale) SiO2 
 PCOD8165060
Probable space group: I 21 21 21
;
_chemical_formula_sum "Si O2"
_cell_formula_units_Z 52
_cell_length_a 23.428892
_cell_length_b 13.740595
_cell_length_c 8.904026
_cell_angle_alpha 90.000000
_cell_angle_beta 90.000000
_cell_angle_gamma 90.000000
_cell_volume 2866.445633
_symmetry_space_group_name_H-M "I 21 21 21"
_symmetry_group_IT_number 24
_symmetry_cell_setting 'orthorhombic'
loop_
_space_group_symop_operation_xyz
x,y,z
-x,1/2-y,z
x,-y,1/2-z
1/2-x,y,-z
1/2+x,1/2+y,1/2+z
1/2-x,-y,1/2+z
1/2+x,1/2-y,-z
-x,1/2+y,1/2-z
loop_
_atom_site_type_symbol
_atom_site_label
_atom_site_fract_x
_atom_site_fract_y
_atom_site_fract_z
Si Si1 0.048629 0.829965 0.565480
Si Si2 0.750000 0.151059 0.000000
Si Si3 0.347470 0.466689 0.091062
Si Si4 0.133263 0.705287 0.403216
Si Si5 0.395319 0.632801 0.925036
Si Si6 0.016553 0.972958 0.080939
Si Si7 0.939825 0.302371 0.597351
O O1 0.101007 0.803395 0.453239
O O2 0.074069 0.835904 0.733578
O O3 0.000000 0.750000 0.547767
O O4 0.020919 0.932178 0.522473
O O5 0.716096 0.078184 0.113475
O O6 0.797126 0.216987 0.087797
O O7 0.373852 0.500000 0.250000
O O8 0.386460 0.381411 0.017153
O O9 0.345893 0.558849 0.977753
O O10 0.115320 0.675047 0.238138
O O11 0.453606 0.571537 0.927967
O O12 0.394068 0.723381 0.040359
O O13 0.033870 0.000000 0.250000
O O14 0.061114 0.894142 0.015418
O O15 0.000000 0.250000 0.591643
#
# Coordination Sequence:
#
# PCOD8165060 Si02
#       7
#     8   4   8   8   8   8   8
#     4  11  20  34  54  79 109 147 184 229 282 339
#     4   8  24  34  54  78 114 146 194 226 288 328
#     4  10  20  32  51  75 107 141 182 222 273 327
#     4  10  21  35  53  78 113 147 186 230 278 336
#     4  11  20  34  54  78 112 149 181 236 276 327
#     4  11  21  33  52  79 111 147 182 223 280 340
#     4   9  21  35  49  75 111 144 184 223 280 338
#
# _framework density 18.140934999999999
#
# number of rings (size 3 to 8) (size 9 to 14) (size 15 to 20)
#    0.923    0.923    0.000    5.538    2.154    3.692 
#    0.000    0.000    0.000    0.000    0.000    7.538 
#    0.000    0.000    0.000    0.000    0.000    0.000 
#
# Total GULP energy -322183.015976 kJ/mol
# GULP energy per Si atom -12391.654461 kJ/mol
# Density = 1.809965 g / cm^3
# Si number density = 18.140935 Si / 1000 Ang^3
#
#
#
# Elastic Constant Matrix: (Units=GPa)
#
#
# Indices 1 2 3 4 5 6 
#
# 1 72.7911 32.4005 22.1661 0.0000 0.0000 0.0000
# 2 32.4005 79.8963 34.7591 0.0000 0.0000 0.0000
# 3 22.1661 34.7591 121.8528 0.0000 0.0000 0.0000
# 4 0.0000 0.0000 0.0000 33.8369 0.0000 0.0000
# 5 0.0000 0.0000 0.0000 0.0000 19.9023 0.0000
# 6 0.0000 0.0000 0.0000 0.0000 0.0000 26.6009
#
#
#
# Elastic Compliance Matrix: (Units=1/GPa)
#
#
# Indices 1 2 3 4 5 6 
#
# 1 0.016937 -0.006311 -0.001281 0.000000 0.000000 0.000000
# 2 -0.006311 0.016641 -0.003599 0.000000 0.000000 0.000000
# 3 -0.001281 -0.003599 0.009466 0.000000 0.000000 0.000000
# 4 0.000000 0.000000 0.000000 0.029554 0.000000 0.000000
# 5 0.000000 0.000000 0.000000 0.000000 0.050245 0.000000
# 6 0.000000 0.000000 0.000000 0.000000 0.000000 0.037593
#
#
# Mechanical properties :
#
#
# Convention : Reuss Voigt Hill
#
# Bulk Modulus (GPa) = 48.39617 50.35463 49.37540
# Shear Modulus (GPa) = 26.35655 28.41567 27.38611
#
# Velocity S-wave (km/s) = 3.81580 3.96205 3.88961
# Velocity P-wave (km/s) = 6.79335 6.98199 6.88831
#
# Compressibility (1/GPa) = 0.02066279
#
# Stress axis : x y z
#
# Youngs Moduli (GPa) = 59.04145 60.09095 105.63902
#
# Poissons Ratio (x) = 0.37926 0.13529
# Poissons Ratio (y) = 0.37264 0.38019
# Poissons Ratio (z) = 0.07561 0.21626
#
# Static dielectric constant tensor:
#      x y z
#    x 3.030210 0.000000 0.000000 
#    y 0.000000 3.440090 0.000000 
#    z 0.000000 0.000000 3.403420 
# 
# 
# High freq. dielectric constant tensor:
#      x y z
#    x 1.660470 0.000000 0.000000 
#    y 0.000000 1.698170 0.000000 
#    z 0.000000 0.000000 1.712520 
# 
# From -- ./inp_files/16395.got.cif
#   From: 2010.03.12/outbox.cif.g09.slc.cpg/sg24_9_cif.got.tgz:16395.got - 2010.04.14 03:06:53.
