data_PCOD8165148
_publ_section_title
;
Structure prediction by ZEFSAII (Michael W. Deem and Ramdas Pophale) SiO2 
 PCOD8165148
Probable space group: I 21 21 21
;
_chemical_formula_sum "Si O2"
_cell_formula_units_Z 48
_cell_length_a 26.099636
_cell_length_b 9.711296
_cell_length_c 10.013505
_cell_angle_alpha 90.000000
_cell_angle_beta 90.000000
_cell_angle_gamma 90.000000
_cell_volume 2538.035902
_symmetry_space_group_name_H-M "I 21 21 21"
_symmetry_group_IT_number 24
_symmetry_cell_setting 'orthorhombic'
loop_
_space_group_symop_operation_xyz
x,y,z
-x,1/2-y,z
x,-y,1/2-z
1/2-x,y,-z
1/2+x,1/2+y,1/2+z
1/2-x,-y,1/2+z
1/2+x,1/2-y,-z
-x,1/2+y,1/2-z
loop_
_atom_site_type_symbol
_atom_site_label
_atom_site_fract_x
_atom_site_fract_y
_atom_site_fract_z
Si Si1 0.793703 0.765389 0.895843
Si Si2 0.866820 0.523842 0.899952
Si Si3 0.862709 0.987830 0.599177
Si Si4 0.202797 0.770113 0.595126
Si Si5 0.057759 0.088663 0.377381
Si Si6 0.938145 0.091842 0.376810
O O1 0.844185 0.675325 0.918840
O O2 0.811390 0.921471 0.919727
O O3 0.774262 0.742285 0.744726
O O4 0.750000 0.724379 0.000000
O O5 0.887393 0.500000 0.750000
O O6 0.820708 0.419612 0.933936
O O7 0.914781 0.515085 0.998215
O O8 0.908210 0.032270 0.502901
O O9 0.883967 0.000000 0.750000
O O10 0.844408 0.833316 0.569270
O O11 0.250000 0.739628 0.500000
O O12 0.074720 0.247126 0.353128
O O13 0.997880 0.075339 0.407218
O O14 0.074118 0.000000 0.250000
O O15 0.921674 0.000000 0.250000
#
# Coordination Sequence:
#
# PCOD8165148 Si02
#       6
#     8   8   8   8   8   8
#     4  10  20  36  57  80 113 153 192 237 285 338
#     4  10  21  38  59  84 116 153 191 237 288 342
#     4  10  21  38  59  84 116 153 191 237 288 342
#     4  10  22  36  55  86 117 147 192 239 283 342
#     4  10  22  40  61  87 118 152 193 241 291 346
#     4  10  22  40  61  87 118 152 193 241 291 346
#
# _framework density 18.912261999999998
#
# number of rings (size 3 to 8) (size 9 to 14) (size 15 to 20)
#    0.000    2.000    1.667    1.000    2.333    3.333 
#    0.000    0.000    0.000    0.000    0.000    0.000 
#    0.000    0.000    0.000    0.000    0.000    0.000 
#
# Total GULP energy -297639.546133 kJ/mol
# GULP energy per Si atom -12401.647756 kJ/mol
# Density = 1.886922 g / cm^3
# Si number density = 18.912262 Si / 1000 Ang^3
#
#
#
# Elastic Constant Matrix: (Units=GPa)
#
#
# Indices 1 2 3 4 5 6 
#
# 1 69.3353 26.0812 81.3479 0.0000 0.0000 0.0000
# 2 26.0812 82.3838 54.9224 0.0000 0.0000 0.0000
# 3 81.3479 54.9224 153.8365 0.0000 0.0000 0.0000
# 4 0.0000 0.0000 0.0000 29.8060 0.0000 0.0000
# 5 0.0000 0.0000 0.0000 0.0000 30.3267 0.0000
# 6 0.0000 0.0000 0.0000 0.0000 0.0000 11.7603
#
#
#
# Elastic Compliance Matrix: (Units=1/GPa)
#
#
# Indices 1 2 3 4 5 6 
#
# 1 0.038198 0.001802 -0.020842 0.000000 0.000000 0.000000
# 2 0.001802 0.016015 -0.006670 0.000000 0.000000 0.000000
# 3 -0.020842 -0.006670 0.019903 0.000000 0.000000 0.000000
# 4 0.000000 0.000000 0.000000 0.033550 0.000000 0.000000
# 5 0.000000 0.000000 0.000000 0.000000 0.032974 0.000000
# 6 0.000000 0.000000 0.000000 0.000000 0.000000 0.085032
#
#
# Mechanical properties :
#
#
# Convention : Reuss Voigt Hill
#
# Bulk Modulus (GPa) = 44.06334 70.02873 57.04604
# Shear Modulus (GPa) = 17.56488 23.92553 20.74521
#
# Velocity S-wave (km/s) = 3.05086 3.56066 3.31557
# Velocity P-wave (km/s) = 5.97994 7.34935 6.69973
#
# Compressibility (1/GPa) = 0.02269460
#
# Stress axis : x y z
#
# Youngs Moduli (GPa) = 26.17923 62.44229 50.24317
#
# Poissons Ratio (x) = -0.11252 1.04719
# Poissons Ratio (y) = -0.04718 0.33514
# Poissons Ratio (z) = 0.54564 0.41652
#
# Static dielectric constant tensor:
#      x y z
#    x 3.120550 0.000000 0.000000 
#    y 0.000000 3.680040 0.000000 
#    z 0.000000 0.000000 3.529180 
# 
# 
# High freq. dielectric constant tensor:
#      x y z
#    x 1.718030 0.000000 0.000000 
#    y 0.000000 1.753540 0.000000 
#    z 0.000000 0.000000 1.739180 
# 
# From -- ./inp_files/16810.got.cif
#   From: 2010.03.12/outbox.cif.g09.slc.cpg/sg24_9_cif.got.tgz:16810.got - 2010.04.14 03:06:53.
