data_PCOD8165244
_publ_section_title
;
Structure prediction by ZEFSAII (Michael W. Deem and Ramdas Pophale) SiO2 
 PCOD8165244
Probable space group: I 21 21 21
;
_chemical_formula_sum "Si O2"
_cell_formula_units_Z 64
_cell_length_a 22.494654
_cell_length_b 16.137408
_cell_length_c 8.914294
_cell_angle_alpha 90.000000
_cell_angle_beta 90.000000
_cell_angle_gamma 90.000000
_cell_volume 3235.936943
_symmetry_space_group_name_H-M "I 21 21 21"
_symmetry_group_IT_number 24
_symmetry_cell_setting 'orthorhombic'
loop_
_space_group_symop_operation_xyz
x,y,z
-x,1/2-y,z
x,-y,1/2-z
1/2-x,y,-z
1/2+x,1/2+y,1/2+z
1/2-x,-y,1/2+z
1/2+x,1/2-y,-z
-x,1/2+y,1/2-z
loop_
_atom_site_type_symbol
_atom_site_label
_atom_site_fract_x
_atom_site_fract_y
_atom_site_fract_z
Si Si1 0.469359 0.079639 0.672982
Si Si2 0.776892 0.075777 0.162097
Si Si3 0.590374 0.886997 0.655001
Si Si4 0.247014 0.739252 0.167896
Si Si5 0.451729 0.083866 0.321557
Si Si6 0.118454 0.774586 0.185299
Si Si7 0.376253 0.243548 0.341912
Si Si8 0.079194 0.590448 0.693489
O O1 0.537697 0.086828 0.730464
O O2 0.465564 0.069957 0.495584
O O3 0.426362 0.152674 0.725602
O O4 0.440428 0.000000 0.750000
O O5 0.847930 0.064828 0.179184
O O6 0.754793 0.162622 0.222078
O O7 0.746972 0.000000 0.250000
O O8 0.750000 0.068296 0.000000
O O9 0.603214 0.791176 0.686907
O O10 0.573205 0.904673 0.484839
O O11 0.189064 0.798202 0.194833
O O12 0.308868 0.787842 0.190477
O O13 0.250000 0.702614 0.000000
O O14 0.413420 0.165174 0.284151
O O15 0.513114 0.103350 0.245543
O O16 0.422914 0.000000 0.250000
O O17 0.107620 0.740013 0.016702
O O18 0.383963 0.331080 0.256180
O O19 0.104143 0.500000 0.750000
#
# Coordination Sequence:
#
# PCOD8165244 Si02
#       8
#     8   8   8   8   8   8   8   8
#     4  11  21  37  59  83 113 144 184 239 289 339
#     4  11  23  37  53  78 111 147 187 230 275 328
#     4  11  23  37  57  83 113 149 189 231 280 339
#     4   9  19  37  58  78 104 144 188 226 273 336
#     4  10  22  38  57  85 115 148 190 235 289 343
#     4   9  21  38  58  83 110 147 189 231 285 339
#     4  10  20  38  61  81 113 153 188 233 283 339
#     4  11  23  36  55  85 118 150 189 233 284 341
#
# _framework density 19.777888999999998
#
# number of rings (size 3 to 8) (size 9 to 14) (size 15 to 20)
#    0.000    1.750    0.000    4.500    0.000   10.000 
#    0.000    0.625    0.000    0.000    0.000    0.000 
#    0.000    0.000    0.000    0.000    0.000    0.000 
#
# Total GULP energy -396443.777301 kJ/mol
# GULP energy per Si atom -12388.868041 kJ/mol
# Density = 1.973287 g / cm^3
# Si number density = 19.777889 Si / 1000 Ang^3
#
#
#
# Elastic Constant Matrix: (Units=GPa)
#
#
# Indices 1 2 3 4 5 6 
#
# 1 104.5505 61.3638 33.4463 0.0000 0.0000 0.0000
# 2 61.3638 99.9333 47.4209 0.0000 0.0000 0.0000
# 3 33.4463 47.4209 100.0979 0.0000 0.0000 0.0000
# 4 0.0000 0.0000 0.0000 23.4722 0.0000 0.0000
# 5 0.0000 0.0000 0.0000 0.0000 38.4187 0.0000
# 6 0.0000 0.0000 0.0000 0.0000 0.0000 -6.1711
#
#
#
# Elastic Compliance Matrix: (Units=1/GPa)
#
#
# Indices 1 2 3 4 5 6 
#
# 1 0.015009 -0.008819 -0.000837 0.000000 0.000000 0.000000
# 2 -0.008819 0.018090 -0.005624 0.000000 0.000000 0.000000
# 3 -0.000837 -0.005624 0.012934 0.000000 0.000000 0.000000
# 4 0.000000 0.000000 0.000000 0.042604 0.000000 0.000000
# 5 0.000000 0.000000 0.000000 0.000000 0.026029 0.000000
# 6 0.000000 0.000000 0.000000 0.000000 0.000000 -0.162047
#
#
# Mechanical properties :
#
#
# Convention : Reuss Voigt Hill
#
# Bulk Modulus (GPa) = 64.62368 65.44929 65.03649
# Shear Modulus (GPa) = -428.64905 21.96735 -203.34085
#
# Velocity S-wave (km/s) = -14.73777 3.33634 -10.15064
# Velocity P-wave (km/s) = 16.02676 6.92860 10.21889
#
# Compressibility (1/GPa) = 0.01547420
#
# Stress axis : x y z
#
# Youngs Moduli (GPa) = 66.62889 55.27825 77.31545
#
# Poissons Ratio (x) = 0.48748 0.06472
# Poissons Ratio (y) = 0.58758 0.43479
# Poissons Ratio (z) = 0.05577 0.31086
#
# Static dielectric constant tensor:
#      x y z
#    x 3.885220 0.000000 0.000000 
#    y 0.000000 3.394030 0.000000 
#    z 0.000000 0.000000 4.238780 
# 
# 
# High freq. dielectric constant tensor:
#      x y z
#    x 1.780960 0.000000 0.000000 
#    y 0.000000 1.758800 0.000000 
#    z 0.000000 0.000000 1.777590 
# 
# From -- ./inp_files/16068.got.cif
#   From: 2010.03.12/outbox.cif.g09.slc.cpg/sg24_9_cif.got.tgz:16068.got - 2010.04.14 03:06:53.
