data_PCOD8165118
_publ_section_title
;
Structure prediction by ZEFSAII (Michael W. Deem and Ramdas Pophale) SiO2 
 PCOD8165118
Probable space group: I 21 21 21
;
_chemical_formula_sum "Si O2"
_cell_formula_units_Z 64
_cell_length_a 22.757256
_cell_length_b 9.406922
_cell_length_c 15.437279
_cell_angle_alpha 90.000000
_cell_angle_beta 90.000000
_cell_angle_gamma 90.000000
_cell_volume 3304.746804
_symmetry_space_group_name_H-M "I 21 21 21"
_symmetry_group_IT_number 24
_symmetry_cell_setting 'orthorhombic'
loop_
_space_group_symop_operation_xyz
x,y,z
-x,1/2-y,z
x,-y,1/2-z
1/2-x,y,-z
1/2+x,1/2+y,1/2+z
1/2-x,-y,1/2+z
1/2+x,1/2-y,-z
-x,1/2+y,1/2-z
loop_
_atom_site_type_symbol
_atom_site_label
_atom_site_fract_x
_atom_site_fract_y
_atom_site_fract_z
Si Si1 0.489692 0.586514 0.331374
Si Si2 0.082462 0.315682 0.467557
Si Si3 0.973125 0.485858 0.484278
Si Si4 0.634960 0.011206 0.391468
Si Si5 0.377138 0.888795 0.635452
Si Si6 0.691216 0.847206 0.534792
Si Si7 0.761594 0.073516 0.334892
Si Si8 0.654158 0.687958 0.824072
O O1 0.500000 0.750000 0.308295
O O2 0.517065 0.500000 0.250000
O O3 0.524322 0.557659 0.421101
O O4 0.421095 0.539690 0.336166
O O5 0.055614 0.166835 0.495525
O O6 0.122832 0.351710 0.549285
O O7 0.115735 0.300719 0.377219
O O8 0.038655 0.449587 0.451094
O O9 0.939673 0.586447 0.413968
O O10 0.650122 0.879033 0.453315
O O11 0.690810 0.059274 0.334071
O O12 0.341492 0.762779 0.594015
O O13 0.381980 0.840351 0.735337
O O14 0.340051 0.035511 0.628389
O O15 0.750000 0.771670 0.500000
O O16 0.709322 0.995073 0.582512
O O17 0.781203 0.239491 0.323061
O O18 0.787466 0.000000 0.250000
#
# Coordination Sequence:
#
# PCOD8165118 Si02
#       8
#     8   8   8   8   8   8   8   8
#     4  11  24  40  65  91 121 159 201 256 313 370
#     4   9  18  36  62  88 116 155 201 251 299 367
#     4   9  20  38  63  82 124 158 196 246 311 366
#     4  10  21  36  62  87 119 153 210 247 308 371
#     4  10  20  38  60  82 124 161 192 250 309 362
#     4  10  20  35  57  83 113 153 198 243 297 358
#     4  11  20  36  58  85 116 156 201 259 295 363
#     4  10  20  35  62  87 119 156 202 249 303 362
#
# _framework density 19.366083
#
# number of rings (size 3 to 8) (size 9 to 14) (size 15 to 20)
#    0.000    2.000    2.500    1.125    3.500    0.000 
#    4.500    0.000   63.250    0.000    0.000    0.000 
#    0.000    0.000    0.000    0.000    0.000    0.000 
#
# Total GULP energy -396472.616825 kJ/mol
# GULP energy per Si atom -12389.769276 kJ/mol
# Density = 1.932200 g / cm^3
# Si number density = 19.366083 Si / 1000 Ang^3
#
#
#
# Elastic Constant Matrix: (Units=GPa)
#
#
# Indices 1 2 3 4 5 6 
#
# 1 67.8226 35.1422 32.9881 0.0000 0.0000 0.0000
# 2 35.1422 78.8705 35.7491 0.0000 0.0000 0.0000
# 3 32.9881 35.7491 87.3206 0.0000 0.0000 0.0000
# 4 0.0000 0.0000 0.0000 33.6949 0.0000 0.0000
# 5 0.0000 0.0000 0.0000 0.0000 31.2859 0.0000
# 6 0.0000 0.0000 0.0000 0.0000 0.0000 18.8982
#
#
#
# Elastic Compliance Matrix: (Units=1/GPa)
#
#
# Indices 1 2 3 4 5 6 
#
# 1 0.020802 -0.007007 -0.004990 0.000000 0.000000 0.000000
# 2 -0.007007 0.017928 -0.004693 0.000000 0.000000 0.000000
# 3 -0.004990 -0.004693 0.015258 0.000000 0.000000 0.000000
# 4 0.000000 0.000000 0.000000 0.029678 0.000000 0.000000
# 5 0.000000 0.000000 0.000000 0.000000 0.031963 0.000000
# 6 0.000000 0.000000 0.000000 0.000000 0.000000 0.052915
#
#
# Mechanical properties :
#
#
# Convention : Reuss Voigt Hill
#
# Bulk Modulus (GPa) = 48.52180 49.08583 48.80382
# Shear Modulus (GPa) = 23.94704 25.45141 24.69922
#
# Velocity S-wave (km/s) = 3.52027 3.62916 3.57513
# Velocity P-wave (km/s) = 6.45232 6.55457 6.50365
#
# Compressibility (1/GPa) = 0.02060929
#
# Stress axis : x y z
#
# Youngs Moduli (GPa) = 48.07218 55.77829 65.53785
#
# Poissons Ratio (x) = 0.39084 0.32703
# Poissons Ratio (y) = 0.33684 0.30755
# Poissons Ratio (z) = 0.23988 0.26175
#
# Static dielectric constant tensor:
#      x y z
#    x 3.742020 0.000000 0.000000 
#    y 0.000000 3.514470 0.000000 
#    z 0.000000 0.000000 3.621700 
# 
# 
# High freq. dielectric constant tensor:
#      x y z
#    x 1.743280 0.000000 0.000000 
#    y 0.000000 1.750950 0.000000 
#    z 0.000000 0.000000 1.761290 
# 
# From -- ./inp_files/27900.got.cif
#   From: 2010.03.12/outbox.cif.g09.slc.cpg/sg24_14_cif.got.tgz:27900.got - 2010.04.14 03:06:53.
