data_PCOD8165550
_publ_section_title
;
Structure prediction by ZEFSAII (Michael W. Deem and Ramdas Pophale) SiO2 
 PCOD8165550
Probable space group: I 21 21 21
;
_chemical_formula_sum "Si O2"
_cell_formula_units_Z 40
_cell_length_a 9.515147
_cell_length_b 7.536404
_cell_length_c 25.445805
_cell_angle_alpha 90.000000
_cell_angle_beta 90.000000
_cell_angle_gamma 90.000000
_cell_volume 1824.718471
_symmetry_space_group_name_H-M "I 21 21 21"
_symmetry_group_IT_number 24
_symmetry_cell_setting 'orthorhombic'
loop_
_space_group_symop_operation_xyz
x,y,z
-x,1/2-y,z
x,-y,1/2-z
1/2-x,y,-z
1/2+x,1/2+y,1/2+z
1/2-x,-y,1/2+z
1/2+x,1/2-y,-z
-x,1/2+y,1/2-z
loop_
_atom_site_type_symbol
_atom_site_label
_atom_site_fract_x
_atom_site_fract_y
_atom_site_fract_z
Si Si1 0.343756 0.675512 0.587279
Si Si2 0.250000 0.592304 0.000000
Si Si3 0.369404 0.535448 0.811987
Si Si4 0.000000 0.750000 0.941552
Si Si5 0.607175 0.594528 0.385827
Si Si6 0.187053 0.927715 0.191952
O O1 0.500000 0.750000 0.582077
O O2 0.326017 0.521974 0.544777
O O3 0.305871 0.607260 0.647110
O O4 0.227559 0.827754 0.574863
O O5 0.363667 0.724747 0.023400
O O6 0.357286 0.500000 0.750000
O O7 0.285708 0.719556 0.817516
O O8 0.531576 0.538235 0.830955
O O9 0.978889 0.570534 0.908566
O O10 0.500000 0.750000 0.370937
O O11 0.688120 0.533631 0.334270
O O12 0.186389 0.000000 0.250000
#
# Coordination Sequence:
#
# PCOD8165550 Si02
#       6
#     8   4   8   4   8   8
#     4  12  26  46  76 109 145 193 249 303 369 435
#     4  12  30  48  76 110 142 196 248 306 370 438
#     4  10  21  40  74 111 146 184 250 314 358 425
#     4  12  30  52  74 102 146 190 248 298 370 442
#     4  12  26  50  71 103 152 189 237 301 364 438
#     4  10  21  40  70 108 147 192 243 301 362 434
#
# _framework density 21.921188000000001
#
# number of rings (size 3 to 8) (size 9 to 14) (size 15 to 20)
#    0.000    0.800    4.000    2.400    8.400    1.600 
#    1.800    1.000    0.000    0.000    0.000    0.000 
#    0.000    0.000    0.000    0.000    0.000    0.000 
#
# Total GULP energy -247882.211627 kJ/mol
# GULP energy per Si atom -12394.110581 kJ/mol
# Density = 2.187129 g / cm^3
# Si number density = 21.921188 Si / 1000 Ang^3
#
#
#
# Elastic Constant Matrix: (Units=GPa)
#
#
# Indices 1 2 3 4 5 6 
#
# 1 128.5459 75.3271 34.1591 0.0000 0.0000 0.0000
# 2 75.3271 144.6975 40.0064 0.0000 0.0000 0.0000
# 3 34.1591 40.0064 88.0782 0.0000 0.0000 0.0000
# 4 0.0000 0.0000 0.0000 1.5927 0.0000 0.0000
# 5 0.0000 0.0000 0.0000 0.0000 38.1696 0.0000
# 6 0.0000 0.0000 0.0000 0.0000 0.0000 45.8869
#
#
#
# Elastic Compliance Matrix: (Units=1/GPa)
#
#
# Indices 1 2 3 4 5 6 
#
# 1 0.011491 -0.005432 -0.001989 0.000000 0.000000 0.000000
# 2 -0.005432 0.010471 -0.002650 0.000000 0.000000 0.000000
# 3 -0.001989 -0.002650 0.013328 0.000000 0.000000 0.000000
# 4 0.000000 0.000000 0.000000 0.627859 0.000000 0.000000
# 5 0.000000 0.000000 0.000000 0.000000 0.026199 0.000000
# 6 0.000000 0.000000 0.000000 0.000000 0.000000 0.021793
#
#
# Mechanical properties :
#
#
# Convention : Reuss Voigt Hill
#
# Bulk Modulus (GPa) = 66.00986 73.36743 69.68865
# Shear Modulus (GPa) = 6.79041 31.25177 19.02109
#
# Velocity S-wave (km/s) = 1.76192 3.77986 2.94888
# Velocity P-wave (km/s) = 5.85806 7.25198 6.59197
#
# Compressibility (1/GPa) = 0.01514925
#
# Stress axis : x y z
#
# Youngs Moduli (GPa) = 87.02381 95.49833 75.02724
#
# Poissons Ratio (x) = 0.51876 0.14925
# Poissons Ratio (y) = 0.47272 0.19879
# Poissons Ratio (z) = 0.17311 0.25303
#
# Static dielectric constant tensor:
#      x y z
#    x 4.250730 0.000000 0.000000 
#    y 0.000000 4.255040 0.000000 
#    z 0.000000 0.000000 3.842850 
# 
# 
# High freq. dielectric constant tensor:
#      x y z
#    x 1.867140 0.000000 0.000000 
#    y 0.000000 1.882880 0.000000 
#    z 0.000000 0.000000 1.851260 
# 
# From -- ./inp_files/35051.got.cif
#   From: 2010.03.12/outbox.cif.g09.slc.cpg/sg24_18_cif.got.tgz:35051.got - 2010.04.14 03:06:53.
