data_PCOD8165341
_publ_section_title
;
Structure prediction by ZEFSAII (Michael W. Deem and Ramdas Pophale) SiO2 
 PCOD8165341
Probable space group: I 21 21 21
;
_chemical_formula_sum "Si O2"
_cell_formula_units_Z 36
_cell_length_a 12.893233
_cell_length_b 8.408464
_cell_length_c 16.416858
_cell_angle_alpha 90.000000
_cell_angle_beta 90.000000
_cell_angle_gamma 90.000000
_cell_volume 1779.789097
_symmetry_space_group_name_H-M "I 21 21 21"
_symmetry_group_IT_number 24
_symmetry_cell_setting 'orthorhombic'
loop_
_space_group_symop_operation_xyz
x,y,z
-x,1/2-y,z
x,-y,1/2-z
1/2-x,y,-z
1/2+x,1/2+y,1/2+z
1/2-x,-y,1/2+z
1/2+x,1/2-y,-z
-x,1/2+y,1/2-z
loop_
_atom_site_type_symbol
_atom_site_label
_atom_site_fract_x
_atom_site_fract_y
_atom_site_fract_z
Si Si1 0.912292 0.644563 0.444489
Si Si2 0.775508 0.433738 0.835638
Si Si3 0.831774 0.072381 0.835679
Si Si4 0.250000 0.620994 0.500000
Si Si5 0.029005 0.067999 0.586729
O O1 0.832659 0.564015 0.383506
O O2 0.850381 0.764524 0.504116
O O3 0.971955 0.513458 0.498162
O O4 0.000000 0.750000 0.398008
O O5 0.741933 0.500000 0.750000
O O6 0.827372 0.261626 0.827568
O O7 0.856072 0.555379 0.876399
O O8 0.790132 0.000000 0.750000
O O9 0.759876 0.020353 0.915068
O O10 0.948850 0.014856 0.851065
O O11 0.000000 0.250000 0.574474
#
# Coordination Sequence:
#
# PCOD8165341 Si02
#       5
#     8   8   8   4   8
#     4  11  20  43  67  89 125 178 214 259 336 392
#     4  11  23  42  63  93 131 171 214 269 327 388
#     4  11  22  40  65  97 126 171 216 272 330 387
#     4  10  20  40  70  88 132 170 214 264 326 396
#     4  12  22  38  64  98 130 165 217 275 325 383
#
# _framework density 20.227115999999999
#
# number of rings (size 3 to 8) (size 9 to 14) (size 15 to 20)
#    0.000    0.889    6.667    2.667    0.000    0.000 
#    8.000    5.556    0.000    0.000    0.000    0.000 
#    0.000    0.000    0.000    0.000    0.000    0.000 
#
# Total GULP energy -223109.195998 kJ/mol
# GULP energy per Si atom -12394.955333 kJ/mol
# Density = 2.018108 g / cm^3
# Si number density = 20.227116 Si / 1000 Ang^3
#
#
#
# Elastic Constant Matrix: (Units=GPa)
#
#
# Indices 1 2 3 4 5 6 
#
# 1 96.6542 59.1329 56.3363 0.0000 0.0000 0.0000
# 2 59.1329 90.4534 60.1750 0.0000 0.0000 0.0000
# 3 56.3363 60.1750 168.5066 0.0000 0.0000 0.0000
# 4 0.0000 0.0000 0.0000 29.7692 0.0000 0.0000
# 5 0.0000 0.0000 0.0000 0.0000 37.4995 0.0000
# 6 0.0000 0.0000 0.0000 0.0000 0.0000 27.7791
#
#
#
# Elastic Compliance Matrix: (Units=1/GPa)
#
#
# Indices 1 2 3 4 5 6 
#
# 1 0.017938 -0.010148 -0.002373 0.000000 0.000000 0.000000
# 2 -0.010148 0.020241 -0.003836 0.000000 0.000000 0.000000
# 3 -0.002373 -0.003836 0.008098 0.000000 0.000000 0.000000
# 4 0.000000 0.000000 0.000000 0.033592 0.000000 0.000000
# 5 0.000000 0.000000 0.000000 0.000000 0.026667 0.000000
# 6 0.000000 0.000000 0.000000 0.000000 0.000000 0.035998
#
#
# Mechanical properties :
#
#
# Convention : Reuss Voigt Hill
#
# Bulk Modulus (GPa) = 73.72833 78.54474 76.13653
# Shear Modulus (GPa) = 27.81364 31.00758 29.41061
#
# Velocity S-wave (km/s) = 3.71221 3.91957 3.81730
# Velocity P-wave (km/s) = 7.40968 7.70712 7.55986
#
# Compressibility (1/GPa) = 0.01356331
#
# Stress axis : x y z
#
# Youngs Moduli (GPa) = 55.74800 49.40446 123.49299
#
# Poissons Ratio (x) = 0.50135 0.29308
# Poissons Ratio (y) = 0.56572 0.47366
# Poissons Ratio (z) = 0.13230 0.18949
#
# Static dielectric constant tensor:
#      x y z
#    x 3.692110 0.000000 0.000000 
#    y 0.000000 3.548020 0.000000 
#    z 0.000000 0.000000 3.795660 
# 
# 
# High freq. dielectric constant tensor:
#      x y z
#    x 1.788080 0.000000 0.000000 
#    y 0.000000 1.773670 0.000000 
#    z 0.000000 0.000000 1.791580 
# 
# From -- ./inp_files/30568.got.cif
#   From: 2010.03.12/outbox.cif.g09.slc.cpg/sg24_16_cif.got.tgz:30568.got - 2010.04.14 03:06:53.
