data_PCOD8165866
_publ_section_title
;
Structure prediction by ZEFSAII (Michael W. Deem and Ramdas Pophale) SiO2 
 PCOD8165866
Probable space group: I 21 21 21
;
_chemical_formula_sum "Si O2"
_cell_formula_units_Z 56
_cell_length_a 19.552761
_cell_length_b 8.107811
_cell_length_c 16.374758
_cell_angle_alpha 90.000000
_cell_angle_beta 90.000000
_cell_angle_gamma 90.000000
_cell_volume 2595.891871
_symmetry_space_group_name_H-M "I 21 21 21"
_symmetry_group_IT_number 24
_symmetry_cell_setting 'orthorhombic'
loop_
_space_group_symop_operation_xyz
x,y,z
-x,1/2-y,z
x,-y,1/2-z
1/2-x,y,-z
1/2+x,1/2+y,1/2+z
1/2-x,-y,1/2+z
1/2+x,1/2-y,-z
-x,1/2+y,1/2-z
loop_
_atom_site_type_symbol
_atom_site_label
_atom_site_fract_x
_atom_site_fract_y
_atom_site_fract_z
Si Si1 0.075732 0.807947 0.022785
Si Si2 0.618556 0.323795 0.221805
Si Si3 0.736575 0.001699 0.094499
Si Si4 0.536454 0.601599 0.429572
Si Si5 0.407432 0.408609 0.370112
Si Si6 0.810960 0.317425 0.347599
Si Si7 0.227462 0.173752 0.175423
O O1 0.120627 0.778161 0.102602
O O2 0.000000 0.750000 0.045504
O O3 0.106989 0.716822 0.944339
O O4 0.077342 0.000159 0.997611
O O5 0.590638 0.500000 0.250000
O O6 0.585923 0.300614 0.132545
O O7 0.591593 0.180641 0.282129
O O8 0.699855 0.326441 0.220125
O O9 0.657436 0.034287 0.122728
O O10 0.757676 0.830258 0.136621
O O11 0.780463 0.163535 0.119765
O O12 0.750000 0.978361 0.000000
O O13 0.500000 0.750000 0.478603
O O14 0.481805 0.487141 0.381923
O O15 0.826874 0.316887 0.250391
O O16 0.782501 0.500470 0.373631
#
# Coordination Sequence:
#
# PCOD8165866 Si02
#       7
#     8   8   8   8   8   8   8
#     4  10  23  44  69  89 130 176 223 277 347 401
#     4  12  22  38  60  94 136 181 219 267 328 400
#     4  12  24  42  70 101 135 179 221 282 340 399
#     4  11  26  38  60  94 136 178 225 275 321 410
#     4  11  23  42  61  94 136 181 221 263 336 401
#     4  11  23  45  70  91 133 179 217 285 344 383
#     4  11  25  42  68 102 133 170 232 277 331 409
#
# _framework density 21.572545999999999
#
# number of rings (size 3 to 8) (size 9 to 14) (size 15 to 20)
#    0.000    0.857    5.714    1.286    2.000    4.000 
#    0.000    0.000    6.286    0.000    0.000    0.000 
#    0.000    0.000    0.000    0.000    0.000    0.000 
#
# Total GULP energy -347096.379328 kJ/mol
# GULP energy per Si atom -12396.299262 kJ/mol
# Density = 2.152345 g / cm^3
# Si number density = 21.572546 Si / 1000 Ang^3
#
#
#
# Elastic Constant Matrix: (Units=GPa)
#
#
# Indices 1 2 3 4 5 6 
#
# 1 71.1465 3.3281 18.9123 0.0000 0.0000 0.0000
# 2 3.3281 122.4443 17.4463 0.0000 0.0000 0.0000
# 3 18.9123 17.4463 46.8297 0.0000 0.0000 0.0000
# 4 0.0000 0.0000 0.0000 12.2867 0.0000 0.0000
# 5 0.0000 0.0000 0.0000 0.0000 34.2630 0.0000
# 6 0.0000 0.0000 0.0000 0.0000 0.0000 25.6907
#
#
#
# Elastic Compliance Matrix: (Units=1/GPa)
#
#
# Indices 1 2 3 4 5 6 
#
# 1 0.015775 0.000506 -0.006559 0.000000 0.000000 0.000000
# 2 0.000506 0.008641 -0.003423 0.000000 0.000000 0.000000
# 3 -0.006559 -0.003423 0.025278 0.000000 0.000000 0.000000
# 4 0.000000 0.000000 0.000000 0.081389 0.000000 0.000000
# 5 0.000000 0.000000 0.000000 0.000000 0.029186 0.000000
# 6 0.000000 0.000000 0.000000 0.000000 0.000000 0.038925
#
#
# Mechanical properties :
#
#
# Convention : Reuss Voigt Hill
#
# Bulk Modulus (GPa) = 32.53007 35.53266 34.03136
# Shear Modulus (GPa) = 21.89187 27.83033 24.86110
#
# Velocity S-wave (km/s) = 3.18905 3.59567 3.39845
# Velocity P-wave (km/s) = 5.35464 5.80908 5.58648
#
# Compressibility (1/GPa) = 0.03074078
#
# Stress axis : x y z
#
# Youngs Moduli (GPa) = 63.38956 115.72716 39.55950
#
# Poissons Ratio (x) = -0.05854 0.25949
# Poissons Ratio (y) = -0.03206 0.13543
# Poissons Ratio (z) = 0.41580 0.39619
#
# Static dielectric constant tensor:
#      x y z
#    x 3.679470 0.000000 0.000000 
#    y 0.000000 4.404590 0.000000 
#    z 0.000000 0.000000 3.663940 
# 
# 
# High freq. dielectric constant tensor:
#      x y z
#    x 1.827960 0.000000 0.000000 
#    y 0.000000 1.876960 0.000000 
#    z 0.000000 0.000000 1.825340 
# 
# From -- ./inp_files/27530.got.cif
#   From: 2010.03.12/outbox.cif.g09.slc.cpg/sg24_14_cif.got.tgz:27530.got - 2010.04.14 03:06:53.
