data_PCOD8165093
_publ_section_title
;
Structure prediction by ZEFSAII (Michael W. Deem and Ramdas Pophale) SiO2 
 PCOD8165093
Probable space group: I 21 21 21
;
_chemical_formula_sum "Si O2"
_cell_formula_units_Z 56
_cell_length_a 17.015242
_cell_length_b 8.864268
_cell_length_c 19.555631
_cell_angle_alpha 90.000000
_cell_angle_beta 90.000000
_cell_angle_gamma 90.000000
_cell_volume 2949.530165
_symmetry_space_group_name_H-M "I 21 21 21"
_symmetry_group_IT_number 24
_symmetry_cell_setting 'orthorhombic'
loop_
_space_group_symop_operation_xyz
x,y,z
-x,1/2-y,z
x,-y,1/2-z
1/2-x,y,-z
1/2+x,1/2+y,1/2+z
1/2-x,-y,1/2+z
1/2+x,1/2-y,-z
-x,1/2+y,1/2-z
loop_
_atom_site_type_symbol
_atom_site_label
_atom_site_fract_x
_atom_site_fract_y
_atom_site_fract_z
Si Si1 0.828326 0.130825 0.043754
Si Si2 0.918239 0.310980 0.936657
Si Si3 0.301468 0.000000 0.250000
Si Si4 0.803511 0.194503 0.434606
Si Si5 0.076183 0.843344 0.981088
Si Si6 0.320312 0.500000 0.250000
Si Si7 0.842045 0.747763 0.846949
Si Si8 0.733641 0.254698 0.155749
O O1 0.806430 0.246148 0.104439
O O2 0.849744 0.965559 0.074172
O O3 0.750000 0.114780 0.000000
O O4 0.899251 0.202512 0.001124
O O5 0.931341 0.481058 0.963221
O O6 0.849735 0.295250 0.880577
O O7 0.000000 0.250000 0.904832
O O8 0.355155 0.096331 0.302516
O O9 0.245655 0.111676 0.207696
O O10 0.750000 0.174463 0.500000
O O11 0.864916 0.327351 0.453940
O O12 0.750720 0.236223 0.368285
O O13 0.105737 0.753713 0.914108
O O14 0.000000 0.750000 0.003050
O O15 0.370243 0.387761 0.299024
O O16 0.269135 0.400998 0.197638
#
# Coordination Sequence:
#
# PCOD8165093 Si02
#       8
#     8   8   4   8   8   4   8   8
#     4   9  18  33  56  79 103 135 175 224 271 311
#     4  11  23  36  54  78 109 143 177 223 271 316
#     4  10  20  34  53  80 111 142 182 220 250 314
#     4   9  18  33  56  79 103 135 175 224 271 311
#     4  11  23  36  54  78 109 143 177 223 271 316
#     4  10  20  34  57  80 105 148 178 212 256 320
#     4  10  20  36  56  80 111 138 181 219 263 309
#     4  10  20  36  56  80 111 138 181 219 263 309
#
# _framework density 18.986075
#
# number of rings (size 3 to 8) (size 9 to 14) (size 15 to 20)
#    0.000    2.000    2.857    0.857    6.000    1.714 
#    0.000    4.286    0.000    0.000    0.000    6.000 
#    0.000    0.000    0.000    0.000    0.000    0.000 
#
# Total GULP energy -346891.794385 kJ/mol
# GULP energy per Si atom -12388.992657 kJ/mol
# Density = 1.894286 g / cm^3
# Si number density = 18.986075 Si / 1000 Ang^3
#
#
#
# Elastic Constant Matrix: (Units=GPa)
#
#
# Indices 1 2 3 4 5 6 
#
# 1 52.8643 24.9424 26.2188 0.0000 0.0000 0.0000
# 2 24.9424 113.4316 19.9100 0.0000 0.0000 0.0000
# 3 26.2188 19.9100 54.8771 0.0000 0.0000 0.0000
# 4 0.0000 0.0000 0.0000 28.4534 0.0000 0.0000
# 5 0.0000 0.0000 0.0000 0.0000 13.5488 0.0000
# 6 0.0000 0.0000 0.0000 0.0000 0.0000 19.2991
#
#
#
# Elastic Compliance Matrix: (Units=1/GPa)
#
#
# Indices 1 2 3 4 5 6 
#
# 1 0.026250 -0.003814 -0.011158 0.000000 0.000000 0.000000
# 2 -0.003814 0.009970 -0.001795 0.000000 0.000000 0.000000
# 3 -0.011158 -0.001795 0.024205 0.000000 0.000000 0.000000
# 4 0.000000 0.000000 0.000000 0.035145 0.000000 0.000000
# 5 0.000000 0.000000 0.000000 0.000000 0.073807 0.000000
# 6 0.000000 0.000000 0.000000 0.000000 0.000000 0.051816
#
#
# Mechanical properties :
#
#
# Convention : Reuss Voigt Hill
#
# Bulk Modulus (GPa) = 37.18704 40.36838 38.77771
# Shear Modulus (GPa) = 18.96177 22.26705 20.61441
#
# Velocity S-wave (km/s) = 3.16368 3.42835 3.29867
# Velocity P-wave (km/s) = 5.74231 6.08109 5.91413
#
# Compressibility (1/GPa) = 0.02689109
#
# Stress axis : x y z
#
# Youngs Moduli (GPa) = 38.09594 100.30580 41.31439
#
# Poissons Ratio (x) = 0.38252 0.46097
# Poissons Ratio (y) = 0.14528 0.07416
# Poissons Ratio (z) = 0.42506 0.18005
#
# Static dielectric constant tensor:
#      x y z
#    x 3.103080 0.000000 0.000000 
#    y 0.000000 3.828800 0.000000 
#    z 0.000000 0.000000 3.639520 
# 
# 
# High freq. dielectric constant tensor:
#      x y z
#    x 1.679560 0.000000 0.000000 
#    y 0.000000 1.762900 0.000000 
#    z 0.000000 0.000000 1.733410 
# 
# From -- ./inp_files/29783.got.cif
#   From: 2010.03.12/outbox.cif.g09.slc.cpg/sg24_15_cif.got.tgz:29783.got - 2010.04.14 03:06:53.
