data_PCOD8165490
_publ_section_title
;
Structure prediction by ZEFSAII (Michael W. Deem and Ramdas Pophale) SiO2 
 PCOD8165490
Probable space group: I 21 21 21
;
_chemical_formula_sum "Si O2"
_cell_formula_units_Z 60
_cell_length_a 17.753322
_cell_length_b 15.575990
_cell_length_c 11.475847
_cell_angle_alpha 90.000000
_cell_angle_beta 90.000000
_cell_angle_gamma 90.000000
_cell_volume 3173.365086
_symmetry_space_group_name_H-M "I 21 21 21"
_symmetry_group_IT_number 24
_symmetry_cell_setting 'orthorhombic'
loop_
_space_group_symop_operation_xyz
x,y,z
-x,1/2-y,z
x,-y,1/2-z
1/2-x,y,-z
1/2+x,1/2+y,1/2+z
1/2-x,-y,1/2+z
1/2+x,1/2-y,-z
-x,1/2+y,1/2-z
loop_
_atom_site_type_symbol
_atom_site_label
_atom_site_fract_x
_atom_site_fract_y
_atom_site_fract_z
Si Si1 0.724696 0.600352 0.267038
Si Si2 0.560752 0.399495 0.270532
Si Si3 0.974244 0.425269 0.483271
Si Si4 0.510233 0.624900 0.478659
Si Si5 0.750000 0.312295 0.000000
Si Si6 0.927179 0.193114 0.349434
Si Si7 0.823617 0.668428 0.080145
Si Si8 0.605674 0.228271 0.913620
O O1 0.738875 0.500000 0.250000
O O2 0.646670 0.631167 0.206921
O O3 0.716115 0.623961 0.403068
O O4 0.794959 0.650960 0.211757
O O5 0.563813 0.500000 0.250000
O O6 0.512895 0.382391 0.388166
O O7 0.526239 0.353596 0.157152
O O8 0.974542 0.527480 0.488248
O O9 0.890307 0.399860 0.441714
O O10 0.045130 0.398345 0.401321
O O11 0.559646 0.683232 0.566578
O O12 0.423906 0.653178 0.499972
O O13 0.691379 0.247012 0.942808
O O14 0.858129 0.235099 0.423307
O O15 0.903745 0.189756 0.215472
O O16 0.000000 0.250000 0.369958
O O17 0.750000 0.656677 0.000000
#
# Coordination Sequence:
#
# PCOD8165490 Si02
#       8
#     8   8   8   8   4   8   8   8
#     4  11  23  33  57  85 121 156 192 233 304 366
#     4   9  18  36  56  87 115 146 192 240 290 361
#     4  10  22  38  63  85 119 158 199 249 298 349
#     4  10  21  39  61  85 118 157 201 246 288 353
#     4  12  24  40  58  84 124 166 190 250 306 350
#     4  10  21  40  54  84 121 156 198 240 285 359
#     4  11  22  36  56  88 123 151 188 244 299 359
#     4  11  22  39  59  86 121 152 203 242 293 357
#
# _framework density 18.907374999999998
#
# number of rings (size 3 to 8) (size 9 to 14) (size 15 to 20)
#    0.000    1.600    5.333    0.000    2.800    0.533 
#    9.600    0.000    1.467    0.000    0.000    0.000 
#    0.000    0.000    0.000    0.000    0.000    0.000 
#
# Total GULP energy -371776.247494 kJ/mol
# GULP energy per Si atom -12392.541583 kJ/mol
# Density = 1.886434 g / cm^3
# Si number density = 18.907375 Si / 1000 Ang^3
#
#
#
# Elastic Constant Matrix: (Units=GPa)
#
#
# Indices 1 2 3 4 5 6 
#
# 1 92.8921 49.2818 48.2696 0.0000 0.0000 0.0000
# 2 49.2818 73.1916 48.7723 0.0000 0.0000 0.0000
# 3 48.2696 48.7723 118.8616 0.0000 0.0000 0.0000
# 4 0.0000 0.0000 0.0000 28.2989 0.0000 0.0000
# 5 0.0000 0.0000 0.0000 0.0000 33.6882 0.0000
# 6 0.0000 0.0000 0.0000 0.0000 0.0000 27.6234
#
#
#
# Elastic Compliance Matrix: (Units=1/GPa)
#
#
# Indices 1 2 3 4 5 6 
#
# 1 0.017558 -0.009732 -0.003137 0.000000 0.000000 0.000000
# 2 -0.009732 0.024199 -0.005977 0.000000 0.000000 0.000000
# 3 -0.003137 -0.005977 0.012140 0.000000 0.000000 0.000000
# 4 0.000000 0.000000 0.000000 0.035337 0.000000 0.000000
# 5 0.000000 0.000000 0.000000 0.000000 0.029684 0.000000
# 6 0.000000 0.000000 0.000000 0.000000 0.000000 0.036201
#
#
# Mechanical properties :
#
#
# Convention : Reuss Voigt Hill
#
# Bulk Modulus (GPa) = 61.71309 64.17695 62.94502
# Shear Modulus (GPa) = 25.22536 27.16354 26.19445
#
# Velocity S-wave (km/s) = 3.65657 3.79445 3.72615
# Velocity P-wave (km/s) = 7.10900 7.29477 7.20248
#
# Compressibility (1/GPa) = 0.01620402
#
# Stress axis : x y z
#
# Youngs Moduli (GPa) = 56.95259 41.32469 82.37417
#
# Poissons Ratio (x) = 0.40218 0.25842
# Poissons Ratio (y) = 0.55427 0.49236
# Poissons Ratio (z) = 0.17867 0.24700
#
# Static dielectric constant tensor:
#      x y z
#    x 3.601210 0.000000 0.000000 
#    y 0.000000 3.327090 0.000000 
#    z 0.000000 0.000000 3.784680 
# 
# 
# High freq. dielectric constant tensor:
#      x y z
#    x 1.723360 0.000000 0.000000 
#    y 0.000000 1.706190 0.000000 
#    z 0.000000 0.000000 1.750680 
# 
# From -- ./inp_files/21692.got.cif
#   From: 2010.03.12/outbox.cif.g09.slc.cpg/sg24_11_cif.got.tgz:21692.got - 2010.04.14 03:06:53.
