data_PCOD8165175
_publ_section_title
;
Structure prediction by ZEFSAII (Michael W. Deem and Ramdas Pophale) SiO2 
 PCOD8165175
Probable space group: I 21 21 21
;
_chemical_formula_sum "Si O2"
_cell_formula_units_Z 56
_cell_length_a 13.474547
_cell_length_b 10.829079
_cell_length_c 15.886458
_cell_angle_alpha 90.000000
_cell_angle_beta 90.000000
_cell_angle_gamma 90.000000
_cell_volume 2318.103243
_symmetry_space_group_name_H-M "I 21 21 21"
_symmetry_group_IT_number 24
_symmetry_cell_setting 'orthorhombic'
loop_
_space_group_symop_operation_xyz
x,y,z
-x,1/2-y,z
x,-y,1/2-z
1/2-x,y,-z
1/2+x,1/2+y,1/2+z
1/2-x,-y,1/2+z
1/2+x,1/2-y,-z
-x,1/2+y,1/2-z
loop_
_atom_site_type_symbol
_atom_site_label
_atom_site_fract_x
_atom_site_fract_y
_atom_site_fract_z
Si Si1 0.526536 0.610381 0.684078
Si Si2 0.199742 0.678119 0.918575
Si Si3 0.854794 0.782877 0.619406
Si Si4 0.903069 0.671210 0.786438
Si Si5 0.814342 0.039082 0.154718
Si Si6 0.511339 0.988224 0.097165
Si Si7 0.140482 0.093896 0.019718
O O1 0.500000 0.750000 0.721432
O O2 0.552806 0.500000 0.750000
O O3 0.428432 0.566548 0.635180
O O4 0.618435 0.616959 0.618635
O O5 0.188785 0.776153 0.843030
O O6 0.281894 0.574250 0.902062
O O7 0.092213 0.613549 0.929942
O O8 0.250000 0.744750 0.000000
O O9 0.869291 0.675537 0.689316
O O10 0.746130 0.838695 0.630737
O O11 0.938206 0.886813 0.630404
O O12 0.866806 0.725648 0.527392
O O13 0.000000 0.750000 0.802546
O O14 0.937390 0.539868 0.823946
O O15 0.792808 0.000000 0.250000
O O16 0.442817 0.001492 0.015118
O O17 0.250000 0.039457 0.000000
#
# Coordination Sequence:
#
# PCOD8165175 Si02
#       7
#     8   8   8   8   8   8   8
#     4  11  25  49  77 108 147 194 256 316 378 450
#     4  10  20  36  64  98 134 180 237 295 364 443
#     4  11  22  39  69 100 135 181 239 300 371 445
#     4  10  21  37  60  95 138 178 227 287 367 443
#     4  10  20  40  70 103 137 186 249 310 361 443
#     4  10  23  40  62  96 138 183 229 298 368 441
#     4  12  26  46  67 100 141 191 251 307 370 447
#
# _framework density 24.157681
#
# number of rings (size 3 to 8) (size 9 to 14) (size 15 to 20)
#    0.000    1.429    1.429    3.857    0.000    6.857 
#    5.143    5.000    0.000    0.000    0.000    1.000 
#    0.000    0.000    0.000    0.000    0.000    0.000 
#
# Total GULP energy -346969.802639 kJ/mol
# GULP energy per Si atom -12391.778666 kJ/mol
# Density = 2.410270 g / cm^3
# Si number density = 24.157681 Si / 1000 Ang^3
#
#
#
# Elastic Constant Matrix: (Units=GPa)
#
#
# Indices 1 2 3 4 5 6 
#
# 1 118.0003 31.9969 45.2268 0.0000 0.0000 0.0000
# 2 31.9969 82.8192 43.8374 0.0000 0.0000 0.0000
# 3 45.2268 43.8374 131.4281 0.0000 0.0000 0.0000
# 4 0.0000 0.0000 0.0000 31.9103 0.0000 0.0000
# 5 0.0000 0.0000 0.0000 0.0000 34.2266 0.0000
# 6 0.0000 0.0000 0.0000 0.0000 0.0000 96.7048
#
#
#
# Elastic Compliance Matrix: (Units=1/GPa)
#
#
# Indices 1 2 3 4 5 6 
#
# 1 0.010179 -0.002524 -0.002661 0.000000 0.000000 0.000000
# 2 -0.002524 0.015289 -0.004231 0.000000 0.000000 0.000000
# 3 -0.002661 -0.004231 0.009936 0.000000 0.000000 0.000000
# 4 0.000000 0.000000 0.000000 0.031338 0.000000 0.000000
# 5 0.000000 0.000000 0.000000 0.000000 0.029217 0.000000
# 6 0.000000 0.000000 0.000000 0.000000 0.000000 0.010341
#
#
# Mechanical properties :
#
#
# Convention : Reuss Voigt Hill
#
# Bulk Modulus (GPa) = 60.34403 63.81888 62.08145
# Shear Modulus (GPa) = 38.26862 46.64743 42.45802
#
# Velocity S-wave (km/s) = 3.98442 4.39903 4.19685
# Velocity P-wave (km/s) = 6.79712 7.23028 7.01705
#
# Compressibility (1/GPa) = 0.01657165
#
# Stress axis : x y z
#
# Youngs Moduli (GPa) = 98.24316 65.40536 100.64801
#
# Poissons Ratio (x) = 0.16509 0.26780
# Poissons Ratio (y) = 0.24798 0.42585
# Poissons Ratio (z) = 0.26141 0.27673
#
# Static dielectric constant tensor:
#      x y z
#    x 4.531540 0.000000 0.000000 
#    y 0.000000 4.622010 0.000000 
#    z 0.000000 0.000000 4.225150 
# 
# 
# High freq. dielectric constant tensor:
#      x y z
#    x 1.964050 0.000000 0.000000 
#    y 0.000000 1.951810 0.000000 
#    z 0.000000 0.000000 1.952180 
# 
# From -- ./inp_files/26509.got.cif
#   From: 2010.03.12/outbox.cif.g09.slc.cpg/sg24_14_cif.got.tgz:26509.got - 2010.04.14 03:06:53.
