data_PCOD8165115
_publ_section_title
;
Structure prediction by ZEFSAII (Michael W. Deem and Ramdas Pophale) SiO2 
 PCOD8165115
Probable space group: I 21 21 21
;
_chemical_formula_sum "Si O2"
_cell_formula_units_Z 64
_cell_length_a 25.830066
_cell_length_b 8.786489
_cell_length_c 14.846713
_cell_angle_alpha 90.000000
_cell_angle_beta 90.000000
_cell_angle_gamma 90.000000
_cell_volume 3369.544520
_symmetry_space_group_name_H-M "I 21 21 21"
_symmetry_group_IT_number 24
_symmetry_cell_setting 'orthorhombic'
loop_
_space_group_symop_operation_xyz
x,y,z
-x,1/2-y,z
x,-y,1/2-z
1/2-x,y,-z
1/2+x,1/2+y,1/2+z
1/2-x,-y,1/2+z
1/2+x,1/2-y,-z
-x,1/2+y,1/2-z
loop_
_atom_site_type_symbol
_atom_site_label
_atom_site_fract_x
_atom_site_fract_y
_atom_site_fract_z
Si Si1 0.789165 0.786207 0.078447
Si Si2 0.942466 0.780757 0.001858
Si Si3 0.449547 0.331181 0.712599
Si Si4 0.235866 0.178470 0.231925
Si Si5 0.137471 0.028025 0.475434
Si Si6 0.633227 0.026661 0.981817
Si Si7 0.373217 0.220690 0.844436
Si Si8 0.200327 0.228280 0.934530
O O1 0.760420 0.773354 0.174919
O O2 0.813248 0.623116 0.056579
O O3 0.834448 0.910779 0.081387
O O4 0.750000 0.834048 0.000000
O O5 0.947920 0.821651 0.106219
O O6 0.907975 0.631326 0.981953
O O7 0.000000 0.750000 0.960309
O O8 0.911739 0.930725 0.964321
O O9 0.500000 0.250000 0.752300
O O10 0.447237 0.500000 0.750000
O O11 0.401132 0.234624 0.749129
O O12 0.187748 0.234780 0.172295
O O13 0.285434 0.217135 0.170671
O O14 0.231967 0.000000 0.250000
O O15 0.113404 0.941789 0.389038
O O16 0.159200 0.906391 0.546887
O O17 0.608148 0.147552 0.913099
O O18 0.671007 0.110872 0.052258
O O19 0.250000 0.215000 0.000000
#
# Coordination Sequence:
#
# PCOD8165115 Si02
#       8
#     8   8   8   8   8   8   8   8
#     4  11  22  35  53  81 118 151 191 234 294 350
#     4  10  22  37  54  76 112 155 204 245 305 356
#     4  11  24  34  49  75 109 149 204 252 284 343
#     4  12  22  34  59  82 111 160 206 234 285 364
#     4  10  20  35  56  76 109 154 193 246 283 347
#     4  10  21  38  53  79 114 157 194 250 288 342
#     4  11  21  33  53  73 108 153 201 230 283 333
#     4  11  20  38  56  82 116 152 201 247 288 334
#
# _framework density 18.993665
#
# number of rings (size 3 to 8) (size 9 to 14) (size 15 to 20)
#    0.000    1.250    5.000    3.000    3.500    0.000 
#    0.000    1.875    0.000    0.000    0.000    0.000 
#    0.000   30.000    0.000    1.250    0.000    0.250 
#
# Total GULP energy -396709.651931 kJ/mol
# GULP energy per Si atom -12397.176623 kJ/mol
# Density = 1.895043 g / cm^3
# Si number density = 18.993665 Si / 1000 Ang^3
#
#
#
# Elastic Constant Matrix: (Units=GPa)
#
#
# Indices 1 2 3 4 5 6 
#
# 1 99.3760 42.6156 23.4944 0.0000 0.0000 0.0000
# 2 42.6156 84.7235 13.0472 0.0000 0.0000 0.0000
# 3 23.4944 13.0472 50.3215 0.0000 0.0000 0.0000
# 4 0.0000 0.0000 0.0000 13.9872 0.0000 0.0000
# 5 0.0000 0.0000 0.0000 0.0000 21.8496 0.0000
# 6 0.0000 0.0000 0.0000 0.0000 0.0000 33.0732
#
#
#
# Elastic Compliance Matrix: (Units=1/GPa)
#
#
# Indices 1 2 3 4 5 6 
#
# 1 0.013888 -0.006236 -0.004867 0.000000 0.000000 0.000000
# 2 -0.006236 0.015094 -0.001002 0.000000 0.000000 0.000000
# 3 -0.004867 -0.001002 0.022404 0.000000 0.000000 0.000000
# 4 0.000000 0.000000 0.000000 0.071494 0.000000 0.000000
# 5 0.000000 0.000000 0.000000 0.000000 0.045767 0.000000
# 6 0.000000 0.000000 0.000000 0.000000 0.000000 0.030236
#
#
# Mechanical properties :
#
#
# Convention : Reuss Voigt Hill
#
# Bulk Modulus (GPa) = 36.79731 43.63728 40.21730
# Shear Modulus (GPa) = 21.53760 24.13293 22.83527
#
# Velocity S-wave (km/s) = 3.37105 3.56838 3.47112
# Velocity P-wave (km/s) = 5.87941 6.32474 6.10614
#
# Compressibility (1/GPa) = 0.02717590
#
# Stress axis : x y z
#
# Youngs Moduli (GPa) = 72.00655 66.25125 44.63405
#
# Poissons Ratio (x) = 0.41314 0.21724
# Poissons Ratio (y) = 0.44903 0.04473
# Poissons Ratio (z) = 0.35046 0.06639
#
# Static dielectric constant tensor:
#      x y z
#    x 4.009030 0.000000 0.000000 
#    y 0.000000 3.725940 0.000000 
#    z 0.000000 0.000000 3.169230 
# 
# 
# High freq. dielectric constant tensor:
#      x y z
#    x 1.726620 0.000000 0.000000 
#    y 0.000000 1.759230 0.000000 
#    z 0.000000 0.000000 1.690530 
# 
# From -- ./inp_files/28293.got.cif
#   From: 2010.03.12/outbox.cif.g09.slc.cpg/sg24_15_cif.got.tgz:28293.got - 2010.04.14 03:06:53.
