data_PCOD8165447
_publ_section_title
;
Structure prediction by ZEFSAII (Michael W. Deem and Ramdas Pophale) SiO2 
 PCOD8165447
Probable space group: I 21 21 21
;
_chemical_formula_sum "Si O2"
_cell_formula_units_Z 40
_cell_length_a 25.096142
_cell_length_b 13.892853
_cell_length_c 5.167508
_cell_angle_alpha 90.000000
_cell_angle_beta 90.000000
_cell_angle_gamma 90.000000
_cell_volume 1801.687897
_symmetry_space_group_name_H-M "I 21 21 21"
_symmetry_group_IT_number 24
_symmetry_cell_setting 'orthorhombic'
loop_
_space_group_symop_operation_xyz
x,y,z
-x,1/2-y,z
x,-y,1/2-z
1/2-x,y,-z
1/2+x,1/2+y,1/2+z
1/2-x,-y,1/2+z
1/2+x,1/2-y,-z
-x,1/2+y,1/2-z
loop_
_atom_site_type_symbol
_atom_site_label
_atom_site_fract_x
_atom_site_fract_y
_atom_site_fract_z
Si Si1 0.559767 0.364389 0.636483
Si Si2 0.216054 0.500000 0.750000
Si Si3 0.216054 0.000000 0.750000
Si Si4 0.377126 0.864128 0.365541
Si Si5 0.622874 0.864128 0.365540
Si Si6 0.559767 0.135611 0.636484
O O1 0.587662 0.399609 0.375164
O O2 0.557791 0.250000 0.646870
O O3 0.500000 0.406279 0.648648
O O4 0.593449 0.403990 0.878895
O O5 0.250000 0.467735 0.500000
O O6 0.181150 0.409224 0.840847
O O7 0.250000 0.032265 0.500000
O O8 0.181150 0.909224 0.659153
O O9 0.370157 0.750000 0.374045
O O10 0.593449 0.903990 0.621103
O O11 0.587662 0.899609 0.124834
#
# Coordination Sequence:
#
# PCOD8165447 Si02
#       6
#     8   4   4   8   8   8
#     4   9  17  33  59  88 118 149 178 217 273 337
#     4  12  26  42  59  80 109 146 194 246 284 318
#     4  12  26  42  59  80 109 146 194 246 284 318
#     4  10  21  38  59  84 114 147 185 227 276 334
#     4  10  21  38  59  84 114 147 185 227 276 334
#     4   9  17  33  59  88 118 149 178 217 273 337
#
# _framework density 22.201405999999999
#
# number of rings (size 3 to 8) (size 9 to 14) (size 15 to 20)
#    0.000    2.000    0.000    3.600    0.000    6.400 
#    0.000    6.000    0.000    0.000    0.000    0.000 
#    0.000    0.000    0.000    0.000    0.000    0.000 
#
# Total GULP energy -248090.655826 kJ/mol
# GULP energy per Si atom -12404.532791 kJ/mol
# Density = 2.215087 g / cm^3
# Si number density = 22.201406 Si / 1000 Ang^3
#
#
#
# Elastic Constant Matrix: (Units=GPa)
#
#
# Indices 1 2 3 4 5 6 
#
# 1 162.4336 18.9431 82.5783 0.0000 0.0000 0.0000
# 2 18.9431 22.2880 21.1862 0.0000 0.0000 0.0000
# 3 82.5783 21.1862 199.7064 0.0000 0.0008 0.0000
# 4 0.0000 0.0000 0.0000 22.5956 0.0000 0.0000
# 5 0.0000 0.0000 0.0008 0.0000 -334.5682 0.0000
# 6 0.0000 0.0000 0.0000 0.0000 0.0000 -19.4565
#
#
#
# Elastic Compliance Matrix: (Units=1/GPa)
#
#
# Indices 1 2 3 4 5 6 
#
# 1 0.008123 -0.004127 -0.002921 0.000000 0.000000 0.000000
# 2 -0.004127 0.051996 -0.003810 0.000000 0.000000 0.000000
# 3 -0.002921 -0.003810 0.006619 0.000000 0.000000 0.000000
# 4 0.000000 0.000000 0.000000 0.044256 0.000000 0.000000
# 5 0.000000 0.000000 0.000000 0.000000 -0.002989 0.000000
# 6 0.000000 0.000000 0.000000 0.000000 0.000000 -0.051397
#
#
# Mechanical properties :
#
#
# Convention : Reuss Voigt Hill
#
# Bulk Modulus (GPa) = 22.21090 69.98259 46.09674
# Shear Modulus (GPa) = 53.57248 -48.83782 2.36733
#
# Velocity S-wave (km/s) = 4.91758 -4.69525 1.03374
# Velocity P-wave (km/s) = 6.50150 1.48199 4.71518
#
# Compressibility (1/GPa) = 0.04502294
#
# Stress axis : x y z
#
# Youngs Moduli (GPa) = 123.11380 19.23220 151.07433
#
# Poissons Ratio (x) = 0.07937 0.44126
# Poissons Ratio (y) = 0.50810 0.57553
# Poissons Ratio (z) = 0.35960 0.07327
#
# Static dielectric constant tensor:
#      x y z
#    x 4.035290 0.000000 0.000000 
#    y 0.000000 3.758930 0.000000 
#    z 0.000000 0.000000 4.292480 
# 
# 
# High freq. dielectric constant tensor:
#      x y z
#    x 1.872890 0.000000 0.000000 
#    y 0.000000 1.875350 0.000000 
#    z 0.000000 0.000000 1.893630 
# 
# From -- ./inp_files/6317.got.cif
#   From: 2010.03.12/outbox.cif.g09.slc.cpg/sg24_4_cif.got.tgz:6317.got - 2010.04.14 03:06:53.
