data_PCOD8165311
_publ_section_title
;
Structure prediction by ZEFSAII (Michael W. Deem and Ramdas Pophale) SiO2 
 PCOD8165311
Probable space group: I 21 21 21
;
_chemical_formula_sum "Si O2"
_cell_formula_units_Z 48
_cell_length_a 30.390417
_cell_length_b 9.454651
_cell_length_c 8.685977
_cell_angle_alpha 90.000000
_cell_angle_beta 90.000000
_cell_angle_gamma 90.000000
_cell_volume 2495.748603
_symmetry_space_group_name_H-M "I 21 21 21"
_symmetry_group_IT_number 24
_symmetry_cell_setting 'orthorhombic'
loop_
_space_group_symop_operation_xyz
x,y,z
-x,1/2-y,z
x,-y,1/2-z
1/2-x,y,-z
1/2+x,1/2+y,1/2+z
1/2-x,-y,1/2+z
1/2+x,1/2-y,-z
-x,1/2+y,1/2-z
loop_
_atom_site_type_symbol
_atom_site_label
_atom_site_fract_x
_atom_site_fract_y
_atom_site_fract_z
Si Si1 0.387195 0.968107 0.569873
Si Si2 0.983918 0.590823 0.399868
Si Si3 0.634332 0.235159 0.434036
Si Si4 0.703151 0.032400 0.569734
Si Si5 0.855552 0.802409 0.572818
Si Si6 0.066725 0.506494 0.927213
O O1 0.436072 0.914988 0.519166
O O2 0.353758 0.844946 0.518721
O O3 0.382313 0.000000 0.750000
O O4 0.372842 0.102412 0.471436
O O5 0.977155 0.500000 0.250000
O O6 0.000000 0.750000 0.367549
O O7 0.019793 0.506777 0.495622
O O8 0.671970 0.167863 0.541325
O O9 0.647427 0.216542 0.256056
O O10 0.588346 0.156480 0.471590
O O11 0.750000 0.072604 0.500000
O O12 0.705793 0.000000 0.750000
O O13 0.685942 0.894886 0.478795
O O14 0.900160 0.882426 0.522659
O O15 0.056394 0.500000 0.750000
#
# Coordination Sequence:
#
# PCOD8165311 Si02
#       6
#     8   8   8   8   8   8
#     4  11  23  37  56  86 119 160 204 250 306 354
#     4  11  24  38  55  82 119 159 206 257 302 355
#     4  10  22  38  61  88 117 158 197 247 302 359
#     4  11  22  40  67  95 122 154 193 239 293 363
#     4  10  20  40  60  86 120 153 201 246 298 358
#     4   9  20  37  57  79 110 155 202 246 295 351
#
# _framework density 19.232706
#
# number of rings (size 3 to 8) (size 9 to 14) (size 15 to 20)
#    0.000    1.667    1.667    4.000    4.667    4.000 
#    0.000    0.833    0.000    0.000    0.000    0.000 
#    0.000    0.000    0.000    0.000    0.000    0.000 
#
# Total GULP energy -297599.663236 kJ/mol
# GULP energy per Si atom -12399.985968 kJ/mol
# Density = 1.918893 g / cm^3
# Si number density = 19.232706 Si / 1000 Ang^3
#
#
#
# Elastic Constant Matrix: (Units=GPa)
#
#
# Indices 1 2 3 4 5 6 
#
# 1 78.4662 20.7896 18.8371 0.0000 0.0000 0.0000
# 2 20.7896 116.6765 18.7162 0.0000 0.0000 0.0000
# 3 18.8371 18.7162 71.5803 0.0000 0.0000 0.0000
# 4 0.0000 0.0000 0.0000 35.0022 0.0000 0.0000
# 5 0.0000 0.0000 0.0000 0.0000 25.2166 0.0000
# 6 0.0000 0.0000 0.0000 0.0000 0.0000 40.3888
#
#
#
# Elastic Compliance Matrix: (Units=1/GPa)
#
#
# Indices 1 2 3 4 5 6 
#
# 1 0.014034 -0.001992 -0.003172 0.000000 0.000000 0.000000
# 2 -0.001992 0.009229 -0.001889 0.000000 0.000000 0.000000
# 3 -0.003172 -0.001889 0.015299 0.000000 0.000000 0.000000
# 4 0.000000 0.000000 0.000000 0.028570 0.000000 0.000000
# 5 0.000000 0.000000 0.000000 0.000000 0.039656 0.000000
# 6 0.000000 0.000000 0.000000 0.000000 0.000000 0.024759
#
#
# Mechanical properties :
#
#
# Convention : Reuss Voigt Hill
#
# Bulk Modulus (GPa) = 40.89062 42.60099 41.74580
# Shear Modulus (GPa) = 32.50887 34.01352 33.26119
#
# Velocity S-wave (km/s) = 4.11577 4.20995 4.16313
# Velocity P-wave (km/s) = 6.62520 6.76978 6.69788
#
# Compressibility (1/GPa) = 0.02445549
#
# Stress axis : x y z
#
# Youngs Moduli (GPa) = 71.25751 108.35899 65.36351
#
# Poissons Ratio (x) = 0.21581 0.20736
# Poissons Ratio (y) = 0.14192 0.12346
# Poissons Ratio (z) = 0.22605 0.20468
#
# Static dielectric constant tensor:
#      x y z
#    x 3.700310 0.000000 0.000000 
#    y 0.000000 3.562420 0.000000 
#    z 0.000000 0.000000 3.397580 
# 
# 
# High freq. dielectric constant tensor:
#      x y z
#    x 1.739010 0.000000 0.000000 
#    y 0.000000 1.755630 0.000000 
#    z 0.000000 0.000000 1.753070 
# 
# From -- ./inp_files/9732.got.cif
#   From: 2010.03.12/outbox.cif.g09.slc.cpg/sg24_5_cif.got.tgz:9732.got - 2010.04.14 03:06:53.
