data_PCOD8165450
_publ_section_title
;
Structure prediction by ZEFSAII (Michael W. Deem and Ramdas Pophale) SiO2 
 PCOD8165450
Probable space group: I 21 21 21
;
_chemical_formula_sum "Si O2"
_cell_formula_units_Z 48
_cell_length_a 8.678230
_cell_length_b 7.593039
_cell_length_c 38.388530
_cell_angle_alpha 90.000000
_cell_angle_beta 90.000000
_cell_angle_gamma 90.000000
_cell_volume 2529.579126
_symmetry_space_group_name_H-M "I 21 21 21"
_symmetry_group_IT_number 24
_symmetry_cell_setting 'orthorhombic'
loop_
_space_group_symop_operation_xyz
x,y,z
-x,1/2-y,z
x,-y,1/2-z
1/2-x,y,-z
1/2+x,1/2+y,1/2+z
1/2-x,-y,1/2+z
1/2+x,1/2-y,-z
-x,1/2+y,1/2-z
loop_
_atom_site_type_symbol
_atom_site_label
_atom_site_fract_x
_atom_site_fract_y
_atom_site_fract_z
Si Si1 0.319117 0.547526 0.462974
Si Si2 0.816562 0.054221 0.212174
Si Si3 0.680884 0.452473 0.037026
Si Si4 0.317188 0.249999 0.583910
Si Si5 0.816539 0.250000 0.337275
Si Si6 0.316562 0.054222 0.787826
O O1 0.250000 0.491690 0.500000
O O2 0.500000 0.514279 0.464346
O O3 0.278583 0.749999 0.454241
O O4 0.244853 0.427006 0.433580
O O5 0.758884 0.250000 0.202723
O O6 1.000000 0.045813 0.213312
O O7 0.751264 0.000000 0.250000
O O8 0.752756 0.922292 0.182719
O O9 0.755149 0.572992 0.066420
O O10 0.750000 0.508309 0.000000
O O11 0.500000 0.250000 0.582009
O O12 0.254783 0.250000 0.623402
O O13 0.752756 0.422293 0.317281
O O14 0.000000 0.250000 0.337041
O O15 0.251264 0.000000 0.750000
#
# Coordination Sequence:
#
# PCOD8165450 Si02
#       6
#     8   8   8   8   8   8
#     4  10  21  38  60  83 107 139 182 226 269 318
#     4   9  14  22  38  57  83 123 170 214 254 304
#     4  10  21  38  60  83 107 139 182 226 269 318
#     4  11  22  34  51  77 116 152 180 218 268 327
#     4   9  18  28  38  63  97 136 176 210 259 315
#     4   9  14  22  38  57  83 123 170 214 254 304
#
# _framework density 18.975487999999999
#
# number of rings (size 3 to 8) (size 9 to 14) (size 15 to 20)
#    0.000    2.333    1.667    2.000    0.000    3.333 
#    0.000    3.333    0.000    0.000    0.000    0.000 
#    0.000    5.333    0.000    0.000    0.000    0.000 
#
# Total GULP energy -297598.062036 kJ/mol
# GULP energy per Si atom -12399.919252 kJ/mol
# Density = 1.893230 g / cm^3
# Si number density = 18.975488 Si / 1000 Ang^3
#
#
#
# Elastic Constant Matrix: (Units=GPa)
#
#
# Indices 1 2 3 4 5 6 
#
# 1 47.3679 29.7189 37.2537 0.0000 0.0000 0.0000
# 2 29.7189 174.3347 109.7440 0.0001 0.0000 0.0000
# 3 37.2537 109.7440 192.8539 0.0000 0.0000 0.0000
# 4 0.0000 0.0001 0.0000 30.5036 0.0000 0.0000
# 5 0.0000 0.0000 0.0000 0.0000 14.8188 0.0000
# 6 0.0000 0.0000 0.0000 0.0000 0.0000 18.7361
#
#
#
# Elastic Compliance Matrix: (Units=1/GPa)
#
#
# Indices 1 2 3 4 5 6 
#
# 1 0.025302 -0.001927 -0.003791 0.000000 0.000000 0.000000
# 2 -0.001927 0.009084 -0.004797 0.000000 0.000000 0.000000
# 3 -0.003791 -0.004797 0.008648 0.000000 0.000000 0.000000
# 4 0.000000 0.000000 0.000000 0.032783 0.000000 0.000000
# 5 0.000000 0.000000 0.000000 0.000000 0.067482 0.000000
# 6 0.000000 0.000000 0.000000 0.000000 0.000000 0.053373
#
#
# Mechanical properties :
#
#
# Convention : Reuss Voigt Hill
#
# Bulk Modulus (GPa) = 45.44748 85.33222 65.38985
# Shear Modulus (GPa) = 22.21859 28.66769 25.44314
#
# Velocity S-wave (km/s) = 3.42557 3.89109 3.66572
# Velocity P-wave (km/s) = 6.29672 8.07804 7.24235
#
# Compressibility (1/GPa) = 0.02200342
#
# Stress axis : x y z
#
# Youngs Moduli (GPa) = 39.52287 110.07777 115.63923
#
# Poissons Ratio (x) = 0.21208 0.43841
# Poissons Ratio (y) = 0.07615 0.55477
# Poissons Ratio (z) = 0.14984 0.52808
#
# Static dielectric constant tensor:
#      x y z
#    x 3.022690 0.000000 0.000000 
#    y 0.000000 3.739510 0.000000 
#    z 0.000000 0.000000 3.607760 
# 
# 
# High freq. dielectric constant tensor:
#      x y z
#    x 1.690780 0.000000 0.000000 
#    y 0.000000 1.756610 0.000000 
#    z 0.000000 0.000000 1.738110 
# 
# From -- ./inp_files/38294.got.cif
#   From: 2010.03.12/outbox.cif.g09.slc.cpg/sg24_20_cif.got.tgz:38294.got - 2010.04.14 03:06:53.
