data_PCOD8165933
_publ_section_title
;
Structure prediction by ZEFSAII (Michael W. Deem and Ramdas Pophale) SiO2 
 PCOD8165933
Probable space group: I 21 21 21
;
_chemical_formula_sum "Si O2"
_cell_formula_units_Z 56
_cell_length_a 19.054882
_cell_length_b 9.196323
_cell_length_c 15.018418
_cell_angle_alpha 90.000000
_cell_angle_beta 90.000000
_cell_angle_gamma 90.000000
_cell_volume 2631.750219
_symmetry_space_group_name_H-M "I 21 21 21"
_symmetry_group_IT_number 24
_symmetry_cell_setting 'orthorhombic'
loop_
_space_group_symop_operation_xyz
x,y,z
-x,1/2-y,z
x,-y,1/2-z
1/2-x,y,-z
1/2+x,1/2+y,1/2+z
1/2-x,-y,1/2+z
1/2+x,1/2-y,-z
-x,1/2+y,1/2-z
loop_
_atom_site_type_symbol
_atom_site_label
_atom_site_fract_x
_atom_site_fract_y
_atom_site_fract_z
Si Si1 0.876114 0.421936 0.840675
Si Si2 0.690160 0.158954 0.256868
Si Si3 0.648806 0.154095 0.728397
Si Si4 0.071998 0.679237 0.048843
Si Si5 0.683383 0.674752 0.064116
Si Si6 0.942767 0.625415 0.317023
Si Si7 0.482328 0.916696 0.497080
O O1 0.898698 0.500000 0.750000
O O2 0.847164 0.262119 0.816747
O O3 0.816036 0.513108 0.893109
O O4 0.944526 0.426977 0.902391
O O5 0.771995 0.144761 0.238227
O O6 0.686013 0.209578 0.357703
O O7 0.654174 0.000000 0.250000
O O8 0.631568 0.170599 0.624240
O O9 0.627284 0.296135 0.784118
O O10 0.611210 0.000000 0.750000
O O11 0.000000 0.750000 0.085219
O O12 0.107419 0.790977 0.979458
O O13 0.050996 0.523110 0.003885
O O14 0.750000 0.692821 0.000000
O O15 0.965997 0.500000 0.250000
O O16 0.933284 0.553433 0.415415
O O17 0.000000 0.750000 0.314038
O O18 0.500000 0.750000 0.508883
#
# Coordination Sequence:
#
# PCOD8165933 Si02
#       7
#     8   8   8   8   8   8   8
#     4  10  24  47  67  93 137 178 239 289 348 428
#     4  10  24  45  68  98 134 181 233 287 353 421
#     4  11  22  40  65 100 137 177 224 281 348 430
#     4  12  23  41  69  99 136 180 231 285 359 424
#     4  11  23  45  70  99 134 184 234 290 354 434
#     4  11  22  37  62  93 137 179 220 278 354 420
#     4  11  24  41  62 101 138 178 230 296 351 427
#
# _framework density 21.278614999999999
#
# number of rings (size 3 to 8) (size 9 to 14) (size 15 to 20)
#    0.000    1.143    2.857    4.286    2.000    2.857 
#    5.143    0.714    0.000    0.000    0.000    0.000 
#    0.000    0.000    0.000    0.000    0.000    0.000 
#
# Total GULP energy -346893.850248 kJ/mol
# GULP energy per Si atom -12389.066080 kJ/mol
# Density = 2.123018 g / cm^3
# Si number density = 21.278615 Si / 1000 Ang^3
#
#
#
# Elastic Constant Matrix: (Units=GPa)
#
#
# Indices 1 2 3 4 5 6 
#
# 1 61.5253 29.9012 35.0423 0.0000 0.0000 0.0000
# 2 29.9012 144.1760 57.3804 0.0000 0.0000 0.0000
# 3 35.0423 57.3804 136.7064 0.0000 0.0000 0.0000
# 4 0.0000 0.0000 0.0000 31.6096 0.0000 0.0000
# 5 0.0000 0.0000 0.0000 0.0000 29.1577 0.0000
# 6 0.0000 0.0000 0.0000 0.0000 0.0000 21.4538
#
#
#
# Elastic Compliance Matrix: (Units=1/GPa)
#
#
# Indices 1 2 3 4 5 6 
#
# 1 0.019755 -0.002499 -0.004015 0.000000 0.000000 0.000000
# 2 -0.002499 0.008643 -0.002987 0.000000 0.000000 0.000000
# 3 -0.004015 -0.002987 0.009598 0.000000 0.000000 0.000000
# 4 0.000000 0.000000 0.000000 0.031636 0.000000 0.000000
# 5 0.000000 0.000000 0.000000 0.000000 0.034296 0.000000
# 6 0.000000 0.000000 0.000000 0.000000 0.000000 0.046612
#
#
# Mechanical properties :
#
#
# Convention : Reuss Voigt Hill
#
# Bulk Modulus (GPa) = 52.64977 65.22839 58.93908
# Shear Modulus (GPa) = 28.42957 31.11648 29.77303
#
# Velocity S-wave (km/s) = 3.65919 3.82820 3.74465
# Velocity P-wave (km/s) = 6.53067 7.08951 6.81582
#
# Compressibility (1/GPa) = 0.01899344
#
# Stress axis : x y z
#
# Youngs Moduli (GPa) = 50.62082 115.69848 104.18938
#
# Poissons Ratio (x) = 0.28915 0.41830
# Poissons Ratio (y) = 0.12651 0.31124
# Poissons Ratio (z) = 0.20323 0.34562
#
# Static dielectric constant tensor:
#      x y z
#    x 3.623110 0.000000 0.000000 
#    y 0.000000 4.254470 0.000000 
#    z 0.000000 0.000000 4.244200 
# 
# 
# High freq. dielectric constant tensor:
#      x y z
#    x 1.808870 0.000000 0.000000 
#    y 0.000000 1.859340 0.000000 
#    z 0.000000 0.000000 1.842060 
# 
# From -- ./inp_files/13154.got.cif
#   From: 2010.03.12/outbox.cif.g09.slc.cpg/sg24_7_cif.got.tgz:13154.got - 2010.04.14 03:06:53.
