data_PCOD8165116
_publ_section_title
;
Structure prediction by ZEFSAII (Michael W. Deem and Ramdas Pophale) SiO2 
 PCOD8165116
Probable space group: I 21 21 21
;
_chemical_formula_sum "Si O2"
_cell_formula_units_Z 60
_cell_length_a 26.501491
_cell_length_b 14.600834
_cell_length_c 7.896165
_cell_angle_alpha 90.000000
_cell_angle_beta 90.000000
_cell_angle_gamma 90.000000
_cell_volume 3055.372650
_symmetry_space_group_name_H-M "I 21 21 21"
_symmetry_group_IT_number 24
_symmetry_cell_setting 'orthorhombic'
loop_
_space_group_symop_operation_xyz
x,y,z
-x,1/2-y,z
x,-y,1/2-z
1/2-x,y,-z
1/2+x,1/2+y,1/2+z
1/2-x,-y,1/2+z
1/2+x,1/2-y,-z
-x,1/2+y,1/2-z
loop_
_atom_site_type_symbol
_atom_site_label
_atom_site_fract_x
_atom_site_fract_y
_atom_site_fract_z
Si Si1 0.095292 0.512030 0.558823
Si Si2 0.984911 0.502043 0.446339
Si Si3 0.951147 0.697194 0.073878
Si Si4 0.219622 0.409868 0.330775
Si Si5 0.356378 0.696727 0.409714
Si Si6 0.950237 0.696791 0.470632
Si Si7 0.863254 0.823449 0.980305
Si Si8 0.250000 0.677917 0.500000
O O1 0.112080 0.500000 0.750000
O O2 0.124199 0.603645 0.495005
O O3 0.110658 0.419278 0.463365
O O4 0.035423 0.520369 0.549713
O O5 0.000037 0.500000 0.250000
O O6 0.955726 0.407922 0.488003
O O7 0.950357 0.587501 0.499119
O O8 0.947192 0.715025 0.272199
O O9 0.000000 0.750000 0.000537
O O10 0.899741 0.737135 0.999828
O O11 0.191978 0.500000 0.250000
O O12 0.250000 0.440316 0.500000
O O13 0.183836 0.324729 0.389617
O O14 0.255062 0.377774 0.175957
O O15 0.400265 0.771081 0.432833
O O16 0.345394 0.679432 0.212661
O O17 0.304049 0.731620 0.499301
O O18 0.000000 0.750000 0.542216
#
# Coordination Sequence:
#
# PCOD8165116 Si02
#       8
#     8   8   8   8   8   8   8   4
#     4  10  21  33  51  81 121 157 195 244 303 362
#     4  10  20  35  56  83 119 157 204 252 307 371
#     4  10  20  35  56  85 119 157 202 252 308 373
#     4  12  24  40  61  89 125 165 212 257 307 370
#     4  11  23  38  58  86 120 164 210 258 310 369
#     4  10  20  36  58  87 118 157 206 256 316 374
#     4  11  23  38  57  86 122 162 208 251 305 372
#     4  12  24  40  62  84 124 166 210 258 310 372
#
# _framework density 19.637539
#
# number of rings (size 3 to 8) (size 9 to 14) (size 15 to 20)
#    0.000    1.333    4.667    1.600    0.000    3.200 
#    0.000    0.000    0.000    0.000    1.733    0.000 
#    0.000    0.000    0.000    0.000    0.000    0.000 
#
# Total GULP energy -371667.001284 kJ/mol
# GULP energy per Si atom -12388.900043 kJ/mol
# Density = 1.959284 g / cm^3
# Si number density = 19.637539 Si / 1000 Ang^3
#
#
#
# Elastic Constant Matrix: (Units=GPa)
#
#
# Indices 1 2 3 4 5 6 
#
# 1 129.8944 48.7986 35.9113 0.0000 0.0000 0.0000
# 2 48.7986 113.1697 25.1654 0.0000 0.0000 0.0000
# 3 35.9113 25.1654 72.4870 0.0000 0.0000 0.0000
# 4 0.0000 0.0000 0.0000 20.9985 0.0000 0.0000
# 5 0.0000 0.0000 0.0000 0.0000 30.0694 0.0000
# 6 0.0000 0.0000 0.0000 0.0000 0.0000 28.6660
#
#
#
# Elastic Compliance Matrix: (Units=1/GPa)
#
#
# Indices 1 2 3 4 5 6 
#
# 1 0.010054 -0.003498 -0.003767 0.000000 0.000000 0.000000
# 2 -0.003498 0.010792 -0.002014 0.000000 0.000000 0.000000
# 3 -0.003767 -0.002014 0.016361 0.000000 0.000000 0.000000
# 4 0.000000 0.000000 0.000000 0.047623 0.000000 0.000000
# 5 0.000000 0.000000 0.000000 0.000000 0.033256 0.000000
# 6 0.000000 0.000000 0.000000 0.000000 0.000000 0.034885
#
#
# Mechanical properties :
#
#
# Convention : Reuss Voigt Hill
#
# Bulk Modulus (GPa) = 53.61767 59.47796 56.54782
# Shear Modulus (GPa) = 28.13038 29.65849 28.89444
#
# Velocity S-wave (km/s) = 3.78892 3.89047 3.84003
# Velocity P-wave (km/s) = 6.81939 7.10877 6.96559
#
# Compressibility (1/GPa) = 0.01865057
#
# Stress axis : x y z
#
# Youngs Moduli (GPa) = 99.46411 92.65851 61.12169
#
# Poissons Ratio (x) = 0.32409 0.23022
# Poissons Ratio (y) = 0.34789 0.12310
# Poissons Ratio (z) = 0.37464 0.18661
#
# Static dielectric constant tensor:
#      x y z
#    x 3.494970 0.000000 0.000000 
#    y 0.000000 3.474320 0.000000 
#    z 0.000000 0.000000 3.543540 
# 
# 
# High freq. dielectric constant tensor:
#      x y z
#    x 1.757260 0.000000 0.000000 
#    y 0.000000 1.730890 0.000000 
#    z 0.000000 0.000000 1.772860 
# 
# From -- ./inp_files/16004.got.cif
#   From: 2010.03.12/outbox.cif.g09.slc.cpg/sg24_9_cif.got.tgz:16004.got - 2010.04.14 03:06:53.
