data_PCOD8165416
_publ_section_title
;
Structure prediction by ZEFSAII (Michael W. Deem and Ramdas Pophale) SiO2 
 PCOD8165416
Probable space group: I 21 21 21
;
_chemical_formula_sum "Si O2"
_cell_formula_units_Z 48
_cell_length_a 8.580777
_cell_length_b 8.599073
_cell_length_c 28.940143
_cell_angle_alpha 90.000000
_cell_angle_beta 90.000000
_cell_angle_gamma 90.000000
_cell_volume 2135.398455
_symmetry_space_group_name_H-M "I 21 21 21"
_symmetry_group_IT_number 24
_symmetry_cell_setting 'orthorhombic'
loop_
_space_group_symop_operation_xyz
x,y,z
-x,1/2-y,z
x,-y,1/2-z
1/2-x,y,-z
1/2+x,1/2+y,1/2+z
1/2-x,-y,1/2+z
1/2+x,1/2-y,-z
-x,1/2+y,1/2-z
loop_
_atom_site_type_symbol
_atom_site_label
_atom_site_fract_x
_atom_site_fract_y
_atom_site_fract_z
Si Si1 0.883854 0.630478 0.621500
Si Si2 0.388859 0.622496 0.129005
Si Si3 0.327336 0.955872 0.951951
Si Si4 0.163201 0.173634 0.195965
Si Si5 0.329900 0.193814 0.698515
Si Si6 0.176989 0.413053 0.451429
O O1 0.763610 0.547141 0.587454
O O2 0.792383 0.733563 0.659946
O O3 0.000000 0.750000 0.594976
O O4 0.990252 0.504295 0.648839
O O5 0.500000 0.750000 0.103452
O O6 0.294469 0.706478 0.169885
O O7 0.282279 0.531844 0.091520
O O8 0.510158 0.998410 0.949356
O O9 0.322936 0.772020 0.944985
O O10 0.250000 0.005932 0.000000
O O11 0.205963 0.225635 0.247698
O O12 0.000000 0.250000 0.181814
O O13 0.166972 0.988408 0.188302
O O14 0.500000 0.250000 0.683945
O O15 0.250000 0.462986 0.500000
#
# Coordination Sequence:
#
# PCOD8165416 Si02
#       6
#     8   8   8   8   8   8
#     4  12  27  44  63  99 140 180 220 279 341 395
#     4  12  23  41  68  99 132 172 226 275 327 398
#     4  10  21  41  68  99 137 173 221 275 334 400
#     4  10  23  45  65  95 134 173 222 275 336 401
#     4  10  23  42  70  97 126 175 227 275 333 399
#     4  10  21  36  70 107 130 165 222 287 330 386
#
# _framework density 22.47824
#
# number of rings (size 3 to 8) (size 9 to 14) (size 15 to 20)
#    0.000    1.333    3.333    1.000    9.333    0.667 
#    0.000    3.333    0.000    0.000    0.000    0.000 
#    0.000    0.000    0.000    0.000    0.000    0.000 
#
# Total GULP energy -297451.411002 kJ/mol
# GULP energy per Si atom -12393.808792 kJ/mol
# Density = 2.242708 g / cm^3
# Si number density = 22.478240 Si / 1000 Ang^3
#
#
#
# Elastic Constant Matrix: (Units=GPa)
#
#
# Indices 1 2 3 4 5 6 
#
# 1 198.8484 58.5018 99.0587 0.0000 0.0000 0.0000
# 2 58.5018 55.9610 34.6297 0.0000 0.0000 0.0000
# 3 99.0587 34.6297 129.7780 0.0000 0.0000 0.0000
# 4 0.0000 0.0000 0.0000 17.2691 0.0000 0.0000
# 5 0.0000 0.0000 0.0000 0.0000 35.1151 0.0000
# 6 0.0000 0.0000 0.0000 0.0000 0.0000 44.0780
#
#
#
# Elastic Compliance Matrix: (Units=1/GPa)
#
#
# Indices 1 2 3 4 5 6 
#
# 1 0.009879 -0.006781 -0.005731 0.000000 0.000000 0.000000
# 2 -0.006781 0.026058 -0.001777 0.000000 0.000000 0.000000
# 3 -0.005731 -0.001777 0.012554 0.000000 0.000000 0.000000
# 4 0.000000 0.000000 0.000000 0.057907 0.000000 0.000000
# 5 0.000000 0.000000 0.000000 0.000000 0.028478 0.000000
# 6 0.000000 0.000000 0.000000 0.000000 0.000000 0.022687
#
#
# Mechanical properties :
#
#
# Convention : Reuss Voigt Hill
#
# Bulk Modulus (GPa) = 50.21983 85.44086 67.83034
# Shear Modulus (GPa) = 25.93630 32.11894 29.02762
#
# Velocity S-wave (km/s) = 3.40051 3.78417 3.59746
# Velocity P-wave (km/s) = 6.14882 7.56216 6.89181
#
# Compressibility (1/GPa) = 0.01991245
#
# Stress axis : x y z
#
# Youngs Moduli (GPa) = 101.22514 38.37540 79.65402
#
# Poissons Ratio (x) = 0.26022 0.45651
# Poissons Ratio (y) = 0.68641 0.14158
# Poissons Ratio (z) = 0.58013 0.06821
#
# Static dielectric constant tensor:
#      x y z
#    x 4.467950 0.000000 0.000000 
#    y 0.000000 3.932420 0.000000 
#    z 0.000000 0.000000 3.964490 
# 
# 
# High freq. dielectric constant tensor:
#      x y z
#    x 1.910430 0.000000 0.000000 
#    y 0.000000 1.870540 0.000000 
#    z 0.000000 0.000000 1.877600 
# 
# From -- ./inp_files/38300.got.cif
#   From: 2010.03.12/outbox.cif.g09.slc.cpg/sg24_20_cif.got.tgz:38300.got - 2010.04.14 03:06:53.
