data_PCOD8165392
_publ_section_title
;
Structure prediction by ZEFSAII (Michael W. Deem and Ramdas Pophale) SiO2 
 PCOD8165392
Probable space group: I 21 21 21
;
_chemical_formula_sum "Si O2"
_cell_formula_units_Z 48
_cell_length_a 28.612880
_cell_length_b 16.941653
_cell_length_c 4.915648
_cell_angle_alpha 90.000000
_cell_angle_beta 90.000000
_cell_angle_gamma 90.000000
_cell_volume 2382.857833
_symmetry_space_group_name_H-M "I 21 21 21"
_symmetry_group_IT_number 24
_symmetry_cell_setting 'orthorhombic'
loop_
_space_group_symop_operation_xyz
x,y,z
-x,1/2-y,z
x,-y,1/2-z
1/2-x,y,-z
1/2+x,1/2+y,1/2+z
1/2-x,-y,1/2+z
1/2+x,1/2-y,-z
-x,1/2+y,1/2-z
loop_
_atom_site_type_symbol
_atom_site_label
_atom_site_fract_x
_atom_site_fract_y
_atom_site_fract_z
Si Si1 0.121398 0.237147 0.138898
Si Si2 0.719371 0.195567 0.735300
Si Si3 0.588936 0.828318 0.133586
Si Si4 0.566674 0.410755 0.725342
Si Si5 0.004476 0.910446 0.724215
Si Si6 0.334912 0.551494 0.004849
O O1 0.176353 0.247877 0.192242
O O2 0.090081 0.293206 0.330673
O O3 0.109350 0.146102 0.195429
O O4 0.109672 0.261491 0.831832
O O5 0.750000 0.238122 0.500000
O O6 0.702767 0.112955 0.606910
O O7 0.750000 0.177930 0.000000
O O8 0.536368 0.849053 0.213762
O O9 0.620691 0.906247 0.143508
O O10 0.585663 0.500000 0.750000
O O11 0.548451 0.394329 0.421673
O O12 0.522165 0.395794 0.919534
O O13 0.985872 0.000000 0.750000
O O14 0.352559 0.500000 0.750000
O O15 0.312215 0.500000 0.250000
#
# Coordination Sequence:
#
# PCOD8165392 Si02
#       6
#     8   8   8   8   8   8
#     4  11  23  39  59  81 110 146 184 232 285 334
#     4  11  23  40  58  80 108 142 184 230 283 332
#     4  11  22  36  56  84 117 155 191 223 265 317
#     4  10  22  39  58  83 111 144 184 228 283 335
#     4  10  21  35  55  83 117 153 187 223 262 315
#     4  11  22  37  56  81 115 154 191 226 265 315
#
# _framework density 20.143879999999999
#
# number of rings (size 3 to 8) (size 9 to 14) (size 15 to 20)
#    0.000    1.333    0.000    7.500    0.000    7.333 
#    0.000    1.667    0.000    1.000    0.000    0.000 
#    0.000    0.000    0.000    0.000    0.000    0.000 
#
# Total GULP energy -297703.067927 kJ/mol
# GULP energy per Si atom -12404.294497 kJ/mol
# Density = 2.009803 g / cm^3
# Si number density = 20.143880 Si / 1000 Ang^3
#
#
#
# Elastic Constant Matrix: (Units=GPa)
#
#
# Indices 1 2 3 4 5 6 
#
# 1 93.9709 63.9165 22.2838 0.0000 0.0000 0.0000
# 2 63.9165 89.0111 24.3560 0.0000 0.0000 0.0000
# 3 22.2838 24.3560 94.7880 0.0000 0.0001 0.0000
# 4 0.0000 0.0000 0.0000 29.6203 0.0000 0.0000
# 5 0.0000 0.0000 0.0001 0.0000 23.8304 0.0000
# 6 0.0000 0.0000 0.0000 0.0000 0.0000 12.2707
#
#
#
# Elastic Compliance Matrix: (Units=1/GPa)
#
#
# Indices 1 2 3 4 5 6 
#
# 1 0.020915 -0.014707 -0.001138 0.000000 0.000000 0.000000
# 2 -0.014707 0.022426 -0.002305 0.000000 0.000000 0.000000
# 3 -0.001138 -0.002305 0.011410 0.000000 0.000000 0.000000
# 4 0.000000 0.000000 0.000000 0.033761 0.000000 0.000000
# 5 0.000000 0.000000 0.000000 0.000000 0.041963 0.000000
# 6 0.000000 0.000000 0.000000 0.000000 0.000000 0.081495
#
#
# Mechanical properties :
#
#
# Convention : Reuss Voigt Hill
#
# Bulk Modulus (GPa) = 54.19830 55.43139 54.81484
# Shear Modulus (GPa) = 19.65265 24.29185 21.97225
#
# Velocity S-wave (km/s) = 3.12687 3.47640 3.30626
# Velocity P-wave (km/s) = 6.32459 6.60994 6.46884
#
# Compressibility (1/GPa) = 0.01845076
#
# Stress axis : x y z
#
# Youngs Moduli (GPa) = 47.81330 44.59131 87.64533
#
# Poissons Ratio (x) = 0.65580 0.09973
# Poissons Ratio (y) = 0.70319 0.20201
# Poissons Ratio (z) = 0.05441 0.10278
#
# Static dielectric constant tensor:
#      x y z
#    x 3.463010 0.000000 0.000000 
#    y 0.000000 3.550740 0.000000 
#    z 0.000000 0.000000 3.950380 
# 
# 
# High freq. dielectric constant tensor:
#      x y z
#    x 1.767260 0.000000 0.000000 
#    y 0.000000 1.765860 0.000000 
#    z 0.000000 0.000000 1.814090 
# 
# From -- ./inp_files/7108.got.cif
#   From: 2010.03.12/outbox.cif.g09.slc.cpg/sg24_4_cif.got.tgz:7108.got - 2010.04.14 03:06:53.
