data_PCOD8165230
_publ_section_title
;
Structure prediction by ZEFSAII (Michael W. Deem and Ramdas Pophale) SiO2 
 PCOD8165230
Probable space group: I 21 21 21
;
_chemical_formula_sum "Si O2"
_cell_formula_units_Z 48
_cell_length_a 25.917102
_cell_length_b 5.208613
_cell_length_c 16.540889
_cell_angle_alpha 90.000000
_cell_angle_beta 90.000000
_cell_angle_gamma 90.000000
_cell_volume 2232.890242
_symmetry_space_group_name_H-M "I 21 21 21"
_symmetry_group_IT_number 24
_symmetry_cell_setting 'orthorhombic'
loop_
_space_group_symop_operation_xyz
x,y,z
-x,1/2-y,z
x,-y,1/2-z
1/2-x,y,-z
1/2+x,1/2+y,1/2+z
1/2-x,-y,1/2+z
1/2+x,1/2-y,-z
-x,1/2+y,1/2-z
loop_
_atom_site_type_symbol
_atom_site_label
_atom_site_fract_x
_atom_site_fract_y
_atom_site_fract_z
Si Si1 0.837739 0.500000 0.250000
Si Si2 0.351227 0.913765 0.066986
Si Si3 0.628443 0.759588 0.898283
Si Si4 0.219233 0.379396 0.138033
Si Si5 0.750000 0.466373 0.000000
Si Si6 0.968798 0.999857 0.344992
Si Si7 0.840020 0.066637 0.840342
O O1 0.877593 0.572687 0.178750
O O2 0.802074 0.262599 0.219048
O O3 0.368990 0.656223 0.110832
O O4 0.289558 0.872556 0.054114
O O5 0.361508 0.164796 0.122583
O O6 0.379071 0.909469 0.979539
O O7 0.586141 0.986245 0.891664
O O8 0.686595 0.870633 0.888221
O O9 0.213783 0.199876 0.059432
O O10 0.278374 0.448646 0.154274
O O11 0.000000 0.250000 0.372110
O O12 0.957994 0.000000 0.250000
O O13 0.000000 0.750000 0.373856
O O14 0.857606 0.000000 0.750000
#
# Coordination Sequence:
#
# PCOD8165230 Si02
#       7
#     4   8   8   8   4   8   8
#     4  12  24  34  56  86 116 166 212 266 302 370
#     4  11  23  38  59  84 115 163 204 262 312 363
#     4  12  24  40  59  86 122 160 217 262 315 367
#     4  11  23  36  54  82 115 166 214 265 310 357
#     4  10  20  38  54  78 118 154 214 260 306 346
#     4  10  24  41  62  86 117 159 208 258 316 373
#     4  11  24  39  59  84 121 161 213 258 312 366
#
# _framework density 21.496801999999999
#
# number of rings (size 3 to 8) (size 9 to 14) (size 15 to 20)
#    0.000    1.000    1.667    6.000   12.833    0.667 
#    0.000    0.000    0.000    0.000    0.000    0.000 
#    0.000    4.000    0.000    1.000    0.000    0.167 
#
# Total GULP energy -297507.536189 kJ/mol
# GULP energy per Si atom -12396.147341 kJ/mol
# Density = 2.144787 g / cm^3
# Si number density = 21.496802 Si / 1000 Ang^3
#
#
#
# Elastic Constant Matrix: (Units=GPa)
#
#
# Indices 1 2 3 4 5 6 
#
# 1 49.5965 17.3891 23.4799 0.0000 0.0000 0.0000
# 2 17.3891 137.1727 62.5116 0.0000 0.0000 0.0000
# 3 23.4799 62.5116 154.2346 0.0000 0.0000 0.0000
# 4 0.0000 0.0000 0.0000 41.6345 0.0000 0.0000
# 5 0.0000 0.0000 0.0000 0.0000 12.2721 0.0000
# 6 0.0000 0.0000 0.0000 0.0000 0.0000 16.0262
#
#
#
# Elastic Compliance Matrix: (Units=1/GPa)
#
#
# Indices 1 2 3 4 5 6 
#
# 1 0.021994 -0.001548 -0.002721 0.000000 0.000000 0.000000
# 2 -0.001548 0.009051 -0.003433 0.000000 0.000000 0.000000
# 3 -0.002721 -0.003433 0.008289 0.000000 0.000000 0.000000
# 4 0.000000 0.000000 0.000000 0.024019 0.000000 0.000000
# 5 0.000000 0.000000 0.000000 0.000000 0.081485 0.000000
# 6 0.000000 0.000000 0.000000 0.000000 0.000000 0.062398
#
#
# Mechanical properties :
#
#
# Convention : Reuss Voigt Hill
#
# Bulk Modulus (GPa) = 41.78804 60.86279 51.32542
# Shear Modulus (GPa) = 21.68121 29.82812 25.75467
#
# Velocity S-wave (km/s) = 3.17926 3.72904 3.46507
# Velocity P-wave (km/s) = 5.74093 6.84945 6.31954
#
# Compressibility (1/GPa) = 0.02393029
#
# Stress axis : x y z
#
# Youngs Moduli (GPa) = 45.46786 110.48992 120.64135
#
# Poissons Ratio (x) = 0.17106 0.32823
# Poissons Ratio (y) = 0.07039 0.41411
# Poissons Ratio (z) = 0.12370 0.37926
#
# Static dielectric constant tensor:
#      x y z
#    x 3.372540 0.000000 0.000000 
#    y 0.000000 3.972820 0.000000 
#    z 0.000000 0.000000 4.103860 
# 
# 
# High freq. dielectric constant tensor:
#      x y z
#    x 1.778440 0.000000 0.000000 
#    y 0.000000 1.857870 0.000000 
#    z 0.000000 0.000000 1.847860 
# 
# From -- ./inp_files/31529.got.cif
#   From: 2010.03.12/outbox.cif.g09.slc.cpg/sg24_16_cif.got.tgz:31529.got - 2010.04.14 03:06:53.
