data_PCOD8165379
_publ_section_title
;
Structure prediction by ZEFSAII (Michael W. Deem and Ramdas Pophale) SiO2 
 PCOD8165379
Probable space group: I 21 21 21
;
_chemical_formula_sum "Si O2"
_cell_formula_units_Z 48
_cell_length_a 14.761731
_cell_length_b 8.161007
_cell_length_c 21.219926
_cell_angle_alpha 90.000000
_cell_angle_beta 90.000000
_cell_angle_gamma 90.000000
_cell_volume 2556.377005
_symmetry_space_group_name_H-M "I 21 21 21"
_symmetry_group_IT_number 24
_symmetry_cell_setting 'orthorhombic'
loop_
_space_group_symop_operation_xyz
x,y,z
-x,1/2-y,z
x,-y,1/2-z
1/2-x,y,-z
1/2+x,1/2+y,1/2+z
1/2-x,-y,1/2+z
1/2+x,1/2-y,-z
-x,1/2+y,1/2-z
loop_
_atom_site_type_symbol
_atom_site_label
_atom_site_fract_x
_atom_site_fract_y
_atom_site_fract_z
Si Si1 0.149936 0.930931 0.945796
Si Si2 0.965992 0.564591 0.180923
Si Si3 0.328243 0.051629 0.914751
Si Si4 0.286633 0.433189 0.431613
Si Si5 0.534288 0.066861 0.041548
Si Si6 0.108861 0.421990 0.092930
O O1 0.184191 0.753506 0.925183
O O2 0.218045 0.057326 0.909624
O O3 0.045084 0.956220 0.927363
O O4 0.152516 0.953477 0.020978
O O5 0.944840 0.500000 0.250000
O O6 0.872528 0.551388 0.141882
O O7 0.000000 0.750000 0.180800
O O8 0.041671 0.445665 0.151083
O O9 0.370081 0.231556 0.917902
O O10 0.250000 0.482301 0.500000
O O11 0.375163 0.544115 0.416558
O O12 0.201198 0.480675 0.387775
O O13 0.500000 0.250000 0.042684
O O14 0.558528 0.009816 0.969949
#
# Coordination Sequence:
#
# PCOD8165379 Si02
#       6
#     8   8   8   8   8   8
#     4  11  20  33  51  78 110 147 182 224 286 339
#     4  12  25  40  60  81 110 151 195 235 278 330
#     4  11  21  35  53  78 108 145 183 233 276 336
#     4  10  21  30  48  74 107 140 183 217 273 336
#     4  11  19  30  49  75 108 146 177 217 273 333
#     4  11  21  36  53  77 111 147 185 232 277 332
#
# _framework density 18.776572000000002
#
# number of rings (size 3 to 8) (size 9 to 14) (size 15 to 20)
#    0.000    1.000    5.000    4.000    7.000    0.000 
#    0.000    0.000    0.000    0.000    0.000    1.167 
#    0.000    0.000    0.000    0.000    0.000    0.000 
#
# Total GULP energy -297485.514778 kJ/mol
# GULP energy per Si atom -12395.229782 kJ/mol
# Density = 1.873384 g / cm^3
# Si number density = 18.776572 Si / 1000 Ang^3
#
#
#
# Elastic Constant Matrix: (Units=GPa)
#
#
# Indices 1 2 3 4 5 6 
#
# 1 163.0122 36.4641 37.8207 0.0000 0.0000 0.0000
# 2 36.4641 83.4637 16.6110 0.0000 0.0000 0.0000
# 3 37.8207 16.6110 66.2822 0.0000 0.0000 0.0000
# 4 0.0000 0.0000 0.0000 18.6495 0.0000 0.0000
# 5 0.0000 0.0000 0.0000 0.0000 22.0725 0.0000
# 6 0.0000 0.0000 0.0000 0.0000 0.0000 39.6065
#
#
#
# Elastic Compliance Matrix: (Units=1/GPa)
#
#
# Indices 1 2 3 4 5 6 
#
# 1 0.007562 -0.002573 -0.003670 0.000000 0.000000 0.000000
# 2 -0.002573 0.013486 -0.001911 0.000000 0.000000 0.000000
# 3 -0.003670 -0.001911 0.017660 0.000000 0.000000 0.000000
# 4 0.000000 0.000000 0.000000 0.053621 0.000000 0.000000
# 5 0.000000 0.000000 0.000000 0.000000 0.045305 0.000000
# 6 0.000000 0.000000 0.000000 0.000000 0.000000 0.025248
#
#
# Mechanical properties :
#
#
# Convention : Reuss Voigt Hill
#
# Bulk Modulus (GPa) = 44.64556 54.94999 49.79778
# Shear Modulus (GPa) = 26.78714 30.85651 28.82182
#
# Velocity S-wave (km/s) = 3.78117 4.05823 3.92214
# Velocity P-wave (km/s) = 6.54919 7.16154 6.86220
#
# Compressibility (1/GPa) = 0.02239864
#
# Stress axis : x y z
#
# Youngs Moduli (GPa) = 132.24847 74.15178 56.62515
#
# Poissons Ratio (x) = 0.19080 0.20780
# Poissons Ratio (y) = 0.34030 0.10824
# Poissons Ratio (z) = 0.48532 0.14174
#
# Static dielectric constant tensor:
#      x y z
#    x 4.489620 0.000000 0.000000 
#    y 0.000000 3.495810 0.000000 
#    z 0.000000 0.000000 2.944860 
# 
# 
# High freq. dielectric constant tensor:
#      x y z
#    x 1.760800 0.000000 0.000000 
#    y 0.000000 1.741770 0.000000 
#    z 0.000000 0.000000 1.644330 
# 
# From -- ./inp_files/33640.got.cif
#   From: 2010.03.12/outbox.cif.g09.slc.cpg/sg24_17_cif.got.tgz:33640.got - 2010.04.14 03:06:53.
