data_PCOD8165968
_publ_section_title
;
Structure prediction by ZEFSAII (Michael W. Deem and Ramdas Pophale) SiO2 
 PCOD8165968
Probable space group: I 21 21 21
;
_chemical_formula_sum "Si O2"
_cell_formula_units_Z 56
_cell_length_a 13.324649
_cell_length_b 8.889924
_cell_length_c 21.830346
_cell_angle_alpha 90.000000
_cell_angle_beta 90.000000
_cell_angle_gamma 90.000000
_cell_volume 2585.916188
_symmetry_space_group_name_H-M "I 21 21 21"
_symmetry_group_IT_number 24
_symmetry_cell_setting 'orthorhombic'
loop_
_space_group_symop_operation_xyz
x,y,z
-x,1/2-y,z
x,-y,1/2-z
1/2-x,y,-z
1/2+x,1/2+y,1/2+z
1/2-x,-y,1/2+z
1/2+x,1/2-y,-z
-x,1/2+y,1/2-z
loop_
_atom_site_type_symbol
_atom_site_label
_atom_site_fract_x
_atom_site_fract_y
_atom_site_fract_z
Si Si1 0.774863 0.212620 0.158788
Si Si2 0.560546 0.500000 0.250000
Si Si3 0.835250 0.532727 0.116858
Si Si4 0.250000 0.819797 0.000000
Si Si5 0.957392 0.088965 0.087746
Si Si6 0.902617 0.009041 0.850911
Si Si7 0.280068 0.759485 0.207529
Si Si8 0.575020 0.121724 0.476461
O O1 0.777074 0.381353 0.133654
O O2 0.866989 0.111007 0.135338
O O3 0.781113 0.211192 0.232309
O O4 0.668299 0.150808 0.134696
O O5 0.489890 0.558500 0.304742
O O6 0.627972 0.634102 0.225415
O O7 0.800877 0.663376 0.162855
O O8 0.955171 0.507154 0.121175
O O9 0.809479 0.574805 0.047081
O O10 0.178213 0.708028 0.962638
O O11 0.000000 0.250000 0.065789
O O12 0.914304 0.003170 0.028830
O O13 0.828870 0.884786 0.822963
O O14 0.957743 0.954533 0.912787
O O15 0.500000 0.250000 0.499122
#
# Coordination Sequence:
#
# PCOD8165968 Si02
#       8
#     8   4   8   4   8   8   8   8
#     4  11  24  46  69 100 143 184 235 295 358 422
#     4  12  24  42  72 102 146 180 234 290 360 426
#     4  11  24  45  74  99 141 189 236 296 358 426
#     4  12  24  42  76 104 136 182 242 294 354 428
#     4  10  25  47  70 103 143 186 239 296 357 429
#     4  12  26  42  70 105 141 185 232 299 354 430
#     4  12  23  46  70 104 140 188 237 293 356 428
#     4  12  24  45  71 104 135 183 236 289 355 429
#
# _framework density 21.655767000000001
#
# number of rings (size 3 to 8) (size 9 to 14) (size 15 to 20)
#    0.000    0.571    5.714    2.143    0.000    2.286 
#    2.571    8.571    0.000    0.000    0.000    0.000 
#    0.000    0.000    0.000    0.000    0.000    0.000 
#
# Total GULP energy -347310.585175 kJ/mol
# GULP energy per Si atom -12403.949471 kJ/mol
# Density = 2.160648 g / cm^3
# Si number density = 21.655767 Si / 1000 Ang^3
#
#
#
# Elastic Constant Matrix: (Units=GPa)
#
#
# Indices 1 2 3 4 5 6 
#
# 1 84.4946 9.2781 33.3005 0.0000 0.0000 0.0000
# 2 9.2781 51.2800 30.7780 0.0000 0.0000 0.0000
# 3 33.3005 30.7780 129.5688 0.0000 0.0000 0.0000
# 4 0.0000 0.0000 0.0000 -7.4353 0.0000 0.0000
# 5 0.0000 0.0000 0.0000 0.0000 37.0511 0.0000
# 6 0.0000 0.0000 0.0000 0.0000 0.0000 37.5173
#
#
#
# Elastic Compliance Matrix: (Units=1/GPa)
#
#
# Indices 1 2 3 4 5 6 
#
# 1 0.013176 -0.000410 -0.003289 0.000000 0.000000 0.000000
# 2 -0.000410 0.022756 -0.005300 0.000000 0.000000 0.000000
# 3 -0.003289 -0.005300 0.009822 0.000000 0.000000 0.000000
# 4 0.000000 0.000000 0.000000 -0.134494 0.000000 0.000000
# 5 0.000000 0.000000 0.000000 0.000000 0.026990 0.000000
# 6 0.000000 0.000000 0.000000 0.000000 0.000000 0.026654
#
#
# Mechanical properties :
#
#
# Convention : Reuss Voigt Hill
#
# Bulk Modulus (GPa) = 36.02778 45.78409 40.90593
# Shear Modulus (GPa) = -637.38254 26.22575 -305.57839
#
# Velocity S-wave (km/s) = -17.17450 3.48376 -11.89174
# Velocity P-wave (km/s) = 19.40650 6.11308 13.02387
#
# Compressibility (1/GPa) = 0.02775636
#
# Stress axis : x y z
#
# Youngs Moduli (GPa) = 75.89351 43.94425 101.80966
#
# Poissons Ratio (x) = 0.01801 0.33486
# Poissons Ratio (y) = 0.03111 0.53961
# Poissons Ratio (z) = 0.24962 0.23291
#
# Static dielectric constant tensor:
#      x y z
#    x 4.554350 0.000000 0.000000 
#    y 0.000000 4.174870 0.000000 
#    z 0.000000 0.000000 3.926320 
# 
# 
# High freq. dielectric constant tensor:
#      x y z
#    x 1.855000 0.000000 0.000000 
#    y 0.000000 1.862660 0.000000 
#    z 0.000000 0.000000 1.852530 
# 
# From -- ./inp_files/33791.got.cif
#   From: 2010.03.12/outbox.cif.g09.slc.cpg/sg24_17_cif.got.tgz:33791.got - 2010.04.14 03:06:53.
