data_PCOD8165702
_publ_section_title
;
Structure prediction by ZEFSAII (Michael W. Deem and Ramdas Pophale) SiO2 
 PCOD8165702
Probable space group: I 21 21 21
;
_chemical_formula_sum "Si O2"
_cell_formula_units_Z 48
_cell_length_a 24.947134
_cell_length_b 16.865867
_cell_length_c 4.973640
_cell_angle_alpha 90.000000
_cell_angle_beta 90.000000
_cell_angle_gamma 90.000000
_cell_volume 2092.684117
_symmetry_space_group_name_H-M "I 21 21 21"
_symmetry_group_IT_number 24
_symmetry_cell_setting 'orthorhombic'
loop_
_space_group_symop_operation_xyz
x,y,z
-x,1/2-y,z
x,-y,1/2-z
1/2-x,y,-z
1/2+x,1/2+y,1/2+z
1/2-x,-y,1/2+z
1/2+x,1/2-y,-z
-x,1/2+y,1/2-z
loop_
_atom_site_type_symbol
_atom_site_label
_atom_site_fract_x
_atom_site_fract_y
_atom_site_fract_z
Si Si1 0.510322 0.915271 0.370633
Si Si2 0.634935 0.242110 0.611660
Si Si3 0.715790 0.371576 0.749575
Si Si4 0.133937 0.000000 0.250000
Si Si5 0.286914 0.500000 0.250000
Si Si6 0.053430 0.123547 0.398045
Si Si7 0.369707 0.636370 0.389121
O O1 0.487858 0.902850 0.667805
O O2 0.573658 0.906824 0.368024
O O3 0.495187 0.000000 0.250000
O O4 0.479963 0.855715 0.166640
O O5 0.688271 0.293731 0.630449
O O6 0.583325 0.295744 0.684503
O O7 0.631957 0.211277 0.308141
O O8 0.637636 0.167221 0.808591
O O9 0.750000 0.408968 0.500000
O O10 0.673579 0.434520 0.879558
O O11 0.750000 0.342490 0.000000
O O12 0.096087 0.948781 0.048415
O O13 0.250000 0.475471 0.500000
O O14 0.322957 0.575003 0.325614
#
# Coordination Sequence:
#
# PCOD8165702 Si02
#       7
#     8   8   8   4   4   8   8
#     4  12  23  42  69  97 134 170 220 266 321 389
#     4  11  26  43  67  98 137 172 216 272 330 394
#     4  11  24  41  64  93 128 173 219 265 321 375
#     4  10  22  40  63  94 133 170 222 262 302 380
#     4  12  28  48  73 100 125 170 230 282 340 394
#     4  11  24  41  66 101 136 180 214 259 322 386
#     4  12  26  47  69  99 131 169 219 277 331 394
#
# _framework density 22.937047
#
# number of rings (size 3 to 8) (size 9 to 14) (size 15 to 20)
#    0.000    0.667    2.500    4.500    0.000   13.333 
#    0.000    0.000    0.000    0.000    0.000    0.000 
#    0.000    0.000    0.000    0.000    0.000    0.000 
#
# Total GULP energy -297600.424609 kJ/mol
# GULP energy per Si atom -12400.017692 kJ/mol
# Density = 2.288484 g / cm^3
# Si number density = 22.937047 Si / 1000 Ang^3
#
#
#
# Elastic Constant Matrix: (Units=GPa)
#
#
# Indices 1 2 3 4 5 6 
#
# 1 141.7620 35.1018 36.9773 0.0000 0.0000 0.0000
# 2 35.1018 80.6080 1.5064 0.0000 0.0000 0.0000
# 3 36.9773 1.5064 96.1027 0.0000 0.0000 0.0000
# 4 0.0000 0.0000 0.0000 31.7568 0.0000 0.0000
# 5 0.0000 0.0000 0.0000 0.0000 32.6085 0.0000
# 6 0.0000 0.0000 0.0000 0.0000 0.0000 21.4013
#
#
#
# Elastic Compliance Matrix: (Units=1/GPa)
#
#
# Indices 1 2 3 4 5 6 
#
# 1 0.008870 -0.003800 -0.003353 0.000000 0.000000 0.000000
# 2 -0.003800 0.014037 0.001242 0.000000 0.000000 0.000000
# 3 -0.003353 0.001242 0.011676 0.000000 0.000000 0.000000
# 4 0.000000 0.000000 0.000000 0.031489 0.000000 0.000000
# 5 0.000000 0.000000 0.000000 0.000000 0.030667 0.000000
# 6 0.000000 0.000000 0.000000 0.000000 0.000000 0.046726
#
#
# Mechanical properties :
#
#
# Convention : Reuss Voigt Hill
#
# Bulk Modulus (GPa) = 43.93448 51.73820 47.83634
# Shear Modulus (GPa) = 30.69853 33.47912 32.08883
#
# Velocity S-wave (km/s) = 3.66236 3.82463 3.74437
# Velocity P-wave (km/s) = 6.08932 6.48917 6.29242
#
# Compressibility (1/GPa) = 0.02276117
#
# Stress axis : x y z
#
# Youngs Moduli (GPa) = 112.74508 71.23960 85.64383
#
# Poissons Ratio (x) = 0.27069 0.28718
# Poissons Ratio (y) = 0.42840 -0.10637
# Poissons Ratio (z) = 0.37805 -0.08848
#
# Static dielectric constant tensor:
#      x y z
#    x 4.405920 0.000000 0.000000 
#    y 0.000000 4.071740 0.000000 
#    z 0.000000 0.000000 4.018280 
# 
# 
# High freq. dielectric constant tensor:
#      x y z
#    x 1.926570 0.000000 0.000000 
#    y 0.000000 1.906570 0.000000 
#    z 0.000000 0.000000 1.898420 
# 
# From -- ./inp_files/6423.got.cif
#   From: 2010.03.12/outbox.cif.g09.slc.cpg/sg24_4_cif.got.tgz:6423.got - 2010.04.14 03:06:53.
