data_PCOD8165171
_publ_section_title
;
Structure prediction by ZEFSAII (Michael W. Deem and Ramdas Pophale) SiO2 
 PCOD8165171
Probable space group: I 21 21 21
;
_chemical_formula_sum "Si O2"
_cell_formula_units_Z 64
_cell_length_a 13.929643
_cell_length_b 12.595281
_cell_length_c 18.917490
_cell_angle_alpha 90.000000
_cell_angle_beta 90.000000
_cell_angle_gamma 90.000000
_cell_volume 3319.031393
_symmetry_space_group_name_H-M "I 21 21 21"
_symmetry_group_IT_number 24
_symmetry_cell_setting 'orthorhombic'
loop_
_space_group_symop_operation_xyz
x,y,z
-x,1/2-y,z
x,-y,1/2-z
1/2-x,y,-z
1/2+x,1/2+y,1/2+z
1/2-x,-y,1/2+z
1/2+x,1/2-y,-z
-x,1/2+y,1/2-z
loop_
_atom_site_type_symbol
_atom_site_label
_atom_site_fract_x
_atom_site_fract_y
_atom_site_fract_z
Si Si1 0.212187 0.141358 0.578721
Si Si2 0.764328 0.249880 0.111322
Si Si3 0.183915 0.034763 0.168494
Si Si4 0.599045 0.796540 0.493716
Si Si5 0.197760 0.382862 0.573585
Si Si6 0.490232 0.475601 0.908654
Si Si7 0.191821 0.467964 0.171697
Si Si8 0.010359 0.129359 0.527826
O O1 0.250000 0.125164 0.500000
O O2 0.222223 0.264594 0.601923
O O3 0.099851 0.108946 0.580086
O O4 0.269730 0.067096 0.631546
O O5 0.749218 0.360116 0.155051
O O6 0.668593 0.199834 0.074598
O O7 0.801657 0.159535 0.164522
O O8 0.845112 0.275015 0.051566
O O9 0.081025 0.068826 0.135247
O O10 0.174151 0.000000 0.250000
O O11 0.500000 0.750000 0.465299
O O12 0.568118 0.903636 0.534345
O O13 0.250000 0.403096 0.500000
O O14 0.228815 0.473374 0.626255
O O15 0.085120 0.406749 0.567362
O O16 0.413139 0.510337 0.850176
O O17 0.529191 0.574082 0.952905
O O18 0.214217 0.500000 0.250000
O O19 0.000000 0.250000 0.504991
#
# Coordination Sequence:
#
# PCOD8165171 Si02
#       8
#     8   8   8   8   8   8   8   8
#     4  10  22  38  64  92 120 166 211 259 308 367
#     4  10  24  40  61  94 119 166 213 255 326 376
#     4  12  26  41  61  92 139 173 202 256 328 404
#     4  10  20  37  67  91 119 152 208 277 302 364
#     4  10  20  39  64  91 122 158 207 262 309 361
#     4  11  21  38  62  96 125 158 205 255 325 371
#     4  11  24  40  63  86 124 167 203 254 311 389
#     4  10  20  36  63  96 119 150 208 264 305 358
#
# _framework density 19.282734999999999
#
# number of rings (size 3 to 8) (size 9 to 14) (size 15 to 20)
#    0.000    1.500    3.750    1.125    7.000    0.000 
#    0.000    0.625    0.000    0.000    0.000    0.000 
#    0.000    0.000    0.000    0.000    0.000    0.000 
#
# Total GULP energy -396551.820873 kJ/mol
# GULP energy per Si atom -12392.244402 kJ/mol
# Density = 1.923885 g / cm^3
# Si number density = 19.282735 Si / 1000 Ang^3
#
#
#
# Elastic Constant Matrix: (Units=GPa)
#
#
# Indices 1 2 3 4 5 6 
#
# 1 110.5762 22.3579 32.7138 0.0000 0.0000 0.0000
# 2 22.3579 80.7233 48.4971 0.0000 0.0000 0.0000
# 3 32.7138 48.4971 84.3929 0.0000 0.0000 0.0000
# 4 0.0000 0.0000 0.0000 25.1918 0.0000 0.0000
# 5 0.0000 0.0000 0.0000 0.0000 13.3548 0.0000
# 6 0.0000 0.0000 0.0000 0.0000 0.0000 31.7468
#
#
#
# Elastic Compliance Matrix: (Units=1/GPa)
#
#
# Indices 1 2 3 4 5 6 
#
# 1 0.010240 -0.000689 -0.003573 0.000000 0.000000 0.000000
# 2 -0.000689 0.018966 -0.010632 0.000000 0.000000 0.000000
# 3 -0.003573 -0.010632 0.019344 0.000000 0.000000 0.000000
# 4 0.000000 0.000000 0.000000 0.039695 0.000000 0.000000
# 5 0.000000 0.000000 0.000000 0.000000 0.074879 0.000000
# 6 0.000000 0.000000 0.000000 0.000000 0.000000 0.031499
#
#
# Mechanical properties :
#
#
# Convention : Reuss Voigt Hill
#
# Bulk Modulus (GPa) = 53.30088 53.64778 53.47433
# Shear Modulus (GPa) = 21.67616 25.53357 23.60487
#
# Velocity S-wave (km/s) = 3.35643 3.64286 3.50257
# Velocity P-wave (km/s) = 6.53625 6.75100 6.64449
#
# Compressibility (1/GPa) = 0.01876142
#
# Stress axis : x y z
#
# Youngs Moduli (GPa) = 97.65550 52.72465 51.69506
#
# Poissons Ratio (x) = 0.03635 0.18472
# Poissons Ratio (y) = 0.06733 0.54962
# Poissons Ratio (z) = 0.34895 0.56057
#
# Static dielectric constant tensor:
#      x y z
#    x 4.100640 0.000000 0.000000 
#    y 0.000000 3.658720 0.000000 
#    z 0.000000 0.000000 3.110710 
# 
# 
# High freq. dielectric constant tensor:
#      x y z
#    x 1.762960 0.000000 0.000000 
#    y 0.000000 1.755360 0.000000 
#    z 0.000000 0.000000 1.718880 
# 
# From -- ./inp_files/30896.got.cif
#   From: 2010.03.12/outbox.cif.g09.slc.cpg/sg24_16_cif.got.tgz:30896.got - 2010.04.14 03:06:53.
