data_PCOD8165113
_publ_section_title
;
Structure prediction by ZEFSAII (Michael W. Deem and Ramdas Pophale) SiO2 
 PCOD8165113
Probable space group: I 21 21 21
;
_chemical_formula_sum "Si O2"
_cell_formula_units_Z 32
_cell_length_a 11.927743
_cell_length_b 6.961829
_cell_length_c 17.422556
_cell_angle_alpha 90.000000
_cell_angle_beta 90.000000
_cell_angle_gamma 90.000000
_cell_volume 1446.750010
_symmetry_space_group_name_H-M "I 21 21 21"
_symmetry_group_IT_number 24
_symmetry_cell_setting 'orthorhombic'
loop_
_space_group_symop_operation_xyz
x,y,z
-x,1/2-y,z
x,-y,1/2-z
1/2-x,y,-z
1/2+x,1/2+y,1/2+z
1/2-x,-y,1/2+z
1/2+x,1/2-y,-z
-x,1/2+y,1/2-z
loop_
_atom_site_type_symbol
_atom_site_label
_atom_site_fract_x
_atom_site_fract_y
_atom_site_fract_z
Si Si1 0.157906 0.683183 0.937402
Si Si2 0.703801 0.057463 0.836084
Si Si3 0.008282 0.529079 0.454745
Si Si4 0.233739 0.931999 0.418182
O O1 0.187104 0.563027 0.861143
O O2 0.040038 0.607089 0.972643
O O3 0.166627 0.909491 0.913674
O O4 0.250000 0.629165 0.000000
O O5 0.734724 0.283925 0.847351
O O6 0.674774 0.000000 0.750000
O O7 0.593544 0.007893 0.884483
O O8 0.000000 0.750000 0.481983
O O9 0.886721 0.456797 0.423777
O O10 0.250000 0.818199 0.500000
#
# Coordination Sequence:
#
# PCOD8165113 Si02
#       4
#     8   8   8   8
#     4   9  19  34  56  84 114 157 210 259 305 369
#     4  10  20  35  53  86 128 163 198 252 323 389
#     4   9  18  37  59  89 119 161 215 264 319 375
#     4  10  20  36  59  89 117 160 213 262 313 371
#
# _framework density 22.118542000000001
#
# number of rings (size 3 to 8) (size 9 to 14) (size 15 to 20)
#    0.000    2.500    0.000    3.750    0.000   10.000 
#   13.500    0.000    0.000    0.000   58.500    0.000 
#    0.000    0.000    0.000    0.000    0.000    0.000 
#
# Total GULP energy -198233.702854 kJ/mol
# GULP energy per Si atom -12389.606428 kJ/mol
# Density = 2.206820 g / cm^3
# Si number density = 22.118542 Si / 1000 Ang^3
#
#
#
# Elastic Constant Matrix: (Units=GPa)
#
#
# Indices 1 2 3 4 5 6 
#
# 1 65.3294 54.4563 46.3310 0.0000 0.0000 0.0000
# 2 54.4563 158.5014 62.6990 0.0000 0.0000 0.0000
# 3 46.3310 62.6990 112.9225 0.0000 0.0000 0.0000
# 4 0.0000 0.0000 0.0000 28.0440 0.0000 0.0000
# 5 0.0000 0.0000 0.0000 0.0000 16.9373 0.0000
# 6 0.0000 0.0000 0.0000 0.0000 0.0000 32.0089
#
#
#
# Elastic Compliance Matrix: (Units=1/GPa)
#
#
# Indices 1 2 3 4 5 6 
#
# 1 0.025223 -0.005859 -0.007096 0.000000 0.000000 0.000000
# 2 -0.005859 0.009446 -0.002841 0.000000 0.000000 0.000000
# 3 -0.007096 -0.002841 0.013344 0.000000 0.000000 0.000000
# 4 0.000000 0.000000 0.000000 0.035658 0.000000 0.000000
# 5 0.000000 0.000000 0.000000 0.000000 0.059041 0.000000
# 6 0.000000 0.000000 0.000000 0.000000 0.000000 0.031241
#
#
# Mechanical properties :
#
#
# Convention : Reuss Voigt Hill
#
# Bulk Modulus (GPa) = 60.89305 73.74732 67.32019
# Shear Modulus (GPa) = 23.69454 26.94916 25.32185
#
# Velocity S-wave (km/s) = 3.27655 3.49434 3.38720
# Velocity P-wave (km/s) = 6.47337 7.04945 6.76754
#
# Compressibility (1/GPa) = 0.01642223
#
# Stress axis : x y z
#
# Youngs Moduli (GPa) = 39.64618 105.86679 74.93888
#
# Poissons Ratio (x) = 0.62028 0.53174
# Poissons Ratio (y) = 0.23229 0.21289
# Poissons Ratio (z) = 0.28131 0.30074
#
# Static dielectric constant tensor:
#      x y z
#    x 4.349510 0.000000 0.000000 
#    y 0.000000 4.077960 0.000000 
#    z 0.000000 0.000000 3.537890 
# 
# 
# High freq. dielectric constant tensor:
#      x y z
#    x 1.873730 0.000000 0.000000 
#    y 0.000000 1.888730 0.000000 
#    z 0.000000 0.000000 1.810180 
# 
# From -- ./inp_files/25452.got.cif
#   From: 2010.03.12/outbox.cif.g09.slc.cpg/sg24_13_cif.got.tgz:25452.got - 2010.04.14 03:06:53.
