data_PCOD8165010
_publ_section_title
;
Structure prediction by ZEFSAII (Michael W. Deem and Ramdas Pophale) SiO2 
 PCOD8165010
Probable space group: I 21 21 21
;
_chemical_formula_sum "Si O2"
_cell_formula_units_Z 40
_cell_length_a 18.112584
_cell_length_b 10.204043
_cell_length_c 11.133005
_cell_angle_alpha 90.000000
_cell_angle_beta 90.000000
_cell_angle_gamma 90.000000
_cell_volume 2057.619641
_symmetry_space_group_name_H-M "I 21 21 21"
_symmetry_group_IT_number 24
_symmetry_cell_setting 'orthorhombic'
loop_
_space_group_symop_operation_xyz
x,y,z
-x,1/2-y,z
x,-y,1/2-z
1/2-x,y,-z
1/2+x,1/2+y,1/2+z
1/2-x,-y,1/2+z
1/2+x,1/2-y,-z
-x,1/2+y,1/2-z
loop_
_atom_site_type_symbol
_atom_site_label
_atom_site_fract_x
_atom_site_fract_y
_atom_site_fract_z
Si Si1 0.099438 0.150499 0.012262
Si Si2 0.071679 0.318306 0.633682
Si Si3 0.436303 0.144679 0.725696
Si Si4 0.664115 0.618260 0.007533
Si Si5 0.438713 0.603577 0.406207
O O1 0.120876 0.291153 0.955491
O O2 0.015378 0.115414 0.977459
O O3 0.109770 0.174075 0.154030
O O4 0.150997 0.034675 0.960288
O O5 0.137448 0.214550 0.614924
O O6 0.091161 0.456759 0.570072
O O7 0.050367 0.357275 0.768309
O O8 0.000000 0.250000 0.573954
O O9 0.500000 0.250000 0.702455
O O10 0.379017 0.149975 0.615590
O O11 0.471170 0.000000 0.750000
O O12 0.750000 0.645848 0.000000
#
# Coordination Sequence:
#
# PCOD8165010 Si02
#       5
#     8   8   8   8   8
#     4  10  19  38  60  90 121 150 201 261 303 353
#     4  11  20  36  63  93 119 157 208 256 303 353
#     4  10  21  37  63  89 114 152 204 253 295 350
#     4  11  25  41  58  88 130 167 198 240 307 378
#     4  10  20  35  62  94 115 148 206 265 304 339
#
# _framework density 19.439938999999999
#
# number of rings (size 3 to 8) (size 9 to 14) (size 15 to 20)
#    0.000    1.600    6.000    0.600    2.800    0.800 
#   10.800    1.000    8.800    0.000    0.000    0.000 
#    0.000    0.000    0.000    0.000    0.000    0.000 
#
# Total GULP energy -247791.296568 kJ/mol
# GULP energy per Si atom -12389.564828 kJ/mol
# Density = 1.939569 g / cm^3
# Si number density = 19.439939 Si / 1000 Ang^3
#
#
#
# Elastic Constant Matrix: (Units=GPa)
#
#
# Indices 1 2 3 4 5 6 
#
# 1 91.1066 47.6225 13.0918 0.0000 0.0000 0.0000
# 2 47.6225 178.6499 32.5453 0.0000 0.0000 0.0000
# 3 13.0918 32.5453 61.8823 0.0000 0.0000 0.0000
# 4 0.0000 0.0000 0.0000 34.1064 0.0000 0.0000
# 5 0.0000 0.0000 0.0000 0.0000 8.4436 0.0000
# 6 0.0000 0.0000 0.0000 0.0000 0.0000 21.6351
#
#
#
# Elastic Compliance Matrix: (Units=1/GPa)
#
#
# Indices 1 2 3 4 5 6 
#
# 1 0.012810 -0.003231 -0.001011 0.000000 0.000000 0.000000
# 2 -0.003231 0.007005 -0.003001 0.000000 0.000000 0.000000
# 3 -0.001011 -0.003001 0.017952 0.000000 0.000000 0.000000
# 4 0.000000 0.000000 0.000000 0.029320 0.000000 0.000000
# 5 0.000000 0.000000 0.000000 0.000000 0.118433 0.000000
# 6 0.000000 0.000000 0.000000 0.000000 0.000000 0.046221
#
#
# Mechanical properties :
#
#
# Convention : Reuss Voigt Hill
#
# Bulk Modulus (GPa) = 42.95096 57.57309 50.26202
# Shear Modulus (GPa) = 19.68604 28.72897 24.20750
#
# Velocity S-wave (km/s) = 3.18568 3.84843 3.53263
# Velocity P-wave (km/s) = 5.97274 7.03046 6.52307
#
# Compressibility (1/GPa) = 0.02328237
#
# Stress axis : x y z
#
# Youngs Moduli (GPa) = 78.06332 142.74727 55.70464
#
# Poissons Ratio (x) = 0.46116 0.05632
# Poissons Ratio (y) = 0.25219 0.16716
# Poissons Ratio (z) = 0.07893 0.42836
#
# Static dielectric constant tensor:
#      x y z
#    x 2.991460 0.000000 0.000000 
#    y 0.000000 4.399350 0.000000 
#    z 0.000000 0.000000 3.668680 
# 
# 
# High freq. dielectric constant tensor:
#      x y z
#    x 1.693210 0.000000 0.000000 
#    y 0.000000 1.786630 0.000000 
#    z 0.000000 0.000000 1.763940 
# 
# From -- ./inp_files/21341.got.cif
#   From: 2010.03.12/outbox.cif.g09.slc.cpg/sg24_11_cif.got.tgz:21341.got - 2010.04.14 03:06:53.
