data_PCOD8165029
_publ_section_title
;
Structure prediction by ZEFSAII (Michael W. Deem and Ramdas Pophale) SiO2 
 PCOD8165029
Probable space group: I 21 21 21
;
_chemical_formula_sum "Si O2"
_cell_formula_units_Z 64
_cell_length_a 23.801809
_cell_length_b 13.636086
_cell_length_c 8.684612
_cell_angle_alpha 90.000000
_cell_angle_beta 90.000000
_cell_angle_gamma 90.000000
_cell_volume 2818.708193
_symmetry_space_group_name_H-M "I 21 21 21"
_symmetry_group_IT_number 24
_symmetry_cell_setting 'orthorhombic'
loop_
_space_group_symop_operation_xyz
x,y,z
-x,1/2-y,z
x,-y,1/2-z
1/2-x,y,-z
1/2+x,1/2+y,1/2+z
1/2-x,-y,1/2+z
1/2+x,1/2-y,-z
-x,1/2+y,1/2-z
loop_
_atom_site_type_symbol
_atom_site_label
_atom_site_fract_x
_atom_site_fract_y
_atom_site_fract_z
Si Si1 0.116377 0.363373 0.977703
Si Si2 0.214220 0.909719 0.651375
Si Si3 0.937917 0.274324 0.195338
Si Si4 0.834011 0.763715 0.799130
Si Si5 0.907988 0.445342 0.982863
Si Si6 0.691349 0.034493 0.422686
Si Si7 0.487934 0.605072 0.281283
Si Si8 0.936468 0.667197 0.966435
O O1 0.161554 0.307684 0.873272
O O2 0.139409 0.474800 0.004359
O O3 0.057851 0.343692 0.886780
O O4 0.106248 0.310078 0.140838
O O5 0.250000 0.886804 0.500000
O O6 0.214076 0.818629 0.773065
O O7 0.151852 0.932613 0.595198
O O8 0.239595 0.000000 0.750000
O O9 0.915861 0.379978 0.136219
O O10 0.940533 0.269559 0.379220
O O11 0.000000 0.250000 0.130514
O O12 0.818110 0.847860 0.923584
O O13 0.891473 0.715191 0.853768
O O14 0.918117 0.558549 0.020373
O O15 0.951879 0.406780 0.858518
O O16 0.750000 0.007209 0.500000
O O17 0.694389 0.000000 0.250000
O O18 0.459609 0.500000 0.250000
O O19 0.502273 0.661799 0.120897
#
# Coordination Sequence:
#
# PCOD8165029 Si02
#       8
#     8   8   8   8   8   8   8   8
#     4  11  23  44  71 101 139 185 247 289 358 432
#     4  12  25  46  72 107 138 182 243 300 362 440
#     4  12  25  41  64 109 146 192 232 289 359 426
#     4  11  23  45  70 103 135 183 243 287 368 434
#     4  11  21  47  68  96 148 191 223 288 360 434
#     4  10  25  48  75 100 137 188 247 310 360 421
#     4  10  19  38  73  96 135 190 230 281 349 431
#     4  11  24  39  68 102 147 180 236 291 357 429
#
# _framework density 22.705438000000001
#
# number of rings (size 3 to 8) (size 9 to 14) (size 15 to 20)
#    0.000    1.000    5.000    1.875    1.750    4.500 
#    2.250    0.000    0.000    0.000    0.000    0.000 
#    0.000    0.000    0.000    0.000    0.000    0.000 
#
# Total GULP energy -396633.085381 kJ/mol
# GULP energy per Si atom -12394.783918 kJ/mol
# Density = 2.265376 g / cm^3
# Si number density = 22.705438 Si / 1000 Ang^3
#
#
#
# Elastic Constant Matrix: (Units=GPa)
#
#
# Indices 1 2 3 4 5 6 
#
# 1 85.1052 34.7591 20.4441 0.0000 0.0000 0.0000
# 2 34.7591 142.7775 35.8030 0.0000 0.0000 0.0000
# 3 20.4441 35.8030 85.1738 0.0000 0.0000 0.0000
# 4 0.0000 0.0000 0.0000 -6.0823 0.0000 0.0000
# 5 0.0000 0.0000 0.0000 0.0000 33.9841 0.0000
# 6 0.0000 0.0000 0.0000 0.0000 0.0000 25.2135
#
#
#
# Elastic Compliance Matrix: (Units=1/GPa)
#
#
# Indices 1 2 3 4 5 6 
#
# 1 0.013362 -0.002737 -0.002057 0.000000 0.000000 0.000000
# 2 -0.002737 0.008390 -0.002870 0.000000 0.000000 0.000000
# 3 -0.002057 -0.002870 0.013441 0.000000 0.000000 0.000000
# 4 0.000000 0.000000 0.000000 -0.164412 0.000000 0.000000
# 5 0.000000 0.000000 0.000000 0.000000 0.029426 0.000000
# 6 0.000000 0.000000 0.000000 0.000000 0.000000 0.039661
#
#
# Mechanical properties :
#
#
# Convention : Reuss Voigt Hill
#
# Bulk Modulus (GPa) = 50.33871 55.00768 52.67320
# Shear Modulus (GPa) = -130.94632 25.42641 -52.75996
#
# Velocity S-wave (km/s) = -7.60243 3.35003 -4.82568
# Velocity P-wave (km/s) = 7.40569 6.26441 2.79297
#
# Compressibility (1/GPa) = 0.01986543
#
# Stress axis : x y z
#
# Youngs Moduli (GPa) = 74.83793 119.19086 74.40123
#
# Poissons Ratio (x) = 0.32626 0.15302
# Poissons Ratio (y) = 0.20485 0.21351
# Poissons Ratio (z) = 0.15392 0.34204
#
# Static dielectric constant tensor:
#      x y z
#    x 4.950300 0.000000 0.000000 
#    y 0.000000 4.047320 0.000000 
#    z 0.000000 0.000000 3.965200 
# 
# 
# High freq. dielectric constant tensor:
#      x y z
#    x 1.877790 0.000000 0.000000 
#    y 0.000000 1.915820 0.000000 
#    z 0.000000 0.000000 1.882850 
# 
# From -- ./inp_files/16056.got.cif
#   From: 2010.03.12/outbox.cif.g09.slc.cpg/sg24_9_cif.got.tgz:16056.got - 2010.04.14 03:06:53.
