data_PCOD8165224
_publ_section_title
;
Structure prediction by ZEFSAII (Michael W. Deem and Ramdas Pophale) SiO2 
 PCOD8165224
Probable space group: I 21 21 21
;
_chemical_formula_sum "Si O2"
_cell_formula_units_Z 48
_cell_length_a 28.159302
_cell_length_b 9.809506
_cell_length_c 8.957311
_cell_angle_alpha 90.000000
_cell_angle_beta 90.000000
_cell_angle_gamma 90.000000
_cell_volume 2474.267644
_symmetry_space_group_name_H-M "I 21 21 21"
_symmetry_group_IT_number 24
_symmetry_cell_setting 'orthorhombic'
loop_
_space_group_symop_operation_xyz
x,y,z
-x,1/2-y,z
x,-y,1/2-z
1/2-x,y,-z
1/2+x,1/2+y,1/2+z
1/2-x,-y,1/2+z
1/2+x,1/2-y,-z
-x,1/2+y,1/2-z
loop_
_atom_site_type_symbol
_atom_site_label
_atom_site_fract_x
_atom_site_fract_y
_atom_site_fract_z
Si Si1 0.048469 0.587469 0.896584
Si Si2 0.202372 0.241599 0.423951
Si Si3 0.863423 0.985756 0.078469
Si Si4 0.653173 0.499295 0.070567
Si Si5 0.555195 0.402308 0.392166
Si Si6 0.698542 0.244652 0.928699
O O1 0.045170 0.500000 0.750000
O O2 0.062900 0.742330 0.853513
O O3 0.995930 0.583450 0.975074
O O4 0.086064 0.509085 0.998443
O O5 0.250000 0.300139 0.500000
O O6 0.160030 0.342959 0.464837
O O7 0.192728 0.096924 0.500190
O O8 0.206282 0.227622 0.246060
O O9 0.875747 0.000000 0.250000
O O10 0.826341 0.102110 0.032436
O O11 0.657099 0.500000 0.250000
O O12 0.600823 0.547340 0.012826
O O13 0.663166 0.351764 0.004082
O O14 0.554717 0.500000 0.250000
O O15 0.750000 0.248287 0.000000
#
# Coordination Sequence:
#
# PCOD8165224 Si02
#       6
#     8   8   8   8   8   8
#     4  10  20  37  65  89 119 157 198 245 292 344
#     4  11  22  40  61  83 115 154 196 243 295 350
#     4  10  23  40  59  86 120 153 193 243 297 350
#     4  11  22  38  60  87 118 154 195 241 291 351
#     4   9  20  37  60  92 122 151 197 245 291 345
#     4  11  24  40  59  86 119 154 195 244 292 351
#
# _framework density 19.399681000000001
#
# number of rings (size 3 to 8) (size 9 to 14) (size 15 to 20)
#    0.000    1.667    1.667    2.500    4.667    1.333 
#    0.000    1.667    0.000    0.000    0.000    0.000 
#    0.000    0.000    0.000    0.000    0.000    0.000 
#
# Total GULP energy -297468.667932 kJ/mol
# GULP energy per Si atom -12394.527831 kJ/mol
# Density = 1.935553 g / cm^3
# Si number density = 19.399681 Si / 1000 Ang^3
#
#
#
# Elastic Constant Matrix: (Units=GPa)
#
#
# Indices 1 2 3 4 5 6 
#
# 1 148.0754 37.4644 51.6006 0.0000 0.0000 0.0000
# 2 37.4644 90.7886 38.0503 0.0000 0.0000 0.0000
# 3 51.6006 38.0503 76.4476 0.0000 0.0000 0.0000
# 4 0.0000 0.0000 0.0000 26.3576 0.0000 0.0000
# 5 0.0000 0.0000 0.0000 0.0000 20.9855 0.0000
# 6 0.0000 0.0000 0.0000 0.0000 0.0000 41.9453
#
#
#
# Elastic Compliance Matrix: (Units=1/GPa)
#
#
# Indices 1 2 3 4 5 6 
#
# 1 0.008984 -0.001473 -0.005331 0.000000 0.000000 0.000000
# 2 -0.001473 0.014159 -0.006053 0.000000 0.000000 0.000000
# 3 -0.005331 -0.006053 0.019692 0.000000 0.000000 0.000000
# 4 0.000000 0.000000 0.000000 0.037940 0.000000 0.000000
# 5 0.000000 0.000000 0.000000 0.000000 0.047652 0.000000
# 6 0.000000 0.000000 0.000000 0.000000 0.000000 0.023841
#
#
# Mechanical properties :
#
#
# Convention : Reuss Voigt Hill
#
# Bulk Modulus (GPa) = 58.40784 63.28248 60.84516
# Shear Modulus (GPa) = 27.22006 30.40409 28.81208
#
# Velocity S-wave (km/s) = 3.74989 3.96314 3.85799
# Velocity P-wave (km/s) = 6.99442 7.32347 7.16083
#
# Compressibility (1/GPa) = 0.01712099
#
# Stress axis : x y z
#
# Youngs Moduli (GPa) = 111.31432 70.62416 50.78256
#
# Poissons Ratio (x) = 0.10403 0.27070
# Poissons Ratio (y) = 0.16397 0.30740
# Poissons Ratio (z) = 0.59337 0.42751
#
# Static dielectric constant tensor:
#      x y z
#    x 4.081270 0.000000 0.000000 
#    y 0.000000 4.780460 0.000000 
#    z 0.000000 0.000000 3.324510 
# 
# 
# High freq. dielectric constant tensor:
#      x y z
#    x 1.779340 0.000000 0.000000 
#    y 0.000000 1.770820 0.000000 
#    z 0.000000 0.000000 1.727230 
# 
# From -- ./inp_files/9760.got.cif
#   From: 2010.03.12/outbox.cif.g09.slc.cpg/sg24_5_cif.got.tgz:9760.got - 2010.04.14 03:06:53.
