data_PCOD8165614
_publ_section_title
;
Structure prediction by ZEFSAII (Michael W. Deem and Ramdas Pophale) SiO2 
 PCOD8165614
Probable space group: I 21 21 21
;
_chemical_formula_sum "Si O2"
_cell_formula_units_Z 60
_cell_length_a 20.519200
_cell_length_b 5.156217
_cell_length_c 24.563219
_cell_angle_alpha 90.000000
_cell_angle_beta 90.000000
_cell_angle_gamma 90.000000
_cell_volume 2598.824134
_symmetry_space_group_name_H-M "I 21 21 21"
_symmetry_group_IT_number 24
_symmetry_cell_setting 'orthorhombic'
loop_
_space_group_symop_operation_xyz
x,y,z
-x,1/2-y,z
x,-y,1/2-z
1/2-x,y,-z
1/2+x,1/2+y,1/2+z
1/2-x,-y,1/2+z
1/2+x,1/2-y,-z
-x,1/2+y,1/2-z
loop_
_atom_site_type_symbol
_atom_site_label
_atom_site_fract_x
_atom_site_fract_y
_atom_site_fract_z
Si Si1 0.379277 0.797203 0.489526
Si Si2 0.276610 0.518293 0.069232
Si Si3 0.041738 0.006174 0.607546
Si Si4 0.727015 0.672176 0.655982
Si Si5 0.157861 0.188573 0.660710
Si Si6 0.842055 0.315235 0.417161
Si Si7 0.459094 0.508287 0.565857
Si Si8 0.768210 0.000000 0.750000
O O1 0.311052 0.641754 0.479604
O O2 0.437215 0.596949 0.505061
O O3 0.401454 0.951454 0.436495
O O4 0.375661 0.985501 0.541401
O O5 0.223384 0.360328 0.104469
O O6 0.333366 0.624759 0.108299
O O7 0.225579 0.741835 0.050468
O O8 0.081940 0.099904 0.661585
O O9 0.000000 0.250000 0.587051
O O10 0.000000 0.750000 0.621049
O O11 0.800591 0.570409 0.655170
O O12 0.674903 0.443253 0.642480
O O13 0.718855 0.822616 0.713567
O O14 0.182156 0.329369 0.714919
O O15 0.891824 0.076300 0.403394
O O16 0.500000 0.250000 0.560541
O O17 0.500000 0.750000 0.593609
#
# Coordination Sequence:
#
# PCOD8165614 Si02
#       8
#     8   8   8   8   8   8   8   4
#     4  12  26  43  64 100 144 204 253 299 355 427
#     4  10  23  41  63  96 140 184 239 304 372 426
#     4  12  28  44  70  97 143 202 266 300 343 426
#     4  10  21  44  66 101 133 184 227 308 383 453
#     4  10  22  44  69 100 132 186 238 314 378 435
#     4  11  26  42  64 100 147 193 250 306 366 441
#     4  12  27  44  63  93 142 207 255 293 339 421
#     4  10  22  42  82  98 138 182 236 310 414 452
#
# _framework density 23.087364000000001
#
# number of rings (size 3 to 8) (size 9 to 14) (size 15 to 20)
#    0.000    1.067    2.667    2.400    7.467    3.200 
#    2.400    0.000    2.933    0.000    0.000    0.000 
#    0.000    0.000  512.267    0.000    0.000    0.000 
#
# Total GULP energy -371659.913669 kJ/mol
# GULP energy per Si atom -12388.663789 kJ/mol
# Density = 2.303482 g / cm^3
# Si number density = 23.087364 Si / 1000 Ang^3
#
#
#
# Elastic Constant Matrix: (Units=GPa)
#
#
# Indices 1 2 3 4 5 6 
#
# 1 120.2112 60.9640 41.2987 0.0000 0.0000 0.0000
# 2 60.9640 136.4146 41.2605 0.0000 0.0000 0.0000
# 3 41.2987 41.2605 83.0097 0.0000 0.0000 0.0000
# 4 0.0000 0.0000 0.0000 35.9579 0.0000 0.0000
# 5 0.0000 0.0000 0.0000 0.0000 14.1348 0.0000
# 6 0.0000 0.0000 0.0000 0.0000 0.0000 56.6717
#
#
#
# Elastic Compliance Matrix: (Units=1/GPa)
#
#
# Indices 1 2 3 4 5 6 
#
# 1 0.011688 -0.004078 -0.003788 0.000000 0.000000 0.000000
# 2 -0.004078 0.010050 -0.002967 0.000000 0.000000 0.000000
# 3 -0.003788 -0.002967 0.015406 0.000000 0.000000 0.000000
# 4 0.000000 0.000000 0.000000 0.027810 0.000000 0.000000
# 5 0.000000 0.000000 0.000000 0.000000 0.070747 0.000000
# 6 0.000000 0.000000 0.000000 0.000000 0.000000 0.017645
#
#
# Mechanical properties :
#
#
# Convention : Reuss Voigt Hill
#
# Bulk Modulus (GPa) = 64.60310 69.63133 67.11721
# Shear Modulus (GPa) = 27.75116 34.42704 31.08910
#
# Velocity S-wave (km/s) = 3.47076 3.86575 3.67357
# Velocity P-wave (km/s) = 6.64111 7.08172 6.86495
#
# Compressibility (1/GPa) = 0.01547913
#
# Stress axis : x y z
#
# Youngs Moduli (GPa) = 85.55744 99.49984 64.90905
#
# Poissons Ratio (x) = 0.40572 0.24589
# Poissons Ratio (y) = 0.34887 0.19258
# Poissons Ratio (z) = 0.32411 0.29520
#
# Static dielectric constant tensor:
#      x y z
#    x 4.283000 0.000000 0.000000 
#    y 0.000000 4.870720 0.000000 
#    z 0.000000 0.000000 3.833900 
# 
# 
# High freq. dielectric constant tensor:
#      x y z
#    x 1.910650 0.000000 0.000000 
#    y 0.000000 1.946580 0.000000 
#    z 0.000000 0.000000 1.857360 
# 
# From -- ./inp_files/37539.got.cif
#   From: 2010.03.12/outbox.cif.g09.slc.cpg/sg24_19_cif.got.tgz:37539.got - 2010.04.14 03:06:53.
