data_PCOD8165918
_publ_section_title
;
Structure prediction by ZEFSAII (Michael W. Deem and Ramdas Pophale) SiO2 
 PCOD8165918
Probable space group: I 21 21 21
;
_chemical_formula_sum "Si O2"
_cell_formula_units_Z 56
_cell_length_a 17.557559
_cell_length_b 10.384131
_cell_length_c 12.995913
_cell_angle_alpha 90.000000
_cell_angle_beta 90.000000
_cell_angle_gamma 90.000000
_cell_volume 2369.414763
_symmetry_space_group_name_H-M "I 21 21 21"
_symmetry_group_IT_number 24
_symmetry_cell_setting 'orthorhombic'
loop_
_space_group_symop_operation_xyz
x,y,z
-x,1/2-y,z
x,-y,1/2-z
1/2-x,y,-z
1/2+x,1/2+y,1/2+z
1/2-x,-y,1/2+z
1/2+x,1/2-y,-z
-x,1/2+y,1/2-z
loop_
_atom_site_type_symbol
_atom_site_label
_atom_site_fract_x
_atom_site_fract_y
_atom_site_fract_z
Si Si1 0.058834 0.633481 0.197180
Si Si2 0.582448 0.703612 0.315986
Si Si3 0.954801 0.375729 0.590097
Si Si4 0.410294 0.494547 0.005423
Si Si5 0.839047 0.539986 0.506043
Si Si6 0.201625 0.584277 0.658276
Si Si7 0.649014 0.222958 0.878872
O O1 0.027284 0.500000 0.250000
O O2 0.089818 0.601440 0.084128
O O3 0.128581 0.692356 0.261790
O O4 0.000000 0.750000 0.192631
O O5 0.500000 0.750000 0.357728
O O6 0.573226 0.631496 0.206815
O O7 0.630584 0.611370 0.391212
O O8 0.632862 0.830288 0.296903
O O9 0.885231 0.404448 0.509604
O O10 0.000000 0.250000 0.553321
O O11 0.014467 0.494282 0.576848
O O12 0.407838 0.350746 0.957301
O O13 0.334106 0.512877 0.073402
O O14 0.750000 0.509056 0.500000
O O15 0.858169 0.626005 0.405554
O O16 0.238021 0.500000 0.750000
O O17 0.264852 0.673656 0.604277
#
# Coordination Sequence:
#
# PCOD8165918 Si02
#       7
#     8   8   8   8   8   8   8
#     4  10  24  43  71 106 154 199 257 319 377 457
#     4  11  23  43  70 109 151 192 252 311 381 463
#     4  11  26  45  72 108 147 191 256 312 390 454
#     4  11  22  44  72 107 147 190 249 320 383 442
#     4  12  24  46  74 106 154 200 255 316 390 475
#     4  12  22  40  72 110 153 199 248 316 386 459
#     4  11  24  43  70 112 145 200 257 306 382 463
#
# _framework density 23.634528
#
# number of rings (size 3 to 8) (size 9 to 14) (size 15 to 20)
#    0.000    0.857    2.857    5.143    4.000    1.143 
#    0.000    5.714    0.000    0.000    0.000    0.000 
#    0.000    0.000    0.000    0.000    0.000    0.000 
#
# Total GULP energy -347010.859010 kJ/mol
# GULP energy per Si atom -12393.244965 kJ/mol
# Density = 2.358073 g / cm^3
# Si number density = 23.634528 Si / 1000 Ang^3
#
#
#
# Elastic Constant Matrix: (Units=GPa)
#
#
# Indices 1 2 3 4 5 6 
#
# 1 161.0744 64.8219 55.1660 0.0000 0.0000 0.0000
# 2 64.8219 120.7556 47.0452 0.0000 0.0000 0.0000
# 3 55.1660 47.0452 122.9097 0.0000 0.0000 0.0000
# 4 0.0000 0.0000 0.0000 38.7980 0.0000 0.0000
# 5 0.0000 0.0000 0.0000 0.0000 27.3005 0.0000
# 6 0.0000 0.0000 0.0000 0.0000 0.0000 45.8266
#
#
#
# Elastic Compliance Matrix: (Units=1/GPa)
#
#
# Indices 1 2 3 4 5 6 
#
# 1 0.008495 -0.003613 -0.002430 0.000000 0.000000 0.000000
# 2 -0.003613 0.011270 -0.002692 0.000000 0.000000 0.000000
# 3 -0.002430 -0.002692 0.010257 0.000000 0.000000 0.000000
# 4 0.000000 0.000000 0.000000 0.025775 0.000000 0.000000
# 5 0.000000 0.000000 0.000000 0.000000 0.036629 0.000000
# 6 0.000000 0.000000 0.000000 0.000000 0.000000 0.021821
#
#
# Mechanical properties :
#
#
# Convention : Reuss Voigt Hill
#
# Bulk Modulus (GPa) = 79.67158 82.08955 80.88056
# Shear Modulus (GPa) = 36.79193 38.23214 37.51204
#
# Velocity S-wave (km/s) = 3.94979 4.02635 3.98825
# Velocity P-wave (km/s) = 7.38811 7.51157 7.45009
#
# Compressibility (1/GPa) = 0.01255153
#
# Stress axis : x y z
#
# Youngs Moduli (GPa) = 117.72252 88.73489 97.49596
#
# Poissons Ratio (x) = 0.32063 0.23687
# Poissons Ratio (y) = 0.42537 0.26244
# Poissons Ratio (z) = 0.28602 0.23885
#
# Static dielectric constant tensor:
#      x y z
#    x 4.447040 0.000000 0.000000 
#    y 0.000000 4.507240 0.000000 
#    z 0.000000 0.000000 4.450450 
# 
# 
# High freq. dielectric constant tensor:
#      x y z
#    x 1.933680 0.000000 0.000000 
#    y 0.000000 1.932740 0.000000 
#    z 0.000000 0.000000 1.939080 
# 
# From -- ./inp_files/26520.got.cif
#   From: 2010.03.12/outbox.cif.g09.slc.cpg/sg24_14_cif.got.tgz:26520.got - 2010.04.14 03:06:53.
