data_PCOD8165587
_publ_section_title
;
Structure prediction by ZEFSAII (Michael W. Deem and Ramdas Pophale) SiO2 
 PCOD8165587
Probable space group: I 21 21 21
;
_chemical_formula_sum "Si O2"
_cell_formula_units_Z 32
_cell_length_a 5.532404
_cell_length_b 10.286045
_cell_length_c 27.147019
_cell_angle_alpha 90.000000
_cell_angle_beta 90.000000
_cell_angle_gamma 90.000000
_cell_volume 1544.843371
_symmetry_space_group_name_H-M "I 21 21 21"
_symmetry_group_IT_number 24
_symmetry_cell_setting 'orthorhombic'
loop_
_space_group_symop_operation_xyz
x,y,z
-x,1/2-y,z
x,-y,1/2-z
1/2-x,y,-z
1/2+x,1/2+y,1/2+z
1/2-x,-y,1/2+z
1/2+x,1/2-y,-z
-x,1/2+y,1/2-z
loop_
_atom_site_type_symbol
_atom_site_label
_atom_site_fract_x
_atom_site_fract_y
_atom_site_fract_z
Si Si1 0.118568 0.108782 0.208551
Si Si2 0.500000 0.750000 0.340756
Si Si3 0.500000 0.250000 0.969850
Si Si4 0.751730 0.824882 0.943536
Si Si5 0.369735 0.571798 0.610287
O O1 0.397500 0.138136 0.195696
O O2 0.000000 0.250000 0.222081
O O3 0.015653 0.040800 0.159610
O O4 0.092074 0.000000 0.250000
O O5 0.302531 0.692451 0.377158
O O6 0.530790 0.378838 0.935749
O O7 0.250000 0.260631 0.000000
O O8 0.500000 0.750000 0.931979
O O9 0.000000 0.750000 0.932522
O O10 0.773397 0.944981 0.906505
O O11 0.750000 0.871848 0.000000
#
# Coordination Sequence:
#
# PCOD8165587 Si02
#       5
#     8   4   4   8   8
#     4  10  23  44  69  95 137 176 232 295 359 420
#     4  10  21  42  68  98 134 172 226 295 352 408
#     4  12  25  38  70 108 138 184 230 281 358 412
#     4  10  24  42  62  93 136 182 223 274 334 409
#     4  11  23  42  66  95 138 172 228 293 337 421
#
# _framework density 20.714074
#
# number of rings (size 3 to 8) (size 9 to 14) (size 15 to 20)
#    0.000    1.500    3.750    1.500    3.500    8.000 
#    0.000    0.000    0.000    0.000    0.000    0.000 
#    0.000    0.000    0.000    0.000    0.000    0.000 
#
# Total GULP energy -198240.811159 kJ/mol
# GULP energy per Si atom -12390.050697 kJ/mol
# Density = 2.066693 g / cm^3
# Si number density = 20.714074 Si / 1000 Ang^3
#
#
#
# Elastic Constant Matrix: (Units=GPa)
#
#
# Indices 1 2 3 4 5 6 
#
# 1 121.9926 36.4839 57.0508 0.0000 0.0000 0.0000
# 2 36.4839 112.8582 81.9781 0.0000 0.0000 0.0000
# 3 57.0508 81.9781 149.3336 0.0000 0.0000 0.0000
# 4 0.0000 0.0000 0.0000 52.4830 0.0000 0.0000
# 5 0.0000 0.0000 0.0000 0.0000 17.7925 0.0000
# 6 0.0000 0.0000 0.0000 0.0000 0.0000 22.8244
#
#
#
# Elastic Compliance Matrix: (Units=1/GPa)
#
#
# Indices 1 2 3 4 5 6 
#
# 1 0.010020 -0.000763 -0.003409 0.000000 0.000000 0.000000
# 2 -0.000763 0.014795 -0.007831 0.000000 0.000000 0.000000
# 3 -0.003409 -0.007831 0.012298 0.000000 0.000000 0.000000
# 4 0.000000 0.000000 0.000000 0.019054 0.000000 0.000000
# 5 0.000000 0.000000 0.000000 0.000000 0.056204 0.000000
# 6 0.000000 0.000000 0.000000 0.000000 0.000000 0.043813
#
#
# Mechanical properties :
#
#
# Convention : Reuss Voigt Hill
#
# Bulk Modulus (GPa) = 76.29254 81.69001 78.99127
# Shear Modulus (GPa) = 27.09194 32.53139 29.81167
#
# Velocity S-wave (km/s) = 3.62041 3.96725 3.79779
# Velocity P-wave (km/s) = 7.37480 7.77869 7.57944
#
# Compressibility (1/GPa) = 0.01310744
#
# Stress axis : x y z
#
# Youngs Moduli (GPa) = 99.80386 67.58927 81.31718
#
# Poissons Ratio (x) = 0.05155 0.27722
# Poissons Ratio (y) = 0.07612 0.63676
# Poissons Ratio (z) = 0.34025 0.52926
#
# Static dielectric constant tensor:
#      x y z
#    x 4.005850 0.000000 0.000000 
#    y 0.000000 3.634970 0.000000 
#    z 0.000000 0.000000 3.732940 
# 
# 
# High freq. dielectric constant tensor:
#      x y z
#    x 1.817900 0.000000 0.000000 
#    y 0.000000 1.802440 0.000000 
#    z 0.000000 0.000000 1.811300 
# 
# From -- ./inp_files/1198.got.cif
#   From: 2010.03.12/outbox.cif.g09.slc.cpg/sg24_1_cif.got.tgz:1198.got - 2010.04.14 03:06:53.
