data_PCOD8165851
_publ_section_title
;
Structure prediction by ZEFSAII (Michael W. Deem and Ramdas Pophale) SiO2 
 PCOD8165851
Probable space group: I 21 21 21
;
_chemical_formula_sum "Si O2"
_cell_formula_units_Z 48
_cell_length_a 8.765636
_cell_length_b 9.797995
_cell_length_c 28.190470
_cell_angle_alpha 90.000000
_cell_angle_beta 90.000000
_cell_angle_gamma 90.000000
_cell_volume 2421.157057
_symmetry_space_group_name_H-M "I 21 21 21"
_symmetry_group_IT_number 24
_symmetry_cell_setting 'orthorhombic'
loop_
_space_group_symop_operation_xyz
x,y,z
-x,1/2-y,z
x,-y,1/2-z
1/2-x,y,-z
1/2+x,1/2+y,1/2+z
1/2-x,-y,1/2+z
1/2+x,1/2-y,-z
-x,1/2+y,1/2-z
loop_
_atom_site_type_symbol
_atom_site_label
_atom_site_fract_x
_atom_site_fract_y
_atom_site_fract_z
Si Si1 0.096086 0.867762 0.473399
Si Si2 0.567986 0.102977 0.289046
Si Si3 0.966385 0.969905 0.612584
Si Si4 0.746883 0.725018 0.619038
Si Si5 0.000000 0.250000 0.196632
Si Si6 0.363428 0.500000 0.750000
Si Si7 0.425783 0.394278 0.488504
O O1 0.250000 0.901212 0.500000
O O2 0.125788 0.807979 0.421680
O O3 0.000000 0.750000 0.501570
O O4 0.997003 0.004595 0.472250
O O5 0.500000 0.250000 0.275788
O O6 0.493346 0.000000 0.250000
O O7 0.526167 0.071257 0.343093
O O8 0.752787 0.088716 0.285019
O O9 0.816518 0.875859 0.613870
O O10 0.120220 0.884655 0.616422
O O11 0.963315 0.055474 0.564343
O O12 0.653835 0.718638 0.667614
O O13 0.027358 0.388523 0.225898
O O14 0.500000 0.250000 0.497141
O O15 0.250000 0.383544 0.500000
#
# Coordination Sequence:
#
# PCOD8165851 Si02
#       7
#     8   8   8   8   4   4   8
#     4  12  22  40  66 100 131 181 229 278 335 402
#     4  10  23  43  71 100 134 179 233 284 349 415
#     4  11  23  44  68 102 134 179 231 287 335 410
#     4  11  23  39  71  99 135 173 232 284 335 408
#     4  12  24  46  68 106 140 178 224 286 356 418
#     4  10  26  42  70 100 142 176 224 284 352 416
#     4  12  27  44  67  96 143 183 229 285 346 413
#
# _framework density 19.825232
#
# number of rings (size 3 to 8) (size 9 to 14) (size 15 to 20)
#    0.500    0.333    4.167    3.500    4.667    1.333 
#    0.000    0.000    3.667    0.000    0.000    0.000 
#    0.000    0.000    0.000    0.000    0.000    0.000 
#
# Total GULP energy -297540.543415 kJ/mol
# GULP energy per Si atom -12397.522642 kJ/mol
# Density = 1.978011 g / cm^3
# Si number density = 19.825232 Si / 1000 Ang^3
#
#
#
# Elastic Constant Matrix: (Units=GPa)
#
#
# Indices 1 2 3 4 5 6 
#
# 1 125.4860 72.0880 27.0037 0.0000 0.0000 0.0000
# 2 72.0880 168.2047 43.1448 0.0000 0.0000 0.0000
# 3 27.0037 43.1448 80.5909 0.0000 0.0000 0.0000
# 4 0.0000 0.0000 0.0000 130.6033 0.0000 0.0000
# 5 0.0000 0.0000 0.0000 0.0000 48.5203 0.0000
# 6 0.0000 0.0000 0.0000 0.0000 0.0000 42.0892
#
#
#
# Elastic Compliance Matrix: (Units=1/GPa)
#
#
# Indices 1 2 3 4 5 6 
#
# 1 0.010690 -0.004246 -0.001309 0.000000 0.000000 0.000000
# 2 -0.004246 0.008578 -0.003170 0.000000 0.000000 0.000000
# 3 -0.001309 -0.003170 0.014544 0.000000 0.000000 0.000000
# 4 0.000000 0.000000 0.000000 0.007657 0.000000 0.000000
# 5 0.000000 0.000000 0.000000 0.000000 0.020610 0.000000
# 6 0.000000 0.000000 0.000000 0.000000 0.000000 0.023759
#
#
# Mechanical properties :
#
#
# Convention : Reuss Voigt Hill
#
# Bulk Modulus (GPa) = 61.11328 73.19494 67.15411
# Shear Modulus (GPa) = 45.98159 59.71223 52.84691
#
# Velocity S-wave (km/s) = 4.82118 5.49406 5.16858
# Velocity P-wave (km/s) = 7.86668 8.78900 8.34060
#
# Compressibility (1/GPa) = 0.01636306
#
# Stress axis : x y z
#
# Youngs Moduli (GPa) = 93.54859 116.58192 68.75806
#
# Poissons Ratio (x) = 0.49495 0.09000
# Poissons Ratio (y) = 0.39717 0.21793
# Poissons Ratio (z) = 0.12245 0.36951
#
# Static dielectric constant tensor:
#      x y z
#    x 3.154870 0.000000 0.000000 
#    y 0.000000 3.634740 0.000000 
#    z 0.000000 0.000000 3.762620 
# 
# 
# High freq. dielectric constant tensor:
#      x y z
#    x 1.787300 0.000000 0.000000 
#    y 0.000000 1.774940 0.000000 
#    z 0.000000 0.000000 1.770170 
# 
# From -- ./inp_files/9788.got.cif
#   From: 2010.03.12/outbox.cif.g09.slc.cpg/sg24_5_cif.got.tgz:9788.got - 2010.04.14 03:06:53.
