data_PCOD8165773
_publ_section_title
;
Structure prediction by ZEFSAII (Michael W. Deem and Ramdas Pophale) SiO2 
 PCOD8165773
Probable space group: I 21 21 21
;
_chemical_formula_sum "Si O2"
_cell_formula_units_Z 44
_cell_length_a 8.984424
_cell_length_b 14.148404
_cell_length_c 16.146357
_cell_angle_alpha 90.000000
_cell_angle_beta 90.000000
_cell_angle_gamma 90.000000
_cell_volume 2052.448376
_symmetry_space_group_name_H-M "I 21 21 21"
_symmetry_group_IT_number 24
_symmetry_cell_setting 'orthorhombic'
loop_
_space_group_symop_operation_xyz
x,y,z
-x,1/2-y,z
x,-y,1/2-z
1/2-x,y,-z
1/2+x,1/2+y,1/2+z
1/2-x,-y,1/2+z
1/2+x,1/2-y,-z
-x,1/2+y,1/2-z
loop_
_atom_site_type_symbol
_atom_site_label
_atom_site_fract_x
_atom_site_fract_y
_atom_site_fract_z
Si Si1 0.500000 0.750000 0.206478
Si Si2 0.080239 0.003261 0.370730
Si Si3 0.589047 0.987301 0.031378
Si Si4 0.166447 0.138774 0.582243
Si Si5 0.149370 0.591383 0.694588
Si Si6 0.468258 0.358656 0.755290
O O1 0.644832 0.721980 0.149919
O O2 0.465873 0.663946 0.266674
O O3 0.242490 0.049486 0.381680
O O4 0.968986 0.082728 0.330911
O O5 0.010110 0.969906 0.457289
O O6 0.093620 0.910049 0.312908
O O7 0.604588 0.068561 0.100421
O O8 0.502354 0.894974 0.064580
O O9 0.750000 0.953656 0.000000
O O10 0.250000 0.177959 0.500000
O O11 0.143516 0.500000 0.750000
O O12 0.314163 0.634308 0.695872
O O13 0.500000 0.250000 0.736673
#
# Coordination Sequence:
#
# PCOD8165773 Si02
#       6
#     4   8   8   8   8   8
#     4  12  26  44  68 102 146 176 236 284 342 428
#     4  10  22  43  66  98 138 174 224 290 338 408
#     4  11  21  43  72  91 136 184 229 278 341 409
#     4  10  24  43  68 106 132 180 228 285 352 397
#     4  12  23  44  67 101 134 189 227 278 350 407
#     4  11  22  41  71 100 135 177 233 278 352 410
#
# _framework density 21.437811
#
# number of rings (size 3 to 8) (size 9 to 14) (size 15 to 20)
#    0.000    1.091    5.455    1.091    0.000    5.091 
#   11.455    0.000    0.000    0.000    0.000    0.000 
#    0.000    0.000    0.000    0.000    0.000    0.000 
#
# Total GULP energy -272791.594036 kJ/mol
# GULP energy per Si atom -12399.617911 kJ/mol
# Density = 2.138902 g / cm^3
# Si number density = 21.437811 Si / 1000 Ang^3
#
#
#
# Elastic Constant Matrix: (Units=GPa)
#
#
# Indices 1 2 3 4 5 6 
#
# 1 102.4990 23.7967 40.5178 0.0000 0.0000 0.0000
# 2 23.7967 99.3828 45.5067 0.0000 0.0000 0.0000
# 3 40.5178 45.5067 137.6001 0.0000 0.0000 0.0000
# 4 0.0000 0.0000 0.0000 29.1422 0.0000 0.0000
# 5 0.0000 0.0000 0.0000 0.0000 34.3314 0.0000
# 6 0.0000 0.0000 0.0000 0.0000 0.0000 25.7076
#
#
#
# Elastic Compliance Matrix: (Units=1/GPa)
#
#
# Indices 1 2 3 4 5 6 
#
# 1 0.011200 -0.001381 -0.002841 0.000000 0.000000 0.000000
# 2 -0.001381 0.012028 -0.003571 0.000000 0.000000 0.000000
# 3 -0.002841 -0.003571 0.009285 0.000000 0.000000 0.000000
# 4 0.000000 0.000000 0.000000 0.034314 0.000000 0.000000
# 5 0.000000 0.000000 0.000000 0.000000 0.029128 0.000000
# 6 0.000000 0.000000 0.000000 0.000000 0.000000 0.038899
#
#
# Mechanical properties :
#
#
# Convention : Reuss Voigt Hill
#
# Bulk Modulus (GPa) = 59.07931 62.12495 60.60213
# Shear Modulus (GPa) = 32.03421 33.14697 32.59059
#
# Velocity S-wave (km/s) = 3.86979 3.93643 3.90325
# Velocity P-wave (km/s) = 6.89821 7.05001 6.97453
#
# Compressibility (1/GPa) = 0.01692640
#
# Stress axis : x y z
#
# Youngs Moduli (GPa) = 89.28637 83.13946 107.69856
#
# Poissons Ratio (x) = 0.11480 0.30600
# Poissons Ratio (y) = 0.12328 0.38462
# Poissons Ratio (z) = 0.25369 0.29691
#
# Static dielectric constant tensor:
#      x y z
#    x 3.640510 0.000000 0.000000 
#    y 0.000000 3.333790 0.000000 
#    z 0.000000 0.000000 4.224020 
# 
# 
# High freq. dielectric constant tensor:
#      x y z
#    x 1.841890 0.000000 0.000000 
#    y 0.000000 1.817110 0.000000 
#    z 0.000000 0.000000 1.854800 
# 
# From -- ./inp_files/29402.got.cif
#   From: 2010.03.12/outbox.cif.g09.slc.cpg/sg24_15_cif.got.tgz:29402.got - 2010.04.14 03:06:53.
