data_PCOD8165405
_publ_section_title
;
Structure prediction by ZEFSAII (Michael W. Deem and Ramdas Pophale) SiO2 
 PCOD8165405
Probable space group: I 21 21 21
;
_chemical_formula_sum "Si O2"
_cell_formula_units_Z 32
_cell_length_a 15.422329
_cell_length_b 7.838778
_cell_length_c 9.654500
_cell_angle_alpha 90.000000
_cell_angle_beta 90.000000
_cell_angle_gamma 90.000000
_cell_volume 1167.153873
_symmetry_space_group_name_H-M "I 21 21 21"
_symmetry_group_IT_number 24
_symmetry_cell_setting 'orthorhombic'
loop_
_space_group_symop_operation_xyz
x,y,z
-x,1/2-y,z
x,-y,1/2-z
1/2-x,y,-z
1/2+x,1/2+y,1/2+z
1/2-x,-y,1/2+z
1/2+x,1/2-y,-z
-x,1/2+y,1/2-z
loop_
_atom_site_type_symbol
_atom_site_label
_atom_site_fract_x
_atom_site_fract_y
_atom_site_fract_z
Si Si1 0.632654 0.923465 0.045136
Si Si2 0.692817 0.627431 0.875315
Si Si3 0.329511 0.237933 0.179525
Si Si4 0.456293 0.077798 0.973613
O O1 0.633608 0.792987 0.172462
O O2 0.684203 0.098863 0.079212
O O3 0.532265 0.951776 0.016026
O O4 0.676509 0.827658 0.914333
O O5 0.738256 0.639205 0.718891
O O6 0.750000 0.543904 0.000000
O O7 0.603815 0.519545 0.862006
O O8 0.399693 0.113610 0.111456
O O9 0.500000 0.250000 0.910480
#
# Coordination Sequence:
#
# PCOD8165405 Si02
#       4
#     8   8   8   8
#     4   9  19  36  61  91 126 168 215 268 327 395
#     4  10  21  36  57  94 136 167 206 277 343 384
#     4   9  20  36  58  92 129 163 210 275 334 386
#     4  10  21  38  62  95 128 168 222 272 321 397
#
# _framework density 27.417121999999999
#
# number of rings (size 3 to 8) (size 9 to 14) (size 15 to 20)
#    0.000    2.500    0.000    0.750    0.000   26.000 
#    0.000   25.000    0.000    0.000    0.000  148.750 
#    0.000    0.000    0.000    0.000    0.000    0.000 
#
# Total GULP energy -198350.844080 kJ/mol
# GULP energy per Si atom -12396.927755 kJ/mol
# Density = 2.735472 g / cm^3
# Si number density = 27.417122 Si / 1000 Ang^3
#
#
#
# Elastic Constant Matrix: (Units=GPa)
#
#
# Indices 1 2 3 4 5 6 
#
# 1 169.0564 69.1630 57.2982 0.0000 0.0000 0.0000
# 2 69.1630 133.7937 44.3891 0.0000 0.0000 0.0000
# 3 57.2982 44.3891 114.1971 0.0000 0.0000 0.0000
# 4 0.0000 0.0000 0.0000 29.1020 0.0000 0.0000
# 5 0.0000 0.0000 0.0000 0.0000 50.5814 0.0000
# 6 0.0000 0.0000 0.0000 0.0000 0.0000 67.9166
#
#
#
# Elastic Compliance Matrix: (Units=1/GPa)
#
#
# Indices 1 2 3 4 5 6 
#
# 1 0.008235 -0.003313 -0.002844 0.000000 0.000000 0.000000
# 2 -0.003313 0.009914 -0.002191 0.000000 0.000000 0.000000
# 3 -0.002844 -0.002191 0.011035 0.000000 0.000000 0.000000
# 4 0.000000 0.000000 0.000000 0.034362 0.000000 0.000000
# 5 0.000000 0.000000 0.000000 0.000000 0.019770 0.000000
# 6 0.000000 0.000000 0.000000 0.000000 0.000000 0.014724
#
#
# Mechanical properties :
#
#
# Convention : Reuss Voigt Hill
#
# Bulk Modulus (GPa) = 80.08074 84.30530 82.19302
# Shear Modulus (GPa) = 42.05266 45.93314 43.99290
#
# Velocity S-wave (km/s) = 3.92064 4.09754 4.01006
# Velocity P-wave (km/s) = 7.05457 7.29399 7.17528
#
# Compressibility (1/GPa) = 0.01248740
#
# Stress axis : x y z
#
# Youngs Moduli (GPa) = 121.44013 100.86840 90.61765
#
# Poissons Ratio (x) = 0.33420 0.25770
# Poissons Ratio (y) = 0.40236 0.19856
# Poissons Ratio (z) = 0.34535 0.22102
#
# Static dielectric constant tensor:
#      x y z
#    x 5.319540 0.000000 0.000000 
#    y 0.000000 5.755490 0.000000 
#    z 0.000000 0.000000 4.700660 
# 
# 
# High freq. dielectric constant tensor:
#      x y z
#    x 2.111640 0.000000 0.000000 
#    y 0.000000 2.136410 0.000000 
#    z 0.000000 0.000000 2.089120 
# 
# From -- ./inp_files/20410.got.cif
#   From: 2010.03.12/outbox.cif.g09.slc.cpg/sg24_11_cif.got.tgz:20410.got - 2010.04.14 03:06:53.
