data_PCOD8165990
_publ_section_title
;
Structure prediction by ZEFSAII (Michael W. Deem and Ramdas Pophale) SiO2 
 PCOD8165990
Probable space group: I 21 21 21
;
_chemical_formula_sum "Si O2"
_cell_formula_units_Z 24
_cell_length_a 9.555025
_cell_length_b 5.017070
_cell_length_c 20.960477
_cell_angle_alpha 90.000000
_cell_angle_beta 90.000000
_cell_angle_gamma 90.000000
_cell_volume 1004.808152
_symmetry_space_group_name_H-M "I 21 21 21"
_symmetry_group_IT_number 24
_symmetry_cell_setting 'orthorhombic'
loop_
_space_group_symop_operation_xyz
x,y,z
-x,1/2-y,z
x,-y,1/2-z
1/2-x,y,-z
1/2+x,1/2+y,1/2+z
1/2-x,-y,1/2+z
1/2+x,1/2-y,-z
-x,1/2+y,1/2-z
loop_
_atom_site_type_symbol
_atom_site_label
_atom_site_fract_x
_atom_site_fract_y
_atom_site_fract_z
Si Si1 0.336836 0.184068 0.619842
Si Si2 0.597432 0.500000 0.750000
Si Si3 0.088864 0.517168 0.590884
Si Si4 0.250000 0.170071 0.000000
O O1 0.500000 0.250000 0.614500
O O2 0.238900 0.449644 0.623021
O O3 0.307131 0.036218 0.686979
O O4 0.290690 0.008673 0.560192
O O5 0.500000 0.750000 0.737016
O O6 0.121142 0.640886 0.520769
O O7 0.000000 0.250000 0.582094
O O8 0.000000 0.750000 0.628318
#
# Coordination Sequence:
#
# PCOD8165990 Si02
#       4
#     8   4   8   4
#     4  11  28  48  82 115 154 207 262 325 384 461
#     4  10  26  50  78 114 152 198 268 326 380 452
#     4  12  28  46  70 113 159 196 252 323 393 457
#     4  12  28  44  80 110 158 204 260 316 390 458
#
# _framework density 23.885158000000001
#
# number of rings (size 3 to 8) (size 9 to 14) (size 15 to 20)
#    0.000    0.667    3.333    1.000   18.667    0.000 
#    0.000    0.000    7.333    0.000    0.000    0.000 
#    0.000    0.000    0.000    0.000    0.000    0.000 
#
# Total GULP energy -148682.427506 kJ/mol
# GULP energy per Si atom -12390.202292 kJ/mol
# Density = 2.383079 g / cm^3
# Si number density = 23.885158 Si / 1000 Ang^3
#
#
#
# Elastic Constant Matrix: (Units=GPa)
#
#
# Indices 1 2 3 4 5 6 
#
# 1 179.3953 88.2172 56.0633 0.0000 0.0000 0.0000
# 2 88.2172 182.3256 65.2340 0.0000 0.0000 0.0000
# 3 56.0633 65.2340 188.4167 0.0000 0.0000 0.0000
# 4 0.0000 0.0000 0.0000 25.9327 0.0000 0.0000
# 5 0.0000 0.0000 0.0000 0.0000 34.4851 0.0000
# 6 0.0000 0.0000 0.0000 0.0000 0.0000 31.2570
#
#
#
# Elastic Compliance Matrix: (Units=1/GPa)
#
#
# Indices 1 2 3 4 5 6 
#
# 1 0.007515 -0.003237 -0.001115 0.000000 0.000000 0.000000
# 2 -0.003237 0.007654 -0.001687 0.000000 0.000000 0.000000
# 3 -0.001115 -0.001687 0.006223 0.000000 0.000000 0.000000
# 4 0.000000 0.000000 0.000000 0.038561 0.000000 0.000000
# 5 0.000000 0.000000 0.000000 0.000000 0.028998 0.000000
# 6 0.000000 0.000000 0.000000 0.000000 0.000000 0.031993
#
#
# Mechanical properties :
#
#
# Convention : Reuss Voigt Hill
#
# Bulk Modulus (GPa) = 107.36511 107.68520 107.52515
# Shear Modulus (GPa) = 36.73031 41.04316 38.88674
#
# Velocity S-wave (km/s) = 3.92572 4.14980 4.03931
# Velocity P-wave (km/s) = 8.09917 8.25491 8.17741
#
# Compressibility (1/GPa) = 0.00931401
#
# Stress axis : x y z
#
# Youngs Moduli (GPa) = 133.07560 130.64369 160.68603
#
# Poissons Ratio (x) = 0.42287 0.17921
# Poissons Ratio (y) = 0.43074 0.27108
# Poissons Ratio (z) = 0.14842 0.22040
#
# Static dielectric constant tensor:
#      x y z
#    x 4.845450 0.000000 0.000000 
#    y 0.000000 4.787220 0.000000 
#    z 0.000000 0.000000 4.484340 
# 
# 
# High freq. dielectric constant tensor:
#      x y z
#    x 1.960950 0.000000 0.000000 
#    y 0.000000 1.972760 0.000000 
#    z 0.000000 0.000000 1.917520 
# 
# From -- ./inp_files/34914.got.cif
#   From: 2010.03.12/outbox.cif.g09.slc.cpg/sg24_18_cif.got.tgz:34914.got - 2010.04.14 03:06:53.
