data_PCOD8165562
_publ_section_title
;
Structure prediction by ZEFSAII (Michael W. Deem and Ramdas Pophale) SiO2 
 PCOD8165562
Probable space group: I 21 21 21
;
_chemical_formula_sum "Si O2"
_cell_formula_units_Z 52
_cell_length_a 14.715188
_cell_length_b 11.705580
_cell_length_c 14.401814
_cell_angle_alpha 90.000000
_cell_angle_beta 90.000000
_cell_angle_gamma 90.000000
_cell_volume 2480.709730
_symmetry_space_group_name_H-M "I 21 21 21"
_symmetry_group_IT_number 24
_symmetry_cell_setting 'orthorhombic'
loop_
_space_group_symop_operation_xyz
x,y,z
-x,1/2-y,z
x,-y,1/2-z
1/2-x,y,-z
1/2+x,1/2+y,1/2+z
1/2-x,-y,1/2+z
1/2+x,1/2-y,-z
-x,1/2+y,1/2-z
loop_
_atom_site_type_symbol
_atom_site_label
_atom_site_fract_x
_atom_site_fract_y
_atom_site_fract_z
Si Si1 0.090683 0.299554 0.692695
Si Si2 0.478364 0.626387 0.995673
Si Si3 0.807691 0.281726 0.093905
Si Si4 0.797889 0.000000 0.750000
Si Si5 0.659103 0.475693 0.560586
Si Si6 0.176570 0.529335 0.419744
Si Si7 0.733618 0.376208 0.279791
O O1 0.062580 0.363096 0.598074
O O2 0.137588 0.389463 0.762186
O O3 0.156466 0.194162 0.665368
O O4 0.000000 0.250000 0.742222
O O5 0.500000 0.750000 0.950518
O O6 0.576000 0.566762 0.000593
O O7 0.409112 0.553045 0.934076
O O8 0.870267 0.394924 0.089509
O O9 0.751598 0.297971 0.189292
O O10 0.859063 0.159272 0.099697
O O11 0.750000 0.278431 0.000000
O O12 0.732279 0.977389 0.835335
O O13 0.750000 0.476922 0.500000
O O14 0.679211 0.398318 0.652610
O O15 0.250000 0.527696 0.500000
O O16 0.694606 0.500000 0.250000
#
# Coordination Sequence:
#
# PCOD8165562 Si02
#       7
#     8   8   8   4   8   8   8
#     4  11  24  42  65 104 136 172 229 278 342 415
#     4  11  25  40  65 100 134 177 229 286 342 408
#     4   9  20  40  67  95 125 177 227 272 343 401
#     4  12  24  44  70  98 134 188 220 286 360 402
#     4  10  21  41  67  97 136 177 226 284 350 411
#     4  11  23  44  67  95 137 174 231 285 339 418
#     4  10  21  41  70  94 134 179 219 280 343 406
#
# _framework density 20.961743999999999
#
# number of rings (size 3 to 8) (size 9 to 14) (size 15 to 20)
#    0.000    1.538    3.077    1.846    3.231    1.231 
#    4.154    0.000    0.000    0.000    0.000    0.000 
#    0.000    0.000    0.000    0.000    0.000    0.000 
#
# Total GULP energy -322148.157920 kJ/mol
# GULP energy per Si atom -12390.313766 kJ/mol
# Density = 2.091403 g / cm^3
# Si number density = 20.961744 Si / 1000 Ang^3
#
#
#
# Elastic Constant Matrix: (Units=GPa)
#
#
# Indices 1 2 3 4 5 6 
#
# 1 114.2322 68.4889 28.8841 0.0000 0.0000 0.0000
# 2 68.4889 146.3018 20.1307 0.0000 0.0000 0.0000
# 3 28.8841 20.1307 91.8410 0.0000 0.0000 0.0000
# 4 0.0000 0.0000 0.0000 28.2349 0.0000 0.0000
# 5 0.0000 0.0000 0.0000 0.0000 25.5493 0.0000
# 6 0.0000 0.0000 0.0000 0.0000 0.0000 38.8722
#
#
#
# Elastic Compliance Matrix: (Units=1/GPa)
#
#
# Indices 1 2 3 4 5 6 
#
# 1 0.012834 -0.005622 -0.002804 0.000000 0.000000 0.000000
# 2 -0.005622 0.009511 -0.000316 0.000000 0.000000 0.000000
# 3 -0.002804 -0.000316 0.011840 0.000000 0.000000 0.000000
# 4 0.000000 0.000000 0.000000 0.035417 0.000000 0.000000
# 5 0.000000 0.000000 0.000000 0.000000 0.039140 0.000000
# 6 0.000000 0.000000 0.000000 0.000000 0.000000 0.025725
#
#
# Mechanical properties :
#
#
# Convention : Reuss Voigt Hill
#
# Bulk Modulus (GPa) = 59.88389 65.26472 62.57431
# Shear Modulus (GPa) = 31.74237 34.18937 32.96587
#
# Velocity S-wave (km/s) = 3.89562 4.04299 3.96999
# Velocity P-wave (km/s) = 6.99033 7.27991 7.13659
#
# Compressibility (1/GPa) = 0.01669898
#
# Stress axis : x y z
#
# Youngs Moduli (GPa) = 77.91855 105.14509 84.46232
#
# Poissons Ratio (x) = 0.59114 0.23683
# Poissons Ratio (y) = 0.43807 0.02673
# Poissons Ratio (z) = 0.21848 0.03328
#
# Static dielectric constant tensor:
#      x y z
#    x 3.605770 0.000000 0.000000 
#    y 0.000000 4.373550 0.000000 
#    z 0.000000 0.000000 3.654570 
# 
# 
# High freq. dielectric constant tensor:
#      x y z
#    x 1.791800 0.000000 0.000000 
#    y 0.000000 1.848050 0.000000 
#    z 0.000000 0.000000 1.815900 
# 
# From -- ./inp_files/26501.got.cif
#   From: 2010.03.12/outbox.cif.g09.slc.cpg/sg24_14_cif.got.tgz:26501.got - 2010.04.14 03:06:53.
