data_PCOD8165151
_publ_section_title
;
Structure prediction by ZEFSAII (Michael W. Deem and Ramdas Pophale) SiO2 
 PCOD8165151
Probable space group: I 21 21 21
;
_chemical_formula_sum "Si O2"
_cell_formula_units_Z 32
_cell_length_a 5.055421
_cell_length_b 36.252924
_cell_length_c 7.671058
_cell_angle_alpha 90.000000
_cell_angle_beta 90.000000
_cell_angle_gamma 90.000000
_cell_volume 1405.903898
_symmetry_space_group_name_H-M "I 21 21 21"
_symmetry_group_IT_number 24
_symmetry_cell_setting 'orthorhombic'
loop_
_space_group_symop_operation_xyz
x,y,z
-x,1/2-y,z
x,-y,1/2-z
1/2-x,y,-z
1/2+x,1/2+y,1/2+z
1/2-x,-y,1/2+z
1/2+x,1/2-y,-z
-x,1/2+y,1/2-z
loop_
_atom_site_type_symbol
_atom_site_label
_atom_site_fract_x
_atom_site_fract_y
_atom_site_fract_z
Si Si1 0.251753 0.854508 0.793950
Si Si2 0.254689 0.399669 0.706068
Si Si3 0.247674 0.772221 0.791965
Si Si4 0.012198 0.529190 0.391356
O O1 0.535884 0.868984 0.736519
O O2 0.224043 0.813582 0.714102
O O3 0.027077 0.883403 0.730321
O O4 0.250000 0.851659 0.000000
O O5 0.250000 0.407808 0.500000
O O6 0.335862 0.436422 0.805756
O O7 0.500000 0.750000 0.721396
O O8 0.000000 0.750000 0.719489
O O9 0.250000 0.773927 0.000000
O O10 0.908189 0.500000 0.250000
O O11 0.750000 0.540722 0.500000
O O12 0.250000 0.509851 0.500000
#
# Coordination Sequence:
#
# PCOD8165151 Si02
#       4
#     8   8   8   8
#     4   9  17  29  48  76 111 154 197 239 292 352
#     4  10  20  36  58  83 116 155 197 243 297 357
#     4   9  15  23  38  65 106 151 191 233 286 345
#     4  12  26  44  66  92 122 156 199 249 306 366
#
# _framework density 22.761157000000001
#
# number of rings (size 3 to 8) (size 9 to 14) (size 15 to 20)
#    0.000    2.000    0.000    4.500    0.000    9.000 
#    0.000    0.000    0.000    0.000    0.000    0.000 
#    0.000   56.000    0.000    0.000    0.000    0.000 
#
# Total GULP energy -198316.960533 kJ/mol
# GULP energy per Si atom -12394.810033 kJ/mol
# Density = 2.270935 g / cm^3
# Si number density = 22.761157 Si / 1000 Ang^3
#
#
#
# Elastic Constant Matrix: (Units=GPa)
#
#
# Indices 1 2 3 4 5 6 
#
# 1 173.5045 52.5730 34.3328 0.0000 0.0000 0.0000
# 2 52.5730 152.9567 35.9644 0.0001 0.0000 -0.0001
# 3 34.3328 35.9644 51.1280 -0.0002 0.0000 -0.0001
# 4 0.0000 0.0001 -0.0002 1.1736 0.0000 -0.0001
# 5 0.0000 0.0000 0.0000 0.0000 18.9922 0.0000
# 6 0.0000 -0.0001 -0.0001 -0.0001 0.0000 31.5621
#
#
#
# Elastic Compliance Matrix: (Units=1/GPa)
#
#
# Indices 1 2 3 4 5 6 
#
# 1 0.006939 -0.001545 -0.003573 -0.000001 0.000000 0.000000
# 2 -0.001545 0.008177 -0.004715 -0.000001 0.000000 0.000000
# 3 -0.003573 -0.004715 0.025274 0.000004 0.000000 0.000000
# 4 -0.000001 -0.000001 0.000004 0.852064 0.000002 0.000002
# 5 0.000000 0.000000 0.000000 0.000002 0.052653 0.000000
# 6 0.000000 0.000000 0.000000 0.000002 0.000000 0.031684
#
#
# Mechanical properties :
#
#
# Convention : Reuss Voigt Hill
#
# Bulk Modulus (GPa) = 48.24915 69.25884 58.75399
# Shear Modulus (GPa) = 4.98324 27.32685 16.15505
#
# Velocity S-wave (km/s) = 1.48125 3.46871 2.66703
# Velocity P-wave (km/s) = 4.91625 6.82182 5.94587
#
# Compressibility (1/GPa) = 0.02072576
#
# Stress axis : x y z
#
# Youngs Moduli (GPa) = 144.12162 122.28919 39.56599
#
# Poissons Ratio (x) = 0.18892 0.14135
# Poissons Ratio (y) = 0.22265 0.18654
# Poissons Ratio (z) = 0.51489 0.57656
#
# Static dielectric constant tensor:
#      x y z
#    x 4.518540 0.000000 0.000000 
#    y 0.000000 4.176920 0.000000 
#    z 0.000000 0.000000 3.951250 
# 
# 
# High freq. dielectric constant tensor:
#      x y z
#    x 1.914100 0.000000 0.000000 
#    y 0.000000 1.905940 0.000000 
#    z 0.000000 0.000000 1.864050 
# 
# From -- ./inp_files/1138.got.cif
#   From: 2010.03.12/outbox.cif.g09.slc.cpg/sg24_1_cif.got.tgz:1138.got - 2010.04.14 03:06:53.
