data_PCOD8165183
_publ_section_title
;
Structure prediction by ZEFSAII (Michael W. Deem and Ramdas Pophale) SiO2 
 PCOD8165183
Probable space group: I 21 21 21
;
_chemical_formula_sum "Si O2"
_cell_formula_units_Z 52
_cell_length_a 19.838844
_cell_length_b 5.137844
_cell_length_c 25.648934
_cell_angle_alpha 90.000000
_cell_angle_beta 90.000000
_cell_angle_gamma 90.000000
_cell_volume 2614.367260
_symmetry_space_group_name_H-M "I 21 21 21"
_symmetry_group_IT_number 24
_symmetry_cell_setting 'orthorhombic'
loop_
_space_group_symop_operation_xyz
x,y,z
-x,1/2-y,z
x,-y,1/2-z
1/2-x,y,-z
1/2+x,1/2+y,1/2+z
1/2-x,-y,1/2+z
1/2+x,1/2-y,-z
-x,1/2+y,1/2-z
loop_
_atom_site_type_symbol
_atom_site_label
_atom_site_fract_x
_atom_site_fract_y
_atom_site_fract_z
Si Si1 0.442650 0.560782 0.972675
Si Si2 0.317474 0.653192 0.032085
Si Si3 0.958053 0.013499 0.138068
Si Si4 0.500000 0.750000 0.434584
Si Si5 0.315648 0.501292 0.689039
Si Si6 0.266727 0.002671 0.188554
Si Si7 0.144326 0.144530 0.903231
O O1 0.500000 0.750000 0.952947
O O2 0.437657 0.383664 0.920805
O O3 0.370901 0.684638 0.985034
O O4 0.465002 0.452797 0.027879
O O5 0.330915 0.420024 0.073304
O O6 0.320009 0.925724 0.061832
O O7 0.250000 0.605297 0.000000
O O8 0.000000 0.250000 0.164453
O O9 0.888620 0.952256 0.166195
O O10 0.000000 0.750000 0.142251
O O11 0.561814 0.626920 0.401283
O O12 0.324057 0.500000 0.750000
O O13 0.288661 0.783280 0.672617
O O14 0.263076 0.276486 0.671059
O O15 0.333323 0.085745 0.156161
O O16 0.285378 0.000000 0.250000
#
# Coordination Sequence:
#
# PCOD8165183 Si02
#       7
#     8   8   8   4   8   8   8
#     4  10  20  37  55  78 123 162 194 237 294 364
#     4  11  24  38  57  93 122 157 205 254 293 355
#     4  11  23  36  57  85 115 161 205 248 290 350
#     4  10  20  40  58  84 120 158 198 230 302 364
#     4  10  22  41  62  86 119 157 199 254 309 356
#     4  10  22  41  64  90 119 155 199 250 311 361
#     4  11  23  39  65  87 121 163 198 246 305 358
#
# _framework density 19.890091999999999
#
# number of rings (size 3 to 8) (size 9 to 14) (size 15 to 20)
#    0.000    1.538    2.308    2.308    4.308    0.615 
#    0.000    0.000    0.000    6.462    0.000    0.000 
#    0.000    0.000    0.000    0.000    0.000    0.000 
#
# Total GULP energy -322090.878469 kJ/mol
# GULP energy per Si atom -12388.110710 kJ/mol
# Density = 1.984482 g / cm^3
# Si number density = 19.890092 Si / 1000 Ang^3
#
#
#
# Elastic Constant Matrix: (Units=GPa)
#
#
# Indices 1 2 3 4 5 6 
#
# 1 129.8713 25.4901 49.2520 0.0000 0.0000 0.0000
# 2 25.4901 102.9154 32.1866 0.0000 0.0000 0.0000
# 3 49.2520 32.1866 33.7959 0.0000 0.0000 0.0000
# 4 0.0000 0.0000 0.0000 30.6008 0.0000 0.0000
# 5 0.0000 0.0000 0.0000 0.0000 24.7464 0.0000
# 6 0.0000 0.0000 0.0000 0.0000 0.0000 27.7554
#
#
#
# Elastic Compliance Matrix: (Units=1/GPa)
#
#
# Indices 1 2 3 4 5 6 
#
# 1 0.019325 0.005727 -0.033617 0.000000 0.000000 0.000000
# 2 0.005727 0.015536 -0.023143 0.000000 0.000000 0.000000
# 3 -0.033617 -0.023143 0.100622 0.000000 0.000000 0.000000
# 4 0.000000 0.000000 0.000000 0.032679 0.000000 0.000000
# 5 0.000000 0.000000 0.000000 0.000000 0.040410 0.000000
# 6 0.000000 0.000000 0.000000 0.000000 0.000000 0.036029
#
#
# Mechanical properties :
#
#
# Convention : Reuss Voigt Hill
#
# Bulk Modulus (GPa) = 29.92478 53.38223 41.65351
# Shear Modulus (GPa) = 13.97404 27.26412 20.61908
#
# Velocity S-wave (km/s) = 2.65347 3.70637 3.22320
# Velocity P-wave (km/s) = 4.94627 6.72407 5.90248
#
# Compressibility (1/GPa) = 0.03341712
#
# Stress axis : x y z
#
# Youngs Moduli (GPa) = 51.74703 64.36620 9.93814
#
# Poissons Ratio (x) = -0.36865 0.33409
# Poissons Ratio (y) = -0.29638 0.23000
# Poissons Ratio (z) = 1.73960 1.48963
#
# Static dielectric constant tensor:
#      x y z
#    x 3.663900 0.000000 0.000000 
#    y 0.000000 3.828730 0.000000 
#    z 0.000000 0.000000 3.783670 
# 
# 
# High freq. dielectric constant tensor:
#      x y z
#    x 1.779620 0.000000 0.000000 
#    y 0.000000 1.781080 0.000000 
#    z 0.000000 0.000000 1.767600 
# 
# From -- ./inp_files/37517.got.cif
#   From: 2010.03.12/outbox.cif.g09.slc.cpg/sg24_19_cif.got.tgz:37517.got - 2010.04.14 03:06:53.
