data_PCOD8165494
_publ_section_title
;
Structure prediction by ZEFSAII (Michael W. Deem and Ramdas Pophale) SiO2 
 PCOD8165494
Probable space group: I 21 21 21
;
_chemical_formula_sum "Si O2"
_cell_formula_units_Z 36
_cell_length_a 9.338064
_cell_length_b 8.870809
_cell_length_c 18.437956
_cell_angle_alpha 90.000000
_cell_angle_beta 90.000000
_cell_angle_gamma 90.000000
_cell_volume 1527.329882
_symmetry_space_group_name_H-M "I 21 21 21"
_symmetry_group_IT_number 24
_symmetry_cell_setting 'orthorhombic'
loop_
_space_group_symop_operation_xyz
x,y,z
-x,1/2-y,z
x,-y,1/2-z
1/2-x,y,-z
1/2+x,1/2+y,1/2+z
1/2-x,-y,1/2+z
1/2+x,1/2-y,-z
-x,1/2+y,1/2-z
loop_
_atom_site_type_symbol
_atom_site_label
_atom_site_fract_x
_atom_site_fract_y
_atom_site_fract_z
Si Si1 0.525871 0.418918 0.624925
Si Si2 0.294222 0.103361 0.151437
Si Si3 0.516647 0.000000 0.250000
Si Si4 0.484187 0.080792 0.458448
Si Si5 0.217784 0.449113 0.877966
O O1 0.500000 0.250000 0.655396
O O2 0.646074 0.513679 0.669164
O O3 0.571227 0.416713 0.540760
O O4 0.376771 0.499988 0.634460
O O5 0.399907 0.124587 0.221445
O O6 0.270506 0.270280 0.123521
O O7 0.369252 0.007232 0.088884
O O8 0.619084 0.964681 0.182286
O O9 0.500000 0.250000 0.428768
O O10 0.640859 0.999130 0.453038
#
# Coordination Sequence:
#
# PCOD8165494 Si02
#       5
#     8   8   4   8   8
#     4  11  24  40  62  94 129 164 201 249 309 364
#     4  11  24  41  65  93 122 162 208 254 303 360
#     4  10  24  44  62  84 118 154 202 254 308 360
#     4  10  21  39  63  93 129 166 202 244 304 369
#     4  11  24  41  65  93 122 162 208 254 303 360
#
# _framework density 23.570547999999999
#
# number of rings (size 3 to 8) (size 9 to 14) (size 15 to 20)
#    0.000    1.333    0.000    6.000    0.000   20.444 
#    0.000    0.000    0.000    0.000    0.000    0.000 
#    0.000    0.000    0.000    0.000    0.000    0.000 
#
# Total GULP energy -222994.461339 kJ/mol
# GULP energy per Si atom -12388.581185 kJ/mol
# Density = 2.351690 g / cm^3
# Si number density = 23.570548 Si / 1000 Ang^3
#
#
#
# Elastic Constant Matrix: (Units=GPa)
#
#
# Indices 1 2 3 4 5 6 
#
# 1 167.3873 59.0040 7.1885 0.0000 0.0000 0.0000
# 2 59.0040 189.0504 14.0302 0.0000 0.0000 0.0000
# 3 7.1885 14.0302 27.0723 0.0000 0.0000 0.0000
# 4 0.0000 0.0000 0.0000 18.3813 0.0000 0.0000
# 5 0.0000 0.0000 0.0000 0.0000 68.3520 0.0000
# 6 0.0000 0.0000 0.0000 0.0000 0.0000 49.1398
#
#
#
# Elastic Compliance Matrix: (Units=1/GPa)
#
#
# Indices 1 2 3 4 5 6 
#
# 1 0.006726 -0.002045 -0.000726 0.000000 0.000000 0.000000
# 2 -0.002045 0.006123 -0.002630 0.000000 0.000000 0.000000
# 3 -0.000726 -0.002630 0.038494 0.000000 0.000000 0.000000
# 4 0.000000 0.000000 0.000000 0.054403 0.000000 0.000000
# 5 0.000000 0.000000 0.000000 0.000000 0.014630 0.000000
# 6 0.000000 0.000000 0.000000 0.000000 0.000000 0.020350
#
#
# Mechanical properties :
#
#
# Convention : Reuss Voigt Hill
#
# Bulk Modulus (GPa) = 24.66683 60.43949 42.55316
# Shear Modulus (GPa) = 30.29498 47.39377 38.84437
#
# Velocity S-wave (km/s) = 3.58898 4.48897 4.06397
# Velocity P-wave (km/s) = 5.25949 7.25020 6.33355
#
# Compressibility (1/GPa) = 0.04054026
#
# Stress axis : x y z
#
# Youngs Moduli (GPa) = 148.66851 163.31330 25.97804
#
# Poissons Ratio (x) = 0.33405 0.01886
# Poissons Ratio (y) = 0.30410 0.06833
# Poissons Ratio (z) = 0.10793 0.42955
#
# Static dielectric constant tensor:
#      x y z
#    x 4.514860 0.000000 0.000000 
#    y 0.000000 -2.989170 0.000000 
#    z 0.000000 0.000000 4.333080 
# 
# 
# High freq. dielectric constant tensor:
#      x y z
#    x 1.958580 0.000000 0.000000 
#    y 0.000000 1.930390 0.000000 
#    z 0.000000 0.000000 1.919180 
# 
# From -- ./inp_files/9074.got.cif
#   From: 2010.03.12/outbox.cif.g09.slc.cpg/sg24_5_cif.got.tgz:9074.got - 2010.04.14 03:06:53.
