data_PCOD8165083
_publ_section_title
;
Structure prediction by ZEFSAII (Michael W. Deem and Ramdas Pophale) SiO2 
 PCOD8165083
Probable space group: I 21 21 21
;
_chemical_formula_sum "Si O2"
_cell_formula_units_Z 48
_cell_length_a 10.448889
_cell_length_b 12.962216
_cell_length_c 18.532013
_cell_angle_alpha 90.000000
_cell_angle_beta 90.000000
_cell_angle_gamma 90.000000
_cell_volume 2509.989854
_symmetry_space_group_name_H-M "I 21 21 21"
_symmetry_group_IT_number 24
_symmetry_cell_setting 'orthorhombic'
loop_
_space_group_symop_operation_xyz
x,y,z
-x,1/2-y,z
x,-y,1/2-z
1/2-x,y,-z
1/2+x,1/2+y,1/2+z
1/2-x,-y,1/2+z
1/2+x,1/2-y,-z
-x,1/2+y,1/2-z
loop_
_atom_site_type_symbol
_atom_site_label
_atom_site_fract_x
_atom_site_fract_y
_atom_site_fract_z
Si Si1 0.768984 0.291992 0.136243
Si Si2 0.148687 0.221056 0.437363
Si Si3 0.642472 0.213610 0.718231
Si Si4 0.908359 0.501818 0.393304
Si Si5 0.500000 0.250000 0.079244
Si Si6 0.449606 0.500000 0.750000
Si Si7 0.377468 0.385721 0.965254
O O1 0.792022 0.286576 0.222083
O O2 0.814782 0.399923 0.102001
O O3 0.617475 0.283708 0.128817
O O4 0.845901 0.203801 0.092863
O O5 0.250000 0.253128 0.500000
O O6 0.199717 0.275989 0.362965
O O7 0.000000 0.250000 0.456404
O O8 0.159347 0.097444 0.427334
O O9 0.500000 0.250000 0.708396
O O10 0.645999 0.097929 0.751242
O O11 0.948686 0.481000 0.312399
O O12 0.045440 0.521192 0.430722
O O13 0.464737 0.345568 0.029647
O O14 0.250000 0.432891 0.000000
#
# Coordination Sequence:
#
# PCOD8165083 Si02
#       7
#     8   8   8   8   4   4   8
#     4  11  20  35  62  88 127 159 202 262 322 371
#     4  11  26  44  64  92 127 172 215 264 319 388
#     4  11  20  40  63  91 117 156 212 265 320 366
#     4  12  20  35  64  90 115 161 209 251 313 374
#     4  10  22  34  50  92 132 156 190 248 320 392
#     4  12  20  36  66  94 108 150 218 270 298 376
#     4  10  20  33  54  90 126 157 191 249 309 369
#
# _framework density 19.123583
#
# number of rings (size 3 to 8) (size 9 to 14) (size 15 to 20)
#    0.000    1.000    8.333    0.000    2.333    0.667 
#    1.500    0.000    0.000    0.000    0.000    0.000 
#    0.000    0.000    0.000    0.000    0.000    0.000 
#
# Total GULP energy -297466.678471 kJ/mol
# GULP energy per Si atom -12394.444936 kJ/mol
# Density = 1.908006 g / cm^3
# Si number density = 19.123583 Si / 1000 Ang^3
#
#
#
# Elastic Constant Matrix: (Units=GPa)
#
#
# Indices 1 2 3 4 5 6 
#
# 1 72.4077 11.0943 42.1981 0.0000 0.0000 0.0000
# 2 11.0943 79.4969 11.3933 0.0000 0.0000 0.0000
# 3 42.1981 11.3933 114.1149 0.0000 0.0000 0.0000
# 4 0.0000 0.0000 0.0000 42.4004 0.0000 0.0000
# 5 0.0000 0.0000 0.0000 0.0000 29.3464 0.0000
# 6 0.0000 0.0000 0.0000 0.0000 0.0000 13.8248
#
#
#
# Elastic Compliance Matrix: (Units=1/GPa)
#
#
# Indices 1 2 3 4 5 6 
#
# 1 0.017794 -0.001563 -0.006424 0.000000 0.000000 0.000000
# 2 -0.001563 0.012899 -0.000710 0.000000 0.000000 0.000000
# 3 -0.006424 -0.000710 0.011209 0.000000 0.000000 0.000000
# 4 0.000000 0.000000 0.000000 0.023585 0.000000 0.000000
# 5 0.000000 0.000000 0.000000 0.000000 0.034076 0.000000
# 6 0.000000 0.000000 0.000000 0.000000 0.000000 0.072334
#
#
# Mechanical properties :
#
#
# Convention : Reuss Voigt Hill
#
# Bulk Modulus (GPa) = 40.80096 43.93233 42.36665
# Shear Modulus (GPa) = 25.32168 30.53658 27.92913
#
# Velocity S-wave (km/s) = 3.64278 4.00034 3.82574
# Velocity P-wave (km/s) = 6.25099 6.66030 6.45889
#
# Compressibility (1/GPa) = 0.02450923
#
# Stress axis : x y z
#
# Youngs Moduli (GPa) = 56.19913 77.52581 89.21036
#
# Poissons Ratio (x) = 0.12114 0.57308
# Poissons Ratio (y) = 0.08782 0.06334
# Poissons Ratio (z) = 0.36102 0.05504
#
# Static dielectric constant tensor:
#      x y z
#    x 1.892250 0.000000 0.000000 
#    y 0.000000 3.786730 0.000000 
#    z 0.000000 0.000000 3.968410 
# 
# 
# High freq. dielectric constant tensor:
#      x y z
#    x 1.718470 0.000000 0.000000 
#    y 0.000000 1.740870 0.000000 
#    z 0.000000 0.000000 1.752890 
# 
# From -- ./inp_files/30218.got.cif
#   From: 2010.03.12/outbox.cif.g09.slc.cpg/sg24_16_cif.got.tgz:30218.got - 2010.04.14 03:06:53.
