data_PCOD8165508
_publ_section_title
;
Structure prediction by ZEFSAII (Michael W. Deem and Ramdas Pophale) SiO2 
 PCOD8165508
Probable space group: I 21 21 21
;
_chemical_formula_sum "Si O2"
_cell_formula_units_Z 36
_cell_length_a 12.135575
_cell_length_b 10.415428
_cell_length_c 11.542413
_cell_angle_alpha 90.000000
_cell_angle_beta 90.000000
_cell_angle_gamma 90.000000
_cell_volume 1458.928773
_symmetry_space_group_name_H-M "I 21 21 21"
_symmetry_group_IT_number 24
_symmetry_cell_setting 'orthorhombic'
loop_
_space_group_symop_operation_xyz
x,y,z
-x,1/2-y,z
x,-y,1/2-z
1/2-x,y,-z
1/2+x,1/2+y,1/2+z
1/2-x,-y,1/2+z
1/2+x,1/2-y,-z
-x,1/2+y,1/2-z
loop_
_atom_site_type_symbol
_atom_site_label
_atom_site_fract_x
_atom_site_fract_y
_atom_site_fract_z
Si Si1 0.976998 0.114961 0.014761
Si Si2 0.175832 0.373044 0.673554
Si Si3 0.250000 0.276560 0.000000
Si Si4 0.083819 0.636218 0.083139
Si Si5 0.155472 0.870182 0.684532
O O1 0.849810 0.127198 0.973474
O O2 0.000000 0.250000 0.080663
O O3 0.054848 0.100218 0.902927
O O4 0.983787 0.997037 0.105365
O O5 0.150732 0.500000 0.750000
O O6 0.114654 0.379716 0.551666
O O7 0.307813 0.352505 0.661659
O O8 0.123380 0.244588 0.728982
O O9 0.261183 0.180454 0.889532
O O10 0.000000 0.750000 0.109657
O O11 0.188246 0.000000 0.750000
#
# Coordination Sequence:
#
# PCOD8165508 Si02
#       5
#     8   8   4   8   8
#     4  10  21  39  65  92 127 172 216 260 320 391
#     4  11  24  44  68  98 135 179 224 269 331 404
#     4  10  22  42  66  96 134 176 218 266 326 402
#     4  11  24  42  67 101 138 171 219 284 335 383
#     4  11  24  41  68 101 131 171 224 278 328 385
#
# _framework density 24.675640000000001
#
# number of rings (size 3 to 8) (size 9 to 14) (size 15 to 20)
#    0.000    1.333    0.000    6.667    0.000   16.000 
#    0.000   10.000    0.000    0.000    0.000    0.000 
#    0.000    0.000    0.000    0.000    0.000    0.000 
#
# Total GULP energy -222999.627123 kJ/mol
# GULP energy per Si atom -12388.868173 kJ/mol
# Density = 2.461948 g / cm^3
# Si number density = 24.675640 Si / 1000 Ang^3
#
#
#
# Elastic Constant Matrix: (Units=GPa)
#
#
# Indices 1 2 3 4 5 6 
#
# 1 58.1179 13.2167 0.9771 0.0000 0.0000 0.0000
# 2 13.2167 194.4616 9.6692 0.0000 0.0000 0.0000
# 3 0.9771 9.6692 49.3955 0.0000 0.0000 0.0000
# 4 0.0000 0.0000 0.0000 27.6210 0.0000 0.0000
# 5 0.0000 0.0000 0.0000 0.0000 36.4760 0.0000
# 6 0.0000 0.0000 0.0000 0.0000 0.0000 22.5156
#
#
#
# Elastic Compliance Matrix: (Units=1/GPa)
#
#
# Indices 1 2 3 4 5 6 
#
# 1 0.017477 -0.001182 -0.000114 0.000000 0.000000 0.000000
# 2 -0.001182 0.005273 -0.001009 0.000000 0.000000 0.000000
# 3 -0.000114 -0.001009 0.020444 0.000000 0.000000 0.000000
# 4 0.000000 0.000000 0.000000 0.036204 0.000000 0.000000
# 5 0.000000 0.000000 0.000000 0.000000 0.027415 0.000000
# 6 0.000000 0.000000 0.000000 0.000000 0.000000 0.044414
#
#
# Mechanical properties :
#
#
# Convention : Reuss Voigt Hill
#
# Bulk Modulus (GPa) = 25.91744 38.85564 32.38654
# Shear Modulus (GPa) = 29.63850 35.86335 32.75093
#
# Velocity S-wave (km/s) = 3.46948 3.81647 3.64711
# Velocity P-wave (km/s) = 5.15517 5.93307 5.55775
#
# Compressibility (1/GPa) = 0.03858406
#
# Stress axis : x y z
#
# Youngs Moduli (GPa) = 57.21752 189.64865 48.91294
#
# Poissons Ratio (x) = 0.22419 0.00559
# Poissons Ratio (y) = 0.06764 0.04934
# Poissons Ratio (z) = 0.00654 0.19131
#
# Static dielectric constant tensor:
#      x y z
#    x 4.524700 0.000000 0.000000 
#    y 0.000000 4.949790 0.000000 
#    z 0.000000 0.000000 4.367000 
# 
# 
# High freq. dielectric constant tensor:
#      x y z
#    x 1.976890 0.000000 0.000000 
#    y 0.000000 2.008160 0.000000 
#    z 0.000000 0.000000 1.963590 
# 
# From -- ./inp_files/19217.got.cif
#   From: 2010.03.12/outbox.cif.g09.slc.cpg/sg24_10_cif.got.tgz:19217.got - 2010.04.14 03:06:53.
