data_PCOD8165911
_publ_section_title
;
Structure prediction by ZEFSAII (Michael W. Deem and Ramdas Pophale) SiO2 
 PCOD8165911
Probable space group: I 21 21 21
;
_chemical_formula_sum "Si O2"
_cell_formula_units_Z 48
_cell_length_a 8.138238
_cell_length_b 29.867529
_cell_length_c 8.804208
_cell_angle_alpha 90.000000
_cell_angle_beta 90.000000
_cell_angle_gamma 90.000000
_cell_volume 2140.030558
_symmetry_space_group_name_H-M "I 21 21 21"
_symmetry_group_IT_number 24
_symmetry_cell_setting 'orthorhombic'
loop_
_space_group_symop_operation_xyz
x,y,z
-x,1/2-y,z
x,-y,1/2-z
1/2-x,y,-z
1/2+x,1/2+y,1/2+z
1/2-x,-y,1/2+z
1/2+x,1/2-y,-z
-x,1/2+y,1/2-z
loop_
_atom_site_type_symbol
_atom_site_label
_atom_site_fract_x
_atom_site_fract_y
_atom_site_fract_z
Si Si1 0.026513 0.951506 0.715652
Si Si2 0.095747 0.290524 0.591446
Si Si3 0.460137 0.368487 0.811435
Si Si4 0.250000 0.564222 0.500000
Si Si5 0.250000 0.893183 0.500000
Si Si6 0.825892 0.227477 0.154951
Si Si7 0.941725 0.380553 0.530483
O O1 0.860971 0.963210 0.619746
O O2 0.153231 0.924332 0.615398
O O3 0.992412 0.922162 0.868337
O O4 0.105247 0.000000 0.750000
O O5 0.250000 0.309738 0.500000
O O6 0.172390 0.263792 0.734028
O O7 0.000000 0.250000 0.503747
O O8 0.979613 0.333754 0.619887
O O9 0.350459 0.325466 0.841065
O O10 0.470738 0.379566 0.633203
O O11 0.372444 0.408626 0.894668
O O12 0.636452 0.361631 0.894098
O O13 0.000000 0.250000 0.197698
O O14 0.750000 0.245757 0.000000
O O15 0.750000 0.385617 0.500000
#
# Coordination Sequence:
#
# PCOD8165911 Si02
#       7
#     8   8   8   4   4   8   8
#     4  11  26  45  72 105 140 180 234 291 361 428
#     4  12  26  44  67 100 139 182 234 292 351 415
#     4  11  23  44  68  98 139 180 240 276 354 419
#     4  10  24  46  67  98 134 186 219 290 346 420
#     4  10  24  42  71  96 138 180 221 292 340 432
#     4  12  27  43  65  99 139 189 236 296 351 419
#     4  12  26  44  72 105 138 190 232 298 357 428
#
# _framework density 22.429586
#
# number of rings (size 3 to 8) (size 9 to 14) (size 15 to 20)
#    0.000    0.667    4.167    2.500    7.000    1.333 
#    0.000    3.333    0.000    0.000    0.000    0.000 
#    0.000    0.000    0.000    0.000    0.000    0.000 
#
# Total GULP energy -297428.905197 kJ/mol
# GULP energy per Si atom -12392.871050 kJ/mol
# Density = 2.237854 g / cm^3
# Si number density = 22.429586 Si / 1000 Ang^3
#
#
#
# Elastic Constant Matrix: (Units=GPa)
#
#
# Indices 1 2 3 4 5 6 
#
# 1 83.3988 5.1780 27.1748 0.0030 -0.0001 -0.0001
# 2 5.1780 91.8375 13.4460 0.0094 0.0006 -0.0003
# 3 27.1748 13.4460 124.5264 0.0186 0.0013 -0.0004
# 4 0.0030 0.0094 0.0186 78.7413 -0.0033 0.0000
# 5 -0.0001 0.0006 0.0013 -0.0033 35.1234 0.0012
# 6 -0.0001 -0.0003 -0.0004 0.0000 0.0012 12.5775
#
#
#
# Elastic Compliance Matrix: (Units=1/GPa)
#
#
# Indices 1 2 3 4 5 6 
#
# 1 0.012918 -0.000321 -0.002784 0.000000 0.000000 0.000000
# 2 -0.000321 0.011072 -0.001126 -0.000001 0.000000 0.000000
# 3 -0.002784 -0.001126 0.008760 -0.000002 0.000000 0.000000
# 4 0.000000 -0.000001 -0.000002 0.012700 0.000001 0.000000
# 5 0.000000 0.000000 0.000000 0.000001 0.028471 -0.000003
# 6 0.000000 0.000000 0.000000 0.000000 -0.000003 0.079507
#
#
# Mechanical properties :
#
#
# Convention : Reuss Voigt Hill
#
# Bulk Modulus (GPa) = 41.17273 43.48448 42.32860
# Shear Modulus (GPa) = 29.41456 42.21938 35.81697
#
# Velocity S-wave (km/s) = 3.62528 4.34326 4.00041
# Velocity P-wave (km/s) = 5.99331 6.67691 6.34433
#
# Compressibility (1/GPa) = 0.02428792
#
# Stress axis : x y z
#
# Youngs Moduli (GPa) = 77.41290 90.32071 114.16087
#
# Poissons Ratio (x) = 0.02896 0.31786
# Poissons Ratio (y) = 0.02482 0.12849
# Poissons Ratio (z) = 0.21554 0.10166
#
# Static dielectric constant tensor:
#      x y z
#    x 2.402350 0.000010 0.000000 
#    y 0.000010 3.708170 0.000000 
#    z 0.000000 0.000000 4.728470 
# 
# 
# High freq. dielectric constant tensor:
#      x y z
#    x 1.899610 0.000000 0.000000 
#    y 0.000000 1.862430 0.000000 
#    z 0.000000 0.000000 1.900500 
# 
# From -- ./inp_files/9812.got.cif
#   From: 2010.03.12/outbox.cif.g09.slc.cpg/sg24_5_cif.got.tgz:9812.got - 2010.04.14 03:06:53.
