data_PCOD8165872
_publ_section_title
;
Structure prediction by ZEFSAII (Michael W. Deem and Ramdas Pophale) SiO2 
 PCOD8165872
Probable space group: I 21 21 21
;
_chemical_formula_sum "Si O2"
_cell_formula_units_Z 56
_cell_length_a 13.648847
_cell_length_b 14.116763
_cell_length_c 13.644435
_cell_angle_alpha 90.000000
_cell_angle_beta 90.000000
_cell_angle_gamma 90.000000
_cell_volume 2628.976148
_symmetry_space_group_name_H-M "I 21 21 21"
_symmetry_group_IT_number 24
_symmetry_cell_setting 'orthorhombic'
loop_
_space_group_symop_operation_xyz
x,y,z
-x,1/2-y,z
x,-y,1/2-z
1/2-x,y,-z
1/2+x,1/2+y,1/2+z
1/2-x,-y,1/2+z
1/2+x,1/2-y,-z
-x,1/2+y,1/2-z
loop_
_atom_site_type_symbol
_atom_site_label
_atom_site_fract_x
_atom_site_fract_y
_atom_site_fract_z
Si Si1 0.250000 0.669078 0.500000
Si Si2 0.172583 0.160123 0.718152
Si Si3 0.180624 0.000000 0.250000
Si Si4 0.093032 0.806751 0.572552
Si Si5 0.960671 0.472706 0.073994
Si Si6 0.287291 0.333849 0.403927
Si Si7 0.321119 0.516448 0.638298
Si Si8 0.004600 0.856942 0.938731
O O1 0.155712 0.735839 0.505880
O O2 0.255339 0.601886 0.595720
O O3 0.151872 0.157496 0.833482
O O4 0.216506 0.262441 0.687869
O O5 0.075348 0.137160 0.655720
O O6 0.254109 0.081103 0.700145
O O7 0.115149 0.959402 0.337906
O O8 0.061314 0.896054 0.508759
O O9 0.000000 0.750000 0.612386
O O10 0.067078 0.456220 0.119550
O O11 0.954615 0.576017 0.024277
O O12 0.250000 0.274534 0.500000
O O13 0.205330 0.415514 0.407511
O O14 0.394289 0.384137 0.406992
O O15 0.294636 0.500000 0.750000
O O16 0.000000 0.750000 0.980453
#
# Coordination Sequence:
#
# PCOD8165872 Si02
#       8
#     4   8   4   8   8   8   8   8
#     4  12  24  46  70 106 140 192 236 294 368 424
#     4  11  26  45  68 108 136 188 242 287 362 428
#     4  12  28  46  68 100 146 194 238 286 358 440
#     4  12  25  45  71  99 145 189 236 294 349 433
#     4  12  25  45  69 102 142 189 238 293 355 427
#     4  11  22  43  71 106 139 175 235 301 366 417
#     4  12  24  44  70 103 140 182 242 298 361 428
#     4  10  23  44  73 104 139 179 231 303 356 419
#
# _framework density 21.301067
#
# number of rings (size 3 to 8) (size 9 to 14) (size 15 to 20)
#    0.000    0.571    4.286    3.857    4.000    1.143 
#    1.286    0.714    0.000    0.000    0.000    0.000 
#    0.000    0.000    0.000    0.000    0.000    0.000 
#
# Total GULP energy -347229.315275 kJ/mol
# GULP energy per Si atom -12401.046974 kJ/mol
# Density = 2.125259 g / cm^3
# Si number density = 21.301067 Si / 1000 Ang^3
#
#
#
# Elastic Constant Matrix: (Units=GPa)
#
#
# Indices 1 2 3 4 5 6 
#
# 1 108.9542 43.7157 24.0379 0.0000 0.0000 0.0001
# 2 43.7157 102.5050 29.9378 0.0000 0.0000 0.0001
# 3 24.0379 29.9378 101.6882 0.0000 0.0000 0.0002
# 4 0.0000 0.0000 0.0000 13.6029 0.0000 0.0001
# 5 0.0000 0.0000 0.0000 0.0000 38.1385 0.0001
# 6 0.0001 0.0001 0.0002 0.0001 0.0001 266.5331
#
#
#
# Elastic Compliance Matrix: (Units=1/GPa)
#
#
# Indices 1 2 3 4 5 6 
#
# 1 0.011243 -0.004397 -0.001363 0.000000 0.000000 0.000000
# 2 -0.004397 0.012393 -0.002609 0.000000 0.000000 0.000000
# 3 -0.001363 -0.002609 0.010924 0.000000 0.000000 0.000000
# 4 0.000000 0.000000 0.000000 0.073514 0.000000 0.000000
# 5 0.000000 0.000000 0.000000 0.000000 0.026220 0.000000
# 6 0.000000 0.000000 0.000000 0.000000 0.000000 0.003752
#
#
# Mechanical properties :
#
#
# Convention : Reuss Voigt Hill
#
# Bulk Modulus (GPa) = 56.11100 56.50336 56.30718
# Shear Modulus (GPa) = 31.10907 78.01864 54.56385
#
# Velocity S-wave (km/s) = 3.82572 6.05856 5.06667
# Velocity P-wave (km/s) = 6.77598 8.69052 7.79228
#
# Compressibility (1/GPa) = 0.01782182
#
# Stress axis : x y z
#
# Youngs Moduli (GPa) = 88.94400 80.69244 91.53813
#
# Poissons Ratio (x) = 0.35478 0.12479
# Poissons Ratio (y) = 0.39106 0.23884
# Poissons Ratio (z) = 0.12126 0.21054
#
# Static dielectric constant tensor:
#      x y z
#    x 4.075670 0.000000 0.000000 
#    y 0.000000 3.912710 0.000000 
#    z 0.000000 0.000000 0.947770 
# 
# 
# High freq. dielectric constant tensor:
#      x y z
#    x 1.847460 0.000000 0.000000 
#    y 0.000000 1.839370 0.000000 
#    z 0.000000 0.000000 1.838340 
# 
# From -- ./inp_files/20908.got.cif
#   From: 2010.03.12/outbox.cif.g09.slc.cpg/sg24_11_cif.got.tgz:20908.got - 2010.04.14 03:06:53.
