data_PCOD8165815
_publ_section_title
;
Structure prediction by ZEFSAII (Michael W. Deem and Ramdas Pophale) SiO2 
 PCOD8165815
Probable space group: I 21 21 21
;
_chemical_formula_sum "Si O2"
_cell_formula_units_Z 64
_cell_length_a 14.286518
_cell_length_b 23.221700
_cell_length_c 8.885949
_cell_angle_alpha 90.000000
_cell_angle_beta 90.000000
_cell_angle_gamma 90.000000
_cell_volume 2947.977871
_symmetry_space_group_name_H-M "I 21 21 21"
_symmetry_group_IT_number 24
_symmetry_cell_setting 'orthorhombic'
loop_
_space_group_symop_operation_xyz
x,y,z
-x,1/2-y,z
x,-y,1/2-z
1/2-x,y,-z
1/2+x,1/2+y,1/2+z
1/2-x,-y,1/2+z
1/2+x,1/2-y,-z
-x,1/2+y,1/2-z
loop_
_atom_site_type_symbol
_atom_site_label
_atom_site_fract_x
_atom_site_fract_y
_atom_site_fract_z
Si Si1 0.518443 0.918164 0.592318
Si Si2 0.304993 0.282277 0.786093
Si Si3 0.614730 0.181013 0.079382
Si Si4 0.729613 0.337882 0.325611
Si Si5 0.336082 0.489940 0.584898
Si Si6 0.516425 0.309947 0.350685
Si Si7 0.090816 0.371493 0.401665
Si Si8 0.810804 0.444978 0.142626
O O1 0.575015 0.880585 0.471301
O O2 0.562399 0.980968 0.564536
O O3 0.531919 0.894370 0.760390
O O4 0.407597 0.922211 0.570179
O O5 0.215258 0.320191 0.836742
O O6 0.285088 0.217394 0.736203
O O7 0.349796 0.315182 0.643898
O O8 0.375780 0.278961 0.929561
O O9 0.540810 0.203571 0.198770
O O10 0.750000 0.348191 0.500000
O O11 0.620598 0.325906 0.302031
O O12 0.760205 0.393759 0.232789
O O13 0.300141 0.500000 0.750000
O O14 0.250000 0.519712 0.500000
O O15 0.342569 0.422692 0.541592
O O16 0.500000 0.250000 0.441884
O O17 0.477799 0.359507 0.458883
O O18 0.827024 0.500000 0.250000
O O19 0.750000 0.464547 0.000000
#
# Coordination Sequence:
#
# PCOD8165815 Si02
#       8
#     8   8   8   8   8   8   8   8
#     4  10  23  46  67  95 136 184 235 288 352 429
#     4  10  23  42  67  96 142 184 223 282 364 445
#     4  10  23  40  67  96 136 180 222 286 354 430
#     4  12  26  45  71 104 140 185 247 304 367 438
#     4  10  23  37  63  94 130 171 220 270 338 418
#     4  12  24  41  65  99 136 174 229 297 350 425
#     4  10  23  40  65  96 136 181 220 281 363 426
#     4  12  27  48  76 100 139 191 251 311 367 428
#
# _framework density 21.709796000000001
#
# number of rings (size 3 to 8) (size 9 to 14) (size 15 to 20)
#    0.000    1.250    1.250    3.750    8.750    2.000 
#    0.000    3.125    0.000    0.000    0.000    0.000 
#    0.000    0.000    0.000    0.000    0.000    0.000 
#
# Total GULP energy -396629.054092 kJ/mol
# GULP energy per Si atom -12394.657940 kJ/mol
# Density = 2.166038 g / cm^3
# Si number density = 21.709796 Si / 1000 Ang^3
#
#
#
# Elastic Constant Matrix: (Units=GPa)
#
#
# Indices 1 2 3 4 5 6 
#
# 1 113.2605 31.9150 32.0511 0.0006 0.0005 0.0002
# 2 31.9150 121.4501 33.7338 0.0004 0.0013 0.0001
# 3 32.0511 33.7338 75.7751 0.0012 0.0117 0.0013
# 4 0.0006 0.0004 0.0012 26.0610 0.0029 0.0005
# 5 0.0005 0.0013 0.0117 0.0029 -12.8673 0.0013
# 6 0.0002 0.0001 0.0013 0.0005 0.0013 43.7200
#
#
#
# Elastic Compliance Matrix: (Units=1/GPa)
#
#
# Indices 1 2 3 4 5 6 
#
# 1 0.010333 -0.001713 -0.003608 0.000000 -0.000003 0.000000
# 2 -0.001713 0.009680 -0.003585 0.000000 -0.000002 0.000000
# 3 -0.003608 -0.003585 0.016319 -0.000001 0.000014 0.000000
# 4 0.000000 0.000000 -0.000001 0.038372 0.000009 0.000000
# 5 -0.000003 -0.000002 0.000014 0.000009 -0.077716 0.000002
# 6 0.000000 0.000000 0.000000 0.000000 0.000002 0.022873
#
#
# Mechanical properties :
#
#
# Convention : Reuss Voigt Hill
#
# Bulk Modulus (GPa) = 53.99554 56.20949 55.10251
# Shear Modulus (GPa) = 114.03973 25.56845 69.80409
#
# Velocity S-wave (km/s) = 7.25556 3.43554 5.67654
# Velocity P-wave (km/s) = 9.75277 6.45637 8.27047
#
# Compressibility (1/GPa) = 0.01852005
#
# Stress axis : x y z
#
# Youngs Moduli (GPa) = 96.77787 103.30909 61.27899
#
# Poissons Ratio (x) = 0.17699 0.22109
# Poissons Ratio (y) = 0.16580 0.21966
# Poissons Ratio (z) = 0.34916 0.37032
#
# Static dielectric constant tensor:
#      x y z
#    x 4.000050 0.000000 0.000010 
#    y 0.000000 4.177670 0.000000 
#    z 0.000010 0.000000 4.000490 
# 
# 
# High freq. dielectric constant tensor:
#      x y z
#    x 1.859930 0.000000 0.000000 
#    y 0.000000 1.854270 0.000000 
#    z 0.000000 0.000000 1.858130 
# 
# From -- ./inp_files/13344.got.cif
#   From: 2010.03.12/outbox.cif.g09.slc.cpg/sg24_7_cif.got.tgz:13344.got - 2010.04.14 03:06:53.
