data_PCOD8165155
_publ_section_title
;
Structure prediction by ZEFSAII (Michael W. Deem and Ramdas Pophale) SiO2 
 PCOD8165155
Probable space group: I 21 21 21
;
_chemical_formula_sum "Si O2"
_cell_formula_units_Z 60
_cell_length_a 14.336606
_cell_length_b 23.244760
_cell_length_c 8.794208
_cell_angle_alpha 90.000000
_cell_angle_beta 90.000000
_cell_angle_gamma 90.000000
_cell_volume 2930.678308
_symmetry_space_group_name_H-M "I 21 21 21"
_symmetry_group_IT_number 24
_symmetry_cell_setting 'orthorhombic'
loop_
_space_group_symop_operation_xyz
x,y,z
-x,1/2-y,z
x,-y,1/2-z
1/2-x,y,-z
1/2+x,1/2+y,1/2+z
1/2-x,-y,1/2+z
1/2+x,1/2-y,-z
-x,1/2+y,1/2-z
loop_
_atom_site_type_symbol
_atom_site_label
_atom_site_fract_x
_atom_site_fract_y
_atom_site_fract_z
Si Si1 0.350443 0.229903 0.071337
Si Si2 0.154732 0.327467 0.697277
Si Si3 0.648220 0.398021 0.154734
Si Si4 0.000000 0.750000 0.333215
Si Si5 0.656639 0.435560 0.807869
Si Si6 0.537114 0.940031 0.187943
Si Si7 0.633022 0.831362 0.849040
Si Si8 0.525269 0.940823 0.837379
O O1 0.386167 0.281125 0.182965
O O2 0.350534 0.170697 0.162746
O O3 0.250000 0.243975 0.000000
O O4 0.423190 0.219038 0.936566
O O5 0.113107 0.390920 0.727511
O O6 0.129843 0.311365 0.524491
O O7 0.265509 0.323450 0.723006
O O8 0.742610 0.413796 0.247673
O O9 0.560213 0.423654 0.237467
O O10 0.650125 0.425975 0.988041
O O11 0.947199 0.795916 0.231597
O O12 0.644509 0.500000 0.750000
O O13 0.566253 0.406707 0.728033
O O14 0.577782 0.000000 0.250000
O O15 0.512033 0.951999 0.014502
O O16 0.613241 0.898629 0.822519
O O17 0.548457 0.000000 0.750000
#
# Coordination Sequence:
#
# PCOD8165155 Si02
#       8
#     8   8   8   4   8   8   8   8
#     4  12  23  43  66 101 134 173 228 286 341 409
#     4  10  24  45  65  96 131 172 216 278 338 401
#     4  11  23  39  61  89 129 173 217 273 336 403
#     4  12  24  38  70  96 126 172 218 268 336 392
#     4  10  20  36  58  86 125 166 216 272 329 400
#     4  11  23  41  64  92 127 170 217 272 337 404
#     4  10  23  43  67  90 129 170 216 267 332 405
#     4  10  22  38  60  89 122 163 216 270 326 392
#
# _framework density 20.473075999999999
#
# number of rings (size 3 to 8) (size 9 to 14) (size 15 to 20)
#    0.000    1.333    2.667    3.600    0.000    6.933 
#    0.000    1.333    0.000    0.000    0.000    0.000 
#    0.000    0.000    0.000    0.000    0.000    0.000 
#
# Total GULP energy -371849.521000 kJ/mol
# GULP energy per Si atom -12394.984033 kJ/mol
# Density = 2.042648 g / cm^3
# Si number density = 20.473076 Si / 1000 Ang^3
#
#
#
# Elastic Constant Matrix: (Units=GPa)
#
#
# Indices 1 2 3 4 5 6 
#
# 1 105.4670 33.6902 49.7726 -0.0002 -0.0021 -0.0003
# 2 33.6902 113.3832 62.2376 -0.0001 -0.0001 -0.0003
# 3 49.7726 62.2376 100.4830 0.0014 0.0053 0.0000
# 4 -0.0002 -0.0001 0.0014 27.9684 0.0026 0.0002
# 5 -0.0021 -0.0001 0.0053 0.0026 63.5202 0.0025
# 6 -0.0003 -0.0003 0.0000 0.0002 0.0025 37.7185
#
#
#
# Elastic Compliance Matrix: (Units=1/GPa)
#
#
# Indices 1 2 3 4 5 6 
#
# 1 0.012391 -0.000474 -0.005844 0.000000 0.000001 0.000000
# 2 -0.000474 0.013381 -0.008053 0.000000 0.000001 0.000000
# 3 -0.005844 -0.008053 0.017835 -0.000001 -0.000002 0.000000
# 4 0.000000 0.000000 -0.000001 0.035755 -0.000001 0.000000
# 5 0.000001 0.000001 -0.000002 -0.000001 0.015743 -0.000001
# 6 0.000000 0.000000 0.000000 0.000000 -0.000001 0.026512
#
#
# Mechanical properties :
#
#
# Convention : Reuss Voigt Hill
#
# Bulk Modulus (GPa) = 67.27561 67.85931 67.56746
# Shear Modulus (GPa) = 32.19283 37.41695 34.80489
#
# Velocity S-wave (km/s) = 3.96971 4.27970 4.12762
# Velocity P-wave (km/s) = 7.34461 7.59202 7.46934
#
# Compressibility (1/GPa) = 0.01486423
#
# Stress axis : x y z
#
# Youngs Moduli (GPa) = 80.70352 74.73282 56.07008
#
# Poissons Ratio (x) = 0.03541 0.32768
# Poissons Ratio (y) = 0.03824 0.45155
# Poissons Ratio (z) = 0.47165 0.60184
#
# Static dielectric constant tensor:
#      x y z
#    x 4.046390 0.000010 0.000000 
#    y 0.000010 3.212090 0.000000 
#    z 0.000000 0.000000 3.746590 
# 
# 
# High freq. dielectric constant tensor:
#      x y z
#    x 1.814800 0.000000 0.000000 
#    y 0.000000 1.802150 0.000000 
#    z 0.000000 0.000000 1.799900 
# 
# From -- ./inp_files/13321.got.cif
#   From: 2010.03.12/outbox.cif.g09.slc.cpg/sg24_7_cif.got.tgz:13321.got - 2010.04.14 03:06:53.
