data_PCOD8165885
_publ_section_title
;
Structure prediction by ZEFSAII (Michael W. Deem and Ramdas Pophale) SiO2 
 PCOD8165885
Probable space group: I 21 21 21
;
_chemical_formula_sum "Si O2"
_cell_formula_units_Z 48
_cell_length_a 27.797544
_cell_length_b 8.861658
_cell_length_c 8.187815
_cell_angle_alpha 90.000000
_cell_angle_beta 90.000000
_cell_angle_gamma 90.000000
_cell_volume 2016.923532
_symmetry_space_group_name_H-M "I 21 21 21"
_symmetry_group_IT_number 24
_symmetry_cell_setting 'orthorhombic'
loop_
_space_group_symop_operation_xyz
x,y,z
-x,1/2-y,z
x,-y,1/2-z
1/2-x,y,-z
1/2+x,1/2+y,1/2+z
1/2-x,-y,1/2+z
1/2+x,1/2-y,-z
-x,1/2+y,1/2-z
loop_
_atom_site_type_symbol
_atom_site_label
_atom_site_fract_x
_atom_site_fract_y
_atom_site_fract_z
Si Si1 0.698019 0.000000 0.750000
Si Si2 0.647577 0.285162 0.859767
Si Si3 0.528556 0.042854 0.560254
Si Si4 0.750000 0.788588 0.000000
Si Si5 0.947035 0.248530 0.956186
Si Si6 0.836018 0.414538 0.490001
Si Si7 0.437573 0.845031 0.089398
O O1 0.666380 0.110973 0.868278
O O2 0.732347 0.107140 0.645984
O O3 0.594766 0.316962 0.931889
O O4 0.646990 0.331241 0.672993
O O5 0.679757 0.410193 0.958830
O O6 0.473581 0.026775 0.484556
O O7 0.552007 0.205753 0.531316
O O8 0.529727 0.000000 0.750000
O O9 0.563100 0.932091 0.455679
O O10 0.791942 0.678477 0.931059
O O11 0.951200 0.313338 0.775170
O O12 0.000000 0.250000 0.045017
O O13 0.882861 0.401196 0.603502
#
# Coordination Sequence:
#
# PCOD8165885 Si02
#       7
#     4   8   8   4   8   8   8
#     4  10  24  48  70 116 132 184 236 308 370 434
#     4  10  24  43  72 100 143 184 238 292 359 439
#     4  11  25  41  66  96 137 193 241 288 354 436
#     4  10  24  46  76 100 144 176 248 302 366 448
#     4  12  25  41  64  99 145 188 238 299 353 423
#     4  10  23  46  69 101 135 190 241 296 359 437
#     4  11  25  44  63 102 141 183 244 296 355 431
#
# _framework density 23.79862
#
# number of rings (size 3 to 8) (size 9 to 14) (size 15 to 20)
#    0.000    1.333    1.667    2.500   12.833    4.000 
#    0.000    5.000    0.000    0.000    0.000    0.000 
#    0.000    0.000    0.000    0.000    0.000    0.000 
#
# Total GULP energy -297370.959216 kJ/mol
# GULP energy per Si atom -12390.456634 kJ/mol
# Density = 2.374445 g / cm^3
# Si number density = 23.798620 Si / 1000 Ang^3
#
#
#
# Elastic Constant Matrix: (Units=GPa)
#
#
# Indices 1 2 3 4 5 6 
#
# 1 124.5314 57.5595 28.8654 0.0000 0.0000 0.0000
# 2 57.5595 122.3627 34.3258 0.0000 0.0000 0.0000
# 3 28.8654 34.3258 82.4021 0.0000 0.0000 0.0000
# 4 0.0000 0.0000 0.0000 28.9404 0.0000 0.0000
# 5 0.0000 0.0000 0.0000 0.0000 34.5954 0.0000
# 6 0.0000 0.0000 0.0000 0.0000 0.0000 37.1907
#
#
#
# Elastic Compliance Matrix: (Units=1/GPa)
#
#
# Indices 1 2 3 4 5 6 
#
# 1 0.010501 -0.004425 -0.001835 0.000000 0.000000 0.000000
# 2 -0.004425 0.011118 -0.003081 0.000000 0.000000 0.000000
# 3 -0.001835 -0.003081 0.014062 0.000000 0.000000 0.000000
# 4 0.000000 0.000000 0.000000 0.034554 0.000000 0.000000
# 5 0.000000 0.000000 0.000000 0.000000 0.028906 0.000000
# 6 0.000000 0.000000 0.000000 0.000000 0.000000 0.026888
#
#
# Mechanical properties :
#
#
# Convention : Reuss Voigt Hill
#
# Bulk Modulus (GPa) = 58.82965 63.42195 61.12580
# Shear Modulus (GPa) = 33.24965 34.04834 33.64900
#
# Velocity S-wave (km/s) = 3.74187 3.78654 3.76427
# Velocity P-wave (km/s) = 6.59107 6.76938 6.68082
#
# Compressibility (1/GPa) = 0.01699823
#
# Stress axis : x y z
#
# Youngs Moduli (GPa) = 95.23261 89.94239 71.11303
#
# Poissons Ratio (x) = 0.39797 0.13051
# Poissons Ratio (y) = 0.42137 0.21913
# Poissons Ratio (z) = 0.17477 0.27716
#
# Static dielectric constant tensor:
#      x y z
#    x 4.443610 0.000000 0.000000 
#    y 0.000000 5.223820 0.000000 
#    z 0.000000 0.000000 3.917440 
# 
# 
# High freq. dielectric constant tensor:
#      x y z
#    x 1.928180 0.000000 0.000000 
#    y 0.000000 1.986950 0.000000 
#    z 0.000000 0.000000 1.924190 
# 
# From -- ./inp_files/22615.got.cif
#   From: 2010.03.12/outbox.cif.g09.slc.cpg/sg24_12_cif.got.tgz:22615.got - 2010.04.14 03:06:53.
