data_PCOD8165827
_publ_section_title
;
Structure prediction by ZEFSAII (Michael W. Deem and Ramdas Pophale) SiO2 
 PCOD8165827
Probable space group: I 21 21 21
;
_chemical_formula_sum "Si O2"
_cell_formula_units_Z 32
_cell_length_a 18.200812
_cell_length_b 10.472144
_cell_length_c 7.613255
_cell_angle_alpha 90.000000
_cell_angle_beta 90.000000
_cell_angle_gamma 90.000000
_cell_volume 1451.098007
_symmetry_space_group_name_H-M "I 21 21 21"
_symmetry_group_IT_number 24
_symmetry_cell_setting 'orthorhombic'
loop_
_space_group_symop_operation_xyz
x,y,z
-x,1/2-y,z
x,-y,1/2-z
1/2-x,y,-z
1/2+x,1/2+y,1/2+z
1/2-x,-y,1/2+z
1/2+x,1/2-y,-z
-x,1/2+y,1/2-z
loop_
_atom_site_type_symbol
_atom_site_label
_atom_site_fract_x
_atom_site_fract_y
_atom_site_fract_z
Si Si1 0.671616 0.530073 0.050708
Si Si2 0.083055 0.740039 0.858480
Si Si3 0.939904 0.860375 0.213293
Si Si4 0.835132 0.246072 0.001515
O O1 0.682494 0.500000 0.250000
O O2 0.605506 0.630762 0.034077
O O3 0.653939 0.396901 0.950657
O O4 0.750000 0.592029 0.000000
O O5 0.133525 0.710830 0.691480
O O6 0.000000 0.750000 0.787332
O O7 0.089056 0.633671 0.011095
O O8 0.873532 0.836051 0.348001
O O9 0.000000 0.750000 0.237623
O O10 0.973926 0.000000 0.250000
O O11 0.750000 0.209414 0.000000
#
# Coordination Sequence:
#
# PCOD8165827 Si02
#       4
#     8   8   8   8
#     4   9  20  36  66 104 130 173 225 285 344 398
#     4  10  23  41  66 103 138 179 228 285 348 406
#     4  11  27  46  69 104 136 185 230 286 349 415
#     4  10  23  44  70 101 137 182 226 289 347 414
#
# _framework density 22.052267000000001
#
# number of rings (size 3 to 8) (size 9 to 14) (size 15 to 20)
#    0.000    2.000    0.000    0.750   17.500    1.000 
#   13.500    0.000    0.000    0.000    0.000    0.000 
#    0.000    0.000    0.000    0.000    0.000    0.000 
#
# Total GULP energy -198308.787009 kJ/mol
# GULP energy per Si atom -12394.299188 kJ/mol
# Density = 2.200208 g / cm^3
# Si number density = 22.052267 Si / 1000 Ang^3
#
#
#
# Elastic Constant Matrix: (Units=GPa)
#
#
# Indices 1 2 3 4 5 6 
#
# 1 134.3190 59.3141 45.9425 0.0000 0.0000 0.0000
# 2 59.3141 86.3818 29.5764 0.0000 0.0000 0.0000
# 3 45.9425 29.5764 109.6289 0.0000 0.0000 0.0000
# 4 0.0000 0.0000 0.0000 31.7047 0.0000 0.0000
# 5 0.0000 0.0000 0.0000 0.0000 32.6372 0.0000
# 6 0.0000 0.0000 0.0000 0.0000 0.0000 3.5940
#
#
#
# Elastic Compliance Matrix: (Units=1/GPa)
#
#
# Indices 1 2 3 4 5 6 
#
# 1 0.011496 -0.006880 -0.002962 0.000000 0.000000 0.000000
# 2 -0.006880 0.016872 -0.001669 0.000000 0.000000 0.000000
# 3 -0.002962 -0.001669 0.010813 0.000000 0.000000 0.000000
# 4 0.000000 0.000000 0.000000 0.031541 0.000000 0.000000
# 5 0.000000 0.000000 0.000000 0.000000 0.030640 0.000000
# 6 0.000000 0.000000 0.000000 0.000000 0.000000 0.278241
#
#
# Mechanical properties :
#
#
# Convention : Reuss Voigt Hill
#
# Bulk Modulus (GPa) = 61.87812 66.66619 64.27215
# Shear Modulus (GPa) = 12.25461 26.62029 19.43745
#
# Velocity S-wave (km/s) = 2.35990 3.47817 2.97210
# Velocity P-wave (km/s) = 5.96206 6.81372 6.40207
#
# Compressibility (1/GPa) = 0.01616080
#
# Stress axis : x y z
#
# Youngs Moduli (GPa) = 86.98717 59.27054 92.48127
#
# Poissons Ratio (x) = 0.40776 0.27389
# Poissons Ratio (y) = 0.59844 0.15432
# Poissons Ratio (z) = 0.25762 0.09890
#
# Static dielectric constant tensor:
#      x y z
#    x 3.783040 0.000000 0.000000 
#    y 0.000000 5.485410 0.000000 
#    z 0.000000 0.000000 4.200050 
# 
# 
# High freq. dielectric constant tensor:
#      x y z
#    x 1.868340 0.000000 0.000000 
#    y 0.000000 1.846170 0.000000 
#    z 0.000000 0.000000 1.882090 
# 
# From -- ./inp_files/10205.got.cif
#   From: 2010.03.12/outbox.cif.g09.slc.cpg/sg24_6_cif.got.tgz:10205.got - 2010.04.14 03:06:53.
