data_PCOD8165449
_publ_section_title
;
Structure prediction by ZEFSAII (Michael W. Deem and Ramdas Pophale) SiO2 
 PCOD8165449
Probable space group: I 21 21 21
;
_chemical_formula_sum "Si O2"
_cell_formula_units_Z 64
_cell_length_a 10.725673
_cell_length_b 16.385270
_cell_length_c 17.731121
_cell_angle_alpha 90.000000
_cell_angle_beta 90.000000
_cell_angle_gamma 90.000000
_cell_volume 3116.121250
_symmetry_space_group_name_H-M "I 21 21 21"
_symmetry_group_IT_number 24
_symmetry_cell_setting 'orthorhombic'
loop_
_space_group_symop_operation_xyz
x,y,z
-x,1/2-y,z
x,-y,1/2-z
1/2-x,y,-z
1/2+x,1/2+y,1/2+z
1/2-x,-y,1/2+z
1/2+x,1/2-y,-z
-x,1/2+y,1/2-z
loop_
_atom_site_type_symbol
_atom_site_label
_atom_site_fract_x
_atom_site_fract_y
_atom_site_fract_z
Si Si1 0.397493 0.457795 0.325723
Si Si2 0.893147 0.502893 0.930005
Si Si3 0.216062 0.384746 0.877295
Si Si4 0.509735 0.840997 0.473308
Si Si5 0.612010 0.309061 0.712226
Si Si6 0.001812 0.882742 0.362410
Si Si7 0.622656 0.541824 0.899399
Si Si8 0.635815 0.789911 0.238614
O O1 0.449245 0.500000 0.250000
O O2 0.512898 0.444889 0.380679
O O3 0.293578 0.518670 0.359925
O O4 0.339577 0.368405 0.314734
O O5 0.760299 0.505752 0.889921
O O6 0.926671 0.406600 0.927983
O O7 0.902012 0.547362 0.011150
O O8 0.155281 0.368921 0.960737
O O9 0.356853 0.359678 0.861380
O O10 0.135219 0.325155 0.823400
O O11 0.500000 0.750000 0.441182
O O12 0.455698 0.843716 0.558278
O O13 0.500000 0.250000 0.688084
O O14 0.577073 0.345025 0.793699
O O15 0.613375 0.373474 0.644227
O O16 0.749686 0.270572 0.719932
O O17 0.023788 0.979824 0.362006
O O18 0.500000 0.750000 0.223048
#
# Coordination Sequence:
#
# PCOD8165449 Si02
#       8
#     8   8   8   8   8   8   8   8
#     4   9  20  37  66  88 121 161 207 262 315 379
#     4   9  20  44  61  94 122 165 220 257 310 396
#     4  10  21  38  59  90 127 167 209 248 312 394
#     4  10  21  38  63  93 128 167 204 258 315 379
#     4  12  25  41  62  97 129 163 219 273 326 371
#     4  11  23  40  59  91 129 172 204 251 321 394
#     4  10  23  40  66  84 127 173 210 261 321 392
#     4  11  23  39  62  93 125 163 211 271 314 367
#
# _framework density 20.538354000000002
#
# number of rings (size 3 to 8) (size 9 to 14) (size 15 to 20)
#    0.000    1.750    1.250    2.250    1.750    6.000 
#    6.750    3.125    0.000    0.000    0.000    0.000 
#    0.000    0.000    0.000    0.000    0.000    0.000 
#
# Total GULP energy -396508.835593 kJ/mol
# GULP energy per Si atom -12390.901112 kJ/mol
# Density = 2.049161 g / cm^3
# Si number density = 20.538354 Si / 1000 Ang^3
#
#
#
# Elastic Constant Matrix: (Units=GPa)
#
#
# Indices 1 2 3 4 5 6 
#
# 1 118.2984 45.2556 30.4163 0.0000 0.0000 0.0000
# 2 45.2556 121.5942 43.8056 0.0000 0.0000 0.0000
# 3 30.4163 43.8056 67.1331 0.0000 0.0000 0.0000
# 4 0.0000 0.0000 0.0000 9.2549 0.0000 0.0000
# 5 0.0000 0.0000 0.0000 0.0000 24.9575 0.0000
# 6 0.0000 0.0000 0.0000 0.0000 0.0000 29.7720
#
#
#
# Elastic Compliance Matrix: (Units=1/GPa)
#
#
# Indices 1 2 3 4 5 6 
#
# 1 0.010248 -0.002800 -0.002816 0.000000 0.000000 0.000000
# 2 -0.002800 0.011516 -0.006246 0.000000 0.000000 0.000000
# 3 -0.002816 -0.006246 0.020248 0.000000 0.000000 0.000000
# 4 0.000000 0.000000 0.000000 0.108051 0.000000 0.000000
# 5 0.000000 0.000000 0.000000 0.000000 0.040068 0.000000
# 6 0.000000 0.000000 0.000000 0.000000 0.000000 0.033589
#
#
# Mechanical properties :
#
#
# Convention : Reuss Voigt Hill
#
# Bulk Modulus (GPa) = 54.68142 60.66454 57.67298
# Shear Modulus (GPa) = 19.72076 25.30012 22.51044
#
# Velocity S-wave (km/s) = 3.10206 3.51358 3.31421
# Velocity P-wave (km/s) = 6.28587 6.78687 6.54117
#
# Compressibility (1/GPa) = 0.01828775
#
# Stress axis : x y z
#
# Youngs Moduli (GPa) = 97.57653 86.83340 49.38859
#
# Poissons Ratio (x) = 0.24310 0.13910
# Poissons Ratio (y) = 0.27318 0.30849
# Poissons Ratio (z) = 0.27482 0.54238
#
# Static dielectric constant tensor:
#      x y z
#    x 3.737310 0.000000 0.000000 
#    y 0.000000 3.752700 0.000000 
#    z 0.000000 0.000000 3.778100 
# 
# 
# High freq. dielectric constant tensor:
#      x y z
#    x 1.806630 0.000000 0.000000 
#    y 0.000000 1.801440 0.000000 
#    z 0.000000 0.000000 1.800310 
# 
# From -- ./inp_files/30389.got.cif
#   From: 2010.03.12/outbox.cif.g09.slc.cpg/sg24_16_cif.got.tgz:30389.got - 2010.04.14 03:06:53.
