data_PCOD8165524
_publ_section_title
;
Structure prediction by ZEFSAII (Michael W. Deem and Ramdas Pophale) SiO2 
 PCOD8165524
Probable space group: I 21 21 21
;
_chemical_formula_sum "Si O2"
_cell_formula_units_Z 64
_cell_length_a 19.376236
_cell_length_b 17.860391
_cell_length_c 8.614075
_cell_angle_alpha 90.000000
_cell_angle_beta 90.000000
_cell_angle_gamma 90.000000
_cell_volume 2981.048394
_symmetry_space_group_name_H-M "I 21 21 21"
_symmetry_group_IT_number 24
_symmetry_cell_setting 'orthorhombic'
loop_
_space_group_symop_operation_xyz
x,y,z
-x,1/2-y,z
x,-y,1/2-z
1/2-x,y,-z
1/2+x,1/2+y,1/2+z
1/2-x,-y,1/2+z
1/2+x,1/2-y,-z
-x,1/2+y,1/2-z
loop_
_atom_site_type_symbol
_atom_site_label
_atom_site_fract_x
_atom_site_fract_y
_atom_site_fract_z
Si Si1 0.154260 0.374880 0.123352
Si Si2 0.999773 0.584691 0.422689
Si Si3 0.876062 0.576685 0.197242
Si Si4 0.561125 0.455274 0.391996
Si Si5 0.321827 0.233479 0.694329
Si Si6 0.545810 0.318014 0.200225
Si Si7 0.298101 0.585076 0.282605
Si Si8 0.335687 0.734299 0.147188
O O1 0.148819 0.287720 0.171506
O O2 0.213861 0.412014 0.233374
O O3 0.077984 0.409266 0.139024
O O4 0.179133 0.385420 0.949248
O O5 0.952607 0.579232 0.270946
O O6 0.994497 0.508956 0.524500
O O7 0.971670 0.655086 0.525063
O O8 0.837930 0.500000 0.250000
O O9 0.834432 0.648894 0.250708
O O10 0.880807 0.573080 0.010801
O O11 0.598087 0.500000 0.250000
O O12 0.524042 0.383355 0.319193
O O13 0.359901 0.249982 0.529644
O O14 0.241334 0.240253 0.675459
O O15 0.500000 0.250000 0.252535
O O16 0.622661 0.285111 0.227836
O O17 0.322753 0.500000 0.250000
O O18 0.336950 0.643438 0.168589
#
# Coordination Sequence:
#
# PCOD8165524 Si02
#       8
#     8   8   8   8   8   8   8   8
#     4  10  23  41  63  95 128 180 219 277 341 396
#     4  10  23  38  63  92 135 169 216 273 340 400
#     4  10  21  40  63  92 128 167 213 274 332 396
#     4   9  20  41  60  88 126 167 209 271 323 390
#     4  10  22  41  66  89 131 171 223 278 328 404
#     4  11  22  37  62  94 127 172 220 264 330 400
#     4  10  23  42  66  94 132 172 229 275 331 409
#     4  10  22  42  65  92 128 173 219 275 331 394
#
# _framework density 21.468955000000001
#
# number of rings (size 3 to 8) (size 9 to 14) (size 15 to 20)
#    0.000    2.000    1.250    0.750    3.500    9.000 
#    0.000    1.875    0.000    0.000    0.000    0.000 
#    0.000    0.000    0.000    0.000    0.000    0.000 
#
# Total GULP energy -396515.930896 kJ/mol
# GULP energy per Si atom -12391.122841 kJ/mol
# Density = 2.142009 g / cm^3
# Si number density = 21.468955 Si / 1000 Ang^3
#
#
#
# Elastic Constant Matrix: (Units=GPa)
#
#
# Indices 1 2 3 4 5 6 
#
# 1 58.0987 31.9176 13.6823 0.0000 0.0000 0.0000
# 2 31.9176 183.2893 46.7484 0.0000 0.0000 0.0000
# 3 13.6823 46.7484 89.9555 0.0000 0.0000 0.0000
# 4 0.0000 0.0000 0.0000 30.5990 0.0000 0.0000
# 5 0.0000 0.0000 0.0000 0.0000 18.6542 0.0000
# 6 0.0000 0.0000 0.0000 0.0000 0.0000 21.8635
#
#
#
# Elastic Compliance Matrix: (Units=1/GPa)
#
#
# Indices 1 2 3 4 5 6 
#
# 1 0.019177 -0.002992 -0.001362 0.000000 0.000000 0.000000
# 2 -0.002992 0.006756 -0.003056 0.000000 0.000000 0.000000
# 3 -0.001362 -0.003056 0.012912 0.000000 0.000000 0.000000
# 4 0.000000 0.000000 0.000000 0.032681 0.000000 0.000000
# 5 0.000000 0.000000 0.000000 0.000000 0.053607 0.000000
# 6 0.000000 0.000000 0.000000 0.000000 0.000000 0.045738
#
#
# Mechanical properties :
#
#
# Convention : Reuss Voigt Hill
#
# Bulk Modulus (GPa) = 41.62349 57.33780 49.48064
# Shear Modulus (GPa) = 25.81319 30.15634 27.98476
#
# Velocity S-wave (km/s) = 3.47125 3.75193 3.61432
# Velocity P-wave (km/s) = 5.95785 6.74793 6.36516
#
# Compressibility (1/GPa) = 0.02402490
#
# Stress axis : x y z
#
# Youngs Moduli (GPa) = 52.14710 148.00912 77.44763
#
# Poissons Ratio (x) = 0.44284 0.10547
# Poissons Ratio (y) = 0.15602 0.23669
# Poissons Ratio (z) = 0.07102 0.45233
#
# Static dielectric constant tensor:
#      x y z
#    x 3.872000 0.000000 0.000000 
#    y 0.000000 4.371260 0.000000 
#    z 0.000000 0.000000 4.056200 
# 
# 
# High freq. dielectric constant tensor:
#      x y z
#    x 1.811100 0.000000 0.000000 
#    y 0.000000 1.861540 0.000000 
#    z 0.000000 0.000000 1.843510 
# 
# From -- ./inp_files/15413.got.cif
#   From: 2010.03.12/outbox.cif.g09.slc.cpg/sg24_8_cif.got.tgz:15413.got - 2010.04.14 03:06:53.
