data_PCOD8165515
_publ_section_title
;
Structure prediction by ZEFSAII (Michael W. Deem and Ramdas Pophale) SiO2 
 PCOD8165515
Probable space group: I 21 21 21
;
_chemical_formula_sum "Si O2"
_cell_formula_units_Z 56
_cell_length_a 13.585342
_cell_length_b 20.998545
_cell_length_c 10.014576
_cell_angle_alpha 90.000000
_cell_angle_beta 90.000000
_cell_angle_gamma 90.000000
_cell_volume 2856.882284
_symmetry_space_group_name_H-M "I 21 21 21"
_symmetry_group_IT_number 24
_symmetry_cell_setting 'orthorhombic'
loop_
_space_group_symop_operation_xyz
x,y,z
-x,1/2-y,z
x,-y,1/2-z
1/2-x,y,-z
1/2+x,1/2+y,1/2+z
1/2-x,-y,1/2+z
1/2+x,1/2-y,-z
-x,1/2+y,1/2-z
loop_
_atom_site_type_symbol
_atom_site_label
_atom_site_fract_x
_atom_site_fract_y
_atom_site_fract_z
Si Si1 0.902004 0.010842 0.090622
Si Si2 0.987625 0.320332 0.776088
Si Si3 0.773020 0.566098 0.304556
Si Si4 0.299092 0.676950 0.233246
Si Si5 0.285477 0.814619 0.147823
Si Si6 0.750000 0.112976 0.000000
Si Si7 0.250000 0.588745 0.000000
Si Si8 0.585027 0.426704 0.034112
O O1 0.006726 0.020435 0.015733
O O2 0.915311 0.000000 0.250000
O O3 0.835747 0.072890 0.070118
O O4 0.848274 0.953879 0.011214
O O5 0.902047 0.325727 0.665168
O O6 0.000000 0.250000 0.839609
O O7 0.086751 0.333491 0.693216
O O8 0.971021 0.367124 0.900966
O O9 0.818287 0.500000 0.250000
O O10 0.769851 0.622300 0.196947
O O11 0.664811 0.546255 0.360266
O O12 0.848794 0.595929 0.410334
O O13 0.259264 0.749430 0.225942
O O14 0.292836 0.657803 0.386586
O O15 0.242098 0.631410 0.132101
O O16 0.250000 0.802362 0.000000
#
# Coordination Sequence:
#
# PCOD8165515 Si02
#       8
#     8   8   8   8   8   4   4   8
#     4  11  22  38  58  93 130 165 212 262 314 380
#     4   9  20  38  65  91 124 163 211 262 319 395
#     4  10  23  41  63  89 122 166 214 268 325 376
#     4  11  21  42  64  94 130 171 211 260 322 387
#     4  10  22  40  66  92 125 165 214 267 323 383
#     4  11  22  38  66  90 129 174 208 258 319 374
#     4  11  24  38  62  90 133 168 208 256 315 388
#     4  10  21  40  60  91 121 161 215 261 323 378
#
# _framework density 19.601787000000002
#
# number of rings (size 3 to 8) (size 9 to 14) (size 15 to 20)
#    0.000    1.714    3.571    0.429    2.000    5.714 
#    2.571    0.000    0.000    0.000    0.000    0.000 
#    0.000    0.000    0.000    0.000    0.000    0.000 
#
# Total GULP energy -346984.501609 kJ/mol
# GULP energy per Si atom -12392.303629 kJ/mol
# Density = 1.955717 g / cm^3
# Si number density = 19.601787 Si / 1000 Ang^3
#
#
#
# Elastic Constant Matrix: (Units=GPa)
#
#
# Indices 1 2 3 4 5 6 
#
# 1 77.3889 34.9796 26.9280 -0.0002 0.0000 -0.0001
# 2 34.9796 121.9372 48.1839 -0.0001 0.0000 -0.0001
# 3 26.9280 48.1839 103.6049 -0.0004 0.0000 -0.0005
# 4 -0.0002 -0.0001 -0.0004 34.7397 -0.0001 -0.0002
# 5 0.0000 0.0000 0.0000 -0.0001 28.3237 0.0000
# 6 -0.0001 -0.0001 -0.0005 -0.0002 0.0000 20.1004
#
#
#
# Elastic Compliance Matrix: (Units=1/GPa)
#
#
# Indices 1 2 3 4 5 6 
#
# 1 0.015308 -0.003454 -0.002372 0.000000 0.000000 0.000000
# 2 -0.003454 0.010827 -0.004137 0.000000 0.000000 0.000000
# 3 -0.002372 -0.004137 0.012193 0.000000 0.000000 0.000000
# 4 0.000000 0.000000 0.000000 0.028786 0.000000 0.000000
# 5 0.000000 0.000000 0.000000 0.000000 0.035306 0.000000
# 6 0.000000 0.000000 0.000000 0.000000 0.000000 0.049750
#
#
# Mechanical properties :
#
#
# Convention : Reuss Voigt Hill
#
# Bulk Modulus (GPa) = 54.34724 58.12379 56.23551
# Shear Modulus (GPa) = 28.05345 29.48873 28.77109
#
# Velocity S-wave (km/s) = 3.78718 3.88285 3.83532
# Velocity P-wave (km/s) = 6.84905 7.05824 6.95443
#
# Compressibility (1/GPa) = 0.01840020
#
# Stress axis : x y z
#
# Youngs Moduli (GPa) = 65.32334 92.36411 82.01476
#
# Poissons Ratio (x) = 0.31902 0.19458
# Poissons Ratio (y) = 0.22563 0.33934
# Poissons Ratio (z) = 0.15498 0.38216
#
# Static dielectric constant tensor:
#      x y z
#    x 3.687000 0.000000 0.000000 
#    y 0.000000 3.616140 0.000000 
#    z 0.000000 0.000000 3.435870 
# 
# 
# High freq. dielectric constant tensor:
#      x y z
#    x 1.765850 0.000000 0.000000 
#    y 0.000000 1.767480 0.000000 
#    z 0.000000 0.000000 1.756930 
# 
# From -- ./inp_files/13205.got.cif
#   From: 2010.03.12/outbox.cif.g09.slc.cpg/sg24_7_cif.got.tgz:13205.got - 2010.04.14 03:06:53.
