data_PCOD8165937
_publ_section_title
;
Structure prediction by ZEFSAII (Michael W. Deem and Ramdas Pophale) SiO2 
 PCOD8165937
Probable space group: I 21 21 21
;
_chemical_formula_sum "Si O2"
_cell_formula_units_Z 20
_cell_length_a 31.893215
_cell_length_b 5.018612
_cell_length_c 5.135805
_cell_angle_alpha 90.000000
_cell_angle_beta 90.000000
_cell_angle_gamma 90.000000
_cell_volume 822.035261
_symmetry_space_group_name_H-M "I 21 21 21"
_symmetry_group_IT_number 24
_symmetry_cell_setting 'orthorhombic'
loop_
_space_group_symop_operation_xyz
x,y,z
-x,1/2-y,z
x,-y,1/2-z
1/2-x,y,-z
1/2+x,1/2+y,1/2+z
1/2-x,-y,1/2+z
1/2+x,1/2-y,-z
-x,1/2+y,1/2-z
loop_
_atom_site_type_symbol
_atom_site_label
_atom_site_fract_x
_atom_site_fract_y
_atom_site_fract_z
Si Si1 0.361281 0.000000 0.250000
Si Si2 0.528086 0.000000 0.750000
Si Si3 0.702843 0.177640 0.502068
Si Si4 0.082534 0.500000 0.750000
O O1 0.330505 0.080127 0.491247
O O2 0.389694 0.248101 0.163585
O O3 0.500000 0.750000 0.667883
O O4 0.555338 0.082564 0.499836
O O5 0.750000 0.296642 0.500000
O O6 0.693523 0.000000 0.750000
O O7 0.695053 0.000000 0.250000
#
# Coordination Sequence:
#
# PCOD8165937 Si02
#       4
#     4   4   8   4
#     4  12  26  49  70 113 154 192 250 319 368 433
#     4  12  26  52  78 108 144 188 236 294 372 478
#     4  10  24  45  71 102 147 208 263 308 366 434
#     4  12  28  45  78 113 144 190 238 307 382 437
#
# _framework density 24.329855999999999
#
# number of rings (size 3 to 8) (size 9 to 14) (size 15 to 20)
#    0.000    0.800    2.000    3.600    2.800    9.600 
#    0.000    0.000    0.000    0.000    0.000    0.000 
#    0.000    0.000    0.000    0.000    0.000    0.000 
#
# Total GULP energy -124041.798078 kJ/mol
# GULP energy per Si atom -12404.179808 kJ/mol
# Density = 2.427448 g / cm^3
# Si number density = 24.329856 Si / 1000 Ang^3
#
#
#
# Elastic Constant Matrix: (Units=GPa)
#
#
# Indices 1 2 3 4 5 6 
#
# 1 152.5017 70.9340 54.0272 0.0001 0.0000 -0.0002
# 2 70.9340 151.8418 36.7676 0.0001 0.0001 -0.0002
# 3 54.0272 36.7676 165.5083 0.0001 0.0000 -0.0001
# 4 0.0001 0.0001 0.0001 31.0639 0.0000 -0.0002
# 5 0.0000 0.0001 0.0000 0.0000 20.1484 0.0000
# 6 -0.0002 -0.0002 -0.0001 -0.0002 0.0000 -38.3023
#
#
#
# Elastic Compliance Matrix: (Units=1/GPa)
#
#
# Indices 1 2 3 4 5 6 
#
# 1 0.009034 -0.003706 -0.002126 0.000000 0.000000 0.000000
# 2 -0.003706 0.008480 -0.000674 0.000000 0.000000 0.000000
# 3 -0.002126 -0.000674 0.006886 0.000000 0.000000 0.000000
# 4 0.000000 0.000000 0.000000 0.032192 0.000000 0.000000
# 5 0.000000 0.000000 0.000000 0.000000 0.049632 0.000000
# 6 0.000000 0.000000 0.000000 0.000000 0.000000 -0.026108
#
#
# Mechanical properties :
#
#
# Convention : Reuss Voigt Hill
#
# Bulk Modulus (GPa) = 87.80673 88.14549 87.97611
# Shear Modulus (GPa) = 51.58754 23.12352 37.35553
#
# Velocity S-wave (km/s) = 4.60971 3.08623 3.92264
# Velocity P-wave (km/s) = 8.03125 7.00055 7.53355
#
# Compressibility (1/GPa) = 0.01138865
#
# Stress axis : x y z
#
# Youngs Moduli (GPa) = 110.69289 117.92251 145.22839
#
# Poissons Ratio (x) = 0.43697 0.30873
# Poissons Ratio (y) = 0.41018 0.09792
# Poissons Ratio (z) = 0.23531 0.07951
#
# Static dielectric constant tensor:
#      x y z
#    x 4.878980 0.000000 0.000000 
#    y 0.000000 4.396200 0.000000 
#    z 0.000000 0.000000 4.605600 
# 
# 
# High freq. dielectric constant tensor:
#      x y z
#    x 1.984460 0.000000 0.000000 
#    y 0.000000 1.973390 0.000000 
#    z 0.000000 0.000000 1.965470 
# 
# From -- ./inp_files/348.got.cif
#   From: 2010.03.12/outbox.cif.g09.slc.cpg/sg24_1_cif.got.tgz:348.got - 2010.04.14 03:06:53.
