data_PCOD8165654
_publ_section_title
;
Structure prediction by ZEFSAII (Michael W. Deem and Ramdas Pophale) SiO2 
 PCOD8165654
Probable space group: I 21 21 21
;
_chemical_formula_sum "Si O2"
_cell_formula_units_Z 40
_cell_length_a 17.384628
_cell_length_b 9.592615
_cell_length_c 11.112852
_cell_angle_alpha 90.000000
_cell_angle_beta 90.000000
_cell_angle_gamma 90.000000
_cell_volume 1853.224132
_symmetry_space_group_name_H-M "I 21 21 21"
_symmetry_group_IT_number 24
_symmetry_cell_setting 'orthorhombic'
loop_
_space_group_symop_operation_xyz
x,y,z
-x,1/2-y,z
x,-y,1/2-z
1/2-x,y,-z
1/2+x,1/2+y,1/2+z
1/2-x,-y,1/2+z
1/2+x,1/2-y,-z
-x,1/2+y,1/2-z
loop_
_atom_site_type_symbol
_atom_site_label
_atom_site_fract_x
_atom_site_fract_y
_atom_site_fract_z
Si Si1 0.423153 0.924823 0.012776
Si Si2 0.659472 0.660305 0.776398
Si Si3 0.196671 0.252939 0.611279
Si Si4 0.584966 0.993976 0.111212
Si Si5 0.912361 0.263798 0.038226
O O1 0.376993 0.850385 0.121331
O O2 0.515459 0.921408 0.035316
O O3 0.399098 0.838239 0.891509
O O4 0.393610 0.083933 0.014331
O O5 0.673605 0.500000 0.750000
O O6 0.743278 0.733544 0.781512
O O7 0.626510 0.752367 0.667778
O O8 0.250000 0.210110 0.500000
O O9 0.163992 0.408685 0.601482
O O10 0.557936 0.000000 0.250000
O O11 0.608764 0.145413 0.059476
O O12 0.000000 0.250000 0.070648
#
# Coordination Sequence:
#
# PCOD8165654 Si02
#       5
#     8   8   8   8   8
#     4   9  20  40  62  88 117 156 210 256 303 359
#     4   9  19  38  64  90 117 156 209 260 304 360
#     4  10  22  38  57  85 120 159 200 248 307 364
#     4  11  24  39  59  90 127 163 199 247 308 372
#     4   9  20  39  64  91 117 156 207 257 307 357
#
# _framework density 21.584005999999999
#
# number of rings (size 3 to 8) (size 9 to 14) (size 15 to 20)
#    0.000    2.400    0.000    0.600    0.000   12.000 
#    0.000   12.000    0.000    0.000    0.000    0.000 
#    0.000    0.000    0.000    0.000    0.000    0.000 
#
# Total GULP energy -247778.546163 kJ/mol
# GULP energy per Si atom -12388.927308 kJ/mol
# Density = 2.153488 g / cm^3
# Si number density = 21.584006 Si / 1000 Ang^3
#
#
#
# Elastic Constant Matrix: (Units=GPa)
#
#
# Indices 1 2 3 4 5 6 
#
# 1 87.3001 57.1527 36.0459 0.0000 0.0000 0.0000
# 2 57.1527 98.1137 54.9594 0.0000 0.0000 0.0000
# 3 36.0459 54.9594 102.9040 0.0000 0.0000 0.0000
# 4 0.0000 0.0000 0.0000 33.1795 0.0000 0.0000
# 5 0.0000 0.0000 0.0000 0.0000 36.9166 0.0000
# 6 0.0000 0.0000 0.0000 0.0000 0.0000 39.5056
#
#
#
# Elastic Compliance Matrix: (Units=1/GPa)
#
#
# Indices 1 2 3 4 5 6 
#
# 1 0.018593 -0.010249 -0.001039 0.000000 0.000000 0.000000
# 2 -0.010249 0.020192 -0.007194 0.000000 0.000000 0.000000
# 3 -0.001039 -0.007194 0.013924 0.000000 0.000000 0.000000
# 4 0.000000 0.000000 0.000000 0.030139 0.000000 0.000000
# 5 0.000000 0.000000 0.000000 0.000000 0.027088 0.000000
# 6 0.000000 0.000000 0.000000 0.000000 0.000000 0.025313
#
#
# Mechanical properties :
#
#
# Convention : Reuss Voigt Hill
#
# Bulk Modulus (GPa) = 63.51202 64.95933 64.23568
# Shear Modulus (GPa) = 28.17481 31.26432 29.71956
#
# Velocity S-wave (km/s) = 3.61689 3.81004 3.71472
# Velocity P-wave (km/s) = 6.85069 7.03680 6.94437
#
# Compressibility (1/GPa) = 0.01574505
#
# Stress axis : x y z
#
# Youngs Moduli (GPa) = 53.78238 49.52370 71.81699
#
# Poissons Ratio (x) = 0.50756 0.07464
# Poissons Ratio (y) = 0.55120 0.51668
# Poissons Ratio (z) = 0.05590 0.35629
#
# Static dielectric constant tensor:
#      x y z
#    x 4.062620 0.000000 0.000000 
#    y 0.000000 4.131520 0.000000 
#    z 0.000000 0.000000 3.950160 
# 
# 
# High freq. dielectric constant tensor:
#      x y z
#    x 1.852580 0.000000 0.000000 
#    y 0.000000 1.845250 0.000000 
#    z 0.000000 0.000000 1.835310 
# 
# From -- ./inp_files/10673.got.cif
#   From: 2010.03.12/outbox.cif.g09.slc.cpg/sg24_6_cif.got.tgz:10673.got - 2010.04.14 03:06:53.
