data_PCOD8165750
_publ_section_title
;
Structure prediction by ZEFSAII (Michael W. Deem and Ramdas Pophale) SiO2 
 PCOD8165750
Probable space group: I 21 21 21
;
_chemical_formula_sum "Si O2"
_cell_formula_units_Z 56
_cell_length_a 28.793589
_cell_length_b 6.556895
_cell_length_c 14.251632
_cell_angle_alpha 90.000000
_cell_angle_beta 90.000000
_cell_angle_gamma 90.000000
_cell_volume 2690.658807
_symmetry_space_group_name_H-M "I 21 21 21"
_symmetry_group_IT_number 24
_symmetry_cell_setting 'orthorhombic'
loop_
_space_group_symop_operation_xyz
x,y,z
-x,1/2-y,z
x,-y,1/2-z
1/2-x,y,-z
1/2+x,1/2+y,1/2+z
1/2-x,-y,1/2+z
1/2+x,1/2-y,-z
-x,1/2+y,1/2-z
loop_
_atom_site_type_symbol
_atom_site_label
_atom_site_fract_x
_atom_site_fract_y
_atom_site_fract_z
Si Si1 0.105424 0.650759 0.012202
Si Si2 0.175317 0.665295 0.411212
Si Si3 0.750000 0.414757 0.000000
Si Si4 0.758075 0.000000 0.250000
Si Si5 0.593803 0.529029 0.641735
Si Si6 0.051564 0.259038 0.986630
Si Si7 0.283007 0.876340 0.167870
Si Si8 0.111646 0.024027 0.643537
O O1 0.152787 0.527140 0.034370
O O2 0.062847 0.493511 0.008901
O O3 0.102317 0.807009 0.098149
O O4 0.102019 0.763214 0.910912
O O5 0.204432 0.775393 0.492736
O O6 0.208865 0.606070 0.325817
O O7 0.137642 0.821221 0.369453
O O8 0.750132 0.576935 0.917616
O O9 0.721104 0.140452 0.305343
O O10 0.580231 0.500000 0.750000
O O11 0.551462 0.632536 0.584321
O O12 0.000000 0.250000 0.942414
O O13 0.090186 0.163427 0.916087
O O14 0.333022 0.977826 0.149326
O O15 0.258423 0.000000 0.250000
O O16 0.091273 0.000000 0.750000
#
# Coordination Sequence:
#
# PCOD8165750 Si02
#       8
#     8   8   4   4   8   8   8   8
#     4  10  22  42  70  92 136 179 213 278 341 404
#     4  11  25  38  60  97 130 179 233 275 333 393
#     4  12  24  40  60  90 134 172 228 284 328 378
#     4  12  26  38  64  96 128 184 238 284 328 408
#     4  10  22  42  66  95 135 179 216 278 339 405
#     4  10  23  46  68 106 135 166 225 277 340 428
#     4  11  25  43  59  92 135 168 228 287 327 385
#     4  10  24  44  67  96 132 180 221 282 344 393
#
# _framework density 20.812747000000002
#
# number of rings (size 3 to 8) (size 9 to 14) (size 15 to 20)
#    0.000    1.429    1.429    3.429    8.000    6.857 
#    5.143    0.000    0.000    0.000    0.000    0.000 
#    0.000    0.000    0.000    0.000    0.000    0.000 
#
# Total GULP energy -346909.834818 kJ/mol
# GULP energy per Si atom -12389.636958 kJ/mol
# Density = 2.076538 g / cm^3
# Si number density = 20.812747 Si / 1000 Ang^3
#
#
#
# Elastic Constant Matrix: (Units=GPa)
#
#
# Indices 1 2 3 4 5 6 
#
# 1 90.1983 40.7467 32.9023 0.0000 0.0000 0.0000
# 2 40.7467 141.4659 70.1054 0.0000 0.0000 0.0000
# 3 32.9023 70.1054 154.3370 0.0000 0.0000 0.0000
# 4 0.0000 0.0000 0.0000 31.9037 0.0000 0.0000
# 5 0.0000 0.0000 0.0000 0.0000 6.5045 0.0000
# 6 0.0000 0.0000 0.0000 0.0000 0.0000 20.6525
#
#
#
# Elastic Compliance Matrix: (Units=1/GPa)
#
#
# Indices 1 2 3 4 5 6 
#
# 1 0.012968 -0.003052 -0.001378 0.000000 0.000000 0.000000
# 2 -0.003052 0.009841 -0.003819 0.000000 0.000000 0.000000
# 3 -0.001378 -0.003819 0.008508 0.000000 0.000000 0.000000
# 4 0.000000 0.000000 0.000000 0.031344 0.000000 0.000000
# 5 0.000000 0.000000 0.000000 0.000000 0.153739 0.000000
# 6 0.000000 0.000000 0.000000 0.000000 0.000000 0.048420
#
#
# Mechanical properties :
#
#
# Convention : Reuss Voigt Hill
#
# Bulk Modulus (GPa) = 67.48809 74.83444 71.16127
# Shear Modulus (GPa) = 17.46670 27.96193 22.71432
#
# Velocity S-wave (km/s) = 2.90009 3.66936 3.30717
# Velocity P-wave (km/s) = 6.61141 7.34754 6.98917
#
# Compressibility (1/GPa) = 0.01481743
#
# Stress axis : x y z
#
# Youngs Moduli (GPa) = 77.11131 101.61874 117.53653
#
# Poissons Ratio (x) = 0.31017 0.16199
# Poissons Ratio (y) = 0.23537 0.44891
# Poissons Ratio (z) = 0.10627 0.38811
#
# Static dielectric constant tensor:
#      x y z
#    x 3.531470 0.000000 0.000000 
#    y 0.000000 3.919780 0.000000 
#    z 0.000000 0.000000 4.087040 
# 
# 
# High freq. dielectric constant tensor:
#      x y z
#    x 1.793620 0.000000 0.000000 
#    y 0.000000 1.828670 0.000000 
#    z 0.000000 0.000000 1.826480 
# 
# From -- ./inp_files/28256.got.cif
#   From: 2010.03.12/outbox.cif.g09.slc.cpg/sg24_15_cif.got.tgz:28256.got - 2010.04.14 03:06:53.
