data_PCOD8165850
_publ_section_title
;
Structure prediction by ZEFSAII (Michael W. Deem and Ramdas Pophale) SiO2 
 PCOD8165850
Probable space group: I 21 21 21
;
_chemical_formula_sum "Si O2"
_cell_formula_units_Z 48
_cell_length_a 14.515422
_cell_length_b 16.814805
_cell_length_c 8.030064
_cell_angle_alpha 90.000000
_cell_angle_beta 90.000000
_cell_angle_gamma 90.000000
_cell_volume 1959.929764
_symmetry_space_group_name_H-M "I 21 21 21"
_symmetry_group_IT_number 24
_symmetry_cell_setting 'orthorhombic'
loop_
_space_group_symop_operation_xyz
x,y,z
-x,1/2-y,z
x,-y,1/2-z
1/2-x,y,-z
1/2+x,1/2+y,1/2+z
1/2-x,-y,1/2+z
1/2+x,1/2-y,-z
-x,1/2+y,1/2-z
loop_
_atom_site_type_symbol
_atom_site_label
_atom_site_fract_x
_atom_site_fract_y
_atom_site_fract_z
Si Si1 0.898563 0.913284 0.717240
Si Si2 0.276487 0.674859 0.689732
Si Si3 0.450735 0.584720 0.668221
Si Si4 0.217676 0.082809 0.811838
Si Si5 0.941823 0.324092 0.673167
Si Si6 0.877197 0.329879 0.307525
O O1 0.821014 0.848374 0.775115
O O2 0.937293 0.912031 0.529370
O O3 0.986127 0.897371 0.837165
O O4 0.856573 0.000000 0.750000
O O5 0.250000 0.661545 0.500000
O O6 0.355182 0.613524 0.750691
O O7 0.314753 0.762497 0.720702
O O8 0.477109 0.500000 0.750000
O O9 0.530610 0.649008 0.706869
O O10 0.142459 0.153261 0.794229
O O11 0.307200 0.095580 0.693356
O O12 0.172873 0.000000 0.750000
O O13 0.250000 0.079830 0.000000
O O14 0.902432 0.303479 0.492558
O O15 0.000000 0.250000 0.748820
#
# Coordination Sequence:
#
# PCOD8165850 Si02
#       6
#     8   8   8   8   8   8
#     4  11  24  43  68 100 139 179 225 279 339 406
#     4  10  23  43  70 101 136 180 228 282 340 402
#     4  11  23  42  69 101 136 179 227 279 340 403
#     4  12  26  47  74 103 138 179 228 285 344 407
#     4  12  26  45  69 102 140 181 228 280 340 405
#     4  12  24  44  70 101 138 178 228 281 338 405
#
# _framework density 24.490675
#
# number of rings (size 3 to 8) (size 9 to 14) (size 15 to 20)
#    0.000    0.667    0.000    8.000    0.000    4.000 
#    0.000    6.667    0.000    0.000    0.000    0.000 
#    0.000    0.000    0.000    0.000    0.000    0.000 
#
# Total GULP energy -297534.915264 kJ/mol
# GULP energy per Si atom -12397.288136 kJ/mol
# Density = 2.443493 g / cm^3
# Si number density = 24.490675 Si / 1000 Ang^3
#
#
#
# Elastic Constant Matrix: (Units=GPa)
#
#
# Indices 1 2 3 4 5 6 
#
# 1 180.9117 57.2181 57.3837 0.0000 0.0000 0.0000
# 2 57.2181 108.6608 47.1970 0.0000 0.0000 0.0000
# 3 57.3837 47.1970 69.8901 0.0000 0.0000 0.0000
# 4 0.0000 0.0000 0.0000 36.5476 0.0000 0.0000
# 5 0.0000 0.0000 0.0000 0.0000 34.6349 0.0000
# 6 0.0000 0.0000 0.0000 0.0000 0.0000 58.1124
#
#
#
# Elastic Compliance Matrix: (Units=1/GPa)
#
#
# Indices 1 2 3 4 5 6 
#
# 1 0.007731 -0.001859 -0.005092 0.000000 0.000000 0.000000
# 2 -0.001859 0.013470 -0.007570 0.000000 0.000000 0.000000
# 3 -0.005092 -0.007570 0.023601 0.000000 0.000000 0.000000
# 4 0.000000 0.000000 0.000000 0.027362 0.000000 0.000000
# 5 0.000000 0.000000 0.000000 0.000000 0.028873 0.000000
# 6 0.000000 0.000000 0.000000 0.000000 0.000000 0.017208
#
#
# Mechanical properties :
#
#
# Convention : Reuss Voigt Hill
#
# Bulk Modulus (GPa) = 63.45263 75.89555 69.67409
# Shear Modulus (GPa) = 32.77867 39.03656 35.90762
#
# Velocity S-wave (km/s) = 3.66240 3.99674 3.83322
# Velocity P-wave (km/s) = 6.62189 7.23571 6.93559
#
# Compressibility (1/GPa) = 0.01575979
#
# Stress axis : x y z
#
# Youngs Moduli (GPa) = 129.35541 74.23973 42.37154
#
# Poissons Ratio (x) = 0.13802 0.21575
# Poissons Ratio (y) = 0.24049 0.32074
# Poissons Ratio (z) = 0.65865 0.56198
#
# Static dielectric constant tensor:
#      x y z
#    x 4.947380 0.000000 0.000000 
#    y 0.000000 4.395660 0.000000 
#    z 0.000000 0.000000 4.047160 
# 
# 
# High freq. dielectric constant tensor:
#      x y z
#    x 2.003200 0.000000 0.000000 
#    y 0.000000 1.978430 0.000000 
#    z 0.000000 0.000000 1.955730 
# 
# From -- ./inp_files/12790.got.cif
#   From: 2010.03.12/outbox.cif.g09.slc.cpg/sg24_7_cif.got.tgz:12790.got - 2010.04.14 03:06:53.
