data_PCOD8165917
_publ_section_title
;
Structure prediction by ZEFSAII (Michael W. Deem and Ramdas Pophale) SiO2 
 PCOD8165917
Probable space group: I 21 21 21
;
_chemical_formula_sum "Si O2"
_cell_formula_units_Z 40
_cell_length_a 9.791594
_cell_length_b 8.941213
_cell_length_c 22.602530
_cell_angle_alpha 90.000000
_cell_angle_beta 90.000000
_cell_angle_gamma 90.000000
_cell_volume 1978.822741
_symmetry_space_group_name_H-M "I 21 21 21"
_symmetry_group_IT_number 24
_symmetry_cell_setting 'orthorhombic'
loop_
_space_group_symop_operation_xyz
x,y,z
-x,1/2-y,z
x,-y,1/2-z
1/2-x,y,-z
1/2+x,1/2+y,1/2+z
1/2-x,-y,1/2+z
1/2+x,1/2-y,-z
-x,1/2+y,1/2-z
loop_
_atom_site_type_symbol
_atom_site_label
_atom_site_fract_x
_atom_site_fract_y
_atom_site_fract_z
Si Si1 0.087701 0.601497 0.008270
Si Si2 0.739096 0.430313 0.185653
Si Si3 0.485529 0.423055 0.104514
Si Si4 0.493861 0.572362 0.863294
Si Si5 0.747405 0.076551 0.191881
O O1 0.018214 0.499711 0.958842
O O2 0.000000 0.750000 0.005743
O O3 0.250000 0.629112 0.000000
O O4 0.060765 0.526259 0.071873
O O5 0.725574 0.500000 0.250000
O O6 0.607609 0.474456 0.147102
O O7 0.758588 0.254604 0.196534
O O8 0.860024 0.499671 0.147317
O O9 0.500000 0.250000 0.091261
O O10 0.345700 0.466826 0.136552
O O11 0.500000 0.750000 0.853898
O O12 0.394594 0.499050 0.815298
O O13 0.681417 0.000000 0.250000
#
# Coordination Sequence:
#
# PCOD8165917 Si02
#       5
#     8   8   8   8   8
#     4  11  25  44  68  97 130 168 217 266 321 382
#     4  11  24  41  64  97 128 166 214 261 319 385
#     4  10  24  43  65  94 128 168 212 262 321 381
#     4  11  24  41  63  93 128 168 213 261 322 376
#     4  11  22  41  65  91 128 168 211 264 320 380
#
# _framework density 20.214039
#
# number of rings (size 3 to 8) (size 9 to 14) (size 15 to 20)
#    0.000    1.200    2.000    3.000    5.600    3.200 
#    0.000    0.000    0.000    0.000    0.000    0.000 
#    0.000    0.000    0.000    0.000    0.000    0.000 
#
# Total GULP energy -248011.286100 kJ/mol
# GULP energy per Si atom -12400.564305 kJ/mol
# Density = 2.016803 g / cm^3
# Si number density = 20.214039 Si / 1000 Ang^3
#
#
#
# Elastic Constant Matrix: (Units=GPa)
#
#
# Indices 1 2 3 4 5 6 
#
# 1 121.8291 49.4479 46.3240 0.0000 0.0000 0.0000
# 2 49.4479 86.9404 51.0860 0.0000 0.0000 0.0000
# 3 46.3240 51.0860 128.8922 0.0000 0.0000 0.0000
# 4 0.0000 0.0000 0.0000 473.3312 0.0000 0.0000
# 5 0.0000 0.0000 0.0000 0.0000 -39.4443 0.0000
# 6 0.0000 0.0000 0.0000 0.0000 0.0000 29.3388
#
#
#
# Elastic Compliance Matrix: (Units=1/GPa)
#
#
# Indices 1 2 3 4 5 6 
#
# 1 0.011027 -0.005140 -0.001926 0.000000 0.000000 0.000000
# 2 -0.005140 0.017390 -0.005045 0.000000 0.000000 0.000000
# 3 -0.001926 -0.005045 0.010450 0.000000 0.000000 0.000000
# 4 0.000000 0.000000 0.000000 0.002113 0.000000 0.000000
# 5 0.000000 0.000000 0.000000 0.000000 -0.025352 0.000000
# 6 0.000000 0.000000 0.000000 0.000000 0.000000 0.034085
#
#
# Mechanical properties :
#
#
# Convention : Reuss Voigt Hill
#
# Bulk Modulus (GPa) = 68.28222 70.15305 69.21763
# Shear Modulus (GPa) = 63.43940 105.36540 84.40240
#
# Velocity S-wave (km/s) = 5.60820 7.22759 6.46877
# Velocity P-wave (km/s) = 8.70568 10.21916 9.49263
#
# Compressibility (1/GPa) = 0.01464510
#
# Stress axis : x y z
#
# Youngs Moduli (GPa) = 90.68932 57.50427 95.69187
#
# Poissons Ratio (x) = 0.29556 0.18429
# Poissons Ratio (y) = 0.46613 0.48278
# Poissons Ratio (z) = 0.17465 0.29012
#
# Static dielectric constant tensor:
#      x y z
#    x -0.886690 0.000000 0.000000 
#    y 0.000000 3.682480 0.000000 
#    z 0.000000 0.000000 4.202110 
# 
# 
# High freq. dielectric constant tensor:
#      x y z
#    x 1.803640 0.000000 0.000000 
#    y 0.000000 1.790900 0.000000 
#    z 0.000000 0.000000 1.809150 
# 
# From -- ./inp_files/9233.got.cif
#   From: 2010.03.12/outbox.cif.g09.slc.cpg/sg24_5_cif.got.tgz:9233.got - 2010.04.14 03:06:53.
