data_PCOD8165345
_publ_section_title
;
Structure prediction by ZEFSAII (Michael W. Deem and Ramdas Pophale) SiO2 
 PCOD8165345
Probable space group: I 21 21 21
;
_chemical_formula_sum "Si O2"
_cell_formula_units_Z 48
_cell_length_a 30.655303
_cell_length_b 8.449144
_cell_length_c 9.522071
_cell_angle_alpha 90.000000
_cell_angle_beta 90.000000
_cell_angle_gamma 90.000000
_cell_volume 2466.321793
_symmetry_space_group_name_H-M "I 21 21 21"
_symmetry_group_IT_number 24
_symmetry_cell_setting 'orthorhombic'
loop_
_space_group_symop_operation_xyz
x,y,z
-x,1/2-y,z
x,-y,1/2-z
1/2-x,y,-z
1/2+x,1/2+y,1/2+z
1/2-x,-y,1/2+z
1/2+x,1/2-y,-z
-x,1/2+y,1/2-z
loop_
_atom_site_type_symbol
_atom_site_label
_atom_site_fract_x
_atom_site_fract_y
_atom_site_fract_z
Si Si1 0.113646 0.193883 0.532948
Si Si2 0.548025 0.314164 0.236948
Si Si3 0.678898 0.815880 0.251811
Si Si4 0.238603 0.158920 0.336121
Si Si5 0.880008 0.678252 0.520386
Si Si6 0.352102 0.681379 0.766801
O O1 0.070799 0.247281 0.620157
O O2 0.156714 0.230910 0.620728
O O3 0.112774 0.297171 0.391458
O O4 0.116268 0.008558 0.498945
O O5 0.500000 0.250000 0.218230
O O6 0.546437 0.500000 0.250000
O O7 0.577166 0.260246 0.103845
O O8 0.730544 0.793101 0.232265
O O9 0.663122 0.730285 0.394240
O O10 0.666932 0.000000 0.250000
O O11 0.250000 0.133455 0.500000
O O12 0.189283 0.213367 0.309921
O O13 0.247231 0.000000 0.250000
O O14 0.876996 0.759494 0.370421
O O15 0.337973 0.500000 0.750000
#
# Coordination Sequence:
#
# PCOD8165345 Si02
#       6
#     8   8   8   8   8   8
#     4  10  20  41  60  87 120 160 202 238 297 367
#     4   9  20  38  65  94 120 152 195 243 295 361
#     4  11  22  38  60  86 117 154 202 255 297 343
#     4  12  26  42  61  85 119 164 209 252 299 366
#     4  10  22  39  64  86 120 163 198 241 298 372
#     4  12  25  40  60  90 121 157 203 260 308 344
#
# _framework density 19.462181999999999
#
# number of rings (size 3 to 8) (size 9 to 14) (size 15 to 20)
#    0.000    1.333    1.667    5.500    2.333    4.000 
#    0.000    0.833    0.000    0.000    0.000    0.000 
#    0.000    0.000    0.000    0.000    0.000    0.000 
#
# Total GULP energy -297607.492370 kJ/mol
# GULP energy per Si atom -12400.312182 kJ/mol
# Density = 1.941788 g / cm^3
# Si number density = 19.462182 Si / 1000 Ang^3
#
#
#
# Elastic Constant Matrix: (Units=GPa)
#
#
# Indices 1 2 3 4 5 6 
#
# 1 114.2779 13.4300 53.0321 0.0000 0.0000 0.0000
# 2 13.4300 57.0932 23.4752 0.0000 0.0000 0.0000
# 3 53.0321 23.4752 149.0935 0.0000 0.0000 0.0000
# 4 0.0000 0.0000 0.0000 23.2795 0.0000 0.0000
# 5 0.0000 0.0000 0.0000 0.0000 25.3413 0.0000
# 6 0.0000 0.0000 0.0000 0.0000 0.0000 33.0019
#
#
#
# Elastic Compliance Matrix: (Units=1/GPa)
#
#
# Indices 1 2 3 4 5 6 
#
# 1 0.010534 -0.001002 -0.003589 0.000000 0.000000 0.000000
# 2 -0.001002 0.018823 -0.002607 0.000000 0.000000 0.000000
# 3 -0.003589 -0.002607 0.008394 0.000000 0.000000 0.000000
# 4 0.000000 0.000000 0.000000 0.042956 0.000000 0.000000
# 5 0.000000 0.000000 0.000000 0.000000 0.039461 0.000000
# 6 0.000000 0.000000 0.000000 0.000000 0.000000 0.030301
#
#
# Mechanical properties :
#
#
# Convention : Reuss Voigt Hill
#
# Bulk Modulus (GPa) = 42.81875 55.59324 49.20600
# Shear Modulus (GPa) = 28.96003 31.69304 30.32653
#
# Velocity S-wave (km/s) = 3.86167 4.03977 3.95172
# Velocity P-wave (km/s) = 6.47550 7.09834 6.79406
#
# Compressibility (1/GPa) = 0.02335425
#
# Stress axis : x y z
#
# Youngs Moduli (GPa) = 94.93130 53.12648 119.12761
#
# Poissons Ratio (x) = 0.05324 0.42756
# Poissons Ratio (y) = 0.09513 0.31060
# Poissons Ratio (z) = 0.34072 0.13852
#
# Static dielectric constant tensor:
#      x y z
#    x 3.098640 0.000000 0.000000 
#    y 0.000000 3.434600 0.000000 
#    z 0.000000 0.000000 3.531060 
# 
# 
# High freq. dielectric constant tensor:
#      x y z
#    x 1.742250 0.000000 0.000000 
#    y 0.000000 1.763050 0.000000 
#    z 0.000000 0.000000 1.768270 
# 
# From -- ./inp_files/9713.got.cif
#   From: 2010.03.12/outbox.cif.g09.slc.cpg/sg24_5_cif.got.tgz:9713.got - 2010.04.14 03:06:53.
