data_PCOD8165422
_publ_section_title
;
Structure prediction by ZEFSAII (Michael W. Deem and Ramdas Pophale) SiO2 
 PCOD8165422
Probable space group: I 21 21 21
;
_chemical_formula_sum "Si O2"
_cell_formula_units_Z 56
_cell_length_a 17.704711
_cell_length_b 9.625472
_cell_length_c 15.751768
_cell_angle_alpha 90.000000
_cell_angle_beta 90.000000
_cell_angle_gamma 90.000000
_cell_volume 2684.356446
_symmetry_space_group_name_H-M "I 21 21 21"
_symmetry_group_IT_number 24
_symmetry_cell_setting 'orthorhombic'
loop_
_space_group_symop_operation_xyz
x,y,z
-x,1/2-y,z
x,-y,1/2-z
1/2-x,y,-z
1/2+x,1/2+y,1/2+z
1/2-x,-y,1/2+z
1/2+x,1/2-y,-z
-x,1/2+y,1/2-z
loop_
_atom_site_type_symbol
_atom_site_label
_atom_site_fract_x
_atom_site_fract_y
_atom_site_fract_z
Si Si1 0.642884 0.236070 0.388817
Si Si2 0.324183 0.572503 0.393916
Si Si3 0.554378 0.144726 0.238598
Si Si4 0.336812 0.624572 0.684239
Si Si5 0.283627 0.138189 0.700683
Si Si6 0.835424 0.540914 0.027735
Si Si7 0.912413 0.246581 0.030625
O O1 0.569863 0.219176 0.329103
O O2 0.708566 0.285330 0.327217
O O3 0.627782 0.346782 0.463387
O O4 0.664504 0.085087 0.427019
O O5 0.367897 0.604842 0.307027
O O6 0.236351 0.595375 0.374174
O O7 0.357374 0.675981 0.462797
O O8 0.500000 0.250000 0.186378
O O9 0.508973 0.000000 0.250000
O O10 0.355644 0.500000 0.750000
O O11 0.329661 0.764684 0.736789
O O12 0.404553 0.659280 0.618570
O O13 0.336627 0.108621 0.620345
O O14 0.259531 0.000000 0.750000
O O15 0.886040 0.405250 0.034214
O O16 0.750000 0.503563 0.000000
O O17 0.000000 0.250000 0.003472
#
# Coordination Sequence:
#
# PCOD8165422 Si02
#       7
#     8   8   8   8   8   8   8
#     4  10  22  38  64  98 133 167 220 275 340 398
#     4  11  22  42  69  97 132 168 226 284 333 401
#     4  10  21  37  57  91 132 175 215 267 334 411
#     4  12  23  44  74 100 128 171 233 287 335 392
#     4  11  21  39  67  98 129 162 217 283 332 389
#     4  10  23  41  66  97 131 169 220 275 335 398
#     4  12  28  46  63  97 139 184 224 272 346 410
#
# _framework density 20.861609999999999
#
# number of rings (size 3 to 8) (size 9 to 14) (size 15 to 20)
#    0.000    1.143    4.286    2.143    4.000    5.143 
#    2.571    0.000    0.000    0.000    0.000    0.000 
#    0.000    0.000    0.000    0.000    0.000    0.000 
#
# Total GULP energy -347094.057510 kJ/mol
# GULP energy per Si atom -12396.216340 kJ/mol
# Density = 2.081413 g / cm^3
# Si number density = 20.861610 Si / 1000 Ang^3
#
#
#
# Elastic Constant Matrix: (Units=GPa)
#
#
# Indices 1 2 3 4 5 6 
#
# 1 56.4710 38.5471 22.2516 0.0000 0.0000 0.0000
# 2 38.5471 139.0471 42.5179 0.0000 0.0000 0.0000
# 3 22.2516 42.5179 97.2489 0.0000 0.0000 0.0000
# 4 0.0000 0.0000 0.0000 48.0629 0.0000 0.0000
# 5 0.0000 0.0000 0.0000 0.0000 -3.6956 0.0000
# 6 0.0000 0.0000 0.0000 0.0000 0.0000 34.2789
#
#
#
# Elastic Compliance Matrix: (Units=1/GPa)
#
#
# Indices 1 2 3 4 5 6 
#
# 1 0.022479 -0.005378 -0.002792 0.000000 0.000000 0.000000
# 2 -0.005378 0.009588 -0.002962 0.000000 0.000000 0.000000
# 3 -0.002792 -0.002962 0.012217 0.000000 0.000000 0.000000
# 4 0.000000 0.000000 0.000000 0.020806 0.000000 0.000000
# 5 0.000000 0.000000 0.000000 0.000000 -0.270592 0.000000
# 6 0.000000 0.000000 0.000000 0.000000 0.000000 0.029172
#
#
# Mechanical properties :
#
#
# Convention : Reuss Voigt Hill
#
# Bulk Modulus (GPa) = 45.41163 55.48891 50.45027
# Shear Modulus (GPa) = -34.07718 28.35927 -2.85896
#
# Velocity S-wave (km/s) = -4.04603 3.69100 -1.17193
# Velocity P-wave (km/s) = 0.10874 6.69485 4.73335
#
# Compressibility (1/GPa) = 0.02202079
#
# Stress axis : x y z
#
# Youngs Moduli (GPa) = 44.48500 104.29384 81.85596
#
# Poissons Ratio (x) = 0.56089 0.22856
# Poissons Ratio (y) = 0.23924 0.24242
# Poissons Ratio (z) = 0.12421 0.30887
#
# Static dielectric constant tensor:
#      x y z
#    x 3.489000 0.000000 0.000000 
#    y 0.000000 4.387900 0.000000 
#    z 0.000000 0.000000 3.790480 
# 
# 
# High freq. dielectric constant tensor:
#      x y z
#    x 1.785780 0.000000 0.000000 
#    y 0.000000 1.839950 0.000000 
#    z 0.000000 0.000000 1.826160 
# 
# From -- ./inp_files/27520.got.cif
#   From: 2010.03.12/outbox.cif.g09.slc.cpg/sg24_14_cif.got.tgz:27520.got - 2010.04.14 03:06:53.
