data_PCOD8165315
_publ_section_title
;
Structure prediction by ZEFSAII (Michael W. Deem and Ramdas Pophale) SiO2 
 PCOD8165315
Probable space group: I 21 21 21
;
_chemical_formula_sum "Si O2"
_cell_formula_units_Z 32
_cell_length_a 10.794535
_cell_length_b 7.447031
_cell_length_c 19.403735
_cell_angle_alpha 90.000000
_cell_angle_beta 90.000000
_cell_angle_gamma 90.000000
_cell_volume 1559.812640
_symmetry_space_group_name_H-M "I 21 21 21"
_symmetry_group_IT_number 24
_symmetry_cell_setting 'orthorhombic'
loop_
_space_group_symop_operation_xyz
x,y,z
-x,1/2-y,z
x,-y,1/2-z
1/2-x,y,-z
1/2+x,1/2+y,1/2+z
1/2-x,-y,1/2+z
1/2+x,1/2-y,-z
-x,1/2+y,1/2-z
loop_
_atom_site_type_symbol
_atom_site_label
_atom_site_fract_x
_atom_site_fract_y
_atom_site_fract_z
Si Si1 0.827902 0.394784 0.651168
Si Si2 0.868054 0.500000 0.250000
Si Si3 0.898188 0.990247 0.829134
Si Si4 0.750361 0.261160 0.079976
Si Si5 0.000000 0.750000 0.350972
O O1 0.726308 0.366087 0.711444
O O2 0.855749 0.189893 0.629502
O O3 0.769421 0.524208 0.592024
O O4 0.953097 0.492616 0.676398
O O5 0.959829 0.586615 0.303878
O O6 0.847751 0.000000 0.750000
O O7 0.852370 0.156193 0.875330
O O8 0.884743 0.190771 0.102786
O O9 0.750000 0.215832 0.000000
#
# Coordination Sequence:
#
# PCOD8165315 Si02
#       5
#     8   4   8   8   4
#     4  10  22  39  64  97 128 162 214 280 331 393
#     4  10  20  40  60  94 128 162 210 276 336 388
#     4  11  22  38  72 100 124 166 222 283 337 386
#     4  11  26  43  64  91 136 179 221 265 335 408
#     4  10  24  38  64  92 126 174 212 266 338 390
#
# _framework density 20.515284000000001
#
# number of rings (size 3 to 8) (size 9 to 14) (size 15 to 20)
#    0.000    1.500    1.250    3.750   12.250    1.000 
#    0.000    0.000    0.000    0.000    0.000    0.000 
#    0.000    0.000    0.000    0.000    0.000    0.000 
#
# Total GULP energy -198241.941927 kJ/mol
# GULP energy per Si atom -12390.121370 kJ/mol
# Density = 2.046859 g / cm^3
# Si number density = 20.515284 Si / 1000 Ang^3
#
#
#
# Elastic Constant Matrix: (Units=GPa)
#
#
# Indices 1 2 3 4 5 6 
#
# 1 123.5738 42.4386 44.3685 0.0000 0.0000 0.0000
# 2 42.4386 93.9363 43.5823 0.0000 0.0000 0.0000
# 3 44.3685 43.5823 140.3701 0.0000 0.0000 0.0000
# 4 0.0000 0.0000 0.0000 16.8102 0.0000 0.0000
# 5 0.0000 0.0000 0.0000 0.0000 29.0902 0.0000
# 6 0.0000 0.0000 0.0000 0.0000 0.0000 29.4351
#
#
#
# Elastic Compliance Matrix: (Units=1/GPa)
#
#
# Indices 1 2 3 4 5 6 
#
# 1 0.010067 -0.003589 -0.002068 0.000000 0.000000 0.000000
# 2 -0.003589 0.013716 -0.003124 0.000000 0.000000 0.000000
# 3 -0.002068 -0.003124 0.008748 0.000000 0.000000 0.000000
# 4 0.000000 0.000000 0.000000 0.059488 0.000000 0.000000
# 5 0.000000 0.000000 0.000000 0.000000 0.034376 0.000000
# 6 0.000000 0.000000 0.000000 0.000000 0.000000 0.033973
#
#
# Mechanical properties :
#
#
# Convention : Reuss Voigt Hill
#
# Bulk Modulus (GPa) = 66.80287 68.73989 67.77138
# Shear Modulus (GPa) = 27.33442 30.23317 28.78379
#
# Velocity S-wave (km/s) = 3.65416 3.84303 3.74978
# Velocity P-wave (km/s) = 7.10190 7.29872 7.20098
#
# Compressibility (1/GPa) = 0.01496942
#
# Stress axis : x y z
#
# Youngs Moduli (GPa) = 99.33185 72.90535 114.31613
#
# Poissons Ratio (x) = 0.26164 0.23639
# Poissons Ratio (y) = 0.35648 0.35716
# Poissons Ratio (z) = 0.20540 0.22778
#
# Static dielectric constant tensor:
#      x y z
#    x 4.216490 0.000000 0.000000 
#    y 0.000000 3.575350 0.000000 
#    z 0.000000 0.000000 3.465510 
# 
# 
# High freq. dielectric constant tensor:
#      x y z
#    x 1.820010 0.000000 0.000000 
#    y 0.000000 1.795540 0.000000 
#    z 0.000000 0.000000 1.776040 
# 
# From -- ./inp_files/14783.got.cif
#   From: 2010.03.12/outbox.cif.g09.slc.cpg/sg24_8_cif.got.tgz:14783.got - 2010.04.14 03:06:53.
