data_PCOD8165557
_publ_section_title
;
Structure prediction by ZEFSAII (Michael W. Deem and Ramdas Pophale) SiO2 
 PCOD8165557
Probable space group: I 21 21 21
;
_chemical_formula_sum "Si O2"
_cell_formula_units_Z 40
_cell_length_a 5.048081
_cell_length_b 16.015392
_cell_length_c 23.547046
_cell_angle_alpha 90.000000
_cell_angle_beta 90.000000
_cell_angle_gamma 90.000000
_cell_volume 1903.707935
_symmetry_space_group_name_H-M "I 21 21 21"
_symmetry_group_IT_number 24
_symmetry_cell_setting 'orthorhombic'
loop_
_space_group_symop_operation_xyz
x,y,z
-x,1/2-y,z
x,-y,1/2-z
1/2-x,y,-z
1/2+x,1/2+y,1/2+z
1/2-x,-y,1/2+z
1/2+x,1/2-y,-z
-x,1/2+y,1/2-z
loop_
_atom_site_type_symbol
_atom_site_label
_atom_site_fract_x
_atom_site_fract_y
_atom_site_fract_z
Si Si1 0.600067 0.156001 0.828126
Si Si2 0.886268 0.405467 0.766291
Si Si3 0.753287 0.307385 0.654476
Si Si4 0.737072 0.063634 0.935413
Si Si5 0.759897 0.450554 0.564514
O O1 0.500000 0.250000 0.822519
O O2 0.347920 0.096876 0.813509
O O3 0.715259 0.140505 0.891573
O O4 0.843521 0.139405 0.785625
O O5 0.955486 0.500000 0.750000
O O6 0.775721 0.357656 0.712297
O O7 0.500000 0.250000 0.658719
O O8 0.730644 0.369751 0.602344
O O9 0.000000 0.250000 0.641762
O O10 0.480042 0.010818 0.923757
O O11 0.750000 0.098515 0.000000
O O12 0.979538 0.003344 0.920652
O O13 0.750000 0.418789 0.500000
#
# Coordination Sequence:
#
# PCOD8165557 Si02
#       5
#     8   8   8   8   8
#     4  12  24  41  64  93 127 158 200 257 312 359
#     4  12  25  42  64  89 123 166 208 247 301 370
#     4  12  24  39  61  91 126 158 200 254 307 358
#     4  10  21  41  65  90 121 161 207 248 296 363
#     4  10  22  41  64  89 122 163 206 248 295 360
#
# _framework density 21.011626
#
# number of rings (size 3 to 8) (size 9 to 14) (size 15 to 20)
#    0.000    0.800    0.000    9.000    0.000    0.800 
#    0.000    5.000    0.000    0.000    0.000    0.000 
#    0.000    0.000    0.000    0.000    0.000    0.000 
#
# Total GULP energy -248067.029416 kJ/mol
# GULP energy per Si atom -12403.351471 kJ/mol
# Density = 2.096380 g / cm^3
# Si number density = 21.011626 Si / 1000 Ang^3
#
#
#
# Elastic Constant Matrix: (Units=GPa)
#
#
# Indices 1 2 3 4 5 6 
#
# 1 184.7443 70.4706 51.3222 0.0000 0.0000 0.0000
# 2 70.4706 128.0766 80.4906 0.0000 0.0000 0.0000
# 3 51.3222 80.4906 133.3626 0.0000 0.0000 0.0000
# 4 0.0000 0.0000 0.0000 39.0557 0.0000 0.0000
# 5 0.0000 0.0000 0.0000 0.0000 37.4862 0.0000
# 6 0.0000 0.0000 0.0000 0.0000 0.0000 50.0684
#
#
#
# Elastic Compliance Matrix: (Units=1/GPa)
#
#
# Indices 1 2 3 4 5 6 
#
# 1 0.006879 -0.003418 -0.000585 0.000000 0.000000 0.000000
# 2 -0.003418 0.014277 -0.007302 0.000000 0.000000 0.000000
# 3 -0.000585 -0.007302 0.012130 0.000000 0.000000 0.000000
# 4 0.000000 0.000000 0.000000 0.025604 0.000000 0.000000
# 5 0.000000 0.000000 0.000000 0.000000 0.026676 0.000000
# 6 0.000000 0.000000 0.000000 0.000000 0.000000 0.019973
#
#
# Mechanical properties :
#
#
# Convention : Reuss Voigt Hill
#
# Bulk Modulus (GPa) = 93.64559 94.52783 94.08671
# Shear Modulus (GPa) = 37.96308 41.58206 39.77257
#
# Velocity S-wave (km/s) = 4.25522 4.45342 4.35545
# Velocity P-wave (km/s) = 8.29504 8.45754 8.37669
#
# Compressibility (1/GPa) = 0.01067856
#
# Stress axis : x y z
#
# Youngs Moduli (GPa) = 145.37199 70.04253 82.43870
#
# Poissons Ratio (x) = 0.23937 0.04819
# Poissons Ratio (y) = 0.49682 0.60194
# Poissons Ratio (z) = 0.08498 0.51143
#
# Static dielectric constant tensor:
#      x y z
#    x 4.095250 0.000000 0.000000 
#    y 0.000000 3.680060 0.000000 
#    z 0.000000 0.000000 5.501940 
# 
# 
# High freq. dielectric constant tensor:
#      x y z
#    x 1.849830 0.000000 0.000000 
#    y 0.000000 1.816900 0.000000 
#    z 0.000000 0.000000 1.839310 
# 
# From -- ./inp_files/34616.got.cif
#   From: 2010.03.12/outbox.cif.g09.slc.cpg/sg24_18_cif.got.tgz:34616.got - 2010.04.14 03:06:53.
