data_PCOD8165344
_publ_section_title
;
Structure prediction by ZEFSAII (Michael W. Deem and Ramdas Pophale) SiO2 
 PCOD8165344
Probable space group: I 21 21 21
;
_chemical_formula_sum "Si O2"
_cell_formula_units_Z 40
_cell_length_a 15.880631
_cell_length_b 9.018908
_cell_length_c 12.945330
_cell_angle_alpha 90.000000
_cell_angle_beta 90.000000
_cell_angle_gamma 90.000000
_cell_volume 1854.107187
_symmetry_space_group_name_H-M "I 21 21 21"
_symmetry_group_IT_number 24
_symmetry_cell_setting 'orthorhombic'
loop_
_space_group_symop_operation_xyz
x,y,z
-x,1/2-y,z
x,-y,1/2-z
1/2-x,y,-z
1/2+x,1/2+y,1/2+z
1/2-x,-y,1/2+z
1/2+x,1/2-y,-z
-x,1/2+y,1/2-z
loop_
_atom_site_type_symbol
_atom_site_label
_atom_site_fract_x
_atom_site_fract_y
_atom_site_fract_z
Si Si1 0.525773 0.081303 0.849077
Si Si2 0.910984 0.828598 0.728544
Si Si3 0.658505 0.823828 0.498633
Si Si4 0.143678 0.996600 0.062598
Si Si5 0.688596 0.605680 0.155369
O O1 0.500000 0.250000 0.825455
O O2 0.594350 0.072185 0.939441
O O3 0.565165 0.000000 0.750000
O O4 0.446045 0.982157 0.882865
O O5 0.878566 0.795996 0.613847
O O6 0.840429 0.769320 0.809318
O O7 0.000000 0.750000 0.746419
O O8 0.923150 0.000000 0.750000
O O9 0.750000 0.902593 0.500000
O O10 0.671534 0.668100 0.558149
O O11 0.211700 0.904683 0.130198
O O12 0.136086 0.934954 0.946749
O O13 0.662880 0.500000 0.250000
#
# Coordination Sequence:
#
# PCOD8165344 Si02
#       5
#     8   8   8   8   8
#     4  10  23  42  68  99 136 185 238 298 361 427
#     4  12  27  44  70 106 147 190 240 299 366 433
#     4  11  22  43  69  98 143 192 235 299 364 429
#     4  10  20  40  73 103 132 181 250 294 357 439
#     4  11  20  39  73 103 135 186 239 294 357 437
#
# _framework density 21.573726000000001
#
# number of rings (size 3 to 8) (size 9 to 14) (size 15 to 20)
#    0.000    1.200    4.000    3.000    2.800    2.400 
#    7.200    0.000    0.000    0.000    0.000    0.000 
#    0.000    0.000    0.000    0.000    0.000    0.000 
#
# Total GULP energy -248039.437492 kJ/mol
# GULP energy per Si atom -12401.971875 kJ/mol
# Density = 2.152462 g / cm^3
# Si number density = 21.573726 Si / 1000 Ang^3
#
#
#
# Elastic Constant Matrix: (Units=GPa)
#
#
# Indices 1 2 3 4 5 6 
#
# 1 158.6643 61.7648 63.5783 0.0000 0.0000 0.0000
# 2 61.7648 95.8792 44.7756 0.0000 0.0000 0.0000
# 3 63.5783 44.7756 133.5976 0.0000 0.0000 0.0000
# 4 0.0000 0.0000 0.0000 43.9224 0.0000 0.0000
# 5 0.0000 0.0000 0.0000 0.0000 29.5746 0.0000
# 6 0.0000 0.0000 0.0000 0.0000 0.0000 29.8344
#
#
#
# Elastic Compliance Matrix: (Units=1/GPa)
#
#
# Indices 1 2 3 4 5 6 
#
# 1 0.009245 -0.004625 -0.002850 0.000000 0.000000 0.000000
# 2 -0.004625 0.014679 -0.002719 0.000000 0.000000 0.000000
# 3 -0.002850 -0.002719 0.009752 0.000000 0.000000 0.000000
# 4 0.000000 0.000000 0.000000 0.022767 0.000000 0.000000
# 5 0.000000 0.000000 0.000000 0.000000 0.033813 0.000000
# 6 0.000000 0.000000 0.000000 0.000000 0.000000 0.033518
#
#
# Mechanical properties :
#
#
# Convention : Reuss Voigt Hill
#
# Bulk Modulus (GPa) = 75.24506 80.93097 78.08802
# Shear Modulus (GPa) = 33.64956 35.20108 34.42532
#
# Velocity S-wave (km/s) = 3.95365 4.04377 3.99896
# Velocity P-wave (km/s) = 7.46965 7.70700 7.58925
#
# Compressibility (1/GPa) = 0.01328991
#
# Stress axis : x y z
#
# Youngs Moduli (GPa) = 108.16943 68.12625 102.53845
#
# Poissons Ratio (x) = 0.31506 0.29219
# Poissons Ratio (y) = 0.50025 0.27877
# Poissons Ratio (z) = 0.30823 0.18522
#
# Static dielectric constant tensor:
#      x y z
#    x 4.022320 0.000000 0.000000 
#    y 0.000000 3.649120 0.000000 
#    z 0.000000 0.000000 4.024050 
# 
# 
# High freq. dielectric constant tensor:
#      x y z
#    x 1.854130 0.000000 0.000000 
#    y 0.000000 1.817790 0.000000 
#    z 0.000000 0.000000 1.860260 
# 
# From -- ./inp_files/21353.got.cif
#   From: 2010.03.12/outbox.cif.g09.slc.cpg/sg24_11_cif.got.tgz:21353.got - 2010.04.14 03:06:53.
