data_PCOD8165891
_publ_section_title
;
Structure prediction by ZEFSAII (Michael W. Deem and Ramdas Pophale) SiO2 
 PCOD8165891
Probable space group: I 21 21 21
;
_chemical_formula_sum "Si O2"
_cell_formula_units_Z 64
_cell_length_a 5.052190
_cell_length_b 26.313231
_cell_length_c 21.448364
_cell_angle_alpha 90.000000
_cell_angle_beta 90.000000
_cell_angle_gamma 90.000000
_cell_volume 2851.333553
_symmetry_space_group_name_H-M "I 21 21 21"
_symmetry_group_IT_number 24
_symmetry_cell_setting 'orthorhombic'
loop_
_space_group_symop_operation_xyz
x,y,z
-x,1/2-y,z
x,-y,1/2-z
1/2-x,y,-z
1/2+x,1/2+y,1/2+z
1/2-x,-y,1/2+z
1/2+x,1/2-y,-z
-x,1/2+y,1/2-z
loop_
_atom_site_type_symbol
_atom_site_label
_atom_site_fract_x
_atom_site_fract_y
_atom_site_fract_z
Si Si1 0.003764 0.358957 0.542567
Si Si2 0.808359 0.050876 0.873002
Si Si3 0.454719 0.023371 0.688425
Si Si4 0.522553 0.137833 0.723248
Si Si5 0.250287 0.219569 0.073880
Si Si6 0.677913 0.616533 0.640978
Si Si7 0.977987 0.690776 0.828497
Si Si8 0.893796 0.528065 0.934781
O O1 0.750000 0.349850 0.500000
O O2 0.026296 0.319401 0.598753
O O3 0.018905 0.415969 0.570234
O O4 0.250000 0.347610 0.500000
O O5 0.560317 0.086133 0.892846
O O6 0.060782 0.082637 0.848174
O O7 0.715745 0.012275 0.818202
O O8 0.881424 0.015536 0.932588
O O9 0.534786 0.081565 0.695403
O O10 0.286005 0.017373 0.625622
O O11 0.307535 0.000000 0.750000
O O12 0.438522 0.137331 0.794734
O O13 0.317152 0.172025 0.685434
O O14 0.813520 0.161598 0.715606
O O15 0.500000 0.250000 0.100214
O O16 0.261308 0.162451 0.097331
O O17 0.000000 0.250000 0.100219
O O18 0.250000 0.217560 0.000000
O O19 0.000000 0.750000 0.814180
O O20 0.750000 0.521788 0.000000
#
# Coordination Sequence:
#
# PCOD8165891 Si02
#       8
#     8   8   8   8   8   8   8   8
#     4  11  25  44  73 101 140 191 244 296 357 425
#     4  12  25  44  66 106 144 186 232 291 355 428
#     4  12  25  47  76 103 148 201 241 294 354 440
#     4  12  26  46  72 105 146 190 241 298 352 438
#     4  10  23  47  75 100 131 180 233 289 356 433
#     4  12  26  46  70 107 142 183 234 293 360 420
#     4  12  27  47  72 105 144 187 241 307 368 416
#     4  11  26  45  71 105 147 195 243 291 358 432
#
# _framework density 22.445639
#
# number of rings (size 3 to 8) (size 9 to 14) (size 15 to 20)
#    0.000    0.500    3.750    3.375    5.250    3.000 
#    2.250    0.000    0.000    0.000    0.000    0.000 
#    0.000    0.000    0.000    0.000    0.000    0.000 
#
# Total GULP energy -396843.912952 kJ/mol
# GULP energy per Si atom -12401.372280 kJ/mol
# Density = 2.239455 g / cm^3
# Si number density = 22.445639 Si / 1000 Ang^3
#
#
#
# Elastic Constant Matrix: (Units=GPa)
#
#
# Indices 1 2 3 4 5 6 
#
# 1 115.7265 39.4558 12.7145 0.0000 0.0000 0.0000
# 2 39.4558 152.4642 21.0977 0.0000 0.0000 0.0000
# 3 12.7145 21.0977 51.0707 0.0000 0.0000 0.0000
# 4 0.0000 0.0000 0.0000 28.3093 0.0000 0.0000
# 5 0.0000 0.0000 0.0000 0.0000 5.6010 0.0000
# 6 0.0000 0.0000 0.0000 0.0000 0.0000 19.3353
#
#
#
# Elastic Compliance Matrix: (Units=1/GPa)
#
#
# Indices 1 2 3 4 5 6 
#
# 1 0.009576 -0.002279 -0.001443 0.000000 0.000000 0.000000
# 2 -0.002279 0.007499 -0.002531 0.000000 0.000000 0.000000
# 3 -0.001443 -0.002531 0.020985 0.000000 0.000000 0.000000
# 4 0.000000 0.000000 0.000000 0.035324 0.000000 0.000000
# 5 0.000000 0.000000 0.000000 0.000000 0.178539 0.000000
# 6 0.000000 0.000000 0.000000 0.000000 0.000000 0.051719
#
#
# Mechanical properties :
#
#
# Convention : Reuss Voigt Hill
#
# Bulk Modulus (GPa) = 39.12888 51.75527 45.44208
# Shear Modulus (GPa) = 15.40047 27.04867 21.22457
#
# Velocity S-wave (km/s) = 2.62224 3.47518 3.07840
# Velocity P-wave (km/s) = 5.16127 6.26184 5.73800
#
# Compressibility (1/GPa) = 0.02555657
#
# Stress axis : x y z
#
# Youngs Moduli (GPa) = 104.42277 133.35536 47.65246
#
# Poissons Ratio (x) = 0.30386 0.06875
# Poissons Ratio (y) = 0.23794 0.12059
# Poissons Ratio (z) = 0.15067 0.33746
#
# Static dielectric constant tensor:
#      x y z
#    x 4.251370 0.000000 0.000000 
#    y 0.000000 4.257220 0.000000 
#    z 0.000000 0.000000 4.046290 
# 
# 
# High freq. dielectric constant tensor:
#      x y z
#    x 1.896610 0.000000 0.000000 
#    y 0.000000 1.895400 0.000000 
#    z 0.000000 0.000000 1.881810 
# 
# From -- ./inp_files/32354.got.cif
#   From: 2010.03.12/outbox.cif.g09.slc.cpg/sg24_17_cif.got.tgz:32354.got - 2010.04.14 03:06:53.
