data_PCOD8165414
_publ_section_title
;
Structure prediction by ZEFSAII (Michael W. Deem and Ramdas Pophale) SiO2 
 PCOD8165414
Probable space group: I 21 21 21
;
_chemical_formula_sum "Si O2"
_cell_formula_units_Z 52
_cell_length_a 14.201010
_cell_length_b 9.466840
_cell_length_c 20.451153
_cell_angle_alpha 90.000000
_cell_angle_beta 90.000000
_cell_angle_gamma 90.000000
_cell_volume 2749.426208
_symmetry_space_group_name_H-M "I 21 21 21"
_symmetry_group_IT_number 24
_symmetry_cell_setting 'orthorhombic'
loop_
_space_group_symop_operation_xyz
x,y,z
-x,1/2-y,z
x,-y,1/2-z
1/2-x,y,-z
1/2+x,1/2+y,1/2+z
1/2-x,-y,1/2+z
1/2+x,1/2-y,-z
-x,1/2+y,1/2-z
loop_
_atom_site_type_symbol
_atom_site_label
_atom_site_fract_x
_atom_site_fract_y
_atom_site_fract_z
Si Si1 0.293125 0.863478 0.779052
Si Si2 0.390098 0.781813 0.047152
Si Si3 0.382943 0.007422 0.342789
Si Si4 0.686778 0.797413 0.318230
Si Si5 0.243374 0.476246 0.574061
Si Si6 0.950268 0.000000 0.750000
Si Si7 0.889441 0.239007 0.403211
O O1 0.186921 0.910675 0.794894
O O2 0.281148 0.741367 0.723861
O O3 0.347375 0.821911 0.843109
O O4 0.347950 0.000000 0.750000
O O5 0.500000 0.750000 0.048032
O O6 0.373328 0.927056 0.085212
O O7 0.331244 0.652872 0.079102
O O8 0.357083 0.807714 0.972228
O O9 0.486588 0.035479 0.313430
O O10 0.359915 0.841835 0.349421
O O11 0.712731 0.900195 0.377576
O O12 0.614487 0.866629 0.267195
O O13 0.250000 0.535629 0.500000
O O14 0.346889 0.420138 0.596530
O O15 0.000000 0.250000 0.394604
#
# Coordination Sequence:
#
# PCOD8165414 Si02
#       7
#     8   8   8   8   8   4   8
#     4  10  21  39  55  83 118 149 200 248 298 358
#     4  10  21  36  63  90 118 158 201 244 297 372
#     4  11  22  35  56  90 124 161 194 235 301 368
#     4  11  23  37  57  91 126 162 197 245 299 372
#     4  10  21  40  61  88 122 158 203 249 300 364
#     4  12  22  32  58  90 134 160 192 230 308 374
#     4  10  21  41  63  85 111 155 212 258 296 355
#
# _framework density 18.913038
#
# number of rings (size 3 to 8) (size 9 to 14) (size 15 to 20)
#    0.000    1.538    3.846    2.308    2.154    0.000 
#    8.308    0.000    0.000    0.000    0.000    0.000 
#    0.000    0.000    0.000    0.000    0.000    0.000 
#
# Total GULP energy -322284.371252 kJ/mol
# GULP energy per Si atom -12395.552740 kJ/mol
# Density = 1.886999 g / cm^3
# Si number density = 18.913038 Si / 1000 Ang^3
#
#
#
# Elastic Constant Matrix: (Units=GPa)
#
#
# Indices 1 2 3 4 5 6 
#
# 1 81.7220 48.0247 47.7598 0.0000 0.0000 0.0000
# 2 48.0247 134.3388 95.8556 0.0000 0.0000 0.0000
# 3 47.7598 95.8556 155.0210 0.0000 0.0000 0.0000
# 4 0.0000 0.0000 0.0000 37.2096 0.0000 0.0000
# 5 0.0000 0.0000 0.0000 0.0000 18.0911 0.0000
# 6 0.0000 0.0000 0.0000 0.0000 0.0000 9.4677
#
#
#
# Elastic Compliance Matrix: (Units=1/GPa)
#
#
# Indices 1 2 3 4 5 6 
#
# 1 0.016012 -0.003945 -0.002494 0.000000 0.000000 0.000000
# 2 -0.003945 0.014293 -0.007623 0.000000 0.000000 0.000000
# 3 -0.002494 -0.007623 0.011933 0.000000 0.000000 0.000000
# 4 0.000000 0.000000 0.000000 0.026875 0.000000 0.000000
# 5 0.000000 0.000000 0.000000 0.000000 0.055276 0.000000
# 6 0.000000 0.000000 0.000000 0.000000 0.000000 0.105622
#
#
# Mechanical properties :
#
#
# Convention : Reuss Voigt Hill
#
# Bulk Modulus (GPa) = 70.84578 83.81799 77.33189
# Shear Modulus (GPa) = 19.02308 24.91647 21.96977
#
# Velocity S-wave (km/s) = 3.17490 3.63357 3.41195
# Velocity P-wave (km/s) = 7.14003 7.87512 7.51657
#
# Compressibility (1/GPa) = 0.01411517
#
# Stress axis : x y z
#
# Youngs Moduli (GPa) = 62.45218 69.96382 83.80447
#
# Poissons Ratio (x) = 0.27598 0.20901
# Poissons Ratio (y) = 0.24635 0.63882
# Poissons Ratio (z) = 0.15576 0.53331
#
# Static dielectric constant tensor:
#      x y z
#    x 3.543170 0.000000 0.000000 
#    y 0.000000 19.936370 0.000000 
#    z 0.000000 0.000000 3.749630 
# 
# 
# High freq. dielectric constant tensor:
#      x y z
#    x 1.724130 0.000000 0.000000 
#    y 0.000000 1.722130 0.000000 
#    z 0.000000 0.000000 1.749440 
# 
# From -- ./inp_files/25024.got.cif
#   From: 2010.03.12/outbox.cif.g09.slc.cpg/sg24_13_cif.got.tgz:25024.got - 2010.04.14 03:06:53.
