data_PCOD8165935
_publ_section_title
;
Structure prediction by ZEFSAII (Michael W. Deem and Ramdas Pophale) SiO2 
 PCOD8165935
Probable space group: I 21 21 21
;
_chemical_formula_sum "Si O2"
_cell_formula_units_Z 40
_cell_length_a 10.292152
_cell_length_b 20.176380
_cell_length_c 8.417474
_cell_angle_alpha 90.000000
_cell_angle_beta 90.000000
_cell_angle_gamma 90.000000
_cell_volume 1747.958928
_symmetry_space_group_name_H-M "I 21 21 21"
_symmetry_group_IT_number 24
_symmetry_cell_setting 'orthorhombic'
loop_
_space_group_symop_operation_xyz
x,y,z
-x,1/2-y,z
x,-y,1/2-z
1/2-x,y,-z
1/2+x,1/2+y,1/2+z
1/2-x,-y,1/2+z
1/2+x,1/2-y,-z
-x,1/2+y,1/2-z
loop_
_atom_site_type_symbol
_atom_site_label
_atom_site_fract_x
_atom_site_fract_y
_atom_site_fract_z
Si Si1 0.056657 0.874144 0.670135
Si Si2 0.250000 0.721874 0.000000
Si Si3 0.500000 0.250000 0.998666
Si Si4 0.185814 0.818551 0.261446
Si Si5 0.382414 0.484793 0.066996
Si Si6 0.479952 0.380282 0.526827
O O1 0.210985 0.864085 0.643495
O O2 0.968743 0.812004 0.613325
O O3 0.005550 0.935096 0.562367
O O4 0.045636 0.886348 0.856471
O O5 0.230053 0.770206 0.850675
O O6 0.123430 0.678497 0.029527
O O7 0.619407 0.270726 0.888515
O O8 0.084133 0.864684 0.164657
O O9 0.354239 0.500000 0.250000
O O10 0.411485 0.548133 0.952341
O O11 0.250000 0.451541 0.000000
#
# Coordination Sequence:
#
# PCOD8165935 Si02
#       6
#     8   4   4   8   8   8
#     4  11  25  44  66 101 149 183 225 305 371 425
#     4  12  20  38  74 102 134 172 252 292 332 418
#     4  12  26  42  66 104 142 182 230 300 378 422
#     4  12  24  43  71 106 140 189 243 291 362 440
#     4  10  24  45  70 102 141 188 244 297 363 433
#     4  11  22  43  72 102 135 191 245 291 345 441
#
# _framework density 22.883835000000001
#
# number of rings (size 3 to 8) (size 9 to 14) (size 15 to 20)
#    0.000    0.800    5.000    1.800    0.000    6.400 
#    0.000   12.000    0.000    0.000    0.000    0.000 
#    0.000    0.000    0.000    0.000    0.000    0.000 
#
# Total GULP energy -247886.766213 kJ/mol
# GULP energy per Si atom -12394.338311 kJ/mol
# Density = 2.283175 g / cm^3
# Si number density = 22.883835 Si / 1000 Ang^3
#
#
#
# Elastic Constant Matrix: (Units=GPa)
#
#
# Indices 1 2 3 4 5 6 
#
# 1 165.6626 60.7802 35.7289 0.0001 0.0001 0.0000
# 2 60.7802 105.4841 19.3416 0.0006 0.0000 -0.0002
# 3 35.7289 19.3416 49.6117 0.0034 -0.0007 -0.0010
# 4 0.0001 0.0006 0.0034 34.2267 -0.0001 -0.0004
# 5 0.0001 0.0000 -0.0007 -0.0001 39.1845 0.0003
# 6 0.0000 -0.0002 -0.0010 -0.0004 0.0003 48.5822
#
#
#
# Elastic Compliance Matrix: (Units=1/GPa)
#
#
# Indices 1 2 3 4 5 6 
#
# 1 0.008509 -0.004070 -0.004541 0.000001 0.000000 0.000000
# 2 -0.004070 0.012157 -0.001808 0.000000 0.000000 0.000000
# 3 -0.004541 -0.001808 0.024132 -0.000002 0.000000 0.000001
# 4 0.000001 0.000000 -0.000002 0.029217 0.000000 0.000000
# 5 0.000000 0.000000 0.000000 0.000000 0.025520 0.000000
# 6 0.000000 0.000000 0.000001 0.000000 0.000000 0.020584
#
#
# Mechanical properties :
#
#
# Convention : Reuss Voigt Hill
#
# Bulk Modulus (GPa) = 41.73861 61.38442 51.56151
# Shear Modulus (GPa) = 33.56954 38.05920 35.81437
#
# Velocity S-wave (km/s) = 3.83424 4.08260 3.96036
# Velocity P-wave (km/s) = 6.15474 7.00757 6.59495
#
# Compressibility (1/GPa) = 0.02395863
#
# Stress axis : x y z
#
# Youngs Moduli (GPa) = 117.52072 82.25726 41.43890
#
# Poissons Ratio (x) = 0.33481 0.18818
# Poissons Ratio (y) = 0.47835 0.07493
# Poissons Ratio (z) = 0.53368 0.14874
#
# Static dielectric constant tensor:
#      x y z
#    x 4.118810 0.000000 0.000000 
#    y 0.000000 4.379570 0.000000 
#    z 0.000000 0.000000 4.266540 
# 
# 
# High freq. dielectric constant tensor:
#      x y z
#    x 1.905600 0.000000 0.000000 
#    y 0.000000 1.896790 0.000000 
#    z 0.000000 0.000000 1.913560 
# 
# From -- ./inp_files/9355.got.cif
#   From: 2010.03.12/outbox.cif.g09.slc.cpg/sg24_5_cif.got.tgz:9355.got - 2010.04.14 03:06:53.
