data_PCOD8165305
_publ_section_title
;
Structure prediction by ZEFSAII (Michael W. Deem and Ramdas Pophale) SiO2 
 PCOD8165305
Probable space group: I 21 21 21
;
_chemical_formula_sum "Si O2"
_cell_formula_units_Z 48
_cell_length_a 15.325527
_cell_length_b 16.060535
_cell_length_c 9.206745
_cell_angle_alpha 90.000000
_cell_angle_beta 90.000000
_cell_angle_gamma 90.000000
_cell_volume 2266.112886
_symmetry_space_group_name_H-M "I 21 21 21"
_symmetry_group_IT_number 24
_symmetry_cell_setting 'orthorhombic'
loop_
_space_group_symop_operation_xyz
x,y,z
-x,1/2-y,z
x,-y,1/2-z
1/2-x,y,-z
1/2+x,1/2+y,1/2+z
1/2-x,-y,1/2+z
1/2+x,1/2-y,-z
-x,1/2+y,1/2-z
loop_
_atom_site_type_symbol
_atom_site_label
_atom_site_fract_x
_atom_site_fract_y
_atom_site_fract_z
Si Si1 0.563386 0.685347 0.711453
Si Si2 0.147357 0.098164 0.471370
Si Si3 0.981299 0.548955 0.509616
Si Si4 0.345320 0.718516 0.457868
Si Si5 0.838882 0.033999 0.909155
Si Si6 0.568770 0.325357 0.249893
O O1 0.500000 0.750000 0.798383
O O2 0.634200 0.644577 0.818043
O O3 0.511363 0.614045 0.623328
O O4 0.605108 0.748032 0.596667
O O5 0.250000 0.086218 0.500000
O O6 0.099298 0.154513 0.589704
O O7 0.100945 0.008972 0.470758
O O8 0.963208 0.592359 0.665865
O O9 0.072253 0.493753 0.520226
O O10 0.250000 0.696053 0.500000
O O11 0.377440 0.628446 0.401434
O O12 0.347108 0.788130 0.333040
O O13 0.818478 0.000000 0.750000
O O14 0.750000 0.018749 0.000000
O O15 0.500000 0.250000 0.245245
#
# Coordination Sequence:
#
# PCOD8165305 Si02
#       6
#     8   8   8   8   8   8
#     4  11  22  44  66  95 131 175 226 272 339 411
#     4  12  27  41  64 104 139 173 224 289 348 392
#     4  11  23  44  70  93 134 179 223 274 339 408
#     4  10  20  39  67  90 124 171 224 269 334 409
#     4  11  23  42  64  96 130 174 228 278 340 402
#     4  11  21  41  66  94 128 176 225 270 339 406
#
# _framework density 21.181646000000001
#
# number of rings (size 3 to 8) (size 9 to 14) (size 15 to 20)
#    0.000    1.000    3.333    4.500    0.000    6.667 
#    0.000    0.833    0.000    0.000    0.000    0.000 
#    0.000    0.000    0.000    0.000    0.000    0.000 
#
# Total GULP energy -297357.550290 kJ/mol
# GULP energy per Si atom -12389.897929 kJ/mol
# Density = 2.113344 g / cm^3
# Si number density = 21.181646 Si / 1000 Ang^3
#
#
#
# Elastic Constant Matrix: (Units=GPa)
#
#
# Indices 1 2 3 4 5 6 
#
# 1 114.2956 48.8099 46.5160 0.0000 0.0000 0.0000
# 2 48.8099 104.5235 54.2587 0.0000 0.0000 0.0000
# 3 46.5160 54.2587 120.1084 0.0000 0.0000 0.0000
# 4 0.0000 0.0000 0.0000 32.6256 0.0000 0.0000
# 5 0.0000 0.0000 0.0000 0.0000 16.9038 0.0000
# 6 0.0000 0.0000 0.0000 0.0000 0.0000 26.8136
#
#
#
# Elastic Compliance Matrix: (Units=1/GPa)
#
#
# Indices 1 2 3 4 5 6 
#
# 1 0.011544 -0.004010 -0.002659 0.000000 0.000000 0.000000
# 2 -0.004010 0.013891 -0.004722 0.000000 0.000000 0.000000
# 3 -0.002659 -0.004722 0.011489 0.000000 0.000000 0.000000
# 4 0.000000 0.000000 0.000000 0.030651 0.000000 0.000000
# 5 0.000000 0.000000 0.000000 0.000000 0.059158 0.000000
# 6 0.000000 0.000000 0.000000 0.000000 0.000000 0.037294
#
#
# Mechanical properties :
#
#
# Convention : Reuss Voigt Hill
#
# Bulk Modulus (GPa) = 70.71746 70.89963 70.80854
# Shear Modulus (GPa) = 26.10624 27.89146 26.99885
#
# Velocity S-wave (km/s) = 3.51450 3.63268 3.57408
# Velocity P-wave (km/s) = 7.06595 7.15122 7.10871
#
# Compressibility (1/GPa) = 0.01414078
#
# Stress axis : x y z
#
# Youngs Moduli (GPa) = 86.62428 71.98734 87.04054
#
# Poissons Ratio (x) = 0.28870 0.23145
# Poissons Ratio (y) = 0.34740 0.41102
# Poissons Ratio (z) = 0.23035 0.33994
#
# Static dielectric constant tensor:
#      x y z
#    x 4.015690 0.000000 0.000000 
#    y 0.000000 3.999020 0.000000 
#    z 0.000000 0.000000 3.753460 
# 
# 
# High freq. dielectric constant tensor:
#      x y z
#    x 1.842910 0.000000 0.000000 
#    y 0.000000 1.832480 0.000000 
#    z 0.000000 0.000000 1.822700 
# 
# From -- ./inp_files/12786.got.cif
#   From: 2010.03.12/outbox.cif.g09.slc.cpg/sg24_7_cif.got.tgz:12786.got - 2010.04.14 03:06:53.
