data_PCOD8165602
_publ_section_title
;
Structure prediction by ZEFSAII (Michael W. Deem and Ramdas Pophale) SiO2 
 PCOD8165602
Probable space group: I 21 21 21
;
_chemical_formula_sum "Si O2"
_cell_formula_units_Z 64
_cell_length_a 19.070946
_cell_length_b 17.654967
_cell_length_c 8.980006
_cell_angle_alpha 90.000000
_cell_angle_beta 90.000000
_cell_angle_gamma 90.000000
_cell_volume 3023.540382
_symmetry_space_group_name_H-M "I 21 21 21"
_symmetry_group_IT_number 24
_symmetry_cell_setting 'orthorhombic'
loop_
_space_group_symop_operation_xyz
x,y,z
-x,1/2-y,z
x,-y,1/2-z
1/2-x,y,-z
1/2+x,1/2+y,1/2+z
1/2-x,-y,1/2+z
1/2+x,1/2-y,-z
-x,1/2+y,1/2-z
loop_
_atom_site_type_symbol
_atom_site_label
_atom_site_fract_x
_atom_site_fract_y
_atom_site_fract_z
Si Si1 0.134219 0.644088 0.094079
Si Si2 0.249930 0.079287 0.819523
Si Si3 0.033398 0.176293 0.036216
Si Si4 0.918006 0.065753 0.148615
Si Si5 0.634169 0.307585 0.705822
Si Si6 0.517741 0.662538 0.005641
Si Si7 0.909529 0.586535 0.727633
Si Si8 0.819728 0.989687 0.925694
O O1 0.145591 0.602364 0.253208
O O2 0.155677 0.732060 0.112340
O O3 0.178554 0.600687 0.966608
O O4 0.053216 0.625077 0.052056
O O5 0.297850 0.146099 0.755398
O O6 0.173536 0.096863 0.750898
O O7 0.276982 0.000000 0.750000
O O8 0.250000 0.076031 0.000000
O O9 0.089012 0.213990 0.149401
O O10 0.000000 0.250000 0.952753
O O11 0.974310 0.130688 0.122762
O O12 0.073346 0.115818 0.936193
O O13 0.952729 0.000000 0.250000
O O14 0.886463 0.033982 0.994214
O O15 0.583389 0.357553 0.601297
O O16 0.500000 0.750000 0.013845
O O17 0.541108 0.635139 0.166845
O O18 0.931560 0.500000 0.750000
O O19 0.820298 0.000000 0.750000
O O20 0.750000 0.024619 0.000000
#
# Coordination Sequence:
#
# PCOD8165602 Si02
#       8
#     8   8   8   8   8   8   8   8
#     4  10  21  43  67 104 135 174 227 281 345 427
#     4  11  26  47  66  98 137 186 243 293 345 415
#     4  12  22  41  69 101 140 180 228 293 359 414
#     4  10  22  38  69  99 135 175 230 278 342 416
#     4  11  22  43  72  93 136 182 226 283 352 420
#     4  10  22  42  64  97 135 171 218 286 351 409
#     4  11  27  41  64  98 140 181 239 291 345 414
#     4  11  25  47  70 100 144 181 228 289 343 414
#
# _framework density 21.167238999999999
#
# number of rings (size 3 to 8) (size 9 to 14) (size 15 to 20)
#    0.000    1.250    3.750    1.875    8.750    0.500 
#    4.500    3.125    0.000    0.000    0.000    0.000 
#    0.000    0.000    0.000    0.000    0.000    0.000 
#
# Total GULP energy -396616.499399 kJ/mol
# GULP energy per Si atom -12394.265606 kJ/mol
# Density = 2.111906 g / cm^3
# Si number density = 21.167239 Si / 1000 Ang^3
#
#
#
# Elastic Constant Matrix: (Units=GPa)
#
#
# Indices 1 2 3 4 5 6 
#
# 1 74.3095 49.8577 36.1620 0.0000 0.0000 0.0000
# 2 49.8577 97.0459 40.1326 0.0000 0.0000 0.0000
# 3 36.1620 40.1326 122.7191 0.0000 0.0000 0.0000
# 4 0.0000 0.0000 0.0000 37.4629 0.0000 0.0000
# 5 0.0000 0.0000 0.0000 0.0000 28.4444 0.0000
# 6 0.0000 0.0000 0.0000 0.0000 0.0000 21.1499
#
#
#
# Elastic Compliance Matrix: (Units=1/GPa)
#
#
# Indices 1 2 3 4 5 6 
#
# 1 0.021543 -0.009763 -0.003155 0.000000 0.000000 0.000000
# 2 -0.009763 0.016340 -0.002467 0.000000 0.000000 0.000000
# 3 -0.003155 -0.002467 0.009885 0.000000 0.000000 0.000000
# 4 0.000000 0.000000 0.000000 0.026693 0.000000 0.000000
# 5 0.000000 0.000000 0.000000 0.000000 0.035156 0.000000
# 6 0.000000 0.000000 0.000000 0.000000 0.000000 0.047282
#
#
# Mechanical properties :
#
#
# Convention : Reuss Voigt Hill
#
# Bulk Modulus (GPa) = 58.82967 60.70878 59.76922
# Shear Modulus (GPa) = 25.86163 28.60624 27.23393
#
# Velocity S-wave (km/s) = 3.49918 3.68018 3.59082
# Velocity P-wave (km/s) = 6.64672 6.84113 6.74463
#
# Compressibility (1/GPa) = 0.01699823
#
# Stress axis : x y z
#
# Youngs Moduli (GPa) = 46.41824 61.19818 101.16096
#
# Poissons Ratio (x) = 0.59748 0.31921
# Poissons Ratio (y) = 0.45318 0.24955
# Poissons Ratio (z) = 0.14647 0.15097
#
# Static dielectric constant tensor:
#      x y z
#    x 3.837490 0.000000 0.000000 
#    y 0.000000 3.876570 0.000000 
#    z 0.000000 0.000000 3.788160 
# 
# 
# High freq. dielectric constant tensor:
#      x y z
#    x 1.823930 0.000000 0.000000 
#    y 0.000000 1.833970 0.000000 
#    z 0.000000 0.000000 1.831130 
# 
# From -- ./inp_files/15412.got.cif
#   From: 2010.03.12/outbox.cif.g09.slc.cpg/sg24_8_cif.got.tgz:15412.got - 2010.04.14 03:06:53.
