data_PCOD8165856
_publ_section_title
;
Structure prediction by ZEFSAII (Michael W. Deem and Ramdas Pophale) SiO2 
 PCOD8165856
Probable space group: I 21 21 21
;
_chemical_formula_sum "Si O2"
_cell_formula_units_Z 64
_cell_length_a 13.500338
_cell_length_b 18.254617
_cell_length_c 11.511185
_cell_angle_alpha 90.000000
_cell_angle_beta 90.000000
_cell_angle_gamma 90.000000
_cell_volume 2836.856715
_symmetry_space_group_name_H-M "I 21 21 21"
_symmetry_group_IT_number 24
_symmetry_cell_setting 'orthorhombic'
loop_
_space_group_symop_operation_xyz
x,y,z
-x,1/2-y,z
x,-y,1/2-z
1/2-x,y,-z
1/2+x,1/2+y,1/2+z
1/2-x,-y,1/2+z
1/2+x,1/2-y,-z
-x,1/2+y,1/2-z
loop_
_atom_site_type_symbol
_atom_site_label
_atom_site_fract_x
_atom_site_fract_y
_atom_site_fract_z
Si Si1 0.179133 0.669623 0.256010
Si Si2 0.989975 0.836085 0.089690
Si Si3 0.455335 0.548670 0.093765
Si Si4 0.936246 0.821492 0.478398
Si Si5 0.904201 0.560942 0.480231
Si Si6 0.292120 0.819648 0.871241
Si Si7 0.867280 0.089774 0.819923
Si Si8 0.727753 0.429196 0.186297
O O1 0.076076 0.642961 0.200806
O O2 0.152519 0.692322 0.387601
O O3 0.212936 0.737472 0.177406
O O4 0.261775 0.604907 0.256852
O O5 0.000000 0.750000 0.057319
O O6 0.100898 0.858853 0.123746
O O7 0.936183 0.880129 0.985411
O O8 0.457077 0.580068 0.226085
O O9 0.368924 0.484712 0.100140
O O10 0.554990 0.514217 0.038401
O O11 0.887906 0.839121 0.602689
O O12 0.000000 0.750000 0.491776
O O13 0.006044 0.888292 0.438171
O O14 0.833985 0.547294 0.369482
O O15 0.843090 0.599918 0.583743
O O16 0.227930 0.866021 0.781791
O O17 0.250000 0.820314 0.000000
O O18 0.683081 0.500000 0.250000
#
# Coordination Sequence:
#
# PCOD8165856 Si02
#       8
#     8   8   8   8   8   8   8   8
#     4  11  24  47  68 101 140 182 244 292 363 442
#     4  10  23  43  74  99 137 186 233 298 368 432
#     4  10  23  47  66  98 145 175 248 287 364 427
#     4  11  23  43  70  94 139 180 240 293 360 433
#     4  10  24  42  66 101 133 193 230 294 364 437
#     4  11  26  42  74 108 139 186 236 312 372 438
#     4  10  25  42  68 100 136 190 231 302 356 431
#     4  11  24  39  68 100 144 180 235 289 373 443
#
# _framework density 22.560182000000001
#
# number of rings (size 3 to 8) (size 9 to 14) (size 15 to 20)
#    0.000    1.500    0.000    3.750   12.250    0.500 
#   15.750    0.000    0.000    0.000    0.000    0.000 
#    0.000    0.000    0.000    0.000    0.000    0.000 
#
# Total GULP energy -396504.399658 kJ/mol
# GULP energy per Si atom -12390.762489 kJ/mol
# Density = 2.250883 g / cm^3
# Si number density = 22.560182 Si / 1000 Ang^3
#
#
#
# Elastic Constant Matrix: (Units=GPa)
#
#
# Indices 1 2 3 4 5 6 
#
# 1 48.9022 24.6900 21.7014 0.0000 0.0000 0.0000
# 2 24.6900 79.8978 50.5447 0.0000 0.0000 0.0000
# 3 21.7014 50.5447 134.1858 0.0000 0.0000 0.0000
# 4 0.0000 0.0000 0.0000 37.5451 0.0000 0.0000
# 5 0.0000 0.0000 0.0000 0.0000 37.7387 0.0000
# 6 0.0000 0.0000 0.0000 0.0000 0.0000 28.8287
#
#
#
# Elastic Compliance Matrix: (Units=1/GPa)
#
#
# Indices 1 2 3 4 5 6 
#
# 1 0.024444 -0.006633 -0.001455 0.000000 0.000000 0.000000
# 2 -0.006633 0.018232 -0.005795 0.000000 0.000000 0.000000
# 3 -0.001455 -0.005795 0.009870 0.000000 0.000000 0.000000
# 4 0.000000 0.000000 0.000000 0.026635 0.000000 0.000000
# 5 0.000000 0.000000 0.000000 0.000000 0.026498 0.000000
# 6 0.000000 0.000000 0.000000 0.000000 0.000000 0.034688
#
#
# Mechanical properties :
#
#
# Convention : Reuss Voigt Hill
#
# Bulk Modulus (GPa) = 40.35452 50.76199 45.55826
# Shear Modulus (GPa) = 28.34613 31.89248 30.11930
#
# Velocity S-wave (km/s) = 3.54851 3.76395 3.65782
# Velocity P-wave (km/s) = 5.89199 6.43734 6.17069
#
# Compressibility (1/GPa) = 0.02478037
#
# Stress axis : x y z
#
# Youngs Moduli (GPa) = 40.91062 54.84981 101.31414
#
# Poissons Ratio (x) = 0.36384 0.14737
# Poissons Ratio (y) = 0.27137 0.58708
# Poissons Ratio (z) = 0.05951 0.31783
#
# Static dielectric constant tensor:
#      x y z
#    x 4.118420 0.000000 0.000000 
#    y 0.000000 4.003210 0.000000 
#    z 0.000000 0.000000 4.494450 
# 
# 
# High freq. dielectric constant tensor:
#      x y z
#    x 1.880520 0.000000 0.000000 
#    y 0.000000 1.880480 0.000000 
#    z 0.000000 0.000000 1.901480 
# 
# From -- ./inp_files/21063.got.cif
#   From: 2010.03.12/outbox.cif.g09.slc.cpg/sg24_11_cif.got.tgz:21063.got - 2010.04.14 03:06:53.
