data_PCOD8165687
_publ_section_title
;
Structure prediction by ZEFSAII (Michael W. Deem and Ramdas Pophale) SiO2 
 PCOD8165687
Probable space group: I 21 21 21
;
_chemical_formula_sum "Si O2"
_cell_formula_units_Z 36
_cell_length_a 9.229433
_cell_length_b 7.495670
_cell_length_c 23.823339
_cell_angle_alpha 90.000000
_cell_angle_beta 90.000000
_cell_angle_gamma 90.000000
_cell_volume 1648.117271
_symmetry_space_group_name_H-M "I 21 21 21"
_symmetry_group_IT_number 24
_symmetry_cell_setting 'orthorhombic'
loop_
_space_group_symop_operation_xyz
x,y,z
-x,1/2-y,z
x,-y,1/2-z
1/2-x,y,-z
1/2+x,1/2+y,1/2+z
1/2-x,-y,1/2+z
1/2+x,1/2-y,-z
-x,1/2+y,1/2-z
loop_
_atom_site_type_symbol
_atom_site_label
_atom_site_fract_x
_atom_site_fract_y
_atom_site_fract_z
Si Si1 0.000000 0.750000 0.542125
Si Si2 0.659964 0.300936 0.766836
Si Si3 0.902062 0.073329 0.470168
Si Si4 0.752311 0.151241 0.880949
Si Si5 0.400343 0.400006 0.300090
O O1 0.849456 0.730637 0.576772
O O2 0.006447 0.568585 0.506223
O O3 0.500000 0.250000 0.748558
O O4 0.698646 0.500000 0.750000
O O5 0.679553 0.276396 0.833980
O O6 0.756415 0.168397 0.730443
O O7 0.750000 0.125766 0.500000
O O8 0.000000 0.250000 0.459836
O O9 0.868029 0.971401 0.411607
O O10 0.869050 0.023023 0.852369
O O11 0.500000 0.250000 0.326751
O O12 0.489799 0.500000 0.250000
#
# Coordination Sequence:
#
# PCOD8165687 Si02
#       5
#     4   8   8   8   8
#     4  10  24  46  66 100 140 172 236 290 340 414
#     4  11  24  42  64  98 140 178 219 274 337 412
#     4  10  24  48  71  99 138 181 232 294 353 412
#     4  10  24  42  69  99 137 177 227 281 348 407
#     4  10  22  39  64  96 134 171 222 272 331 408
#
# _framework density 21.843107
#
# number of rings (size 3 to 8) (size 9 to 14) (size 15 to 20)
#    0.000    1.778    0.000    2.667   10.889    8.889 
#    0.000    0.000    0.000    0.000    0.000    0.000 
#    0.000    0.000    0.000    0.000    0.000    0.000 
#
# Total GULP energy -223149.196235 kJ/mol
# GULP energy per Si atom -12397.177569 kJ/mol
# Density = 2.179339 g / cm^3
# Si number density = 21.843107 Si / 1000 Ang^3
#
#
#
# Elastic Constant Matrix: (Units=GPa)
#
#
# Indices 1 2 3 4 5 6 
#
# 1 86.8057 48.7618 32.2985 0.0000 0.0000 0.0000
# 2 48.7618 137.0814 54.4898 0.0000 0.0000 0.0000
# 3 32.2985 54.4898 116.6925 0.0000 0.0000 0.0000
# 4 0.0000 0.0000 0.0000 31.1792 0.0000 0.0000
# 5 0.0000 0.0000 0.0000 0.0000 1.4406 0.0000
# 6 0.0000 0.0000 0.0000 0.0000 0.0000 33.5514
#
#
#
# Elastic Compliance Matrix: (Units=1/GPa)
#
#
# Indices 1 2 3 4 5 6 
#
# 1 0.014770 -0.004456 -0.002007 0.000000 0.000000 0.000000
# 2 -0.004456 0.010302 -0.003577 0.000000 0.000000 0.000000
# 3 -0.002007 -0.003577 0.010795 0.000000 0.000000 0.000000
# 4 0.000000 0.000000 0.000000 0.032073 0.000000 0.000000
# 5 0.000000 0.000000 0.000000 0.000000 0.694173 0.000000
# 6 0.000000 0.000000 0.000000 0.000000 0.000000 0.029805
#
#
# Mechanical properties :
#
#
# Convention : Reuss Voigt Hill
#
# Bulk Modulus (GPa) = 63.34564 67.96441 65.65502
# Shear Modulus (GPa) = 6.11799 26.90285 16.51042
#
# Velocity S-wave (km/s) = 1.67540 3.51328 2.75228
# Velocity P-wave (km/s) = 5.72764 6.90216 6.34215
#
# Compressibility (1/GPa) = 0.01578641
#
# Stress axis : x y z
#
# Youngs Moduli (GPa) = 67.70507 97.06940 92.63120
#
# Poissons Ratio (x) = 0.43254 0.18594
# Poissons Ratio (y) = 0.30169 0.33136
# Poissons Ratio (z) = 0.13591 0.34723
#
# Static dielectric constant tensor:
#      x y z
#    x 3.890560 0.000000 0.000000 
#    y 0.000000 4.553950 0.000000 
#    z 0.000000 0.000000 4.020910 
# 
# 
# High freq. dielectric constant tensor:
#      x y z
#    x 1.862690 0.000000 0.000000 
#    y 0.000000 1.862010 0.000000 
#    z 0.000000 0.000000 1.861600 
# 
# From -- ./inp_files/9058.got.cif
#   From: 2010.03.12/outbox.cif.g09.slc.cpg/sg24_5_cif.got.tgz:9058.got - 2010.04.14 03:06:53.
