data_PCOD8165431
_publ_section_title
;
Structure prediction by ZEFSAII (Michael W. Deem and Ramdas Pophale) SiO2 
 PCOD8165431
Probable space group: I 21 21 21
;
_chemical_formula_sum "Si O2"
_cell_formula_units_Z 60
_cell_length_a 24.466975
_cell_length_b 5.249071
_cell_length_c 21.996842
_cell_angle_alpha 90.000000
_cell_angle_beta 90.000000
_cell_angle_gamma 90.000000
_cell_volume 2825.029978
_symmetry_space_group_name_H-M "I 21 21 21"
_symmetry_group_IT_number 24
_symmetry_cell_setting 'orthorhombic'
loop_
_space_group_symop_operation_xyz
x,y,z
-x,1/2-y,z
x,-y,1/2-z
1/2-x,y,-z
1/2+x,1/2+y,1/2+z
1/2-x,-y,1/2+z
1/2+x,1/2-y,-z
-x,1/2+y,1/2-z
loop_
_atom_site_type_symbol
_atom_site_label
_atom_site_fract_x
_atom_site_fract_y
_atom_site_fract_z
Si Si1 0.199263 0.030020 0.133747
Si Si2 0.112384 0.496436 0.638872
Si Si3 0.948131 0.880626 0.528800
Si Si4 0.464859 0.500000 0.250000
Si Si5 0.642656 0.018365 0.680273
Si Si6 0.638168 0.512782 0.984696
Si Si7 0.824961 0.520706 0.885375
Si Si8 0.945523 0.863765 0.088686
O O1 0.168933 0.791776 0.165178
O O2 0.183595 0.075148 0.063471
O O3 0.263278 0.985760 0.137430
O O4 0.184714 0.289756 0.168718
O O5 0.075755 0.424920 0.578961
O O6 0.072875 0.568268 0.693296
O O7 0.146878 0.243676 0.654682
O O8 0.149333 0.744750 0.626709
O O9 0.896445 0.716677 0.510173
O O10 0.000000 0.750000 0.561633
O O11 0.973550 0.982314 0.466066
O O12 0.500000 0.750000 0.234862
O O13 0.624272 0.000000 0.750000
O O14 0.587608 0.978851 0.639688
O O15 0.598399 0.698667 0.948278
O O16 0.670273 0.617385 0.044146
O O17 0.000000 0.750000 0.121211
#
# Coordination Sequence:
#
# PCOD8165431 Si02
#       8
#     8   8   8   4   8   8   8   8
#     4  11  23  43  69  93 127 181 216 272 337 388
#     4  11  25  43  65  98 133 171 219 273 319 399
#     4  11  20  36  63  96 132 168 212 267 334 394
#     4  12  26  48  70  94 134 182 220 268 332 394
#     4  11  25  46  65  95 134 174 232 280 327 404
#     4  10  21  37  61  96 137 163 211 271 326 402
#     4  11  23  42  65 101 132 169 220 274 331 384
#     4  11  21  38  65  96 131 176 213 273 334 399
#
# _framework density 21.238714000000002
#
# number of rings (size 3 to 8) (size 9 to 14) (size 15 to 20)
#    0.000    1.067    4.000    2.800    0.000    1.600 
#    7.200    6.000    0.000    0.000    0.000    0.000 
#    0.000    0.000    0.000    0.000    0.000    0.000 
#
# Total GULP energy -371742.475416 kJ/mol
# GULP energy per Si atom -12391.415847 kJ/mol
# Density = 2.119037 g / cm^3
# Si number density = 21.238714 Si / 1000 Ang^3
#
#
#
# Elastic Constant Matrix: (Units=GPa)
#
#
# Indices 1 2 3 4 5 6 
#
# 1 116.7976 22.6197 36.3391 0.0000 0.0000 0.0000
# 2 22.6197 92.0987 8.6036 0.0000 0.0000 0.0000
# 3 36.3391 8.6036 104.6243 0.0000 0.0000 0.0000
# 4 0.0000 0.0000 0.0000 26.0773 0.0000 0.0000
# 5 0.0000 0.0000 0.0000 0.0000 16.9391 0.0000
# 6 0.0000 0.0000 0.0000 0.0000 0.0000 30.9692
#
#
#
# Elastic Compliance Matrix: (Units=1/GPa)
#
#
# Indices 1 2 3 4 5 6 
#
# 1 0.010004 -0.002149 -0.003298 0.000000 0.000000 0.000000
# 2 -0.002149 0.011404 -0.000191 0.000000 0.000000 0.000000
# 3 -0.003298 -0.000191 0.010719 0.000000 0.000000 0.000000
# 4 0.000000 0.000000 0.000000 0.038348 0.000000 0.000000
# 5 0.000000 0.000000 0.000000 0.000000 0.059035 0.000000
# 6 0.000000 0.000000 0.000000 0.000000 0.000000 0.032290
#
#
# Mechanical properties :
#
#
# Convention : Reuss Voigt Hill
#
# Bulk Modulus (GPa) = 47.96096 49.84950 48.90523
# Shear Modulus (GPa) = 27.77368 31.19431 29.48400
#
# Velocity S-wave (km/s) = 3.62012 3.83658 3.72992
# Velocity P-wave (km/s) = 6.33282 6.56870 6.45184
#
# Compressibility (1/GPa) = 0.02085029
#
# Stress axis : x y z
#
# Youngs Moduli (GPa) = 99.95899 87.69177 93.29014
#
# Poissons Ratio (x) = 0.18844 0.30767
# Poissons Ratio (y) = 0.21481 0.01785
# Poissons Ratio (z) = 0.32967 0.01678
#
# Static dielectric constant tensor:
#      x y z
#    x 3.854930 0.000000 0.000000 
#    y 0.000000 3.746130 0.000000 
#    z 0.000000 0.000000 4.339520 
# 
# 
# High freq. dielectric constant tensor:
#      x y z
#    x 1.840780 0.000000 0.000000 
#    y 0.000000 1.829130 0.000000 
#    z 0.000000 0.000000 1.832100 
# 
# From -- ./inp_files/34299.got.cif
#   From: 2010.03.12/outbox.cif.g09.slc.cpg/sg24_18_cif.got.tgz:34299.got - 2010.04.14 03:06:53.
