data_PCOD8165049
_publ_section_title
;
Structure prediction by ZEFSAII (Michael W. Deem and Ramdas Pophale) SiO2 
 PCOD8165049
Probable space group: I 21 21 21
;
_chemical_formula_sum "Si O2"
_cell_formula_units_Z 48
_cell_length_a 17.484696
_cell_length_b 18.391372
_cell_length_c 7.589658
_cell_angle_alpha 90.000000
_cell_angle_beta 90.000000
_cell_angle_gamma 90.000000
_cell_volume 2440.587717
_symmetry_space_group_name_H-M "I 21 21 21"
_symmetry_group_IT_number 24
_symmetry_cell_setting 'orthorhombic'
loop_
_space_group_symop_operation_xyz
x,y,z
-x,1/2-y,z
x,-y,1/2-z
1/2-x,y,-z
1/2+x,1/2+y,1/2+z
1/2-x,-y,1/2+z
1/2+x,1/2-y,-z
-x,1/2+y,1/2-z
loop_
_atom_site_type_symbol
_atom_site_label
_atom_site_fract_x
_atom_site_fract_y
_atom_site_fract_z
Si Si1 0.427554 0.834515 0.880164
Si Si2 0.567835 0.423550 0.306653
Si Si3 0.426273 0.803542 0.491542
Si Si4 0.662867 0.167093 0.961190
Si Si5 0.893290 0.177265 0.419007
Si Si6 0.392489 0.421465 0.270776
O O1 0.424664 0.850724 0.671532
O O2 0.376345 0.763627 0.930159
O O3 0.515771 0.825784 0.930360
O O4 0.396370 0.900023 0.003721
O O5 0.607180 0.500000 0.250000
O O6 0.478347 0.437644 0.330421
O O7 0.581051 0.358364 0.169164
O O8 0.500000 0.750000 0.484155
O O9 0.352305 0.751430 0.493195
O O10 0.641240 0.145925 0.761891
O O11 0.750000 0.147312 0.000000
O O12 0.608559 0.118095 0.083360
O O13 0.855133 0.131191 0.579138
O O14 0.350178 0.500000 0.250000
#
# Coordination Sequence:
#
# PCOD8165049 Si02
#       6
#     8   8   8   8   8   8
#     4   9  16  30  54  80 104 134 170 211 263 313
#     4  10  20  31  54  86 109 132 171 223 274 324
#     4  11  18  34  58  76 103 140 175 222 271 310
#     4  11  22  36  52  78 103 137 187 225 258 317
#     4   9  17  32  53  75 101 136 176 215 254 306
#     4  10  20  34  50  74 110 145 175 214 264 315
#
# _framework density 19.667393000000001
#
# number of rings (size 3 to 8) (size 9 to 14) (size 15 to 20)
#    0.000    2.000    5.000    1.000    2.333    2.000 
#    3.000    5.000    0.000    0.000    8.667    0.000 
#    0.000    0.000    0.000    0.000    0.000    0.000 
#
# Total GULP energy -297373.242844 kJ/mol
# GULP energy per Si atom -12390.551785 kJ/mol
# Density = 1.962263 g / cm^3
# Si number density = 19.667393 Si / 1000 Ang^3
#
#
#
# Elastic Constant Matrix: (Units=GPa)
#
#
# Indices 1 2 3 4 5 6 
#
# 1 17.9917 5.1759 10.3277 0.0000 0.0000 0.0000
# 2 5.1759 93.6848 66.7009 0.0000 0.0000 0.0000
# 3 10.3277 66.7009 138.7873 0.0000 0.0000 0.0000
# 4 0.0000 0.0000 0.0000 23.6938 0.0000 0.0000
# 5 0.0000 0.0000 0.0000 0.0000 5.9872 0.0000
# 6 0.0000 0.0000 0.0000 0.0000 0.0000 9.1885
#
#
#
# Elastic Compliance Matrix: (Units=1/GPa)
#
#
# Indices 1 2 3 4 5 6 
#
# 1 0.058064 -0.000200 -0.004225 0.000000 0.000000 0.000000
# 2 -0.000200 0.016227 -0.007784 0.000000 0.000000 0.000000
# 3 -0.004225 -0.007784 0.011260 0.000000 0.000000 0.000000
# 4 0.000000 0.000000 0.000000 0.042205 0.000000 0.000000
# 5 0.000000 0.000000 0.000000 0.000000 0.167022 0.000000
# 6 0.000000 0.000000 0.000000 0.000000 0.000000 0.108832
#
#
# Mechanical properties :
#
#
# Convention : Reuss Voigt Hill
#
# Bulk Modulus (GPa) = 16.35742 46.09698 31.22720
# Shear Modulus (GPa) = 11.15061 18.99118 15.07090
#
# Velocity S-wave (km/s) = 2.38367 3.11081 2.77119
# Velocity P-wave (km/s) = 3.98885 6.03258 5.11385
#
# Compressibility (1/GPa) = 0.06113432
#
# Stress axis : x y z
#
# Youngs Moduli (GPa) = 17.22242 61.62586 88.80610
#
# Poissons Ratio (x) = 0.01233 0.37517
# Poissons Ratio (y) = 0.00345 0.69124
# Poissons Ratio (z) = 0.07276 0.47968
#
# Static dielectric constant tensor:
#      x y z
#    x 3.004130 0.000000 0.000000 
#    y 0.000000 4.033570 0.000000 
#    z 0.000000 0.000000 3.841040 
# 
# 
# High freq. dielectric constant tensor:
#      x y z
#    x 1.698980 0.000000 0.000000 
#    y 0.000000 1.760920 0.000000 
#    z 0.000000 0.000000 1.783910 
# 
# From -- ./inp_files/15117.got.cif
#   From: 2010.03.12/outbox.cif.g09.slc.cpg/sg24_8_cif.got.tgz:15117.got - 2010.04.14 03:06:53.
