data_PCOD8165481
_publ_section_title
;
Structure prediction by ZEFSAII (Michael W. Deem and Ramdas Pophale) SiO2 
 PCOD8165481
Probable space group: I 21 21 21
;
_chemical_formula_sum "Si O2"
_cell_formula_units_Z 48
_cell_length_a 17.815459
_cell_length_b 13.158283
_cell_length_c 8.137346
_cell_angle_alpha 90.000000
_cell_angle_beta 90.000000
_cell_angle_gamma 90.000000
_cell_volume 1907.563577
_symmetry_space_group_name_H-M "I 21 21 21"
_symmetry_group_IT_number 24
_symmetry_cell_setting 'orthorhombic'
loop_
_space_group_symop_operation_xyz
x,y,z
-x,1/2-y,z
x,-y,1/2-z
1/2-x,y,-z
1/2+x,1/2+y,1/2+z
1/2-x,-y,1/2+z
1/2+x,1/2-y,-z
-x,1/2+y,1/2-z
loop_
_atom_site_type_symbol
_atom_site_label
_atom_site_fract_x
_atom_site_fract_y
_atom_site_fract_z
Si Si1 0.621587 0.269695 0.753618
Si Si2 0.404051 0.868304 0.077906
Si Si3 0.250000 0.555292 0.000000
Si Si4 0.631069 0.900115 0.515499
Si Si5 0.675882 0.448243 0.918040
Si Si6 0.023742 0.500000 0.750000
Si Si7 0.293413 0.280607 0.254306
O O1 0.578545 0.299453 0.585031
O O2 0.612641 0.362081 0.883820
O O3 0.710915 0.265191 0.719123
O O4 0.592546 0.162716 0.831915
O O5 0.354828 0.803010 0.201692
O O6 0.478954 0.905658 0.169206
O O7 0.358861 0.969859 0.038736
O O8 0.313542 0.486069 0.910904
O O9 0.297634 0.620462 0.129397
O O10 0.685131 0.818098 0.426709
O O11 0.570684 0.947891 0.394595
O O12 0.701547 0.500000 0.750000
O O13 0.750000 0.398342 0.000000
#
# Coordination Sequence:
#
# PCOD8165481 Si02
#       7
#     8   8   4   8   8   4   8
#     4  11  23  44  79 115 144 193 263 338 382 438
#     4  11  26  45  73 108 162 204 250 306 387 488
#     4  12  22  44  80 112 148 184 262 344 388 438
#     4  12  26  47  80 114 151 198 266 328 402 464
#     4  10  21  38  68 109 147 190 248 316 382 442
#     4  12  30  50  76 112 164 226 248 304 396 502
#     4  12  22  44  80 117 146 193 258 335 391 443
#
# _framework density 25.162989
#
# number of rings (size 3 to 8) (size 9 to 14) (size 15 to 20)
#    0.000    0.667    5.000    3.000    5.833    0.667 
#    0.000    0.000   36.667    0.000    0.000    0.000 
#    0.000    0.000    0.000    0.000    0.000    0.000 
#
# Total GULP energy -297526.893857 kJ/mol
# GULP energy per Si atom -12396.953911 kJ/mol
# Density = 2.510572 g / cm^3
# Si number density = 25.162989 Si / 1000 Ang^3
#
#
#
# Elastic Constant Matrix: (Units=GPa)
#
#
# Indices 1 2 3 4 5 6 
#
# 1 99.3587 46.0243 38.8064 0.0000 0.0000 0.0000
# 2 46.0243 130.9075 34.8908 0.0000 0.0000 0.0000
# 3 38.8064 34.8908 69.0754 0.0000 0.0000 0.0000
# 4 0.0000 0.0000 0.0000 52.0931 0.0000 0.0000
# 5 0.0000 0.0000 0.0000 0.0000 28.2819 0.0000
# 6 0.0000 0.0000 0.0000 0.0000 0.0000 30.3902
#
#
#
# Elastic Compliance Matrix: (Units=1/GPa)
#
#
# Indices 1 2 3 4 5 6 
#
# 1 0.014007 -0.003267 -0.006219 0.000000 0.000000 0.000000
# 2 -0.003267 0.009589 -0.003008 0.000000 0.000000 0.000000
# 3 -0.006219 -0.003008 0.019490 0.000000 0.000000 0.000000
# 4 0.000000 0.000000 0.000000 0.019196 0.000000 0.000000
# 5 0.000000 0.000000 0.000000 0.000000 0.035358 0.000000
# 6 0.000000 0.000000 0.000000 0.000000 0.000000 0.032905
#
#
# Mechanical properties :
#
#
# Convention : Reuss Voigt Hill
#
# Bulk Modulus (GPa) = 55.25431 59.86496 57.55964
# Shear Modulus (GPa) = 30.94687 34.12770 32.53729
#
# Velocity S-wave (km/s) = 3.51074 3.68675 3.59982
# Velocity P-wave (km/s) = 6.19999 6.47807 6.34055
#
# Compressibility (1/GPa) = 0.01809813
#
# Stress axis : x y z
#
# Youngs Moduli (GPa) = 71.39438 104.28182 51.30795
#
# Poissons Ratio (x) = 0.34069 0.31907
# Poissons Ratio (y) = 0.23324 0.15435
# Poissons Ratio (z) = 0.44398 0.31372
#
# Static dielectric constant tensor:
#      x y z
#    x 4.132310 0.000000 0.000000 
#    y 0.000000 5.145870 0.000000 
#    z 0.000000 0.000000 4.943970 
# 
# 
# High freq. dielectric constant tensor:
#      x y z
#    x 1.963560 0.000000 0.000000 
#    y 0.000000 2.030740 0.000000 
#    z 0.000000 0.000000 2.011890 
# 
# From -- ./inp_files/14214.got.cif
#   From: 2010.03.12/outbox.cif.g09.slc.cpg/sg24_8_cif.got.tgz:14214.got - 2010.04.14 03:06:53.
