data_PCOD8165430
_publ_section_title
;
Structure prediction by ZEFSAII (Michael W. Deem and Ramdas Pophale) SiO2 
 PCOD8165430
Probable space group: I 21 21 21
;
_chemical_formula_sum "Si O2"
_cell_formula_units_Z 64
_cell_length_a 15.066469
_cell_length_b 21.962102
_cell_length_c 9.170230
_cell_angle_alpha 90.000000
_cell_angle_beta 90.000000
_cell_angle_gamma 90.000000
_cell_volume 3034.349592
_symmetry_space_group_name_H-M "I 21 21 21"
_symmetry_group_IT_number 24
_symmetry_cell_setting 'orthorhombic'
loop_
_space_group_symop_operation_xyz
x,y,z
-x,1/2-y,z
x,-y,1/2-z
1/2-x,y,-z
1/2+x,1/2+y,1/2+z
1/2-x,-y,1/2+z
1/2+x,1/2-y,-z
-x,1/2+y,1/2-z
loop_
_atom_site_type_symbol
_atom_site_label
_atom_site_fract_x
_atom_site_fract_y
_atom_site_fract_z
Si Si1 0.561786 0.871186 0.155168
Si Si2 0.001971 0.430865 0.942610
Si Si3 0.823407 0.537150 0.396143
Si Si4 0.560805 0.697048 0.935562
Si Si5 0.693309 0.670264 0.690855
Si Si6 0.160582 0.484064 0.584266
Si Si7 0.638178 0.256321 0.286143
Si Si8 0.448336 0.195168 0.019487
O O1 0.507763 0.915289 0.268706
O O2 0.495664 0.850907 0.028041
O O3 0.633520 0.913428 0.072883
O O4 0.616814 0.815974 0.235295
O O5 0.083777 0.473388 0.987155
O O6 0.910064 0.459621 0.999976
O O7 0.005284 0.364592 0.019368
O O8 0.845447 0.500000 0.250000
O O9 0.750000 0.504895 0.500000
O O10 0.777738 0.601080 0.343217
O O11 0.500000 0.750000 0.865965
O O12 0.629831 0.729484 0.044229
O O13 0.614781 0.663697 0.809672
O O14 0.765454 0.719925 0.738236
O O15 0.651674 0.694912 0.540724
O O16 0.178969 0.500000 0.750000
O O17 0.250000 0.497503 0.500000
O O18 0.563657 0.294321 0.194536
O O19 0.500000 0.250000 0.944051
#
# Coordination Sequence:
#
# PCOD8165430 Si02
#       8
#     8   8   8   8   8   8   8   8
#     4  10  21  40  70  94 126 185 225 267 340 408
#     4  10  21  44  69  94 130 178 225 278 340 408
#     4  11  27  46  68 101 136 178 236 285 351 418
#     4  10  21  37  60  94 132 171 219 259 331 407
#     4  11  24  38  59  99 136 164 218 282 340 392
#     4  10  24  45  66  96 132 172 230 279 331 405
#     4  11  20  39  65  92 130 174 217 267 331 403
#     4  11  19  39  64  90 125 168 217 273 331 404
#
# _framework density 21.091835
#
# number of rings (size 3 to 8) (size 9 to 14) (size 15 to 20)
#    0.000    1.500    2.500    3.000    1.750    5.000 
#    6.750    0.000    0.000    0.000    0.000    0.000 
#    0.000    0.000    0.000    0.000    0.000    0.000 
#
# Total GULP energy -396495.967541 kJ/mol
# GULP energy per Si atom -12390.498986 kJ/mol
# Density = 2.104383 g / cm^3
# Si number density = 21.091835 Si / 1000 Ang^3
#
#
#
# Elastic Constant Matrix: (Units=GPa)
#
#
# Indices 1 2 3 4 5 6 
#
# 1 125.0762 57.0594 37.5100 0.0000 0.0000 0.0000
# 2 57.0594 102.9734 21.5421 0.0000 0.0000 0.0000
# 3 37.5100 21.5421 78.0069 -0.0001 -0.0001 0.0000
# 4 0.0000 0.0000 -0.0001 22.3255 0.0000 0.0000
# 5 0.0000 0.0000 -0.0001 0.0000 38.8068 0.0000
# 6 0.0000 0.0000 0.0000 0.0000 0.0000 32.2933
#
#
#
# Elastic Compliance Matrix: (Units=1/GPa)
#
#
# Indices 1 2 3 4 5 6 
#
# 1 0.011826 -0.005692 -0.004115 0.000000 0.000000 0.000000
# 2 -0.005692 0.013046 -0.000866 0.000000 0.000000 0.000000
# 3 -0.004115 -0.000866 0.015037 0.000000 0.000000 0.000000
# 4 0.000000 0.000000 0.000000 0.044792 0.000000 0.000000
# 5 0.000000 0.000000 0.000000 0.000000 0.025769 0.000000
# 6 0.000000 0.000000 0.000000 0.000000 0.000000 0.030966
#
#
# Mechanical properties :
#
#
# Convention : Reuss Voigt Hill
#
# Bulk Modulus (GPa) = 53.86681 59.80882 56.83781
# Shear Modulus (GPa) = 29.59123 31.34813 30.46968
#
# Velocity S-wave (km/s) = 3.74969 3.85940 3.80494
# Velocity P-wave (km/s) = 6.65894 6.94823 6.80512
#
# Compressibility (1/GPa) = 0.01856431
#
# Stress axis : x y z
#
# Youngs Moduli (GPa) = 84.56082 76.64907 66.50265
#
# Poissons Ratio (x) = 0.43630 0.27363
# Poissons Ratio (y) = 0.48133 0.05758
# Poissons Ratio (z) = 0.34793 0.06636
#
# Static dielectric constant tensor:
#      x y z
#    x 3.745650 0.000000 0.000000 
#    y 0.000000 4.037460 0.000000 
#    z 0.000000 0.000000 3.795570 
# 
# 
# High freq. dielectric constant tensor:
#      x y z
#    x 1.821630 0.000000 0.000000 
#    y 0.000000 1.826650 0.000000 
#    z 0.000000 0.000000 1.825260 
# 
# From -- ./inp_files/13370.got.cif
#   From: 2010.03.12/outbox.cif.g09.slc.cpg/sg24_7_cif.got.tgz:13370.got - 2010.04.14 03:06:53.
