data_PCOD8165335
_publ_section_title
;
Structure prediction by ZEFSAII (Michael W. Deem and Ramdas Pophale) SiO2 
 PCOD8165335
Probable space group: I 21 21 21
;
_chemical_formula_sum "Si O2"
_cell_formula_units_Z 48
_cell_length_a 15.635999
_cell_length_b 9.189570
_cell_length_c 14.415035
_cell_angle_alpha 90.000000
_cell_angle_beta 90.000000
_cell_angle_gamma 90.000000
_cell_volume 2071.269096
_symmetry_space_group_name_H-M "I 21 21 21"
_symmetry_group_IT_number 24
_symmetry_cell_setting 'orthorhombic'
loop_
_space_group_symop_operation_xyz
x,y,z
-x,1/2-y,z
x,-y,1/2-z
1/2-x,y,-z
1/2+x,1/2+y,1/2+z
1/2-x,-y,1/2+z
1/2+x,1/2-y,-z
-x,1/2+y,1/2-z
loop_
_atom_site_type_symbol
_atom_site_label
_atom_site_fract_x
_atom_site_fract_y
_atom_site_fract_z
Si Si1 0.892876 0.486136 0.350724
Si Si2 0.728105 0.352100 0.104149
Si Si3 0.473654 0.587462 0.982973
Si Si4 0.192952 0.307799 0.414222
Si Si5 0.830907 0.843692 0.768683
Si Si6 0.581933 0.569564 0.153370
O O1 0.935452 0.500000 0.250000
O O2 0.816879 0.602010 0.350521
O O3 0.855583 0.328598 0.372231
O O4 0.969052 0.523879 0.422284
O O5 0.689584 0.225371 0.168089
O O6 0.661986 0.488463 0.104035
O O7 0.750000 0.298631 0.000000
O O8 0.500000 0.750000 0.955840
O O9 0.373430 0.571557 0.957011
O O10 0.497107 0.558065 0.090394
O O11 0.250000 0.252908 0.500000
O O12 0.246933 0.377659 0.330509
O O13 0.892366 0.738069 0.829050
O O14 0.875327 0.000000 0.750000
O O15 0.556460 0.500000 0.250000
#
# Coordination Sequence:
#
# PCOD8165335 Si02
#       6
#     8   8   8   8   8   8
#     4  11  18  34  64  96 127 160 220 284 316 380
#     4  11  19  36  69 101 129 171 228 281 318 387
#     4  10  22  35  61 100 126 166 215 285 333 378
#     4  11  22  40  63  93 133 170 220 267 339 401
#     4  11  23  38  63 102 141 177 209 263 346 416
#     4  10  20  40  68  99 125 171 233 277 316 385
#
# _framework density 23.174199000000002
#
# number of rings (size 3 to 8) (size 9 to 14) (size 15 to 20)
#    0.000    1.333    5.000    3.000    0.000    1.333 
#    0.000    3.333    0.000    1.000   17.333    0.000 
#    0.000    0.000    0.000    0.000    0.000    0.000 
#
# Total GULP energy -297492.348595 kJ/mol
# GULP energy per Si atom -12395.514525 kJ/mol
# Density = 2.312145 g / cm^3
# Si number density = 23.174199 Si / 1000 Ang^3
#
#
#
# Elastic Constant Matrix: (Units=GPa)
#
#
# Indices 1 2 3 4 5 6 
#
# 1 80.8179 18.7798 50.9527 0.0000 0.0000 0.0000
# 2 18.7798 92.0095 31.7537 0.0000 0.0000 0.0000
# 3 50.9527 31.7537 172.5694 0.0000 0.0000 0.0000
# 4 0.0000 0.0000 0.0000 27.5840 0.0000 0.0000
# 5 0.0000 0.0000 0.0000 0.0000 35.9307 0.0000
# 6 0.0000 0.0000 0.0000 0.0000 0.0000 -7.3230
#
#
#
# Elastic Compliance Matrix: (Units=1/GPa)
#
#
# Indices 1 2 3 4 5 6 
#
# 1 0.015445 -0.001686 -0.004250 0.000000 0.000000 0.000000
# 2 -0.001686 0.011789 -0.001672 0.000000 0.000000 0.000000
# 3 -0.004250 -0.001672 0.007357 0.000000 0.000000 0.000000
# 4 0.000000 0.000000 0.000000 0.036253 0.000000 0.000000
# 5 0.000000 0.000000 0.000000 0.000000 0.027831 0.000000
# 6 0.000000 0.000000 0.000000 0.000000 0.000000 -0.136555
#
#
# Mechanical properties :
#
#
# Convention : Reuss Voigt Hill
#
# Bulk Modulus (GPa) = 51.60824 60.92989 56.26907
# Shear Modulus (GPa) = -308.52411 27.49902 -140.51254
#
# Velocity S-wave (km/s) = -11.55083 3.44848 -7.79518
# Velocity P-wave (km/s) = 12.47307 6.49655 7.52902
#
# Compressibility (1/GPa) = 0.01937675
#
# Stress axis : x y z
#
# Youngs Moduli (GPa) = 64.74723 84.82199 135.92106
#
# Poissons Ratio (x) = 0.14298 0.57767
# Poissons Ratio (y) = 0.10914 0.22721
# Poissons Ratio (z) = 0.27518 0.14179
#
# Static dielectric constant tensor:
#      x y z
#    x 4.565470 0.000000 0.000000 
#    y 0.000000 3.743960 0.000000 
#    z 0.000000 0.000000 4.464140 
# 
# 
# High freq. dielectric constant tensor:
#      x y z
#    x 1.914750 0.000000 0.000000 
#    y 0.000000 1.872010 0.000000 
#    z 0.000000 0.000000 1.937870 
# 
# From -- ./inp_files/27047.got.cif
#   From: 2010.03.12/outbox.cif.g09.slc.cpg/sg24_14_cif.got.tgz:27047.got - 2010.04.14 03:06:53.
