data_PCOD8165054
_publ_section_title
;
Structure prediction by ZEFSAII (Michael W. Deem and Ramdas Pophale) SiO2 
 PCOD8165054
Probable space group: I 21 21 21
;
_chemical_formula_sum "Si O2"
_cell_formula_units_Z 64
_cell_length_a 13.961728
_cell_length_b 28.521575
_cell_length_c 8.928474
_cell_angle_alpha 90.000000
_cell_angle_beta 90.000000
_cell_angle_gamma 90.000000
_cell_volume 3555.411848
_symmetry_space_group_name_H-M "I 21 21 21"
_symmetry_group_IT_number 24
_symmetry_cell_setting 'orthorhombic'
loop_
_space_group_symop_operation_xyz
x,y,z
-x,1/2-y,z
x,-y,1/2-z
1/2-x,y,-z
1/2+x,1/2+y,1/2+z
1/2-x,-y,1/2+z
1/2+x,1/2-y,-z
-x,1/2+y,1/2-z
loop_
_atom_site_type_symbol
_atom_site_label
_atom_site_fract_x
_atom_site_fract_y
_atom_site_fract_z
Si Si1 0.636586 0.281088 0.669152
Si Si2 0.459344 0.866636 0.327462
Si Si3 0.142058 0.687246 0.671988
Si Si4 0.363415 0.781088 0.169144
Si Si5 0.140663 0.951551 0.175889
Si Si6 0.359337 0.951551 0.175889
Si Si7 0.040658 0.133364 0.172529
Si Si8 0.357944 0.312753 0.828024
O O1 0.750001 0.284060 0.675139
O O2 0.598685 0.288265 0.500004
O O3 0.597637 0.320917 0.777186
O O4 0.603357 0.230146 0.727415
O O5 0.572736 0.857279 0.302840
O O6 0.402369 0.820915 0.277180
O O7 0.429808 0.911118 0.230402
O O8 0.435084 0.876825 0.499993
O O9 0.103358 0.730145 0.772600
O O10 0.250002 0.672349 0.717561
O O11 0.138315 0.704016 0.500006
O O12 0.250000 0.939068 0.221113
O O13 0.070193 0.911119 0.230412
O O14 0.108048 0.000000 0.250000
O O15 0.130040 0.957027 0.000001
O O16 0.391953 0.000000 0.250000
O O17 0.927267 0.142723 0.197150
#
# Coordination Sequence:
#
# PCOD8165054 Si02
#       8
#     8   8   8   8   8   8   8   8
#     4  10  20  32  47  71 103 136 169 206 248 294
#     4  11  21  32  51  76 100 131 169 206 247 295
#     4   9  19  35  51  69  98 135 172 209 248 290
#     4  10  20  32  47  71 103 136 169 206 248 294
#     4  10  21  37  56  78 104 131 159 196 244 296
#     4  10  21  37  56  78 104 131 159 196 244 296
#     4  11  21  32  51  76 100 131 169 206 247 295
#     4   9  19  35  51  69  98 135 172 209 248 290
#
# _framework density 18.000727000000001
#
# number of rings (size 3 to 8) (size 9 to 14) (size 15 to 20)
#    0.000    2.000    0.000    3.750    0.000   11.000 
#    0.000    0.000    0.000    0.750    0.000    0.000 
#    0.000    0.000    0.000    0.000    0.000    0.000 
#
# Total GULP energy -396890.301753 kJ/mol
# GULP energy per Si atom -12402.821930 kJ/mol
# Density = 1.795976 g / cm^3
# Si number density = 18.000727 Si / 1000 Ang^3
#
#
#
# Elastic Constant Matrix: (Units=GPa)
#
#
# Indices 1 2 3 4 5 6 
#
# 1 54.6378 62.9718 34.6378 0.0016 -0.0002 -0.0003
# 2 62.9718 106.2280 35.6202 -0.0002 -0.0002 -0.0003
# 3 34.6378 35.6202 70.3766 -0.0002 -0.0029 -0.0018
# 4 0.0016 -0.0002 -0.0002 36.9194 -0.0012 -0.0009
# 5 -0.0002 -0.0002 -0.0029 -0.0012 23.3849 0.0000
# 6 -0.0003 -0.0003 -0.0018 -0.0009 0.0000 26.6454
#
#
#
# Elastic Compliance Matrix: (Units=1/GPa)
#
#
# Indices 1 2 3 4 5 6 
#
# 1 0.070527 -0.036336 -0.016321 -0.000003 -0.000002 -0.000001
# 2 -0.036336 0.030058 0.002670 0.000002 0.000000 0.000000
# 3 -0.016321 0.002670 0.020891 0.000001 0.000003 0.000001
# 4 -0.000003 0.000002 0.000001 0.027086 0.000001 0.000001
# 5 -0.000002 0.000000 0.000003 0.000001 0.042763 0.000000
# 6 -0.000001 0.000000 0.000001 0.000001 0.000000 0.037530
#
#
# Mechanical properties :
#
#
# Convention : Reuss Voigt Hill
#
# Bulk Modulus (GPa) = 46.50584 55.30023 50.90304
# Shear Modulus (GPa) = 14.88113 23.92409 19.40261
#
# Velocity S-wave (km/s) = 2.87835 3.64959 3.28667
# Velocity P-wave (km/s) = 6.07768 6.96758 6.53779
#
# Compressibility (1/GPa) = 0.02150267
#
# Stress axis : x y z
#
# Youngs Moduli (GPa) = 14.17891 33.26886 47.86807
#
# Poissons Ratio (x) = 1.20885 0.78126
# Poissons Ratio (y) = 0.51520 -0.12781
# Poissons Ratio (z) = 0.23142 -0.08883
#
# Static dielectric constant tensor:
#      x y z
#    x 3.481010 0.000000 0.000010 
#    y 0.000000 3.204770 -0.000010 
#    z 0.000010 -0.000010 3.502020 
# 
# 
# High freq. dielectric constant tensor:
#      x y z
#    x 1.696140 0.000000 0.000000 
#    y 0.000000 1.676030 0.000000 
#    z 0.000000 0.000000 1.711450 
# 
# From -- ./inp_files/13366.got.cif
#   From: 2010.03.12/outbox.cif.g09.slc.cpg/sg24_7_cif.got.tgz:13366.got - 2010.04.14 03:06:53.
