data_PCOD8165254
_publ_section_title
;
Structure prediction by ZEFSAII (Michael W. Deem and Ramdas Pophale) SiO2 
 PCOD8165254
Probable space group: I 21 21 21
;
_chemical_formula_sum "Si O2"
_cell_formula_units_Z 36
_cell_length_a 17.636836
_cell_length_b 13.052863
_cell_length_c 7.732810
_cell_angle_alpha 90.000000
_cell_angle_beta 90.000000
_cell_angle_gamma 90.000000
_cell_volume 1780.179501
_symmetry_space_group_name_H-M "I 21 21 21"
_symmetry_group_IT_number 24
_symmetry_cell_setting 'orthorhombic'
loop_
_space_group_symop_operation_xyz
x,y,z
-x,1/2-y,z
x,-y,1/2-z
1/2-x,y,-z
1/2+x,1/2+y,1/2+z
1/2-x,-y,1/2+z
1/2+x,1/2-y,-z
-x,1/2+y,1/2-z
loop_
_atom_site_type_symbol
_atom_site_label
_atom_site_fract_x
_atom_site_fract_y
_atom_site_fract_z
Si Si1 0.635305 0.658183 0.156723
Si Si2 0.286621 0.795449 0.670952
Si Si3 0.578510 0.798737 0.873385
Si Si4 0.479530 0.500000 0.750000
Si Si5 0.607200 0.445205 0.993283
O O1 0.723422 0.684348 0.184073
O O2 0.626466 0.563801 0.025705
O O3 0.595638 0.625086 0.336185
O O4 0.595454 0.756945 0.067912
O O5 0.250000 0.741955 0.500000
O O6 0.352565 0.724995 0.745266
O O7 0.321637 0.904503 0.615744
O O8 0.500000 0.750000 0.806671
O O9 0.570941 0.921988 0.864792
O O10 0.530636 0.564588 0.616397
#
# Coordination Sequence:
#
# PCOD8165254 Si02
#       5
#     8   8   8   4   8
#     4  10  22  38  64 100 132 168 213 274 337 396
#     4  10  22  40  63  97 126 170 216 272 336 391
#     4  12  23  42  64  91 135 173 215 269 333 397
#     4  12  24  42  64  98 132 178 216 266 336 398
#     4  10  20  38  64 102 133 161 212 276 341 395
#
# _framework density 20.22268
#
# number of rings (size 3 to 8) (size 9 to 14) (size 15 to 20)
#    0.000    1.333    4.444    0.667    0.000   16.000 
#    8.000    2.222    0.000    0.000    0.000    0.000 
#    0.000    0.000    0.000    0.000    0.000    0.000 
#
# Total GULP energy -223143.001533 kJ/mol
# GULP energy per Si atom -12396.833419 kJ/mol
# Density = 2.017665 g / cm^3
# Si number density = 20.222680 Si / 1000 Ang^3
#
#
#
# Elastic Constant Matrix: (Units=GPa)
#
#
# Indices 1 2 3 4 5 6 
#
# 1 112.1141 52.9702 63.5199 0.0000 0.0000 0.0000
# 2 52.9702 109.1011 54.4562 0.0000 0.0000 0.0000
# 3 63.5199 54.4562 114.3049 0.0000 0.0000 0.0000
# 4 0.0000 0.0000 0.0000 38.5485 0.0000 0.0000
# 5 0.0000 0.0000 0.0000 0.0000 34.3787 0.0000
# 6 0.0000 0.0000 0.0000 0.0000 0.0000 30.1818
#
#
#
# Elastic Compliance Matrix: (Units=1/GPa)
#
#
# Indices 1 2 3 4 5 6 
#
# 1 0.014161 -0.003867 -0.006027 0.000000 0.000000 0.000000
# 2 -0.003867 0.013081 -0.004083 0.000000 0.000000 0.000000
# 3 -0.006027 -0.004083 0.014043 0.000000 0.000000 0.000000
# 4 0.000000 0.000000 0.000000 0.025941 0.000000 0.000000
# 5 0.000000 0.000000 0.000000 0.000000 0.029088 0.000000
# 6 0.000000 0.000000 0.000000 0.000000 0.000000 0.033133
#
#
# Mechanical properties :
#
#
# Convention : Reuss Voigt Hill
#
# Bulk Modulus (GPa) = 75.01353 75.26809 75.14081
# Shear Modulus (GPa) = 30.89352 31.59340 31.24346
#
# Velocity S-wave (km/s) = 3.91278 3.95685 3.93488
# Velocity P-wave (km/s) = 7.58864 7.62732 7.60800
#
# Compressibility (1/GPa) = 0.01333093
#
# Stress axis : x y z
#
# Youngs Moduli (GPa) = 70.61448 76.44432 71.20910
#
# Poissons Ratio (x) = 0.29562 0.42919
# Poissons Ratio (y) = 0.27308 0.29076
# Poissons Ratio (z) = 0.42561 0.31213
#
# Static dielectric constant tensor:
#      x y z
#    x 3.700990 0.000000 0.000000 
#    y 0.000000 3.434750 0.000000 
#    z 0.000000 0.000000 3.977530 
# 
# 
# High freq. dielectric constant tensor:
#      x y z
#    x 1.787910 0.000000 0.000000 
#    y 0.000000 1.756870 0.000000 
#    z 0.000000 0.000000 1.801910 
# 
# From -- ./inp_files/12223.got.cif
#   From: 2010.03.12/outbox.cif.g09.slc.cpg/sg24_7_cif.got.tgz:12223.got - 2010.04.14 03:06:53.
