data_PCOD8165513
_publ_section_title
;
Structure prediction by ZEFSAII (Michael W. Deem and Ramdas Pophale) SiO2 
 PCOD8165513
Probable space group: I 21 21 21
;
_chemical_formula_sum "Si O2"
_cell_formula_units_Z 64
_cell_length_a 19.678259
_cell_length_b 8.811187
_cell_length_c 18.672862
_cell_angle_alpha 90.000000
_cell_angle_beta 90.000000
_cell_angle_gamma 90.000000
_cell_volume 3237.665506
_symmetry_space_group_name_H-M "I 21 21 21"
_symmetry_group_IT_number 24
_symmetry_cell_setting 'orthorhombic'
loop_
_space_group_symop_operation_xyz
x,y,z
-x,1/2-y,z
x,-y,1/2-z
1/2-x,y,-z
1/2+x,1/2+y,1/2+z
1/2-x,-y,1/2+z
1/2+x,1/2-y,-z
-x,1/2+y,1/2-z
loop_
_atom_site_type_symbol
_atom_site_label
_atom_site_fract_x
_atom_site_fract_y
_atom_site_fract_z
Si Si1 0.420056 0.218786 0.857619
Si Si2 0.947771 0.488249 0.469991
Si Si3 0.757637 0.343936 0.387242
Si Si4 0.098224 0.452424 0.022240
Si Si5 0.426344 0.227313 0.094386
Si Si6 0.153226 0.244579 0.509993
Si Si7 0.192843 0.682628 0.251218
Si Si8 0.196488 0.885757 0.686154
O O1 0.500000 0.250000 0.841082
O O2 0.415691 0.050620 0.894179
O O3 0.386408 0.336659 0.913792
O O4 0.374616 0.238108 0.785861
O O5 0.935090 0.616062 0.528301
O O6 0.920709 0.330415 0.502167
O O7 0.027456 0.465874 0.459495
O O8 0.802178 0.358110 0.457653
O O9 0.684938 0.266247 0.409736
O O10 0.798845 0.245690 0.329023
O O11 0.744304 0.518007 0.366281
O O12 0.154991 0.582980 0.018155
O O13 0.099156 0.381962 0.942456
O O14 0.500000 0.250000 0.132332
O O15 0.373695 0.168743 0.152533
O O16 0.186423 0.500000 0.250000
O O17 0.261114 0.736423 0.291955
O O18 0.177219 0.000000 0.750000
#
# Coordination Sequence:
#
# PCOD8165513 Si02
#       8
#     8   8   8   8   8   8   8   8
#     4   9  19  39  60  85 120 157 199 235 292 361
#     4   9  17  34  60  85 112 150 186 236 290 359
#     4  10  23  36  54  82 114 157 196 234 284 349
#     4   9  19  32  57  90 116 143 186 247 297 340
#     4   9  18  36  59  82 111 147 193 238 297 353
#     4  11  19  34  57  84 120 141 195 243 281 338
#     4  11  23  39  58  82 123 156 196 245 295 344
#     4  10  21  40  59  77 113 157 194 236 292 361
#
# _framework density 19.767330000000001
#
# number of rings (size 3 to 8) (size 9 to 14) (size 15 to 20)
#    0.000    2.250    1.250    3.375    1.750    0.000 
#    0.000    6.250    2.750    0.000    0.000    0.000 
#    0.000    0.000    0.000    0.000    0.000    0.000 
#
# Total GULP energy -396474.889179 kJ/mol
# GULP energy per Si atom -12389.840287 kJ/mol
# Density = 1.972234 g / cm^3
# Si number density = 19.767330 Si / 1000 Ang^3
#
#
#
# Elastic Constant Matrix: (Units=GPa)
#
#
# Indices 1 2 3 4 5 6 
#
# 1 67.4525 17.1931 41.5344 0.0000 0.0000 0.0000
# 2 17.1931 65.0316 15.3656 0.0000 0.0000 0.0000
# 3 41.5344 15.3656 79.0829 0.0000 0.0000 0.0000
# 4 0.0000 0.0000 0.0000 0.6960 0.0000 0.0000
# 5 0.0000 0.0000 0.0000 0.0000 20.7891 0.0000
# 6 0.0000 0.0000 0.0000 0.0000 0.0000 22.6983
#
#
#
# Elastic Compliance Matrix: (Units=1/GPa)
#
#
# Indices 1 2 3 4 5 6 
#
# 1 0.022575 -0.003319 -0.011211 0.000000 0.000000 0.000000
# 2 -0.003319 0.016605 -0.001483 0.000000 0.000000 0.000000
# 3 -0.011211 -0.001483 0.018821 0.000000 0.000000 0.000000
# 4 0.000000 0.000000 0.000000 1.436799 0.000000 0.000000
# 5 0.000000 0.000000 0.000000 0.000000 0.048102 0.000000
# 6 0.000000 0.000000 0.000000 0.000000 0.000000 0.044056
#
#
# Mechanical properties :
#
#
# Convention : Reuss Voigt Hill
#
# Bulk Modulus (GPa) = 38.50031 39.97257 39.23644
# Shear Modulus (GPa) = 3.07192 18.00160 10.53676
#
# Velocity S-wave (km/s) = 1.24796 3.02101 2.31127
# Velocity P-wave (km/s) = 4.64710 5.69510 5.19758
#
# Compressibility (1/GPa) = 0.02597382
#
# Stress axis : x y z
#
# Youngs Moduli (GPa) = 44.29720 60.22243 53.13118
#
# Poissons Ratio (x) = 0.19990 0.59567
# Poissons Ratio (y) = 0.14704 0.07880
# Poissons Ratio (z) = 0.49663 0.08931
#
# Static dielectric constant tensor:
#      x y z
#    x 3.887780 0.000000 0.000000 
#    y 0.000000 4.191770 0.000000 
#    z 0.000000 0.000000 3.643610 
# 
# 
# High freq. dielectric constant tensor:
#      x y z
#    x 1.769740 0.000000 0.000000 
#    y 0.000000 1.769000 0.000000 
#    z 0.000000 0.000000 1.756070 
# 
# From -- ./inp_files/31410.got.cif
#   From: 2010.03.12/outbox.cif.g09.slc.cpg/sg24_16_cif.got.tgz:31410.got - 2010.04.14 03:06:53.
