data_PCOD8165752
_publ_section_title
;
Structure prediction by ZEFSAII (Michael W. Deem and Ramdas Pophale) SiO2 
 PCOD8165752
Probable space group: I 21 21 21
;
_chemical_formula_sum "Si O2"
_cell_formula_units_Z 56
_cell_length_a 15.988450
_cell_length_b 19.978056
_cell_length_c 8.090570
_cell_angle_alpha 90.000000
_cell_angle_beta 90.000000
_cell_angle_gamma 90.000000
_cell_volume 2584.274897
_symmetry_space_group_name_H-M "I 21 21 21"
_symmetry_group_IT_number 24
_symmetry_cell_setting 'orthorhombic'
loop_
_space_group_symop_operation_xyz
x,y,z
-x,1/2-y,z
x,-y,1/2-z
1/2-x,y,-z
1/2+x,1/2+y,1/2+z
1/2-x,-y,1/2+z
1/2+x,1/2-y,-z
-x,1/2+y,1/2-z
loop_
_atom_site_type_symbol
_atom_site_label
_atom_site_fract_x
_atom_site_fract_y
_atom_site_fract_z
Si Si1 0.370202 0.500000 0.750000
Si Si2 0.763659 0.868731 0.309964
Si Si3 0.089054 0.666954 0.828935
Si Si4 0.996162 0.435048 0.458651
Si Si5 0.000000 0.750000 0.555033
Si Si6 0.841760 0.519711 0.437033
Si Si7 0.167765 0.746697 0.101301
Si Si8 0.412249 0.147054 0.818461
O O1 0.309865 0.438732 0.791050
O O2 0.427714 0.484843 0.589047
O O3 0.750000 0.851717 0.500000
O O4 0.677043 0.869841 0.207016
O O5 0.822235 0.810470 0.238811
O O6 0.060742 0.704662 0.664654
O O7 0.096598 0.722088 0.974140
O O8 0.022135 0.611804 0.888150
O O9 0.914882 0.476111 0.525433
O O10 0.980087 0.394326 0.287872
O O11 0.049813 0.798034 0.435879
O O12 0.846931 0.500000 0.250000
O O13 0.750000 0.501311 0.500000
O O14 0.860091 0.598992 0.442872
O O15 0.146162 0.817048 0.184325
O O16 0.250000 0.762120 0.000000
#
# Coordination Sequence:
#
# PCOD8165752 Si02
#       8
#     4   8   8   8   4   8   8   8
#     4  12  24  44  72  96 136 182 228 274 348 408
#     4  11  26  41  67 102 138 175 227 287 336 415
#     4  11  24  43  65 102 135 181 227 280 340 411
#     4  11  23  45  71  95 134 181 232 275 350 415
#     4  12  26  40  66 100 142 176 236 276 346 412
#     4  10  24  44  67  99 130 173 225 282 339 403
#     4  10  22  42  67  94 134 177 226 276 347 412
#     4  11  23  41  67  97 132 184 218 291 341 402
#
# _framework density 21.669521
#
# number of rings (size 3 to 8) (size 9 to 14) (size 15 to 20)
#    0.000    1.143    3.571    2.571    4.000    6.286 
#    0.000    0.000    0.000    0.000    0.000    0.000 
#    0.000    0.000    0.000    0.000    0.000    0.000 
#
# Total GULP energy -347234.775113 kJ/mol
# GULP energy per Si atom -12401.241968 kJ/mol
# Density = 2.162020 g / cm^3
# Si number density = 21.669521 Si / 1000 Ang^3
#
#
#
# Elastic Constant Matrix: (Units=GPa)
#
#
# Indices 1 2 3 4 5 6 
#
# 1 117.0585 64.0428 32.7048 0.0000 0.0000 0.0000
# 2 64.0428 129.6491 41.2598 0.0000 0.0000 0.0000
# 3 32.7048 41.2598 81.3927 0.0000 0.0000 0.0000
# 4 0.0000 0.0000 0.0000 36.0040 0.0000 0.0000
# 5 0.0000 0.0000 0.0000 0.0000 34.8510 0.0000
# 6 0.0000 0.0000 0.0000 0.0000 0.0000 24.8921
#
#
#
# Elastic Compliance Matrix: (Units=1/GPa)
#
#
# Indices 1 2 3 4 5 6 
#
# 1 0.012019 -0.005247 -0.002170 0.000000 0.000000 0.000000
# 2 -0.005247 0.011487 -0.003715 0.000000 0.000000 0.000000
# 3 -0.002170 -0.003715 0.015041 0.000000 0.000000 0.000000
# 4 0.000000 0.000000 0.000000 0.027775 0.000000 0.000000
# 5 0.000000 0.000000 0.000000 0.000000 0.028694 0.000000
# 6 0.000000 0.000000 0.000000 0.000000 0.000000 0.040173
#
#
# Mechanical properties :
#
#
# Convention : Reuss Voigt Hill
#
# Bulk Modulus (GPa) = 61.40719 67.12390 64.26554
# Shear Modulus (GPa) = 30.69734 31.82228 31.25981
#
# Velocity S-wave (km/s) = 3.76788 3.83629 3.80224
# Velocity P-wave (km/s) = 6.87959 7.11803 6.99982
#
# Compressibility (1/GPa) = 0.01628474
#
# Stress axis : x y z
#
# Youngs Moduli (GPa) = 83.19834 87.05438 66.48414
#
# Poissons Ratio (x) = 0.45675 0.14427
# Poissons Ratio (y) = 0.43652 0.24698
# Poissons Ratio (z) = 0.18053 0.32340
#
# Static dielectric constant tensor:
#      x y z
#    x 3.517270 0.000000 0.000000 
#    y 0.000000 3.935310 0.000000 
#    z 0.000000 0.000000 4.008660 
# 
# 
# High freq. dielectric constant tensor:
#      x y z
#    x 1.857770 0.000000 0.000000 
#    y 0.000000 1.862640 0.000000 
#    z 0.000000 0.000000 1.845620 
# 
# From -- ./inp_files/13207.got.cif
#   From: 2010.03.12/outbox.cif.g09.slc.cpg/sg24_7_cif.got.tgz:13207.got - 2010.04.14 03:06:53.
