data_PCOD8165088
_publ_section_title
;
Structure prediction by ZEFSAII (Michael W. Deem and Ramdas Pophale) SiO2 
 PCOD8165088
Probable space group: I 21 21 21
;
_chemical_formula_sum "Si O2"
_cell_formula_units_Z 56
_cell_length_a 5.086463
_cell_length_b 34.138408
_cell_length_c 16.158443
_cell_angle_alpha 90.000000
_cell_angle_beta 90.000000
_cell_angle_gamma 90.000000
_cell_volume 2805.812623
_symmetry_space_group_name_H-M "I 21 21 21"
_symmetry_group_IT_number 24
_symmetry_cell_setting 'orthorhombic'
loop_
_space_group_symop_operation_xyz
x,y,z
-x,1/2-y,z
x,-y,1/2-z
1/2-x,y,-z
1/2+x,1/2+y,1/2+z
1/2-x,-y,1/2+z
1/2+x,1/2-y,-z
-x,1/2+y,1/2-z
loop_
_atom_site_type_symbol
_atom_site_label
_atom_site_fract_x
_atom_site_fract_y
_atom_site_fract_z
Si Si1 0.003405 0.370959 0.947160
Si Si2 0.206401 0.915931 0.700735
Si Si3 0.798102 0.954553 0.240675
Si Si4 0.810714 0.642532 0.843109
Si Si5 0.869088 0.290894 0.909261
Si Si6 0.320036 0.398141 0.592252
Si Si7 0.758119 0.723725 0.235137
O O1 0.917072 0.405802 0.887565
O O2 0.067676 0.328682 0.904491
O O3 0.250000 0.385955 0.000000
O O4 0.750000 0.360413 0.000000
O O5 0.499877 0.933790 0.694895
O O6 0.228438 0.876590 0.753329
O O7 0.006790 0.947273 0.739797
O O8 0.849920 0.937318 0.148573
O O9 0.857958 0.000000 0.250000
O O10 0.593913 0.625596 0.906795
O O11 0.778442 0.688874 0.831477
O O12 0.099791 0.631789 0.875205
O O13 0.680319 0.293989 0.827992
O O14 0.000000 0.250000 0.892192
O O15 0.750000 0.287896 0.000000
O O16 0.250000 0.412351 0.500000
O O17 0.500000 0.750000 0.232825
O O18 0.000000 0.750000 0.205291
#
# Coordination Sequence:
#
# PCOD8165088 Si02
#       7
#     8   8   8   8   8   8   8
#     4  11  22  35  54  78 115 160 203 243 283 339
#     4  10  20  38  57  83 116 154 198 234 286 351
#     4  10  21  38  64  90 119 150 184 235 295 356
#     4  10  20  38  59  85 115 151 195 245 293 345
#     4  10  20  34  50  78 114 157 203 247 296 330
#     4  10  21  38  65  90 115 146 193 240 289 353
#     4  11  22  35  56  82 115 154 201 249 297 351
#
# _framework density 19.958566999999999
#
# number of rings (size 3 to 8) (size 9 to 14) (size 15 to 20)
#    0.000    1.714    1.429    3.429    0.000    3.429 
#    0.000    2.143    0.000   10.286    0.000    0.000 
#    0.000    0.000    0.000    0.000    0.000    0.000 
#
# Total GULP energy -346974.301902 kJ/mol
# GULP energy per Si atom -12391.939354 kJ/mol
# Density = 1.991314 g / cm^3
# Si number density = 19.958567 Si / 1000 Ang^3
#
#
#
# Elastic Constant Matrix: (Units=GPa)
#
#
# Indices 1 2 3 4 5 6 
#
# 1 105.9394 29.2681 18.5675 0.0000 0.0000 0.0000
# 2 29.2681 114.1121 47.0252 0.0000 0.0000 0.0000
# 3 18.5675 47.0252 79.4787 0.0000 0.0000 0.0000
# 4 0.0000 0.0000 0.0000 19.5566 0.0000 0.0000
# 5 0.0000 0.0000 0.0000 0.0000 36.2652 0.0000
# 6 0.0000 0.0000 0.0000 0.0000 0.0000 24.1477
#
#
#
# Elastic Compliance Matrix: (Units=1/GPa)
#
#
# Indices 1 2 3 4 5 6 
#
# 1 0.010232 -0.002168 -0.001108 0.000000 0.000000 0.000000
# 2 -0.002168 0.012048 -0.006622 0.000000 0.000000 0.000000
# 3 -0.001108 -0.006622 0.016759 0.000000 0.000000 0.000000
# 4 0.000000 0.000000 0.000000 0.051134 0.000000 0.000000
# 5 0.000000 0.000000 0.000000 0.000000 0.027575 0.000000
# 6 0.000000 0.000000 0.000000 0.000000 0.000000 0.041412
#
#
# Mechanical properties :
#
#
# Convention : Reuss Voigt Hill
#
# Bulk Modulus (GPa) = 51.96444 54.36132 53.16288
# Shear Modulus (GPa) = 26.97304 29.63852 28.30578
#
# Velocity S-wave (km/s) = 3.68020 3.85775 3.77002
# Velocity P-wave (km/s) = 6.64463 6.86580 6.75612
#
# Compressibility (1/GPa) = 0.01924393
#
# Stress axis : x y z
#
# Youngs Moduli (GPa) = 97.72828 82.99896 59.66969
#
# Poissons Ratio (x) = 0.17994 0.06610
# Poissons Ratio (y) = 0.21187 0.39514
# Poissons Ratio (z) = 0.10826 0.54963
#
# Static dielectric constant tensor:
#      x y z
#    x 3.785070 0.000000 0.000000 
#    y 0.000000 3.599530 0.000000 
#    z 0.000000 0.000000 3.591600 
# 
# 
# High freq. dielectric constant tensor:
#      x y z
#    x 1.783160 0.000000 0.000000 
#    y 0.000000 1.771560 0.000000 
#    z 0.000000 0.000000 1.759330 
# 
# From -- ./inp_files/7738.got.cif
#   From: 2010.03.12/outbox.cif.g09.slc.cpg/sg24_4_cif.got.tgz:7738.got - 2010.04.14 03:06:53.
