data_PCOD8165037
_publ_section_title
;
Structure prediction by ZEFSAII (Michael W. Deem and Ramdas Pophale) SiO2 
 PCOD8165037
Probable space group: I 21 21 21
;
_chemical_formula_sum "Si O2"
_cell_formula_units_Z 32
_cell_length_a 7.492596
_cell_length_b 11.151201
_cell_length_c 17.617648
_cell_angle_alpha 90.000000
_cell_angle_beta 90.000000
_cell_angle_gamma 90.000000
_cell_volume 1471.979930
_symmetry_space_group_name_H-M "I 21 21 21"
_symmetry_group_IT_number 24
_symmetry_cell_setting 'orthorhombic'
loop_
_space_group_symop_operation_xyz
x,y,z
-x,1/2-y,z
x,-y,1/2-z
1/2-x,y,-z
1/2+x,1/2+y,1/2+z
1/2-x,-y,1/2+z
1/2+x,1/2-y,-z
-x,1/2+y,1/2-z
loop_
_atom_site_type_symbol
_atom_site_label
_atom_site_fract_x
_atom_site_fract_y
_atom_site_fract_z
Si Si1 0.246677 0.517063 0.336814
Si Si2 0.871649 0.488026 0.405679
Si Si3 0.293213 0.753197 0.584645
Si Si4 0.527915 0.385536 0.436943
O O1 0.298865 0.500000 0.250000
O O2 0.295422 0.654626 0.359776
O O3 0.362027 0.425232 0.386143
O O4 0.035737 0.486023 0.347065
O O5 0.746337 0.608477 0.399324
O O6 0.718198 0.388343 0.390779
O O7 0.956349 0.472006 0.489660
O O8 0.500000 0.750000 0.599134
O O9 0.250000 0.711429 0.500000
O O10 0.500000 0.250000 0.464507
#
# Coordination Sequence:
#
# PCOD8165037 Si02
#       4
#     8   8   8   8
#     4  11  25  43  63  99 138 175 211 268 346 411
#     4  10  23  43  70  97 125 169 232 278 331 383
#     4  10  19  39  68  96 118 162 220 277 319 380
#     4  11  24  43  67 102 127 175 229 280 334 392
#
# _framework density 21.739428
#
# number of rings (size 3 to 8) (size 9 to 14) (size 15 to 20)
#    0.000    1.500    2.500    3.750    7.000    1.000 
#   18.000    0.000    0.000    0.000    0.000    0.000 
#    0.000    0.000    0.000    0.000    0.000    0.000 
#
# Total GULP energy -198254.238105 kJ/mol
# GULP energy per Si atom -12390.889882 kJ/mol
# Density = 2.168995 g / cm^3
# Si number density = 21.739428 Si / 1000 Ang^3
#
#
#
# Elastic Constant Matrix: (Units=GPa)
#
#
# Indices 1 2 3 4 5 6 
#
# 1 77.9519 24.9377 10.5105 0.0000 0.0000 0.0000
# 2 24.9377 122.2989 46.5330 0.0000 0.0000 0.0000
# 3 10.5105 46.5330 90.5425 0.0000 0.0000 0.0000
# 4 0.0000 0.0000 0.0000 -24.7926 0.0000 0.0000
# 5 0.0000 0.0000 0.0000 0.0000 23.6537 0.0000
# 6 0.0000 0.0000 0.0000 0.0000 0.0000 34.7985
#
#
#
# Elastic Compliance Matrix: (Units=1/GPa)
#
#
# Indices 1 2 3 4 5 6 
#
# 1 0.013726 -0.002726 -0.000193 0.000000 0.000000 0.000000
# 2 -0.002726 0.010705 -0.005186 0.000000 0.000000 0.000000
# 3 -0.000193 -0.005186 0.013732 0.000000 0.000000 0.000000
# 4 0.000000 0.000000 0.000000 -0.040335 0.000000 0.000000
# 5 0.000000 0.000000 0.000000 0.000000 0.042277 0.000000
# 6 0.000000 0.000000 0.000000 0.000000 0.000000 0.028737
#
#
# Mechanical properties :
#
#
# Convention : Reuss Voigt Hill
#
# Bulk Modulus (GPa) = 45.54515 50.52841 48.03678
# Shear Modulus (GPa) = 54.13075 20.65274 37.39174
#
# Velocity S-wave (km/s) = 4.99538 3.08557 4.15178
# Velocity P-wave (km/s) = 7.36667 5.99896 6.71771
#
# Compressibility (1/GPa) = 0.02195623
#
# Stress axis : x y z
#
# Youngs Moduli (GPa) = 72.85261 93.41015 72.82308
#
# Poissons Ratio (x) = 0.25460 0.01403
# Poissons Ratio (y) = 0.19857 0.37763
# Poissons Ratio (z) = 0.01403 0.48438
#
# Static dielectric constant tensor:
#      x y z
#    x 4.092730 0.000000 0.000000 
#    y 0.000000 5.694610 0.000000 
#    z 0.000000 0.000000 3.470390 
# 
# 
# High freq. dielectric constant tensor:
#      x y z
#    x 1.866440 0.000000 0.000000 
#    y 0.000000 1.864230 0.000000 
#    z 0.000000 0.000000 1.809250 
# 
# From -- ./inp_files/11963.got.cif
#   From: 2010.03.12/outbox.cif.g09.slc.cpg/sg24_6_cif.got.tgz:11963.got - 2010.04.14 03:06:53.
