data_PCOD8165489
_publ_section_title
;
Structure prediction by ZEFSAII (Michael W. Deem and Ramdas Pophale) SiO2 
 PCOD8165489
Probable space group: I 21 21 21
;
_chemical_formula_sum "Si O2"
_cell_formula_units_Z 48
_cell_length_a 17.053563
_cell_length_b 8.893480
_cell_length_c 13.946922
_cell_angle_alpha 90.000000
_cell_angle_beta 90.000000
_cell_angle_gamma 90.000000
_cell_volume 2115.267198
_symmetry_space_group_name_H-M "I 21 21 21"
_symmetry_group_IT_number 24
_symmetry_cell_setting 'orthorhombic'
loop_
_space_group_symop_operation_xyz
x,y,z
-x,1/2-y,z
x,-y,1/2-z
1/2-x,y,-z
1/2+x,1/2+y,1/2+z
1/2-x,-y,1/2+z
1/2+x,1/2-y,-z
-x,1/2+y,1/2-z
loop_
_atom_site_type_symbol
_atom_site_label
_atom_site_fract_x
_atom_site_fract_y
_atom_site_fract_z
Si Si1 0.659745 0.009855 0.522995
Si Si2 0.572742 0.847450 0.803306
Si Si3 0.908145 0.724493 0.389107
Si Si4 0.927258 0.347450 0.803306
Si Si5 0.591855 0.224493 0.389107
Si Si6 0.340255 0.009855 0.022995
O O1 0.750000 0.033135 0.500000
O O2 0.633280 0.113707 0.612755
O O3 0.612293 0.058587 0.427243
O O4 0.640198 0.837481 0.542707
O O5 0.500000 0.750000 0.844797
O O6 0.616954 0.747703 0.721828
O O7 0.541839 0.000000 0.750000
O O8 0.887707 0.558587 0.427243
O O9 0.000000 0.750000 0.399232
O O10 0.958161 0.500000 0.750000
O O11 0.883046 0.247703 0.721828
O O12 0.866720 0.386293 0.887245
O O13 0.000000 0.250000 0.844797
O O14 0.500000 0.250000 0.399232
O O15 0.640198 0.337481 0.457293
O O16 0.250000 0.033134 0.000000
#
# Coordination Sequence:
#
# PCOD8165489 Si02
#       6
#     8   8   8   8   8   8
#     4  11  22  37  58  88 125 157 193 248 306 357
#     4   9  20  38  60  86 118 157 204 248 291 351
#     4  10  21  39  61  85 116 160 208 247 289 351
#     4   9  20  38  60  86 118 157 204 248 291 351
#     4  10  21  39  61  85 116 160 208 247 289 351
#     4  11  22  37  58  88 125 157 193 248 306 357
#
# _framework density 22.692167000000001
#
# number of rings (size 3 to 8) (size 9 to 14) (size 15 to 20)
#    0.000    2.000    0.000    3.000    0.000    6.667 
#    0.000    3.333    0.000    0.000    0.000    0.000 
#    0.000    0.000    0.000    0.000    0.000    0.000 
#
# Total GULP energy -297528.004032 kJ/mol
# GULP energy per Si atom -12397.000168 kJ/mol
# Density = 2.264052 g / cm^3
# Si number density = 22.692167 Si / 1000 Ang^3
#
#
#
# Elastic Constant Matrix: (Units=GPa)
#
#
# Indices 1 2 3 4 5 6 
#
# 1 123.8367 19.1145 34.0172 0.0000 0.0000 0.0000
# 2 19.1145 35.7974 26.1013 0.0000 0.0000 0.0000
# 3 34.0172 26.1013 86.5902 0.0000 0.0000 0.0000
# 4 0.0000 0.0000 0.0000 42.9300 0.0000 0.0000
# 5 0.0000 0.0000 0.0000 0.0000 105.5446 0.0000
# 6 0.0000 0.0000 0.0000 0.0000 0.0000 38.0426
#
#
#
# Elastic Compliance Matrix: (Units=1/GPa)
#
#
# Indices 1 2 3 4 5 6 
#
# 1 0.009288 -0.002947 -0.002761 0.000000 0.000000 0.000000
# 2 -0.002947 0.036739 -0.009917 0.000000 0.000000 0.000000
# 3 -0.002761 -0.009917 0.015622 0.000000 0.000000 0.000000
# 4 0.000000 0.000000 0.000000 0.023294 0.000000 0.000000
# 5 0.000000 0.000000 0.000000 0.000000 0.009475 0.000000
# 6 0.000000 0.000000 0.000000 0.000000 0.000000 0.026286
#
#
# Mechanical properties :
#
#
# Convention : Reuss Voigt Hill
#
# Bulk Modulus (GPa) = 32.89311 44.96559 38.92935
# Shear Modulus (GPa) = 30.84761 48.43620 39.64190
#
# Velocity S-wave (km/s) = 3.69100 4.62507 4.18418
# Velocity P-wave (km/s) = 5.71764 6.95558 6.36677
#
# Compressibility (1/GPa) = 0.03040150
#
# Stress axis : x y z
#
# Youngs Moduli (GPa) = 107.66205 27.21886 64.01026
#
# Poissons Ratio (x) = 0.08021 0.17671
# Poissons Ratio (y) = 0.31725 0.63478
# Poissons Ratio (z) = 0.29722 0.26993
#
# Static dielectric constant tensor:
#      x y z
#    x 3.659000 0.000000 0.000000 
#    y 0.000000 4.429320 0.000000 
#    z 0.000000 0.000000 4.530740 
# 
# 
# High freq. dielectric constant tensor:
#      x y z
#    x 1.866710 0.000000 0.000000 
#    y 0.000000 1.902200 0.000000 
#    z 0.000000 0.000000 1.907960 
# 
# From -- ./inp_files/27023.got.cif
#   From: 2010.03.12/outbox.cif.g09.slc.cpg/sg24_14_cif.got.tgz:27023.got - 2010.04.14 03:06:53.
