data_PCOD8165919
_publ_section_title
;
Structure prediction by ZEFSAII (Michael W. Deem and Ramdas Pophale) SiO2 
 PCOD8165919
Probable space group: I 21 21 21
;
_chemical_formula_sum "Si O2"
_cell_formula_units_Z 28
_cell_length_a 11.509357
_cell_length_b 9.258417
_cell_length_c 12.048743
_cell_angle_alpha 90.000000
_cell_angle_beta 90.000000
_cell_angle_gamma 90.000000
_cell_volume 1283.895095
_symmetry_space_group_name_H-M "I 21 21 21"
_symmetry_group_IT_number 24
_symmetry_cell_setting 'orthorhombic'
loop_
_space_group_symop_operation_xyz
x,y,z
-x,1/2-y,z
x,-y,1/2-z
1/2-x,y,-z
1/2+x,1/2+y,1/2+z
1/2-x,-y,1/2+z
1/2+x,1/2-y,-z
-x,1/2+y,1/2-z
loop_
_atom_site_type_symbol
_atom_site_label
_atom_site_fract_x
_atom_site_fract_y
_atom_site_fract_z
Si Si1 0.110109 0.831235 0.266420
Si Si2 0.960741 0.974625 0.872996
Si Si3 0.315607 0.205136 0.392235
Si Si4 0.500000 0.750000 0.520496
O O1 0.229248 0.775698 0.212175
O O2 0.107809 0.796598 0.399071
O O3 0.000000 0.750000 0.208481
O O4 0.093332 0.000000 0.250000
O O5 0.875704 0.855928 0.926453
O O6 0.091091 0.915524 0.860629
O O7 0.912381 0.000000 0.750000
O O8 0.956473 0.119491 0.944445
O O9 0.250000 0.146068 0.500000
#
# Coordination Sequence:
#
# PCOD8165919 Si02
#       4
#     8   8   8   4
#     4  10  24  43  75  99 138 182 252 285 343 416
#     4  11  25  45  65 101 137 177 223 295 361 411
#     4  11  25  42  70  94 139 180 226 286 356 412
#     4  10  24  44  74 100 136 186 246 286 346 434
#
# _framework density 21.808636
#
# number of rings (size 3 to 8) (size 9 to 14) (size 15 to 20)
#    0.857    0.571    0.000    4.286    8.000    3.429 
#    0.000    7.143    0.000    0.000    0.000    0.000 
#    0.000    0.000    0.000    0.000    0.000    0.000 
#
# Total GULP energy -173582.364917 kJ/mol
# GULP energy per Si atom -12398.740351 kJ/mol
# Density = 2.175900 g / cm^3
# Si number density = 21.808636 Si / 1000 Ang^3
#
#
#
# Elastic Constant Matrix: (Units=GPa)
#
#
# Indices 1 2 3 4 5 6 
#
# 1 107.2389 48.5665 29.8663 0.0000 0.0000 0.0000
# 2 48.5665 159.7873 50.3562 0.0000 0.0000 0.0000
# 3 29.8663 50.3562 134.8825 0.0000 0.0000 0.0000
# 4 0.0000 0.0000 0.0000 40.1238 0.0000 0.0000
# 5 0.0000 0.0000 0.0000 0.0000 28.1550 0.0000
# 6 0.0000 0.0000 0.0000 0.0000 0.0000 20.2076
#
#
#
# Elastic Compliance Matrix: (Units=1/GPa)
#
#
# Indices 1 2 3 4 5 6 
#
# 1 0.011026 -0.002926 -0.001349 0.000000 0.000000 0.000000
# 2 -0.002926 0.007869 -0.002290 0.000000 0.000000 0.000000
# 3 -0.001349 -0.002290 0.008567 0.000000 0.000000 0.000000
# 4 0.000000 0.000000 0.000000 0.024923 0.000000 0.000000
# 5 0.000000 0.000000 0.000000 0.000000 0.035518 0.000000
# 6 0.000000 0.000000 0.000000 0.000000 0.000000 0.049486
#
#
# Mechanical properties :
#
#
# Convention : Reuss Voigt Hill
#
# Bulk Modulus (GPa) = 69.77130 73.27630 71.52380
# Shear Modulus (GPa) = 32.19632 35.90525 34.05079
#
# Velocity S-wave (km/s) = 3.84645 4.06196 3.95567
# Velocity P-wave (km/s) = 7.19645 7.46137 7.33010
#
# Compressibility (1/GPa) = 0.01433254
#
# Stress axis : x y z
#
# Youngs Moduli (GPa) = 90.69590 127.07479 116.72034
#
# Poissons Ratio (x) = 0.37184 0.15745
# Poissons Ratio (y) = 0.26539 0.26729
# Poissons Ratio (z) = 0.12235 0.29100
#
# Static dielectric constant tensor:
#      x y z
#    x 3.891040 0.000000 0.000000 
#    y 0.000000 3.948610 0.000000 
#    z 0.000000 0.000000 3.916020 
# 
# 
# High freq. dielectric constant tensor:
#      x y z
#    x 1.850740 0.000000 0.000000 
#    y 0.000000 1.866250 0.000000 
#    z 0.000000 0.000000 1.860010 
# 
# From -- ./inp_files/11857.got.cif
#   From: 2010.03.12/outbox.cif.g09.slc.cpg/sg24_6_cif.got.tgz:11857.got - 2010.04.14 03:06:53.
