data_PCOD8165788
_publ_section_title
;
Structure prediction by ZEFSAII (Michael W. Deem and Ramdas Pophale) SiO2 
 PCOD8165788
Probable space group: I 21 21 21
;
_chemical_formula_sum "Si O2"
_cell_formula_units_Z 36
_cell_length_a 14.017461
_cell_length_b 4.948584
_cell_length_c 22.330616
_cell_angle_alpha 90.000000
_cell_angle_beta 90.000000
_cell_angle_gamma 90.000000
_cell_volume 1548.998533
_symmetry_space_group_name_H-M "I 21 21 21"
_symmetry_group_IT_number 24
_symmetry_cell_setting 'orthorhombic'
loop_
_space_group_symop_operation_xyz
x,y,z
-x,1/2-y,z
x,-y,1/2-z
1/2-x,y,-z
1/2+x,1/2+y,1/2+z
1/2-x,-y,1/2+z
1/2+x,1/2-y,-z
-x,1/2+y,1/2-z
loop_
_atom_site_type_symbol
_atom_site_label
_atom_site_fract_x
_atom_site_fract_y
_atom_site_fract_z
Si Si1 0.115152 0.530215 0.318251
Si Si2 0.000000 0.750000 0.093909
Si Si3 0.397697 0.168091 0.088344
Si Si4 0.258821 0.980738 0.818189
Si Si5 0.641657 0.811680 0.010460
O O1 0.081326 0.500000 0.250000
O O2 0.021733 0.496139 0.360129
O O3 0.150914 0.830450 0.329988
O O4 0.203151 0.320466 0.333123
O O5 0.094312 0.741412 0.053818
O O6 0.500000 0.250000 0.116216
O O7 0.325828 0.096750 0.141242
O O8 0.362318 0.390093 0.039652
O O9 0.414089 0.891786 0.053215
O O10 0.221851 0.000000 0.750000
O O11 0.750000 0.724997 0.000000
#
# Coordination Sequence:
#
# PCOD8165788 Si02
#       5
#     8   4   8   8   8
#     4  10  24  42  66  98 133 172 227 288 344 422
#     4  12  24  44  68 100 134 186 234 280 362 426
#     4  12  23  44  64  99 137 176 232 299 336 420
#     4  10  22  44  68  95 133 179 225 282 356 412
#     4  12  26  43  66  97 139 186 232 287 357 422
#
# _framework density 23.240821
#
# number of rings (size 3 to 8) (size 9 to 14) (size 15 to 20)
#    0.000    0.889    2.222    4.667    0.000    7.111 
#    0.000    5.556    0.000    0.000    0.000    0.000 
#    0.000    0.000    0.000    0.000    0.000    0.000 
#
# Total GULP energy -223027.433014 kJ/mol
# GULP energy per Si atom -12390.412945 kJ/mol
# Density = 2.318792 g / cm^3
# Si number density = 23.240821 Si / 1000 Ang^3
#
#
#
# Elastic Constant Matrix: (Units=GPa)
#
#
# Indices 1 2 3 4 5 6 
#
# 1 121.9680 29.1848 69.8366 0.0000 0.0000 0.0000
# 2 29.1848 87.0371 33.3574 0.0000 0.0000 0.0000
# 3 69.8366 33.3574 157.3134 0.0000 0.0000 0.0000
# 4 0.0000 0.0000 0.0000 32.5708 0.0000 0.0000
# 5 0.0000 0.0000 0.0000 0.0000 34.6823 0.0000
# 6 0.0000 0.0000 0.0000 0.0000 0.0000 36.3692
#
#
#
# Elastic Compliance Matrix: (Units=1/GPa)
#
#
# Indices 1 2 3 4 5 6 
#
# 1 0.011315 -0.002034 -0.004592 0.000000 0.000000 0.000000
# 2 -0.002034 0.012871 -0.001826 0.000000 0.000000 0.000000
# 3 -0.004592 -0.001826 0.008782 0.000000 0.000000 0.000000
# 4 0.000000 0.000000 0.000000 0.030702 0.000000 0.000000
# 5 0.000000 0.000000 0.000000 0.000000 0.028833 0.000000
# 6 0.000000 0.000000 0.000000 0.000000 0.000000 0.027496
#
#
# Mechanical properties :
#
#
# Convention : Reuss Voigt Hill
#
# Bulk Modulus (GPa) = 62.24999 70.11954 66.18477
# Shear Modulus (GPa) = 35.14725 36.32045 35.73385
#
# Velocity S-wave (km/s) = 3.89306 3.95750 3.92541
# Velocity P-wave (km/s) = 6.85936 7.14974 7.00605
#
# Compressibility (1/GPa) = 0.01606426
#
# Stress axis : x y z
#
# Youngs Moduli (GPa) = 88.38058 77.69182 113.86471
#
# Poissons Ratio (x) = 0.15804 0.52282
# Poissons Ratio (y) = 0.17979 0.20794
# Poissons Ratio (z) = 0.40581 0.14188
#
# Static dielectric constant tensor:
#      x y z
#    x 4.096710 0.000000 0.000000 
#    y 0.000000 4.313100 0.000000 
#    z 0.000000 0.000000 4.613350 
# 
# 
# High freq. dielectric constant tensor:
#      x y z
#    x 1.920440 0.000000 0.000000 
#    y 0.000000 1.930760 0.000000 
#    z 0.000000 0.000000 1.927500 
# 
# From -- ./inp_files/33576.got.cif
#   From: 2010.03.12/outbox.cif.g09.slc.cpg/sg24_17_cif.got.tgz:33576.got - 2010.04.14 03:06:53.
