data_PCOD8165132
_publ_section_title
;
Structure prediction by ZEFSAII (Michael W. Deem and Ramdas Pophale) SiO2 
 PCOD8165132
Probable space group: I 21 21 21
;
_chemical_formula_sum "Si O2"
_cell_formula_units_Z 64
_cell_length_a 15.992257
_cell_length_b 8.150214
_cell_length_c 24.432635
_cell_angle_alpha 90.000000
_cell_angle_beta 90.000000
_cell_angle_gamma 90.000000
_cell_volume 3184.557388
_symmetry_space_group_name_H-M "I 21 21 21"
_symmetry_group_IT_number 24
_symmetry_cell_setting 'orthorhombic'
loop_
_space_group_symop_operation_xyz
x,y,z
-x,1/2-y,z
x,-y,1/2-z
1/2-x,y,-z
1/2+x,1/2+y,1/2+z
1/2-x,-y,1/2+z
1/2+x,1/2-y,-z
-x,1/2+y,1/2-z
loop_
_atom_site_type_symbol
_atom_site_label
_atom_site_fract_x
_atom_site_fract_y
_atom_site_fract_z
Si Si1 0.145116 0.658840 0.654633
Si Si2 0.310597 0.900138 0.837025
Si Si3 0.411906 0.687127 0.123327
Si Si4 0.250571 0.703137 0.059474
Si Si5 0.225655 0.338471 0.059026
Si Si6 0.862872 0.506505 0.687319
Si Si7 0.094020 0.804694 0.365060
Si Si8 0.698887 0.173604 0.769367
O O1 0.087631 0.492710 0.653674
O O2 0.195013 0.673820 0.598418
O O3 0.206517 0.658283 0.707519
O O4 0.092587 0.831097 0.660666
O O5 0.294184 0.799531 0.892101
O O6 0.236673 0.033561 0.825548
O O7 0.311900 0.793504 0.782321
O O8 0.395564 0.002037 0.848962
O O9 0.500000 0.750000 0.099495
O O10 0.347958 0.677213 0.073467
O O11 0.386425 0.828018 0.165696
O O12 0.201720 0.530752 0.053676
O O13 0.250000 0.793358 0.000000
O O14 0.146526 0.235568 0.080207
O O15 0.250000 0.264679 0.000000
O O16 0.886191 0.500000 0.750000
O O17 0.130227 0.704889 0.314891
O O18 0.000000 0.750000 0.376166
O O19 0.668873 0.000000 0.750000
#
# Coordination Sequence:
#
# PCOD8165132 Si02
#       8
#     8   8   8   8   8   8   8   8
#     4  10  20  35  61  86 115 162 205 249 294 361
#     4  11  19  36  60  88 120 155 209 253 291 367
#     4  10  23  40  56  90 127 154 192 256 317 363
#     4   9  20  40  66  85 107 156 209 253 298 362
#     4   9  18  38  62  81 113 154 208 249 296 364
#     4  11  19  36  59  85 115 160 207 241 286 365
#     4  11  23  37  55  89 129 157 191 252 316 363
#     4  11  20  35  60  88 117 165 210 243 295 362
#
# _framework density 20.096983999999999
#
# number of rings (size 3 to 8) (size 9 to 14) (size 15 to 20)
#    0.000    1.750    3.750    3.375    0.000    2.000 
#    2.250    5.625    0.000    0.000    0.000    0.000 
#    0.000    0.000    0.000    0.000    0.000    0.000 
#
# Total GULP energy -396464.148977 kJ/mol
# GULP energy per Si atom -12389.504656 kJ/mol
# Density = 2.005124 g / cm^3
# Si number density = 20.096984 Si / 1000 Ang^3
#
#
#
# Elastic Constant Matrix: (Units=GPa)
#
#
# Indices 1 2 3 4 5 6 
#
# 1 66.2099 31.2053 22.1644 0.0000 0.0000 0.0000
# 2 31.2053 134.1452 41.1690 0.0000 0.0000 0.0000
# 3 22.1644 41.1690 135.4290 0.0000 0.0000 0.0000
# 4 0.0000 0.0000 0.0000 10.5327 0.0000 0.0000
# 5 0.0000 0.0000 0.0000 0.0000 12.1493 0.0000
# 6 0.0000 0.0000 0.0000 0.0000 0.0000 25.2069
#
#
#
# Elastic Compliance Matrix: (Units=1/GPa)
#
#
# Indices 1 2 3 4 5 6 
#
# 1 0.017343 -0.003489 -0.001778 0.000000 0.000000 0.000000
# 2 -0.003489 0.008923 -0.002142 0.000000 0.000000 0.000000
# 3 -0.001778 -0.002142 0.008326 0.000000 0.000000 0.000000
# 4 0.000000 0.000000 0.000000 0.094942 0.000000 0.000000
# 5 0.000000 0.000000 0.000000 0.000000 0.082309 0.000000
# 6 0.000000 0.000000 0.000000 0.000000 0.000000 0.039672
#
#
# Mechanical properties :
#
#
# Convention : Reuss Voigt Hill
#
# Bulk Modulus (GPa) = 50.56675 58.31796 54.44236
# Shear Modulus (GPa) = 18.32016 25.66082 21.99049
#
# Velocity S-wave (km/s) = 3.02253 3.57718 3.31149
# Velocity P-wave (km/s) = 6.11530 6.79285 6.46296
#
# Compressibility (1/GPa) = 0.01977584
#
# Stress axis : x y z
#
# Youngs Moduli (GPa) = 57.66043 112.06430 120.10652
#
# Poissons Ratio (x) = 0.39097 0.21353
# Poissons Ratio (y) = 0.20116 0.25723
# Poissons Ratio (z) = 0.10251 0.24000
#
# Static dielectric constant tensor:
#      x y z
#    x 3.452160 0.000000 0.000000 
#    y 0.000000 4.052510 0.000000 
#    z 0.000000 0.000000 3.699610 
# 
# 
# High freq. dielectric constant tensor:
#      x y z
#    x 1.738820 0.000000 0.000000 
#    y 0.000000 1.807520 0.000000 
#    z 0.000000 0.000000 1.787350 
# 
# From -- ./inp_files/35875.got.cif
#   From: 2010.03.12/outbox.cif.g09.slc.cpg/sg24_18_cif.got.tgz:35875.got - 2010.04.14 03:06:53.
