data_PCOD8165528
_publ_section_title
;
Structure prediction by ZEFSAII (Michael W. Deem and Ramdas Pophale) SiO2 
 PCOD8165528
Probable space group: I 21 21 21
;
_chemical_formula_sum "Si O2"
_cell_formula_units_Z 48
_cell_length_a 7.945891
_cell_length_b 14.570552
_cell_length_c 19.679901
_cell_angle_alpha 90.000000
_cell_angle_beta 90.000000
_cell_angle_gamma 90.000000
_cell_volume 2278.460572
_symmetry_space_group_name_H-M "I 21 21 21"
_symmetry_group_IT_number 24
_symmetry_cell_setting 'orthorhombic'
loop_
_space_group_symop_operation_xyz
x,y,z
-x,1/2-y,z
x,-y,1/2-z
1/2-x,y,-z
1/2+x,1/2+y,1/2+z
1/2-x,-y,1/2+z
1/2+x,1/2-y,-z
-x,1/2+y,1/2-z
loop_
_atom_site_type_symbol
_atom_site_label
_atom_site_fract_x
_atom_site_fract_y
_atom_site_fract_z
Si Si1 0.412042 0.514438 0.961004
Si Si2 0.144645 0.822206 0.062450
Si Si3 0.070066 0.147685 0.671372
Si Si4 0.419063 0.150935 0.036924
Si Si5 0.777363 0.000380 0.673317
Si Si6 0.539923 0.645392 0.318811
O O1 0.561628 0.586774 0.968881
O O2 0.460162 0.419540 0.997856
O O3 0.374039 0.503824 0.880638
O O4 0.250000 0.553898 0.000000
O O5 0.266845 0.855130 0.123203
O O6 0.000000 0.750000 0.087343
O O7 0.250000 0.777410 0.000000
O O8 0.129708 0.117047 0.747825
O O9 0.000000 0.250000 0.668295
O O10 0.916953 0.078436 0.653494
O O11 0.500000 0.250000 0.042981
O O12 0.250000 0.164713 0.000000
O O13 0.360291 0.118221 0.112751
O O14 0.702936 0.000000 0.750000
O O15 0.860347 0.901367 0.669180
O O16 0.500000 0.750000 0.312185
#
# Coordination Sequence:
#
# PCOD8165528 Si02
#       6
#     8   8   8   8   8   8
#     4  12  23  40  65  91 130 166 207 262 314 374
#     4  12  25  41  63  95 128 166 213 268 321 374
#     4  10  21  42  67  91 122 169 212 256 317 384
#     4  11  24  41  64  94 124 163 209 258 313 374
#     4  10  21  40  64  92 126 168 209 257 318 381
#     4   9  20  39  68  88 123 164 209 244 319 380
#
# _framework density 21.066856000000001
#
# number of rings (size 3 to 8) (size 9 to 14) (size 15 to 20)
#    0.000    1.333    1.667    4.000    4.667    0.000 
#    3.000    0.833    0.000    0.000    0.000    0.000 
#    0.000    0.000    0.000    0.000    0.000    0.000 
#
# Total GULP energy -297313.364774 kJ/mol
# GULP energy per Si atom -12388.056866 kJ/mol
# Density = 2.101891 g / cm^3
# Si number density = 21.066856 Si / 1000 Ang^3
#
#
#
# Elastic Constant Matrix: (Units=GPa)
#
#
# Indices 1 2 3 4 5 6 
#
# 1 83.0330 15.1583 53.8770 0.0000 0.0000 0.0000
# 2 15.1583 98.5933 8.6903 0.0000 0.0000 0.0000
# 3 53.8770 8.6903 159.1459 0.0000 0.0000 0.0000
# 4 0.0000 0.0000 0.0000 30.6022 0.0000 0.0000
# 5 0.0000 0.0000 0.0000 0.0000 60.7311 0.0000
# 6 0.0000 0.0000 0.0000 0.0000 0.0000 22.9444
#
#
#
# Elastic Compliance Matrix: (Units=1/GPa)
#
#
# Indices 1 2 3 4 5 6 
#
# 1 0.015805 -0.001968 -0.005243 0.000000 0.000000 0.000000
# 2 -0.001968 0.010437 0.000096 0.000000 0.000000 0.000000
# 3 -0.005243 0.000096 0.008053 0.000000 0.000000 0.000000
# 4 0.000000 0.000000 0.000000 0.032677 0.000000 0.000000
# 5 0.000000 0.000000 0.000000 0.000000 0.016466 0.000000
# 6 0.000000 0.000000 0.000000 0.000000 0.000000 0.043584
#
#
# Mechanical properties :
#
#
# Convention : Reuss Voigt Hill
#
# Bulk Modulus (GPa) = 49.83662 55.13592 52.48627
# Shear Modulus (GPa) = 33.79766 40.39198 37.09482
#
# Velocity S-wave (km/s) = 4.00972 4.38348 4.20076
# Velocity P-wave (km/s) = 6.71900 7.20059 6.96396
#
# Compressibility (1/GPa) = 0.02006557
#
# Stress axis : x y z
#
# Youngs Moduli (GPa) = 63.27260 95.81546 124.17351
#
# Poissons Ratio (x) = 0.18854 0.65104
# Poissons Ratio (y) = 0.12450 -0.01195
# Poissons Ratio (z) = 0.33174 -0.00922
#
# Static dielectric constant tensor:
#      x y z
#    x 2.679400 0.000000 0.000000 
#    y 0.000000 3.613640 0.000000 
#    z 0.000000 0.000000 4.511840 
# 
# 
# High freq. dielectric constant tensor:
#      x y z
#    x 1.793770 0.000000 0.000000 
#    y 0.000000 1.838890 0.000000 
#    z 0.000000 0.000000 1.853130 
# 
# From -- ./inp_files/29484.got.cif
#   From: 2010.03.12/outbox.cif.g09.slc.cpg/sg24_15_cif.got.tgz:29484.got - 2010.04.14 03:06:53.
