data_PCOD8165497
_publ_section_title
;
Structure prediction by ZEFSAII (Michael W. Deem and Ramdas Pophale) SiO2 
 PCOD8165497
Probable space group: I 21 21 21
;
_chemical_formula_sum "Si O2"
_cell_formula_units_Z 60
_cell_length_a 13.315905
_cell_length_b 7.830921
_cell_length_c 25.621654
_cell_angle_alpha 90.000000
_cell_angle_beta 90.000000
_cell_angle_gamma 90.000000
_cell_volume 2671.718471
_symmetry_space_group_name_H-M "I 21 21 21"
_symmetry_group_IT_number 24
_symmetry_cell_setting 'orthorhombic'
loop_
_space_group_symop_operation_xyz
x,y,z
-x,1/2-y,z
x,-y,1/2-z
1/2-x,y,-z
1/2+x,1/2+y,1/2+z
1/2-x,-y,1/2+z
1/2+x,1/2-y,-z
-x,1/2+y,1/2-z
loop_
_atom_site_type_symbol
_atom_site_label
_atom_site_fract_x
_atom_site_fract_y
_atom_site_fract_z
Si Si1 0.429712 0.391178 0.620418
Si Si2 0.286083 0.854722 0.558370
Si Si3 0.613017 0.304272 0.136559
Si Si4 0.500000 0.250000 0.903244
Si Si5 0.612529 0.704368 0.145690
Si Si6 0.606455 0.810007 0.764518
Si Si7 0.737253 0.248321 0.560377
Si Si8 0.685404 0.307752 0.245200
O O1 0.500000 0.250000 0.593097
O O2 0.479506 0.577854 0.630819
O O3 0.393731 0.298702 0.673217
O O4 0.338180 0.398777 0.580173
O O5 0.250000 0.823116 0.500000
O O6 0.202231 0.760479 0.595234
O O7 0.398405 0.777195 0.563477
O O8 0.297155 0.056410 0.570373
O O9 0.500000 0.250000 0.117928
O O10 0.624020 0.503360 0.145255
O O11 0.636869 0.219052 0.193534
O O12 0.500000 0.750000 0.138405
O O13 0.664090 0.786340 0.094853
O O14 0.653384 0.785049 0.200571
O O15 0.500000 0.750000 0.740563
O O16 0.693414 0.692573 0.740169
O O17 0.633460 0.000000 0.750000
O O18 0.750000 0.209441 0.500000
O O19 0.646339 0.500000 0.250000
#
# Coordination Sequence:
#
# PCOD8165497 Si02
#       8
#     8   8   8   4   8   8   8   8
#     4  11  24  44  67  99 136 178 222 285 341 408
#     4  10  24  44  68 101 140 181 228 293 346 411
#     4  10  23  40  65  95 133 175 223 283 337 409
#     4  12  26  42  76 102 138 186 236 280 354 420
#     4  10  21  39  63  94 131 170 220 280 340 407
#     4  11  25  39  62  94 132 170 220 278 340 410
#     4  10  21  44  68  97 134 178 231 281 349 410
#     4  10  21  40  65  91 128 174 218 276 340 407
#
# _framework density 22.457456000000001
#
# number of rings (size 3 to 8) (size 9 to 14) (size 15 to 20)
#    0.000    1.600    2.667    0.800    3.733    3.200 
#    2.400    0.000    0.000    0.000    0.000    0.000 
#    0.000    0.000    0.000    0.000    0.000    0.000 
#
# Total GULP energy -371723.603602 kJ/mol
# GULP energy per Si atom -12390.786787 kJ/mol
# Density = 2.240634 g / cm^3
# Si number density = 22.457456 Si / 1000 Ang^3
#
#
#
# Elastic Constant Matrix: (Units=GPa)
#
#
# Indices 1 2 3 4 5 6 
#
# 1 175.4840 18.1083 69.0581 0.0000 0.0000 0.0000
# 2 18.1083 50.8687 10.2885 0.0000 0.0000 0.0000
# 3 69.0581 10.2885 136.9001 0.0000 0.0000 0.0000
# 4 0.0000 0.0000 0.0000 15.6974 0.0000 0.0000
# 5 0.0000 0.0000 0.0000 0.0000 28.7253 0.0000
# 6 0.0000 0.0000 0.0000 0.0000 0.0000 38.6731
#
#
#
# Elastic Compliance Matrix: (Units=1/GPa)
#
#
# Indices 1 2 3 4 5 6 
#
# 1 0.007282 -0.001878 -0.003532 0.000000 0.000000 0.000000
# 2 -0.001878 0.020446 -0.000589 0.000000 0.000000 0.000000
# 3 -0.003532 -0.000589 0.009131 0.000000 0.000000 0.000000
# 4 0.000000 0.000000 0.000000 0.063705 0.000000 0.000000
# 5 0.000000 0.000000 0.000000 0.000000 0.034813 0.000000
# 6 0.000000 0.000000 0.000000 0.000000 0.000000 0.025858
#
#
# Mechanical properties :
#
#
# Convention : Reuss Voigt Hill
#
# Bulk Modulus (GPa) = 40.22517 62.01807 51.12162
# Shear Modulus (GPa) = 27.54511 34.33903 30.94207
#
# Velocity S-wave (km/s) = 3.50601 3.91457 3.71591
# Velocity P-wave (km/s) = 5.86004 6.93597 6.42058
#
# Compressibility (1/GPa) = 0.02486006
#
# Stress axis : x y z
#
# Youngs Moduli (GPa) = 137.31694 48.90893 109.51966
#
# Poissons Ratio (x) = 0.09185 0.38687
# Poissons Ratio (y) = 0.25788 0.06454
# Poissons Ratio (z) = 0.48506 0.02882
#
# Static dielectric constant tensor:
#      x y z
#    x 4.081890 0.000000 0.000000 
#    y 0.000000 4.178310 0.000000 
#    z 0.000000 0.000000 4.177920 
# 
# 
# High freq. dielectric constant tensor:
#      x y z
#    x 1.894300 0.000000 0.000000 
#    y 0.000000 1.869030 0.000000 
#    z 0.000000 0.000000 1.880510 
# 
# From -- ./inp_files/37227.got.cif
#   From: 2010.03.12/outbox.cif.g09.slc.cpg/sg24_19_cif.got.tgz:37227.got - 2010.04.14 03:06:53.
