data_PCOD8165019
_publ_section_title
;
Structure prediction by ZEFSAII (Michael W. Deem and Ramdas Pophale) SiO2 
 PCOD8165019
Probable space group: I 21 21 21
;
_chemical_formula_sum "Si O2"
_cell_formula_units_Z 56
_cell_length_a 21.609945
_cell_length_b 14.107138
_cell_length_c 8.301465
_cell_angle_alpha 90.000000
_cell_angle_beta 90.000000
_cell_angle_gamma 90.000000
_cell_volume 2530.738765
_symmetry_space_group_name_H-M "I 21 21 21"
_symmetry_group_IT_number 24
_symmetry_cell_setting 'orthorhombic'
loop_
_space_group_symop_operation_xyz
x,y,z
-x,1/2-y,z
x,-y,1/2-z
1/2-x,y,-z
1/2+x,1/2+y,1/2+z
1/2-x,-y,1/2+z
1/2+x,1/2-y,-z
-x,1/2+y,1/2-z
loop_
_atom_site_type_symbol
_atom_site_label
_atom_site_fract_x
_atom_site_fract_y
_atom_site_fract_z
Si Si1 0.702702 0.756583 0.722496
Si Si2 0.161542 0.242017 0.863053
Si Si3 0.902567 0.552547 0.591536
Si Si4 0.930018 0.213039 0.615618
Si Si5 0.515371 0.603663 0.677507
Si Si6 0.622985 0.370323 0.593858
Si Si7 0.104426 0.604844 0.184589
O O1 0.675398 0.770588 0.544872
O O2 0.776232 0.764081 0.737587
O O3 0.684575 0.656209 0.805865
O O4 0.669372 0.840658 0.820284
O O5 0.148649 0.129036 0.860899
O O6 0.104160 0.303630 0.788998
O O7 0.927396 0.500000 0.750000
O O8 0.962428 0.601550 0.508263
O O9 0.873169 0.479514 0.461375
O O10 0.888058 0.301366 0.555966
O O11 0.924368 0.120415 0.498244
O O12 0.000000 0.250000 0.639202
O O13 0.502251 0.500000 0.750000
O O14 0.566647 0.653946 0.785798
O O15 0.447926 0.653375 0.696832
O O16 0.118975 0.500000 0.250000
#
# Coordination Sequence:
#
# PCOD8165019 Si02
#       7
#     8   8   8   8   8   8   8
#     4  10  24  44  60  88 133 177 228 262 330 397
#     4  11  24  43  58  92 136 172 218 279 318 391
#     4  11  21  38  60  98 138 169 215 271 327 389
#     4  11  22  39  67  98 134 163 214 281 339 392
#     4   9  18  34  61  92 127 165 211 265 321 396
#     4  10  19  38  62  89 126 177 207 262 320 402
#     4  10  22  42  70  96 121 173 227 272 332 410
#
# _framework density 22.127925999999999
#
# number of rings (size 3 to 8) (size 9 to 14) (size 15 to 20)
#    0.000    1.714    4.286    0.000    0.000    3.429 
#    5.143    3.571    0.000    0.000    0.000    0.000 
#    0.000    0.000    0.000    0.000    0.000    0.000 
#
# Total GULP energy -346890.011434 kJ/mol
# GULP energy per Si atom -12388.928980 kJ/mol
# Density = 2.207756 g / cm^3
# Si number density = 22.127926 Si / 1000 Ang^3
#
#
#
# Elastic Constant Matrix: (Units=GPa)
#
#
# Indices 1 2 3 4 5 6 
#
# 1 135.3554 28.1482 49.3597 0.0000 0.0000 0.0000
# 2 28.1482 68.9600 21.6637 0.0000 0.0000 0.0000
# 3 49.3597 21.6637 89.2371 0.0000 0.0000 0.0000
# 4 0.0000 0.0000 0.0000 35.7976 0.0000 0.0000
# 5 0.0000 0.0000 0.0000 0.0000 35.4314 0.0000
# 6 0.0000 0.0000 0.0000 0.0000 0.0000 23.3523
#
#
#
# Elastic Compliance Matrix: (Units=1/GPa)
#
#
# Indices 1 2 3 4 5 6 
#
# 1 0.009620 -0.002441 -0.004728 0.000000 0.000000 0.000000
# 2 -0.002441 0.016318 -0.002611 0.000000 0.000000 0.000000
# 3 -0.004728 -0.002611 0.014455 0.000000 0.000000 0.000000
# 4 0.000000 0.000000 0.000000 0.027935 0.000000 0.000000
# 5 0.000000 0.000000 0.000000 0.000000 0.028224 0.000000
# 6 0.000000 0.000000 0.000000 0.000000 0.000000 0.042822
#
#
# Mechanical properties :
#
#
# Convention : Reuss Voigt Hill
#
# Bulk Modulus (GPa) = 48.00374 54.65509 51.32942
# Shear Modulus (GPa) = 30.14238 31.87499 31.00868
#
# Velocity S-wave (km/s) = 3.69479 3.79949 3.74750
# Velocity P-wave (km/s) = 6.32003 6.63336 6.47859
#
# Compressibility (1/GPa) = 0.02083171
#
# Stress axis : x y z
#
# Youngs Moduli (GPa) = 103.95088 61.28236 69.17825
#
# Poissons Ratio (x) = 0.14961 0.32710
# Poissons Ratio (y) = 0.25377 0.18063
# Poissons Ratio (z) = 0.49152 0.16001
#
# Static dielectric constant tensor:
#      x y z
#    x 4.047200 0.000000 0.000000 
#    y 0.000000 3.792300 0.000000 
#    z 0.000000 0.000000 4.186060 
# 
# 
# High freq. dielectric constant tensor:
#      x y z
#    x 1.861130 0.000000 0.000000 
#    y 0.000000 1.843420 0.000000 
#    z 0.000000 0.000000 1.877660 
# 
# From -- ./inp_files/15271.got.cif
#   From: 2010.03.12/outbox.cif.g09.slc.cpg/sg24_8_cif.got.tgz:15271.got - 2010.04.14 03:06:53.
