data_PCOD8165690
_publ_section_title
;
Structure prediction by ZEFSAII (Michael W. Deem and Ramdas Pophale) SiO2 
 PCOD8165690
Probable space group: I 21 21 21
;
_chemical_formula_sum "Si O2"
_cell_formula_units_Z 32
_cell_length_a 12.820418
_cell_length_b 14.798737
_cell_length_c 7.406474
_cell_angle_alpha 90.000000
_cell_angle_beta 90.000000
_cell_angle_gamma 90.000000
_cell_volume 1405.200643
_symmetry_space_group_name_H-M "I 21 21 21"
_symmetry_group_IT_number 24
_symmetry_cell_setting 'orthorhombic'
loop_
_space_group_symop_operation_xyz
x,y,z
-x,1/2-y,z
x,-y,1/2-z
1/2-x,y,-z
1/2+x,1/2+y,1/2+z
1/2-x,-y,1/2+z
1/2+x,1/2-y,-z
-x,1/2+y,1/2-z
loop_
_atom_site_type_symbol
_atom_site_label
_atom_site_fract_x
_atom_site_fract_y
_atom_site_fract_z
Si Si1 0.960495 0.606909 0.576821
Si Si2 0.880111 0.835965 0.308384
Si Si3 0.445627 0.417021 0.445674
Si Si4 0.750000 0.691649 0.500000
Si Si5 0.250000 0.482635 0.000000
O O1 0.837820 0.627513 0.585592
O O2 0.020197 0.672714 0.438970
O O3 0.977251 0.502412 0.515411
O O4 0.009622 0.632794 0.770714
O O5 0.802274 0.751294 0.339148
O O6 0.813333 0.925195 0.351826
O O7 0.930692 0.154298 0.390842
O O8 0.331708 0.454638 0.393490
#
# Coordination Sequence:
#
# PCOD8165690 Si02
#       5
#     8   8   8   4   4
#     4  10  22  43  66 100 139 177 240 291 340 429
#     4  10  22  40  66  98 139 176 226 291 353 424
#     4  10  22  39  69 103 128 180 239 286 335 429
#     4  11  24  44  68  98 149 194 216 299 384 406
#     4   9  18  32  68 104 125 166 230 287 340 398
#
# _framework density 22.772548
#
# number of rings (size 3 to 8) (size 9 to 14) (size 15 to 20)
#    0.000    2.000    0.000    3.750   17.500    0.000 
#    9.000    7.500    5.500    0.000    0.000    0.000 
#    0.000    0.000    0.000    0.000    0.000    0.000 
#
# Total GULP energy -198301.595605 kJ/mol
# GULP energy per Si atom -12393.849725 kJ/mol
# Density = 2.272072 g / cm^3
# Si number density = 22.772548 Si / 1000 Ang^3
#
#
#
# Elastic Constant Matrix: (Units=GPa)
#
#
# Indices 1 2 3 4 5 6 
#
# 1 186.7783 45.8640 61.1232 0.0000 0.0000 0.0000
# 2 45.8640 57.5749 30.3230 0.0000 0.0000 0.0000
# 3 61.1232 30.3230 153.1240 0.0000 0.0000 0.0000
# 4 0.0000 0.0000 0.0000 10.3968 0.0000 0.0000
# 5 0.0000 0.0000 0.0000 0.0000 26.5462 0.0000
# 6 0.0000 0.0000 0.0000 0.0000 0.0000 27.3547
#
#
#
# Elastic Compliance Matrix: (Units=1/GPa)
#
#
# Indices 1 2 3 4 5 6 
#
# 1 0.007129 -0.004667 -0.001921 0.000000 0.000000 0.000000
# 2 -0.004667 0.022446 -0.002582 0.000000 0.000000 0.000000
# 3 -0.001921 -0.002582 0.007809 0.000000 0.000000 0.000000
# 4 0.000000 0.000000 0.000000 0.096183 0.000000 0.000000
# 5 0.000000 0.000000 0.000000 0.000000 0.037670 0.000000
# 6 0.000000 0.000000 0.000000 0.000000 0.000000 0.036557
#
#
# Mechanical properties :
#
#
# Convention : Reuss Voigt Hill
#
# Bulk Modulus (GPa) = 52.51229 74.67752 63.59491
# Shear Modulus (GPa) = 21.50702 30.20401 25.85552
#
# Velocity S-wave (km/s) = 3.07649 3.64584 3.37320
# Velocity P-wave (km/s) = 5.97739 7.11244 6.56948
#
# Compressibility (1/GPa) = 0.01904316
#
# Stress axis : x y z
#
# Youngs Moduli (GPa) = 140.27896 44.55119 128.05762
#
# Poissons Ratio (x) = 0.20791 0.24605
# Poissons Ratio (y) = 0.65464 0.33066
# Poissons Ratio (z) = 0.26954 0.11504
#
# Static dielectric constant tensor:
#      x y z
#    x 4.217090 0.000000 0.000000 
#    y 0.000000 3.812600 0.000000 
#    z 0.000000 0.000000 3.919890 
# 
# 
# High freq. dielectric constant tensor:
#      x y z
#    x 1.904700 0.000000 0.000000 
#    y 0.000000 1.878620 0.000000 
#    z 0.000000 0.000000 1.889580 
# 
# From -- ./inp_files/10312.got.cif
#   From: 2010.03.12/outbox.cif.g09.slc.cpg/sg24_6_cif.got.tgz:10312.got - 2010.04.14 03:06:53.
