data_PCOD8165257
_publ_section_title
;
Structure prediction by ZEFSAII (Michael W. Deem and Ramdas Pophale) SiO2 
 PCOD8165257
Probable space group: I 21 21 21
;
_chemical_formula_sum "Si O2"
_cell_formula_units_Z 48
_cell_length_a 11.188502
_cell_length_b 14.588609
_cell_length_c 13.860926
_cell_angle_alpha 90.000000
_cell_angle_beta 90.000000
_cell_angle_gamma 90.000000
_cell_volume 2262.445224
_symmetry_space_group_name_H-M "I 21 21 21"
_symmetry_group_IT_number 24
_symmetry_cell_setting 'orthorhombic'
loop_
_space_group_symop_operation_xyz
x,y,z
-x,1/2-y,z
x,-y,1/2-z
1/2-x,y,-z
1/2+x,1/2+y,1/2+z
1/2-x,-y,1/2+z
1/2+x,1/2-y,-z
-x,1/2+y,1/2-z
loop_
_atom_site_type_symbol
_atom_site_label
_atom_site_fract_x
_atom_site_fract_y
_atom_site_fract_z
Si Si1 0.783448 0.095156 0.719214
Si Si2 0.029731 0.649938 0.632536
Si Si3 0.682671 0.399222 0.275175
Si Si4 0.134706 0.237492 0.333317
Si Si5 0.065266 0.161342 0.531204
Si Si6 0.385099 0.518702 0.037767
O O1 0.846595 0.148645 0.807026
O O2 0.692511 0.161802 0.665840
O O3 0.886235 0.061089 0.645826
O O4 0.716100 0.000000 0.750000
O O5 0.049695 0.580546 0.542590
O O6 0.000000 0.750000 0.589738
O O7 0.921823 0.621586 0.700913
O O8 0.730881 0.500000 0.250000
O O9 0.793753 0.329659 0.261111
O O10 0.641201 0.389507 0.386736
O O11 0.144264 0.198321 0.442185
O O12 0.000000 0.250000 0.296313
O O13 0.000000 0.250000 0.579003
O O14 0.969856 0.090444 0.481317
O O15 0.250000 0.510750 0.000000
#
# Coordination Sequence:
#
# PCOD8165257 Si02
#       6
#     8   8   8   8   8   8
#     4  10  20  38  64  91 126 163 208 262 327 399
#     4  11  20  39  69  92 118 171 223 271 316 394
#     4  12  21  39  63  93 127 174 224 271 324 407
#     4  11  24  37  57  94 133 173 207 271 341 391
#     4  11  21  36  61  96 137 161 204 269 347 392
#     4  11  21  36  62  98 130 160 209 271 334 395
#
# _framework density 21.215983000000001
#
# number of rings (size 3 to 8) (size 9 to 14) (size 15 to 20)
#    0.000    1.000    5.000    4.500    0.000    2.000 
#    0.000    0.000    3.667    4.000    0.000    0.000 
#    0.000    0.000    0.000    0.000    0.000    0.000 
#
# Total GULP energy -297458.633132 kJ/mol
# GULP energy per Si atom -12394.109714 kJ/mol
# Density = 2.116769 g / cm^3
# Si number density = 21.215983 Si / 1000 Ang^3
#
#
#
# Elastic Constant Matrix: (Units=GPa)
#
#
# Indices 1 2 3 4 5 6 
#
# 1 111.0027 66.3471 24.0248 0.0000 0.0000 0.0000
# 2 66.3471 192.5912 38.8480 0.0000 0.0000 0.0000
# 3 24.0248 38.8480 43.0467 0.0000 0.0000 0.0000
# 4 0.0000 0.0000 0.0000 29.6009 0.0000 0.0000
# 5 0.0000 0.0000 0.0000 0.0000 27.6833 0.0000
# 6 0.0000 0.0000 0.0000 0.0000 0.0000 45.0683
#
#
#
# Elastic Compliance Matrix: (Units=1/GPa)
#
#
# Indices 1 2 3 4 5 6 
#
# 1 0.011774 -0.003338 -0.003559 0.000000 0.000000 0.000000
# 2 -0.003338 0.007294 -0.004720 0.000000 0.000000 0.000000
# 3 -0.003559 -0.004720 0.029476 0.000000 0.000000 0.000000
# 4 0.000000 0.000000 0.000000 0.033783 0.000000 0.000000
# 5 0.000000 0.000000 0.000000 0.000000 0.036123 0.000000
# 6 0.000000 0.000000 0.000000 0.000000 0.000000 0.022189
#
#
# Mechanical properties :
#
#
# Convention : Reuss Voigt Hill
#
# Bulk Modulus (GPa) = 39.50799 67.23115 53.36957
# Shear Modulus (GPa) = 29.01750 34.96521 31.99135
#
# Velocity S-wave (km/s) = 3.70228 4.06403 3.88737
# Velocity P-wave (km/s) = 6.07767 7.33345 6.73489
#
# Compressibility (1/GPa) = 0.02531134
#
# Stress axis : x y z
#
# Youngs Moduli (GPa) = 84.93004 137.09048 33.92584
#
# Poissons Ratio (x) = 0.45767 0.12073
# Poissons Ratio (y) = 0.28353 0.16012
# Poissons Ratio (z) = 0.30223 0.64703
#
# Static dielectric constant tensor:
#      x y z
#    x 3.779740 0.000000 0.000000 
#    y 0.000000 4.391150 0.000000 
#    z 0.000000 0.000000 3.468850 
# 
# 
# High freq. dielectric constant tensor:
#      x y z
#    x 1.825970 0.000000 0.000000 
#    y 0.000000 1.850950 0.000000 
#    z 0.000000 0.000000 1.785460 
# 
# From -- ./inp_files/20739.got.cif
#   From: 2010.03.12/outbox.cif.g09.slc.cpg/sg24_11_cif.got.tgz:20739.got - 2010.04.14 03:06:53.
