data_PCOD8165534
_publ_section_title
;
Structure prediction by ZEFSAII (Michael W. Deem and Ramdas Pophale) SiO2 
 PCOD8165534
Probable space group: I 21 21 21
;
_chemical_formula_sum "Si O2"
_cell_formula_units_Z 56
_cell_length_a 20.110989
_cell_length_b 8.475684
_cell_length_c 13.716964
_cell_angle_alpha 90.000000
_cell_angle_beta 90.000000
_cell_angle_gamma 90.000000
_cell_volume 2338.116700
_symmetry_space_group_name_H-M "I 21 21 21"
_symmetry_group_IT_number 24
_symmetry_cell_setting 'orthorhombic'
loop_
_space_group_symop_operation_xyz
x,y,z
-x,1/2-y,z
x,-y,1/2-z
1/2-x,y,-z
1/2+x,1/2+y,1/2+z
1/2-x,-y,1/2+z
1/2+x,1/2-y,-z
-x,1/2+y,1/2-z
loop_
_atom_site_type_symbol
_atom_site_label
_atom_site_fract_x
_atom_site_fract_y
_atom_site_fract_z
Si Si1 0.254895 0.935145 0.350073
Si Si2 0.333035 0.592618 0.156890
Si Si3 0.571970 0.299938 0.651478
Si Si4 0.569817 0.686391 0.242355
Si Si5 0.888285 0.657082 0.358150
Si Si6 0.866113 0.212552 0.934948
Si Si7 0.712382 0.234595 0.594110
O O1 0.188416 0.838127 0.321272
O O2 0.303125 0.827191 0.414433
O O3 0.289659 0.000000 0.250000
O O4 0.227081 0.079768 0.412336
O O5 0.358494 0.500000 0.250000
O O6 0.377699 0.752750 0.159059
O O7 0.344539 0.472724 0.065946
O O8 0.256355 0.646357 0.176699
O O9 0.500000 0.250000 0.608958
O O10 0.582830 0.482482 0.627340
O O11 0.572652 0.263123 0.767852
O O12 0.633208 0.202389 0.600924
O O13 0.500000 0.750000 0.203752
O O14 0.571723 0.500000 0.250000
O O15 0.580499 0.754919 0.351072
O O16 0.897023 0.752687 0.458734
O O17 0.750000 0.161045 0.500000
#
# Coordination Sequence:
#
# PCOD8165534 Si02
#       7
#     8   8   8   8   8   8   8
#     4  11  18  36  66  95 131 177 233 303 359 424
#     4  10  23  42  61  99 139 172 234 294 360 434
#     4  10  22  44  66  95 141 191 246 304 371 443
#     4  11  23  42  67  97 138 187 229 289 366 435
#     4  10  21  40  64  98 135 186 249 300 364 444
#     4  11  22  37  66  99 138 181 244 302 368 428
#     4  11  22  41  65  95 129 171 234 299 355 426
#
# _framework density 23.950900000000001
#
# number of rings (size 3 to 8) (size 9 to 14) (size 15 to 20)
#    0.000    1.429    2.857    6.429    0.000    1.714 
#    2.571    5.714    0.000    0.000    0.000    0.000 
#    0.000    0.000    0.000    0.000    0.000    0.000 
#
# Total GULP energy -346898.644149 kJ/mol
# GULP energy per Si atom -12389.237291 kJ/mol
# Density = 2.389639 g / cm^3
# Si number density = 23.950900 Si / 1000 Ang^3
#
#
#
# Elastic Constant Matrix: (Units=GPa)
#
#
# Indices 1 2 3 4 5 6 
#
# 1 178.1635 55.9555 34.0810 0.0000 0.0000 0.0000
# 2 55.9555 119.3693 33.4252 0.0000 0.0000 0.0000
# 3 34.0810 33.4252 92.3646 0.0000 0.0000 0.0000
# 4 0.0000 0.0000 0.0000 33.1668 0.0000 0.0000
# 5 0.0000 0.0000 0.0000 0.0000 20.0639 0.0000
# 6 0.0000 0.0000 0.0000 0.0000 0.0000 30.1529
#
#
#
# Elastic Compliance Matrix: (Units=1/GPa)
#
#
# Indices 1 2 3 4 5 6 
#
# 1 0.006764 -0.002750 -0.001500 0.000000 0.000000 0.000000
# 2 -0.002750 0.010440 -0.002763 0.000000 0.000000 0.000000
# 3 -0.001500 -0.002763 0.012380 0.000000 0.000000 0.000000
# 4 0.000000 0.000000 0.000000 0.030151 0.000000 0.000000
# 5 0.000000 0.000000 0.000000 0.000000 0.049841 0.000000
# 6 0.000000 0.000000 0.000000 0.000000 0.000000 0.033164
#
#
# Mechanical properties :
#
#
# Convention : Reuss Voigt Hill
#
# Bulk Modulus (GPa) = 64.28338 70.75787 67.52063
# Shear Modulus (GPa) = 30.87305 34.43911 32.65608
#
# Velocity S-wave (km/s) = 3.59418 3.79608 3.69651
# Velocity P-wave (km/s) = 6.64245 6.98718 6.81699
#
# Compressibility (1/GPa) = 0.01555612
#
# Stress axis : x y z
#
# Youngs Moduli (GPa) = 147.84944 95.78155 80.77370
#
# Poissons Ratio (x) = 0.26344 0.12119
# Poissons Ratio (y) = 0.40665 0.22321
# Poissons Ratio (z) = 0.22183 0.26468
#
# Static dielectric constant tensor:
#      x y z
#    x 4.364800 0.000000 0.000000 
#    y 0.000000 4.456310 0.000000 
#    z 0.000000 0.000000 4.303770 
# 
# 
# High freq. dielectric constant tensor:
#      x y z
#    x 1.943550 0.000000 0.000000 
#    y 0.000000 1.943790 0.000000 
#    z 0.000000 0.000000 1.937850 
# 
# From -- ./inp_files/27533.got.cif
#   From: 2010.03.12/outbox.cif.g09.slc.cpg/sg24_14_cif.got.tgz:27533.got - 2010.04.14 03:06:53.
