data_PCOD8165069
_publ_section_title
;
Structure prediction by ZEFSAII (Michael W. Deem and Ramdas Pophale) SiO2 
 PCOD8165069
Probable space group: I 21 21 21
;
_chemical_formula_sum "Si O2"
_cell_formula_units_Z 40
_cell_length_a 5.355333
_cell_length_b 18.075653
_cell_length_c 19.616610
_cell_angle_alpha 90.000000
_cell_angle_beta 90.000000
_cell_angle_gamma 90.000000
_cell_volume 1898.910231
_symmetry_space_group_name_H-M "I 21 21 21"
_symmetry_group_IT_number 24
_symmetry_cell_setting 'orthorhombic'
loop_
_space_group_symop_operation_xyz
x,y,z
-x,1/2-y,z
x,-y,1/2-z
1/2-x,y,-z
1/2+x,1/2+y,1/2+z
1/2-x,-y,1/2+z
1/2+x,1/2-y,-z
-x,1/2+y,1/2-z
loop_
_atom_site_type_symbol
_atom_site_label
_atom_site_fract_x
_atom_site_fract_y
_atom_site_fract_z
Si Si1 0.544861 0.500000 0.750000
Si Si2 0.500076 0.662840 0.040333
Si Si3 0.252577 0.703173 0.424729
Si Si4 0.186104 0.883735 0.821908
Si Si5 0.797350 0.865607 0.710341
Si Si6 0.500000 0.250000 0.714450
O O1 0.696860 0.533803 0.815208
O O2 0.382767 0.567532 0.725476
O O3 0.500000 0.750000 0.054106
O O4 0.498224 0.620614 0.113710
O O5 0.750000 0.638714 0.000000
O O6 0.250000 0.638489 0.000000
O O7 0.500000 0.750000 0.416900
O O8 0.250000 0.667543 0.500000
O O9 0.297204 0.637206 0.371269
O O10 0.000000 0.750000 0.410574
O O11 0.381038 0.815305 0.832497
O O12 0.061467 0.876661 0.747060
O O13 0.706143 0.786262 0.737572
#
# Coordination Sequence:
#
# PCOD8165069 Si02
#       6
#     4   8   8   8   8   4
#     4  10  26  40  64  86 136 172 230 266 324 376
#     4  10  23  39  65  99 134 166 213 278 342 394
#     4  10  21  38  65 101 131 161 206 269 333 387
#     4  11  23  40  65  95 128 175 219 274 326 393
#     4  11  21  39  63  93 128 169 217 270 321 387
#     4  10  20  32  66  98 122 160 216 268 328 382
#
# _framework density 21.064713999999999
#
# number of rings (size 3 to 8) (size 9 to 14) (size 15 to 20)
#    0.000    1.600    1.000    3.600   12.600    0.000 
#    0.000    0.000    8.800    0.000    0.000    0.000 
#    0.000    0.000    0.000    0.000    0.000    0.000 
#
# Total GULP energy -247828.337356 kJ/mol
# GULP energy per Si atom -12391.416868 kJ/mol
# Density = 2.101677 g / cm^3
# Si number density = 21.064714 Si / 1000 Ang^3
#
#
#
# Elastic Constant Matrix: (Units=GPa)
#
#
# Indices 1 2 3 4 5 6 
#
# 1 113.8662 19.5473 39.5737 0.0000 0.0000 0.0000
# 2 19.5473 81.9523 30.8415 0.0000 0.0000 0.0000
# 3 39.5737 30.8415 146.7348 0.0000 0.0000 0.0000
# 4 0.0000 0.0000 0.0000 16.6490 0.0000 0.0000
# 5 0.0000 0.0000 0.0000 0.0000 31.9991 0.0000
# 6 0.0000 0.0000 0.0000 0.0000 0.0000 16.0934
#
#
#
# Elastic Compliance Matrix: (Units=1/GPa)
#
#
# Indices 1 2 3 4 5 6 
#
# 1 0.009850 -0.001466 -0.002348 0.000000 0.000000 0.000000
# 2 -0.001466 0.013468 -0.002436 0.000000 0.000000 0.000000
# 3 -0.002348 -0.002436 0.007960 0.000000 0.000000 0.000000
# 4 0.000000 0.000000 0.000000 0.060064 0.000000 0.000000
# 5 0.000000 0.000000 0.000000 0.000000 0.031251 0.000000
# 6 0.000000 0.000000 0.000000 0.000000 0.000000 0.062137
#
#
# Mechanical properties :
#
#
# Convention : Reuss Voigt Hill
#
# Bulk Modulus (GPa) = 53.24983 58.05315 55.65149
# Shear Modulus (GPa) = 24.57127 29.78769 27.17948
#
# Velocity S-wave (km/s) = 3.41906 3.76454 3.59595
# Velocity P-wave (km/s) = 6.39693 6.82018 6.61194
#
# Compressibility (1/GPa) = 0.01877940
#
# Stress axis : x y z
#
# Youngs Moduli (GPa) = 101.52247 74.24788 125.62326
#
# Poissons Ratio (x) = 0.10882 0.29502
# Poissons Ratio (y) = 0.14879 0.30597
# Poissons Ratio (z) = 0.23842 0.18084
#
# Static dielectric constant tensor:
#      x y z
#    x 4.063840 0.000000 0.000000 
#    y 0.000000 3.798490 0.000000 
#    z 0.000000 0.000000 3.908640 
# 
# 
# High freq. dielectric constant tensor:
#      x y z
#    x 1.841540 0.000000 0.000000 
#    y 0.000000 1.795120 0.000000 
#    z 0.000000 0.000000 1.823120 
# 
# From -- ./inp_files/4545.got.cif
#   From: 2010.03.12/outbox.cif.g09.slc.cpg/sg24_3_cif.got.tgz:4545.got - 2010.04.14 03:06:53.
