data_PCOD8165907
_publ_section_title
;
Structure prediction by ZEFSAII (Michael W. Deem and Ramdas Pophale) SiO2 
 PCOD8165907
Probable space group: I 21 21 21
;
_chemical_formula_sum "Si O2"
_cell_formula_units_Z 56
_cell_length_a 10.319778
_cell_length_b 15.126974
_cell_length_c 17.112829
_cell_angle_alpha 90.000000
_cell_angle_beta 90.000000
_cell_angle_gamma 90.000000
_cell_volume 2671.432628
_symmetry_space_group_name_H-M "I 21 21 21"
_symmetry_group_IT_number 24
_symmetry_cell_setting 'orthorhombic'
loop_
_space_group_symop_operation_xyz
x,y,z
-x,1/2-y,z
x,-y,1/2-z
1/2-x,y,-z
1/2+x,1/2+y,1/2+z
1/2-x,-y,1/2+z
1/2+x,1/2-y,-z
-x,1/2+y,1/2-z
loop_
_atom_site_type_symbol
_atom_site_label
_atom_site_fract_x
_atom_site_fract_y
_atom_site_fract_z
Si Si1 0.008626 0.146716 0.107595
Si Si2 0.858571 0.769677 0.942227
Si Si3 0.734924 0.925685 0.691565
Si Si4 0.353031 0.747428 0.233762
Si Si5 0.613885 0.446223 0.033721
Si Si6 0.856290 0.973268 0.939871
Si Si7 0.747212 0.581973 0.309072
O O1 0.108249 0.087442 0.157461
O O2 0.000000 0.250000 0.128062
O O3 0.870400 0.105727 0.128479
O O4 0.054963 0.136097 0.016857
O O5 0.848788 0.726600 0.857431
O O6 0.827793 0.871543 0.925820
O O7 0.000000 0.750000 0.979235
O O8 0.750000 0.729449 0.000000
O O9 0.790158 0.845867 0.743256
O O10 0.677102 0.000000 0.750000
O O11 0.848694 0.971026 0.640529
O O12 0.500000 0.750000 0.264516
O O13 0.268553 0.824593 0.268796
O O14 0.503464 0.521131 0.027998
O O15 0.638208 0.421026 0.123457
O O16 0.750000 0.482724 0.000000
O O17 0.750000 0.011699 0.000000
O O18 0.731463 0.500000 0.250000
#
# Coordination Sequence:
#
# PCOD8165907 Si02
#       7
#     8   8   8   8   8   8   8
#     4  11  23  46  69 101 140 179 226 288 351 421
#     4  10  24  45  64  97 134 176 231 278 334 403
#     4  12  23  42  71 102 134 174 226 282 344 405
#     4  11  24  42  66  98 134 177 226 278 339 403
#     4  10  24  42  67 100 133 179 221 277 343 415
#     4  11  22  41  67  97 132 175 223 272 336 403
#     4  11  25  45  67 102 140 180 231 282 349 415
#
# _framework density 20.962534999999999
#
# number of rings (size 3 to 8) (size 9 to 14) (size 15 to 20)
#    0.000    1.143    4.286    1.286    4.000    3.429 
#    7.714    0.000    0.000    0.000    0.000    0.000 
#    0.000    0.000    0.000    0.000    0.000    0.000 
#
# Total GULP energy -347072.725103 kJ/mol
# GULP energy per Si atom -12395.454468 kJ/mol
# Density = 2.091482 g / cm^3
# Si number density = 20.962535 Si / 1000 Ang^3
#
#
#
# Elastic Constant Matrix: (Units=GPa)
#
#
# Indices 1 2 3 4 5 6 
#
# 1 124.7896 16.5385 43.5280 0.0000 0.0000 0.0000
# 2 16.5385 89.5913 34.5933 0.0000 0.0000 0.0000
# 3 43.5280 34.5933 103.7201 0.0000 0.0000 0.0000
# 4 0.0000 0.0000 0.0000 29.3616 0.0000 0.0000
# 5 0.0000 0.0000 0.0000 0.0000 28.3855 0.0000
# 6 0.0000 0.0000 0.0000 0.0000 0.0000 31.2263
#
#
#
# Elastic Compliance Matrix: (Units=1/GPa)
#
#
# Indices 1 2 3 4 5 6 
#
# 1 0.009392 -0.000243 -0.003861 0.000000 0.000000 0.000000
# 2 -0.000243 0.012818 -0.004173 0.000000 0.000000 0.000000
# 3 -0.003861 -0.004173 0.012653 0.000000 0.000000 0.000000
# 4 0.000000 0.000000 0.000000 0.034058 0.000000 0.000000
# 5 0.000000 0.000000 0.000000 0.000000 0.035229 0.000000
# 6 0.000000 0.000000 0.000000 0.000000 0.000000 0.032024
#
#
# Mechanical properties :
#
#
# Convention : Reuss Voigt Hill
#
# Bulk Modulus (GPa) = 54.61487 56.38008 55.49748
# Shear Modulus (GPa) = 31.47976 32.69076 32.08526
#
# Velocity S-wave (km/s) = 3.87940 3.95332 3.91653
# Velocity P-wave (km/s) = 6.79533 6.91320 6.85452
#
# Compressibility (1/GPa) = 0.01831003
#
# Stress axis : x y z
#
# Youngs Moduli (GPa) = 106.46996 78.01519 79.03067
#
# Poissons Ratio (x) = 0.01897 0.30510
# Poissons Ratio (y) = 0.02589 0.32980
# Poissons Ratio (z) = 0.41103 0.32556
#
# Static dielectric constant tensor:
#      x y z
#    x 3.846030 0.000000 0.000000 
#    y 0.000000 3.610020 0.000000 
#    z 0.000000 0.000000 4.057570 
# 
# 
# High freq. dielectric constant tensor:
#      x y z
#    x 1.829420 0.000000 0.000000 
#    y 0.000000 1.811290 0.000000 
#    z 0.000000 0.000000 1.827640 
# 
# From -- ./inp_files/20858.got.cif
#   From: 2010.03.12/outbox.cif.g09.slc.cpg/sg24_11_cif.got.tgz:20858.got - 2010.04.14 03:06:53.
