data_PCOD8165740
_publ_section_title
;
Structure prediction by ZEFSAII (Michael W. Deem and Ramdas Pophale) SiO2 
 PCOD8165740
Probable space group: I 21 21 21
;
_chemical_formula_sum "Si O2"
_cell_formula_units_Z 40
_cell_length_a 18.394474
_cell_length_b 11.901468
_cell_length_c 8.260355
_cell_angle_alpha 90.000000
_cell_angle_beta 90.000000
_cell_angle_gamma 90.000000
_cell_volume 1808.367190
_symmetry_space_group_name_H-M "I 21 21 21"
_symmetry_group_IT_number 24
_symmetry_cell_setting 'orthorhombic'
loop_
_space_group_symop_operation_xyz
x,y,z
-x,1/2-y,z
x,-y,1/2-z
1/2-x,y,-z
1/2+x,1/2+y,1/2+z
1/2-x,-y,1/2+z
1/2+x,1/2-y,-z
-x,1/2+y,1/2-z
loop_
_atom_site_type_symbol
_atom_site_label
_atom_site_fract_x
_atom_site_fract_y
_atom_site_fract_z
Si Si1 0.669582 0.820304 0.965182
Si Si2 0.564250 0.668084 0.124240
Si Si3 0.175798 0.756207 0.406955
Si Si4 0.442878 0.919443 0.481478
Si Si5 0.399606 0.459708 0.926250
O O1 0.673405 0.772432 0.782999
O O2 0.615798 0.923865 0.019530
O O3 0.750000 0.861970 0.000000
O O4 0.642566 0.723375 0.087202
O O5 0.500000 0.750000 0.058465
O O6 0.551968 0.644315 0.311662
O O7 0.568791 0.551810 0.029214
O O8 0.250000 0.790595 0.500000
O O9 0.121600 0.862115 0.419073
O O10 0.149163 0.642200 0.495680
O O11 0.519443 0.908899 0.573236
O O12 0.374660 0.500000 0.750000
#
# Coordination Sequence:
#
# PCOD8165740 Si02
#       5
#     8   8   8   8   8
#     4  11  24  42  68  97 135 178 224 277 336 400
#     4  11  23  42  65  99 131 174 221 272 336 400
#     4  11  24  42  65  98 139 176 223 274 337 402
#     4  11  24  41  68  97 135 173 218 278 334 400
#     4  10  22  41  69 100 130 177 226 282 337 393
#
# _framework density 22.119402999999998
#
# number of rings (size 3 to 8) (size 9 to 14) (size 15 to 20)
#    0.000    1.200    2.000    3.600    2.800    0.800 
#    0.000    0.000    0.000    0.000    0.000    0.000 
#    0.000    0.000    0.000    0.000    0.000    0.000 
#
# Total GULP energy -247766.229574 kJ/mol
# GULP energy per Si atom -12388.311479 kJ/mol
# Density = 2.206906 g / cm^3
# Si number density = 22.119403 Si / 1000 Ang^3
#
#
#
# Elastic Constant Matrix: (Units=GPa)
#
#
# Indices 1 2 3 4 5 6 
#
# 1 148.0837 70.0296 20.8623 0.0000 0.0000 0.0000
# 2 70.0296 151.3339 43.6964 0.0000 0.0000 0.0000
# 3 20.8623 43.6964 41.3490 0.0000 0.0000 0.0000
# 4 0.0000 0.0000 0.0000 26.0772 0.0000 0.0000
# 5 0.0000 0.0000 0.0000 0.0000 37.8280 0.0000
# 6 0.0000 0.0000 0.0000 0.0000 0.0000 47.2228
#
#
#
# Elastic Compliance Matrix: (Units=1/GPa)
#
#
# Indices 1 2 3 4 5 6 
#
# 1 0.008646 -0.003945 -0.000193 0.000000 0.000000 0.000000
# 2 -0.003945 0.011310 -0.009961 0.000000 0.000000 0.000000
# 3 -0.000193 -0.009961 0.034809 0.000000 0.000000 0.000000
# 4 0.000000 0.000000 0.000000 0.038348 0.000000 0.000000
# 5 0.000000 0.000000 0.000000 0.000000 0.026435 0.000000
# 6 0.000000 0.000000 0.000000 0.000000 0.000000 0.021176
#
#
# Mechanical properties :
#
#
# Convention : Reuss Voigt Hill
#
# Bulk Modulus (GPa) = 37.64337 67.77148 52.70742
# Shear Modulus (GPa) = 28.12503 35.97082 32.04793
#
# Velocity S-wave (km/s) = 3.56969 4.03701 3.81052
# Velocity P-wave (km/s) = 5.83485 7.24122 6.57574
#
# Compressibility (1/GPa) = 0.02656511
#
# Stress axis : x y z
#
# Youngs Moduli (GPa) = 115.66322 88.41944 28.72849
#
# Poissons Ratio (x) = 0.34882 0.00555
# Poissons Ratio (y) = 0.45630 0.28617
# Poissons Ratio (z) = 0.02234 0.88078
#
# Static dielectric constant tensor:
#      x y z
#    x 3.993460 0.000000 0.000000 
#    y 0.000000 4.477750 0.000000 
#    z 0.000000 0.000000 3.748580 
# 
# 
# High freq. dielectric constant tensor:
#      x y z
#    x 1.868490 0.000000 0.000000 
#    y 0.000000 1.893500 0.000000 
#    z 0.000000 0.000000 1.855100 
# 
# From -- ./inp_files/10674.got.cif
#   From: 2010.03.12/outbox.cif.g09.slc.cpg/sg24_6_cif.got.tgz:10674.got - 2010.04.14 03:06:53.
