data_PCOD8165074
_publ_section_title
;
Structure prediction by ZEFSAII (Michael W. Deem and Ramdas Pophale) SiO2 
 PCOD8165074
Probable space group: I 21 21 21
;
_chemical_formula_sum "Si O2"
_cell_formula_units_Z 60
_cell_length_a 16.457593
_cell_length_b 7.093049
_cell_length_c 26.162781
_cell_angle_alpha 90.000000
_cell_angle_beta 90.000000
_cell_angle_gamma 90.000000
_cell_volume 3054.099514
_symmetry_space_group_name_H-M "I 21 21 21"
_symmetry_group_IT_number 24
_symmetry_cell_setting 'orthorhombic'
loop_
_space_group_symop_operation_xyz
x,y,z
-x,1/2-y,z
x,-y,1/2-z
1/2-x,y,-z
1/2+x,1/2+y,1/2+z
1/2-x,-y,1/2+z
1/2+x,1/2-y,-z
-x,1/2+y,1/2-z
loop_
_atom_site_type_symbol
_atom_site_label
_atom_site_fract_x
_atom_site_fract_y
_atom_site_fract_z
Si Si1 0.282444 0.906903 0.854651
Si Si2 0.214582 0.782062 0.577385
Si Si3 0.120593 0.746270 0.478669
Si Si4 0.576898 0.390218 0.573866
Si Si5 0.215938 0.000000 0.750000
Si Si6 0.087542 0.659133 0.985656
Si Si7 0.167299 0.595791 0.879757
Si Si8 0.409717 0.313529 0.278852
O O1 0.376251 0.906460 0.872395
O O2 0.249214 0.694077 0.858597
O O3 0.225879 0.024788 0.892766
O O4 0.276137 0.001009 0.798767
O O5 0.149219 0.828579 0.533414
O O6 0.299411 0.703423 0.555036
O O7 0.181030 0.628086 0.617679
O O8 0.074124 0.550973 0.490941
O O9 0.062561 0.896314 0.448365
O O10 0.500000 0.250000 0.581610
O O11 0.630794 0.285671 0.529952
O O12 0.156573 0.175234 0.744637
O O13 0.143786 0.664402 0.936306
O O14 0.000000 0.750000 0.973108
O O15 0.096582 0.651248 0.839803
O O16 0.500000 0.250000 0.265286
O O17 0.387552 0.500000 0.250000
#
# Coordination Sequence:
#
# PCOD8165074 Si02
#       8
#     8   8   8   8   4   8   8   8
#     4  10  20  36  57  83 106 142 188 238 285 344
#     4   9  17  32  54  81 109 144 187 229 276 330
#     4   9  18  32  52  78 113 148 184 226 273 341
#     4  10  21  35  55  81 109 147 182 232 292 358
#     4  10  22  38  58  86 110 144 190 244 286 332
#     4  10  20  33  50  79 117 151 185 229 282 338
#     4  10  20  33  54  81 112 148 192 234 274 331
#     4  11  21  36  56  79 114 154 196 235 276 328
#
# _framework density 19.645726
#
# number of rings (size 3 to 8) (size 9 to 14) (size 15 to 20)
#    0.000    2.133    0.667    2.800    0.000    4.800 
#    0.000    0.000    2.933    0.000   24.267    0.000 
#    0.000    0.000    0.000    0.000    0.000    0.000 
#
# Total GULP energy -371705.636287 kJ/mol
# GULP energy per Si atom -12390.187876 kJ/mol
# Density = 1.960101 g / cm^3
# Si number density = 19.645726 Si / 1000 Ang^3
#
#
#
# Elastic Constant Matrix: (Units=GPa)
#
#
# Indices 1 2 3 4 5 6 
#
# 1 58.4123 31.9065 31.3902 0.0000 0.0000 0.0000
# 2 31.9065 104.9876 37.0262 0.0000 0.0000 0.0000
# 3 31.3902 37.0262 109.9036 0.0000 0.0000 0.0000
# 4 0.0000 0.0000 0.0000 29.8275 0.0000 0.0000
# 5 0.0000 0.0000 0.0000 0.0000 19.7921 0.0000
# 6 0.0000 0.0000 0.0000 0.0000 0.0000 18.0732
#
#
#
# Elastic Compliance Matrix: (Units=1/GPa)
#
#
# Indices 1 2 3 4 5 6 
#
# 1 0.022458 -0.005178 -0.004670 0.000000 0.000000 0.000000
# 2 -0.005178 0.012003 -0.002565 0.000000 0.000000 0.000000
# 3 -0.004670 -0.002565 0.011297 0.000000 0.000000 0.000000
# 4 0.000000 0.000000 0.000000 0.033526 0.000000 0.000000
# 5 0.000000 0.000000 0.000000 0.000000 0.050525 0.000000
# 6 0.000000 0.000000 0.000000 0.000000 0.000000 0.055331
#
#
# Mechanical properties :
#
#
# Convention : Reuss Voigt Hill
#
# Bulk Modulus (GPa) = 47.77376 52.66105 50.21741
# Shear Modulus (GPa) = 23.04758 25.07058 24.05908
#
# Velocity S-wave (km/s) = 3.42886 3.57618 3.50329
# Velocity P-wave (km/s) = 6.32823 6.62688 6.47928
#
# Compressibility (1/GPa) = 0.02093199
#
# Stress axis : x y z
#
# Youngs Moduli (GPa) = 44.52829 83.31136 88.52113
#
# Poissons Ratio (x) = 0.43140 0.41337
# Poissons Ratio (y) = 0.23057 0.22705
# Poissons Ratio (z) = 0.20794 0.21368
#
# Static dielectric constant tensor:
#      x y z
#    x 3.269700 0.000000 0.000000 
#    y 0.000000 3.703210 0.000000 
#    z 0.000000 0.000000 3.711700 
# 
# 
# High freq. dielectric constant tensor:
#      x y z
#    x 1.741670 0.000000 0.000000 
#    y 0.000000 1.781680 0.000000 
#    z 0.000000 0.000000 1.754140 
# 
# From -- ./inp_files/37533.got.cif
#   From: 2010.03.12/outbox.cif.g09.slc.cpg/sg24_19_cif.got.tgz:37533.got - 2010.04.14 03:06:53.
