data_PCOD8165228
_publ_section_title
;
Structure prediction by ZEFSAII (Michael W. Deem and Ramdas Pophale) SiO2 
 PCOD8165228
Probable space group: I 21 21 21
;
_chemical_formula_sum "Si O2"
_cell_formula_units_Z 52
_cell_length_a 25.923090
_cell_length_b 11.699972
_cell_length_c 8.300788
_cell_angle_alpha 90.000000
_cell_angle_beta 90.000000
_cell_angle_gamma 90.000000
_cell_volume 2517.624245
_symmetry_space_group_name_H-M "I 21 21 21"
_symmetry_group_IT_number 24
_symmetry_cell_setting 'orthorhombic'
loop_
_space_group_symop_operation_xyz
x,y,z
-x,1/2-y,z
x,-y,1/2-z
1/2-x,y,-z
1/2+x,1/2+y,1/2+z
1/2-x,-y,1/2+z
1/2+x,1/2-y,-z
-x,1/2+y,1/2-z
loop_
_atom_site_type_symbol
_atom_site_label
_atom_site_fract_x
_atom_site_fract_y
_atom_site_fract_z
Si Si1 0.651505 0.387594 0.182777
Si Si2 0.690604 0.180199 0.020026
Si Si3 0.855366 0.000000 0.750000
Si Si4 0.000000 0.250000 0.742105
Si Si5 0.517494 0.000000 0.750000
Si Si6 0.104090 0.292322 0.578290
Si Si7 0.098500 0.299387 0.216671
Si Si8 0.051010 0.101708 0.997197
O O1 0.681498 0.500000 0.250000
O O2 0.686574 0.315648 0.059840
O O3 0.637660 0.295775 0.318846
O O4 0.602066 0.444002 0.092118
O O5 0.677810 0.096128 0.164336
O O6 0.750000 0.151048 0.000000
O O7 0.650314 0.155101 0.873748
O O8 0.886879 0.072747 0.617042
O O9 0.045074 0.277041 0.620472
O O10 0.011969 0.144447 0.859957
O O11 0.554262 0.108206 0.752763
O O12 0.479098 0.002980 0.905130
O O13 0.116542 0.260477 0.393589
O O14 0.069972 0.201883 0.116139
#
# Coordination Sequence:
#
# PCOD8165228 Si02
#       8
#     8   8   4   4   4   8   8   8
#     4   9  21  43  63  88 128 167 216 265 323 399
#     4  10  23  46  70  92 126 167 212 280 342 389
#     4  10  22  41  62  92 126 164 209 270 334 392
#     4  10  20  38  50  80 130 178 216 248 308 390
#     4  12  22  31  62  86 134 170 205 264 318 386
#     4  10  23  36  59  88 128 170 213 264 316 386
#     4  11  23  39  57  93 126 161 222 271 312 386
#     4  10  22  36  55  86 129 170 214 256 314 385
#
# _framework density 20.654394
#
# number of rings (size 3 to 8) (size 9 to 14) (size 15 to 20)
#    0.000    1.846    1.538    1.846    6.462    3.077 
#    1.385    3.846    0.000    0.000    0.000    0.000 
#    0.000    0.000    0.000    0.000    0.000    0.000 
#
# Total GULP energy -322122.636650 kJ/mol
# GULP energy per Si atom -12389.332179 kJ/mol
# Density = 2.060738 g / cm^3
# Si number density = 20.654394 Si / 1000 Ang^3
#
#
#
# Elastic Constant Matrix: (Units=GPa)
#
#
# Indices 1 2 3 4 5 6 
#
# 1 73.9706 15.4714 38.7012 0.0000 0.0000 0.0000
# 2 15.4714 93.4105 22.9143 0.0000 0.0000 0.0000
# 3 38.7012 22.9143 111.1623 0.0000 0.0000 0.0000
# 4 0.0000 0.0000 0.0000 28.5509 0.0000 0.0000
# 5 0.0000 0.0000 0.0000 0.0000 17.0452 0.0000
# 6 0.0000 0.0000 0.0000 0.0000 0.0000 13.0054
#
#
#
# Elastic Compliance Matrix: (Units=1/GPa)
#
#
# Indices 1 2 3 4 5 6 
#
# 1 0.016705 -0.001411 -0.005525 0.000000 0.000000 0.000000
# 2 -0.001411 0.011395 -0.001857 0.000000 0.000000 0.000000
# 3 -0.005525 -0.001857 0.011302 0.000000 0.000000 0.000000
# 4 0.000000 0.000000 0.000000 0.035025 0.000000 0.000000
# 5 0.000000 0.000000 0.000000 0.000000 0.058667 0.000000
# 6 0.000000 0.000000 0.000000 0.000000 0.000000 0.076891
#
#
# Mechanical properties :
#
#
# Convention : Reuss Voigt Hill
#
# Bulk Modulus (GPa) = 45.84155 48.07968 46.96061
# Shear Modulus (GPa) = 21.29069 25.15074 23.22072
#
# Velocity S-wave (km/s) = 3.21410 3.49333 3.35662
# Velocity P-wave (km/s) = 6.00139 6.29284 6.14884
#
# Compressibility (1/GPa) = 0.02181427
#
# Stress axis : x y z
#
# Youngs Moduli (GPa) = 59.86352 87.75881 88.47842
#
# Poissons Ratio (x) = 0.12387 0.48882
# Poissons Ratio (y) = 0.08450 0.16434
# Poissons Ratio (z) = 0.33073 0.16301
#
# Static dielectric constant tensor:
#      x y z
#    x 3.551800 0.000000 0.000000 
#    y 0.000000 3.851030 0.000000 
#    z 0.000000 0.000000 4.147370 
# 
# 
# High freq. dielectric constant tensor:
#      x y z
#    x 1.783200 0.000000 0.000000 
#    y 0.000000 1.808550 0.000000 
#    z 0.000000 0.000000 1.818860 
# 
# From -- ./inp_files/16426.got.cif
#   From: 2010.03.12/outbox.cif.g09.slc.cpg/sg24_9_cif.got.tgz:16426.got - 2010.04.14 03:06:53.
