data_PCOD8165680
_publ_section_title
;
Structure prediction by ZEFSAII (Michael W. Deem and Ramdas Pophale) SiO2 
 PCOD8165680
Probable space group: I 21 21 21
;
_chemical_formula_sum "Si O2"
_cell_formula_units_Z 40
_cell_length_a 27.021237
_cell_length_b 9.217004
_cell_length_c 8.417473
_cell_angle_alpha 90.000000
_cell_angle_beta 90.000000
_cell_angle_gamma 90.000000
_cell_volume 2096.412471
_symmetry_space_group_name_H-M "I 21 21 21"
_symmetry_group_IT_number 24
_symmetry_cell_setting 'orthorhombic'
loop_
_space_group_symop_operation_xyz
x,y,z
-x,1/2-y,z
x,-y,1/2-z
1/2-x,y,-z
1/2+x,1/2+y,1/2+z
1/2-x,-y,1/2+z
1/2+x,1/2-y,-z
-x,1/2+y,1/2-z
loop_
_atom_site_type_symbol
_atom_site_label
_atom_site_fract_x
_atom_site_fract_y
_atom_site_fract_z
Si Si1 0.768463 0.353736 0.825782
Si Si2 0.140152 0.315004 0.911357
Si Si3 0.892075 0.087037 0.409258
Si Si4 0.547752 0.155547 0.307472
Si Si5 0.839901 0.667745 0.265824
O O1 0.791654 0.500000 0.750000
O O2 0.808552 0.223374 0.820552
O O3 0.718499 0.303623 0.737877
O O4 0.750000 0.396424 0.000000
O O5 0.094195 0.283674 0.794827
O O6 0.139638 0.482547 0.971545
O O7 0.137782 0.211070 0.063781
O O8 0.939797 0.143334 0.505086
O O9 0.862357 0.232315 0.371088
O O10 0.907729 0.000000 0.250000
O O11 0.500000 0.250000 0.279068
O O12 0.531226 0.000000 0.250000
O O13 0.854279 0.500000 0.250000
#
# Coordination Sequence:
#
# PCOD8165680 Si02
#       5
#     8   8   8   8   8
#     4   9  18  32  52  81 112 144 183 224 265 317
#     4   9  19  36  55  78 111 144 179 227 275 325
#     4   9  19  39  57  76 111 144 178 225 275 333
#     4  10  22  39  58  80 105 137 180 230 279 326
#     4   9  18  34  56  83 113 147 184 222 267 323
#
# _framework density 19.080214000000002
#
# number of rings (size 3 to 8) (size 9 to 14) (size 15 to 20)
#    0.000    2.800    0.000    0.000    0.000    7.200 
#    0.000   33.000    0.000    0.000    0.000    0.000 
#    0.000    0.000    0.000    0.000    0.000    0.000 
#
# Total GULP energy -247849.048228 kJ/mol
# GULP energy per Si atom -12392.452411 kJ/mol
# Density = 1.903679 g / cm^3
# Si number density = 19.080214 Si / 1000 Ang^3
#
#
#
# Elastic Constant Matrix: (Units=GPa)
#
#
# Indices 1 2 3 4 5 6 
#
# 1 121.2450 77.1974 62.9329 0.0000 0.0000 0.0000
# 2 77.1974 120.6473 48.1560 0.0000 0.0000 0.0000
# 3 62.9329 48.1560 75.6421 0.0000 0.0000 0.0000
# 4 0.0000 0.0000 0.0000 25.7882 0.0000 0.0000
# 5 0.0000 0.0000 0.0000 0.0000 9.4204 0.0000
# 6 0.0000 0.0000 0.0000 0.0000 0.0000 24.6208
#
#
#
# Elastic Compliance Matrix: (Units=1/GPa)
#
#
# Indices 1 2 3 4 5 6 
#
# 1 0.018669 -0.007703 -0.010628 0.000000 0.000000 0.000000
# 2 -0.007703 0.014291 -0.002689 0.000000 0.000000 0.000000
# 3 -0.010628 -0.002689 0.023774 0.000000 0.000000 0.000000
# 4 0.000000 0.000000 0.000000 0.038777 0.000000 0.000000
# 5 0.000000 0.000000 0.000000 0.000000 0.106153 0.000000
# 6 0.000000 0.000000 0.000000 0.000000 0.000000 0.040616
#
#
# Mechanical properties :
#
#
# Convention : Reuss Voigt Hill
#
# Bulk Modulus (GPa) = 68.05727 77.12300 72.59014
# Shear Modulus (GPa) = 17.28788 20.58243 18.93515
#
# Velocity S-wave (km/s) = 3.01335 3.28797 3.15365
# Velocity P-wave (km/s) = 6.91762 7.41097 7.16854
#
# Compressibility (1/GPa) = 0.01469351
#
# Stress axis : x y z
#
# Youngs Moduli (GPa) = 53.56401 69.97389 42.06187
#
# Poissons Ratio (x) = 0.53904 0.44704
# Poissons Ratio (y) = 0.41263 0.11310
# Poissons Ratio (z) = 0.56929 0.18816
#
# Static dielectric constant tensor:
#      x y z
#    x 3.416500 0.000000 0.000000 
#    y 0.000000 3.559580 0.000000 
#    z 0.000000 0.000000 3.688350 
# 
# 
# High freq. dielectric constant tensor:
#      x y z
#    x 1.718680 0.000000 0.000000 
#    y 0.000000 1.743430 0.000000 
#    z 0.000000 0.000000 1.752000 
# 
# From -- ./inp_files/9229.got.cif
#   From: 2010.03.12/outbox.cif.g09.slc.cpg/sg24_5_cif.got.tgz:9229.got - 2010.04.14 03:06:53.
