data_PCOD8165825
_publ_section_title
;
Structure prediction by ZEFSAII (Michael W. Deem and Ramdas Pophale) SiO2 
 PCOD8165825
Probable space group: I 21 21 21
;
_chemical_formula_sum "Si O2"
_cell_formula_units_Z 32
_cell_length_a 17.244482
_cell_length_b 14.068790
_cell_length_c 5.552706
_cell_angle_alpha 90.000000
_cell_angle_beta 90.000000
_cell_angle_gamma 90.000000
_cell_volume 1347.136427
_symmetry_space_group_name_H-M "I 21 21 21"
_symmetry_group_IT_number 24
_symmetry_cell_setting 'orthorhombic'
loop_
_space_group_symop_operation_xyz
x,y,z
-x,1/2-y,z
x,-y,1/2-z
1/2-x,y,-z
1/2+x,1/2+y,1/2+z
1/2-x,-y,1/2+z
1/2+x,1/2-y,-z
-x,1/2+y,1/2-z
loop_
_atom_site_type_symbol
_atom_site_label
_atom_site_fract_x
_atom_site_fract_y
_atom_site_fract_z
Si Si1 0.858750 0.744748 0.865076
Si Si2 0.500000 0.750000 0.472436
Si Si3 0.660673 0.459694 0.503150
Si Si4 0.750000 0.178269 0.000000
Si Si5 0.398849 0.609213 0.740302
O O1 0.927170 0.717575 0.683365
O O2 0.849749 0.653776 0.034698
O O3 0.776943 0.756692 0.724045
O O4 0.878456 0.842321 0.004602
O O5 0.474080 0.661961 0.637190
O O6 0.623608 0.500000 0.250000
O O7 0.750000 0.490896 0.500000
O O8 0.621826 0.500000 0.750000
O O9 0.823467 0.113865 0.069007
O O10 0.422923 0.500000 0.750000
#
# Coordination Sequence:
#
# PCOD8165825 Si02
#       5
#     8   4   8   4   8
#     4  11  24  47  68 103 148 190 250 312 377 460
#     4  10  26  48  68 100 144 198 248 304 380 462
#     4  10  23  40  70 106 143 185 241 303 372 440
#     4  10  24  38  80 106 142 188 242 324 386 448
#     4  11  25  46  74 105 148 191 254 314 388 458
#
# _framework density 23.754090000000001
#
# number of rings (size 3 to 8) (size 9 to 14) (size 15 to 20)
#    0.000    1.500    0.000    3.000   15.750    3.000 
#    9.000    0.000    0.000    0.000    0.000    0.000 
#    0.000    0.000    0.000    0.000    0.000    0.000 
#
# Total GULP energy -198391.047687 kJ/mol
# GULP energy per Si atom -12399.440480 kJ/mol
# Density = 2.370002 g / cm^3
# Si number density = 23.754090 Si / 1000 Ang^3
#
#
#
# Elastic Constant Matrix: (Units=GPa)
#
#
# Indices 1 2 3 4 5 6 
#
# 1 80.9406 43.8942 24.3465 0.0000 0.0000 0.0000
# 2 43.8942 201.4732 85.3093 0.0000 0.0000 0.0000
# 3 24.3465 85.3093 165.6473 0.0000 0.0000 0.0000
# 4 0.0000 0.0000 0.0000 35.8577 0.0000 0.0000
# 5 0.0000 0.0000 0.0000 0.0000 20.2777 0.0000
# 6 0.0000 0.0000 0.0000 0.0000 0.0000 25.8562
#
#
#
# Elastic Compliance Matrix: (Units=1/GPa)
#
#
# Indices 1 2 3 4 5 6 
#
# 1 0.014060 -0.002799 -0.000625 0.000000 0.000000 0.000000
# 2 -0.002799 0.006905 -0.003145 0.000000 0.000000 0.000000
# 3 -0.000625 -0.003145 0.007748 0.000000 0.000000 0.000000
# 4 0.000000 0.000000 0.000000 0.027888 0.000000 0.000000
# 5 0.000000 0.000000 0.000000 0.000000 0.049315 0.000000
# 6 0.000000 0.000000 0.000000 0.000000 0.000000 0.038675
#
#
# Mechanical properties :
#
#
# Convention : Reuss Voigt Hill
#
# Bulk Modulus (GPa) = 64.19912 83.90678 74.05295
# Shear Modulus (GPa) = 30.68965 36.03238 33.36102
#
# Velocity S-wave (km/s) = 3.59830 3.89895 3.75164
# Velocity P-wave (km/s) = 6.65950 7.46116 7.07170
#
# Compressibility (1/GPa) = 0.01557654
#
# Stress axis : x y z
#
# Youngs Moduli (GPa) = 71.12131 144.82976 129.06009
#
# Poissons Ratio (x) = 0.40531 0.08070
# Poissons Ratio (y) = 0.19903 0.40584
# Poissons Ratio (z) = 0.04447 0.45543
#
# Static dielectric constant tensor:
#      x y z
#    x 4.201130 0.000000 0.000000 
#    y 0.000000 3.965500 0.000000 
#    z 0.000000 0.000000 4.596550 
# 
# 
# High freq. dielectric constant tensor:
#      x y z
#    x 1.935610 0.000000 0.000000 
#    y 0.000000 1.928470 0.000000 
#    z 0.000000 0.000000 1.953200 
# 
# From -- ./inp_files/3224.got.cif
#   From: 2010.03.12/outbox.cif.g09.slc.cpg/sg24_2_cif.got.tgz:3224.got - 2010.04.14 03:06:53.
