data_PCOD8165325
_publ_section_title
;
Structure prediction by ZEFSAII (Michael W. Deem and Ramdas Pophale) SiO2 
 PCOD8165325
Probable space group: I 21 21 21
;
_chemical_formula_sum "Si O2"
_cell_formula_units_Z 60
_cell_length_a 7.996181
_cell_length_b 14.879464
_cell_length_c 22.952760
_cell_angle_alpha 90.000000
_cell_angle_beta 90.000000
_cell_angle_gamma 90.000000
_cell_volume 2730.893846
_symmetry_space_group_name_H-M "I 21 21 21"
_symmetry_group_IT_number 24
_symmetry_cell_setting 'orthorhombic'
loop_
_space_group_symop_operation_xyz
x,y,z
-x,1/2-y,z
x,-y,1/2-z
1/2-x,y,-z
1/2+x,1/2+y,1/2+z
1/2-x,-y,1/2+z
1/2+x,1/2-y,-z
-x,1/2+y,1/2-z
loop_
_atom_site_type_symbol
_atom_site_label
_atom_site_fract_x
_atom_site_fract_y
_atom_site_fract_z
Si Si1 0.355346 0.563547 0.138157
Si Si2 0.716742 0.375511 0.355935
Si Si3 0.191491 0.280609 0.433823
Si Si4 0.798637 0.000000 0.250000
Si Si5 0.947992 0.350249 0.246919
Si Si6 0.305932 0.225620 0.936745
Si Si7 0.885704 0.439432 0.127141
Si Si8 0.245824 0.583714 0.431022
O O1 0.523312 0.610652 0.159690
O O2 0.223765 0.635406 0.110168
O O3 0.303957 0.495813 0.190644
O O4 0.385538 0.487990 0.088433
O O5 0.708664 0.303716 0.407977
O O6 0.800503 0.464850 0.381097
O O7 0.812378 0.340275 0.298417
O O8 0.250000 0.302361 0.500000
O O9 0.000000 0.250000 0.432428
O O10 0.892441 0.906898 0.233017
O O11 0.000000 0.250000 0.226098
O O12 0.885221 0.413687 0.194911
O O13 0.500000 0.250000 0.936268
O O14 0.268162 0.137589 0.899557
O O15 0.209329 0.313759 0.911952
O O16 0.250000 0.197884 0.000000
O O17 0.067482 0.445143 0.097147
O O18 0.250000 0.582575 0.500000
#
# Coordination Sequence:
#
# PCOD8165325 Si02
#       8
#     8   8   8   4   8   8   8   8
#     4  12  26  43  67 105 140 182 233 294 360 426
#     4  12  26  43  68 100 145 175 230 297 352 427
#     4  12  26  49  76 105 141 188 240 296 367 442
#     4  12  24  42  72  96 136 186 240 288 360 426
#     4  12  23  44  73  97 132 186 237 287 349 427
#     4   9  20  36  61  88 125 164 215 270 326 400
#     4  11  22  40  66  95 130 181 229 277 351 420
#     4  10  20  40  65  94 131 177 232 285 344 425
#
# _framework density 21.970828000000001
#
# number of rings (size 3 to 8) (size 9 to 14) (size 15 to 20)
#    0.000    0.800    2.667    5.600    1.867    4.800 
#    0.000    0.000    0.000    0.000    0.000    0.000 
#    0.000    0.000    0.000    0.000    0.000    0.000 
#
# Total GULP energy -371674.867559 kJ/mol
# GULP energy per Si atom -12389.162252 kJ/mol
# Density = 2.192082 g / cm^3
# Si number density = 21.970828 Si / 1000 Ang^3
#
#
#
# Elastic Constant Matrix: (Units=GPa)
#
#
# Indices 1 2 3 4 5 6 
#
# 1 67.3457 12.9007 28.0315 0.0000 0.0000 0.0000
# 2 12.9007 122.4045 47.8809 0.0000 0.0000 0.0000
# 3 28.0315 47.8809 103.9531 0.0000 0.0000 0.0000
# 4 0.0000 0.0000 0.0000 44.0739 0.0000 0.0000
# 5 0.0000 0.0000 0.0000 0.0000 28.0170 0.0000
# 6 0.0000 0.0000 0.0000 0.0000 0.0000 8.9923
#
#
#
# Elastic Compliance Matrix: (Units=1/GPa)
#
#
# Indices 1 2 3 4 5 6 
#
# 1 0.016726 0.000002 -0.004511 0.000000 0.000000 0.000000
# 2 0.000002 0.009965 -0.004590 0.000000 0.000000 0.000000
# 3 -0.004511 -0.004590 0.012951 0.000000 0.000000 0.000000
# 4 0.000000 0.000000 0.000000 0.022689 0.000000 0.000000
# 5 0.000000 0.000000 0.000000 0.000000 0.035693 0.000000
# 6 0.000000 0.000000 0.000000 0.000000 0.000000 0.111206
#
#
# Mechanical properties :
#
#
# Convention : Reuss Voigt Hill
#
# Bulk Modulus (GPa) = 46.63697 52.36996 49.50346
# Shear Modulus (GPa) = 21.31504 29.87598 25.59551
#
# Velocity S-wave (km/s) = 3.11811 3.69155 3.41688
# Velocity P-wave (km/s) = 5.85118 6.48521 6.17634
#
# Compressibility (1/GPa) = 0.02144221
#
# Stress axis : x y z
#
# Youngs Moduli (GPa) = 59.78691 100.35048 77.21709
#
# Poissons Ratio (x) = -0.00018 0.34833
# Poissons Ratio (y) = -0.00011 0.35446
# Poissons Ratio (z) = 0.26970 0.46065
#
# Static dielectric constant tensor:
#      x y z
#    x 3.806400 0.000000 0.000000 
#    y 0.000000 4.610290 0.000000 
#    z 0.000000 0.000000 4.060500 
# 
# 
# High freq. dielectric constant tensor:
#      x y z
#    x 1.840080 0.000000 0.000000 
#    y 0.000000 1.890520 0.000000 
#    z 0.000000 0.000000 1.872350 
# 
# From -- ./inp_files/35267.got.cif
#   From: 2010.03.12/outbox.cif.g09.slc.cpg/sg24_18_cif.got.tgz:35267.got - 2010.04.14 03:06:53.
