data_PCOD8165547
_publ_section_title
;
Structure prediction by ZEFSAII (Michael W. Deem and Ramdas Pophale) SiO2 
 PCOD8165547
Probable space group: I 21 21 21
;
_chemical_formula_sum "Si O2"
_cell_formula_units_Z 48
_cell_length_a 7.687941
_cell_length_b 10.272580
_cell_length_c 31.482615
_cell_angle_alpha 90.000000
_cell_angle_beta 90.000000
_cell_angle_gamma 90.000000
_cell_volume 2486.339172
_symmetry_space_group_name_H-M "I 21 21 21"
_symmetry_group_IT_number 24
_symmetry_cell_setting 'orthorhombic'
loop_
_space_group_symop_operation_xyz
x,y,z
-x,1/2-y,z
x,-y,1/2-z
1/2-x,y,-z
1/2+x,1/2+y,1/2+z
1/2-x,-y,1/2+z
1/2+x,1/2-y,-z
-x,1/2+y,1/2-z
loop_
_atom_site_type_symbol
_atom_site_label
_atom_site_fract_x
_atom_site_fract_y
_atom_site_fract_z
Si Si1 0.991038 0.104319 0.287132
Si Si2 0.316508 0.520636 0.158874
Si Si3 0.699399 0.491346 0.345690
Si Si4 0.115185 0.364031 0.964611
Si Si5 0.502321 0.394267 0.418805
Si Si6 0.198435 0.267332 0.119698
O O1 0.150163 0.075615 0.318745
O O2 0.000000 0.250000 0.268057
O O3 0.806553 0.104310 0.311042
O O4 0.995632 0.000000 0.250000
O O5 0.512033 0.510860 0.178961
O O6 0.334108 0.588383 0.112346
O O7 0.223849 0.380963 0.154125
O O8 0.677170 0.413096 0.390342
O O9 0.735305 0.639862 0.356840
O O10 0.193097 0.300386 0.922156
O O11 0.000000 0.250000 0.985531
O O12 0.004646 0.494632 0.954814
O O13 0.250000 0.408749 0.000000
O O14 0.500000 0.250000 0.439373
O O15 0.000000 0.250000 0.106203
#
# Coordination Sequence:
#
# PCOD8165547 Si02
#       6
#     8   8   8   8   8   8
#     4  12  27  42  61  93 129 162 204 262 328 379
#     4   9  21  38  64  87 122 159 212 260 301 373
#     4  10  21  40  68  87 121 164 212 259 306 373
#     4  11  21  37  58  94 131 163 205 264 319 375
#     4   9  19  39  67  86 116 168 214 256 303 370
#     4  11  18  36  67  98 117 164 214 258 306 372
#
# _framework density 19.305491
#
# number of rings (size 3 to 8) (size 9 to 14) (size 15 to 20)
#    1.000    0.667    3.333    2.000    2.333    0.667 
#    0.000    0.833    0.000    0.000    0.000    0.000 
#    0.000    0.000    0.000    0.000    0.000    0.000 
#
# Total GULP energy -297415.263852 kJ/mol
# GULP energy per Si atom -12392.302660 kJ/mol
# Density = 1.926155 g / cm^3
# Si number density = 19.305491 Si / 1000 Ang^3
#
#
#
# Elastic Constant Matrix: (Units=GPa)
#
#
# Indices 1 2 3 4 5 6 
#
# 1 97.8122 25.0427 17.7786 0.0000 0.0000 0.0000
# 2 25.0427 161.0711 32.0714 0.0000 0.0000 0.0000
# 3 17.7786 32.0714 58.7878 0.0000 0.0000 0.0000
# 4 0.0000 0.0000 0.0000 19.4358 0.0000 0.0000
# 5 0.0000 0.0000 0.0000 0.0000 22.1140 0.0000
# 6 0.0000 0.0000 0.0000 0.0000 0.0000 20.5756
#
#
#
# Elastic Compliance Matrix: (Units=1/GPa)
#
#
# Indices 1 2 3 4 5 6 
#
# 1 0.011014 -0.001177 -0.002689 0.000000 0.000000 0.000000
# 2 -0.001177 0.007091 -0.003512 0.000000 0.000000 0.000000
# 3 -0.002689 -0.003512 0.019740 0.000000 0.000000 0.000000
# 4 0.000000 0.000000 0.000000 0.051452 0.000000 0.000000
# 5 0.000000 0.000000 0.000000 0.000000 0.045220 0.000000
# 6 0.000000 0.000000 0.000000 0.000000 0.000000 0.048601
#
#
# Mechanical properties :
#
#
# Convention : Reuss Voigt Hill
#
# Bulk Modulus (GPa) = 43.31257 51.93961 47.62609
# Shear Modulus (GPa) = 24.32270 28.61030 26.46650
#
# Velocity S-wave (km/s) = 3.55334 3.85382 3.70663
# Velocity P-wave (km/s) = 6.27049 6.83850 6.56064
#
# Compressibility (1/GPa) = 0.02308798
#
# Stress axis : x y z
#
# Youngs Moduli (GPa) = 90.79583 141.02775 50.65960
#
# Poissons Ratio (x) = 0.16599 0.13621
# Poissons Ratio (y) = 0.10687 0.17794
# Poissons Ratio (z) = 0.24412 0.49535
#
# Static dielectric constant tensor:
#      x y z
#    x 3.335380 0.000000 0.000000 
#    y 0.000000 3.605010 0.000000 
#    z 0.000000 0.000000 3.188860 
# 
# 
# High freq. dielectric constant tensor:
#      x y z
#    x 1.750710 0.000000 0.000000 
#    y 0.000000 1.764540 0.000000 
#    z 0.000000 0.000000 1.714780 
# 
# From -- ./inp_files/38287.got.cif
#   From: 2010.03.12/outbox.cif.g09.slc.cpg/sg24_20_cif.got.tgz:38287.got - 2010.04.14 03:06:53.
