data_PCOD8165712
_publ_section_title
;
Structure prediction by ZEFSAII (Michael W. Deem and Ramdas Pophale) SiO2 
 PCOD8165712
Probable space group: I 21 21 21
;
_chemical_formula_sum "Si O2"
_cell_formula_units_Z 28
_cell_length_a 23.298735
_cell_length_b 4.931814
_cell_length_c 10.527175
_cell_angle_alpha 90.000000
_cell_angle_beta 90.000000
_cell_angle_gamma 90.000000
_cell_volume 1209.625332
_symmetry_space_group_name_H-M "I 21 21 21"
_symmetry_group_IT_number 24
_symmetry_cell_setting 'orthorhombic'
loop_
_space_group_symop_operation_xyz
x,y,z
-x,1/2-y,z
x,-y,1/2-z
1/2-x,y,-z
1/2+x,1/2+y,1/2+z
1/2-x,-y,1/2+z
1/2+x,1/2-y,-z
-x,1/2+y,1/2-z
loop_
_atom_site_type_symbol
_atom_site_label
_atom_site_fract_x
_atom_site_fract_y
_atom_site_fract_z
Si Si1 0.633378 0.027481 0.940563
Si Si2 0.707202 0.508804 0.889871
Si Si3 0.038457 0.500000 0.250000
Si Si4 0.061402 0.256943 0.838559
O O1 0.658133 0.284804 0.865445
O O2 0.681000 0.790620 0.943173
O O3 0.577591 0.913226 0.869340
O O4 0.615657 0.152170 0.076742
O O5 0.737643 0.500000 0.750000
O O6 0.750000 0.405812 0.000000
O O7 0.000000 0.250000 0.208634
O O8 0.045447 0.500000 0.750000
O O9 0.000000 0.250000 0.915920
O O10 0.078657 0.000000 0.750000
#
# Coordination Sequence:
#
# PCOD8165712 Si02
#       4
#     8   8   4   8
#     4  12  24  45  69  99 142 180 236 299 360 436
#     4  12  26  47  71  99 138 187 246 314 370 431
#     4  12  24  40  70 106 144 186 232 288 374 444
#     4  10  22  40  64  99 141 183 225 279 351 438
#
# _framework density 23.147660999999999
#
# number of rings (size 3 to 8) (size 9 to 14) (size 15 to 20)
#    0.000    0.571    2.857    5.143    0.000    6.857 
#    0.000    0.000    0.000    0.000    0.000    0.000 
#    0.000    0.000    0.000    0.000    0.000    0.000 
#
# Total GULP energy -173446.041758 kJ/mol
# GULP energy per Si atom -12389.002983 kJ/mol
# Density = 2.309498 g / cm^3
# Si number density = 23.147661 Si / 1000 Ang^3
#
#
#
# Elastic Constant Matrix: (Units=GPa)
#
#
# Indices 1 2 3 4 5 6 
#
# 1 73.2932 23.8624 50.0087 0.0000 0.0000 0.0000
# 2 23.8624 124.8235 11.4416 0.0000 0.0000 0.0000
# 3 50.0087 11.4416 111.9309 0.0000 0.0000 0.0000
# 4 0.0000 0.0000 0.0000 31.6959 0.0000 0.0000
# 5 0.0000 0.0000 0.0000 0.0000 47.1460 0.0000
# 6 0.0000 0.0000 0.0000 0.0000 0.0000 30.9324
#
#
#
# Elastic Compliance Matrix: (Units=1/GPa)
#
#
# Indices 1 2 3 4 5 6 
#
# 1 0.020787 -0.003152 -0.008965 0.000000 0.000000 0.000000
# 2 -0.003152 0.008565 0.000533 0.000000 0.000000 0.000000
# 3 -0.008965 0.000533 0.012885 0.000000 0.000000 0.000000
# 4 0.000000 0.000000 0.000000 0.031550 0.000000 0.000000
# 5 0.000000 0.000000 0.000000 0.000000 0.021211 0.000000
# 6 0.000000 0.000000 0.000000 0.000000 0.000000 0.032329
#
#
# Mechanical properties :
#
#
# Convention : Reuss Voigt Hill
#
# Bulk Modulus (GPa) = 52.44282 53.40812 52.92547
# Shear Modulus (GPa) = 31.87735 36.93717 34.40726
#
# Velocity S-wave (km/s) = 3.71500 3.99898 3.85960
# Velocity P-wave (km/s) = 6.41144 6.66673 6.54033
#
# Compressibility (1/GPa) = 0.01906839
#
# Stress axis : x y z
#
# Youngs Moduli (GPa) = 48.10688 116.75337 77.60926
#
# Poissons Ratio (x) = 0.36802 0.69577
# Poissons Ratio (y) = 0.15164 -0.04135
# Poissons Ratio (z) = 0.43128 -0.06220
#
# Static dielectric constant tensor:
#      x y z
#    x 4.041760 0.000000 0.000000 
#    y 0.000000 4.133150 0.000000 
#    z 0.000000 0.000000 4.058960 
# 
# 
# High freq. dielectric constant tensor:
#      x y z
#    x 1.910860 0.000000 0.000000 
#    y 0.000000 1.927990 0.000000 
#    z 0.000000 0.000000 1.913230 
# 
# From -- ./inp_files/21860.got.cif
#   From: 2010.03.12/outbox.cif.g09.slc.cpg/sg24_11_cif.got.tgz:21860.got - 2010.04.14 03:06:53.
