data_PCOD8165989
_publ_section_title
;
Structure prediction by ZEFSAII (Michael W. Deem and Ramdas Pophale) SiO2 
 PCOD8165989
Probable space group: I 21 21 21
;
_chemical_formula_sum "Si O2"
_cell_formula_units_Z 32
_cell_length_a 11.995523
_cell_length_b 9.943412
_cell_length_c 11.003454
_cell_angle_alpha 90.000000
_cell_angle_beta 90.000000
_cell_angle_gamma 90.000000
_cell_volume 1312.452682
_symmetry_space_group_name_H-M "I 21 21 21"
_symmetry_group_IT_number 24
_symmetry_cell_setting 'orthorhombic'
loop_
_space_group_symop_operation_xyz
x,y,z
-x,1/2-y,z
x,-y,1/2-z
1/2-x,y,-z
1/2+x,1/2+y,1/2+z
1/2-x,-y,1/2+z
1/2+x,1/2-y,-z
-x,1/2+y,1/2-z
loop_
_atom_site_type_symbol
_atom_site_label
_atom_site_fract_x
_atom_site_fract_y
_atom_site_fract_z
Si Si1 0.000000 0.750000 0.143588
Si Si2 0.674977 0.270930 0.832810
Si Si3 0.236480 0.500000 0.750000
Si Si4 0.406947 0.149744 0.096946
Si Si5 0.454399 0.611932 0.087192
O O1 0.093945 0.823023 0.225714
O O2 0.059777 0.637027 0.058413
O O3 0.687131 0.109600 0.817655
O O4 0.795426 0.340968 0.821884
O O5 0.618729 0.303247 0.960520
O O6 0.161646 0.569560 0.854028
O O7 0.500000 0.250000 0.150229
O O8 0.450638 0.999015 0.108326
O O9 0.500000 0.750000 0.147940
#
# Coordination Sequence:
#
# PCOD8165989 Si02
#       5
#     4   8   4   8   8
#     4  10  26  50  72 114 156 198 256 326 390 456
#     4  11  26  43  81 111 153 204 257 322 385 463
#     4  12  26  48  80 108 150 212 262 320 396 474
#     4  11  23  49  76 113 152 204 263 307 387 472
#     4  10  27  51  75 111 154 199 264 327 392 465
#
# _framework density 24.381831999999999
#
# number of rings (size 3 to 8) (size 9 to 14) (size 15 to 20)
#    0.750    0.500    3.750    0.000    7.000    2.000 
#   13.500    0.000    0.000    0.000    0.000    0.000 
#    0.000    0.000    0.000    0.000    0.000    0.000 
#
# Total GULP energy -198374.955369 kJ/mol
# GULP energy per Si atom -12398.434711 kJ/mol
# Density = 2.432634 g / cm^3
# Si number density = 24.381832 Si / 1000 Ang^3
#
#
#
# Elastic Constant Matrix: (Units=GPa)
#
#
# Indices 1 2 3 4 5 6 
#
# 1 119.3958 26.7281 47.9190 0.0000 0.0000 0.0000
# 2 26.7281 150.8563 15.1730 0.0000 0.0000 0.0000
# 3 47.9190 15.1730 120.5101 0.0000 0.0000 0.0000
# 4 0.0000 0.0000 0.0000 110.6776 0.0000 0.0000
# 5 0.0000 0.0000 0.0000 0.0000 24.6038 0.0000
# 6 0.0000 0.0000 0.0000 0.0000 0.0000 40.6212
#
#
#
# Elastic Compliance Matrix: (Units=1/GPa)
#
#
# Indices 1 2 3 4 5 6 
#
# 1 0.010260 -0.001426 -0.003900 0.000000 0.000000 0.000000
# 2 -0.001426 0.006912 -0.000303 0.000000 0.000000 0.000000
# 3 -0.003900 -0.000303 0.009887 0.000000 0.000000 0.000000
# 4 0.000000 0.000000 0.000000 0.009035 0.000000 0.000000
# 5 0.000000 0.000000 0.000000 0.000000 0.040644 0.000000
# 6 0.000000 0.000000 0.000000 0.000000 0.000000 0.024618
#
#
# Mechanical properties :
#
#
# Convention : Reuss Voigt Hill
#
# Bulk Modulus (GPa) = 63.28856 63.37804 63.33330
# Shear Modulus (GPa) = 42.41552 55.24333 48.82942
#
# Velocity S-wave (km/s) = 4.17542 4.76516 4.48001
# Velocity P-wave (km/s) = 7.01848 7.50507 7.26585
#
# Compressibility (1/GPa) = 0.01580064
#
# Stress axis : x y z
#
# Youngs Moduli (GPa) = 97.46620 144.67781 101.14159
#
# Poissons Ratio (x) = 0.20624 0.39448
# Poissons Ratio (y) = 0.13894 0.03069
# Poissons Ratio (z) = 0.38014 0.04390
#
# Static dielectric constant tensor:
#      x y z
#    x 4.439060 0.000000 0.000000 
#    y 0.000000 4.262450 0.000000 
#    z 0.000000 0.000000 4.524930 
# 
# 
# High freq. dielectric constant tensor:
#      x y z
#    x 1.971860 0.000000 0.000000 
#    y 0.000000 1.957990 0.000000 
#    z 0.000000 0.000000 1.986550 
# 
# From -- ./inp_files/20381.got.cif
#   From: 2010.03.12/outbox.cif.g09.slc.cpg/sg24_11_cif.got.tgz:20381.got - 2010.04.14 03:06:53.
