data_PCOD8165857
_publ_section_title
;
Structure prediction by ZEFSAII (Michael W. Deem and Ramdas Pophale) SiO2 
 PCOD8165857
Probable space group: I 21 21 21
;
_chemical_formula_sum "Si O2"
_cell_formula_units_Z 28
_cell_length_a 9.994577
_cell_length_b 18.793798
_cell_length_c 7.432647
_cell_angle_alpha 90.000000
_cell_angle_beta 90.000000
_cell_angle_gamma 90.000000
_cell_volume 1396.119137
_symmetry_space_group_name_H-M "I 21 21 21"
_symmetry_group_IT_number 24
_symmetry_cell_setting 'orthorhombic'
loop_
_space_group_symop_operation_xyz
x,y,z
-x,1/2-y,z
x,-y,1/2-z
1/2-x,y,-z
1/2+x,1/2+y,1/2+z
1/2-x,-y,1/2+z
1/2+x,1/2-y,-z
-x,1/2+y,1/2-z
loop_
_atom_site_type_symbol
_atom_site_label
_atom_site_fract_x
_atom_site_fract_y
_atom_site_fract_z
Si Si1 0.250000 0.111576 0.000000
Si Si2 0.533742 0.668078 0.739314
Si Si3 0.970224 0.928891 0.558681
Si Si4 0.102121 0.588003 0.954757
O O1 0.186280 0.159104 0.163875
O O2 0.368276 0.062006 0.078391
O O3 0.500000 0.750000 0.754223
O O4 0.434497 0.628044 0.597414
O O5 0.509704 0.631324 0.932876
O O6 0.916757 0.897623 0.744476
O O7 0.907996 0.004090 0.503176
O O8 0.250000 0.615928 0.000000
#
# Coordination Sequence:
#
# PCOD8165857 Si02
#       4
#     4   8   8   8
#     4   8  22  42  62  94 118 174 198 258 314 358
#     4  10  23  44  63  95 127 170 204 259 318 373
#     4   9  23  40  63  94 124 162 210 261 312 354
#     4  11  24  39  66  99 121 169 211 259 314 372
#
# _framework density 20.055595
#
# number of rings (size 3 to 8) (size 9 to 14) (size 15 to 20)
#    1.714    0.571    0.000    0.857    8.000    9.143 
#    5.143    0.000    0.000    0.000    0.000    0.000 
#    0.000    0.000    0.000    0.000    0.000    0.000 
#
# Total GULP energy -173449.734382 kJ/mol
# GULP energy per Si atom -12389.266742 kJ/mol
# Density = 2.000995 g / cm^3
# Si number density = 20.055595 Si / 1000 Ang^3
#
#
#
# Elastic Constant Matrix: (Units=GPa)
#
#
# Indices 1 2 3 4 5 6 
#
# 1 88.2217 -7.5170 3.5298 0.0003 0.0001 -0.0005
# 2 -7.5170 92.4504 50.3216 0.0006 -0.0001 -0.0010
# 3 3.5298 50.3216 79.1789 0.0026 -0.0015 -0.0034
# 4 0.0003 0.0006 0.0026 17.6924 0.0005 0.0008
# 5 0.0001 -0.0001 -0.0015 0.0005 36.7104 0.0002
# 6 -0.0005 -0.0010 -0.0034 0.0008 0.0002 18.4872
#
#
#
# Elastic Compliance Matrix: (Units=1/GPa)
#
#
# Indices 1 2 3 4 5 6 
#
# 1 0.011562 0.001866 -0.001702 0.000000 0.000000 0.000000
# 2 0.001866 0.016839 -0.010785 0.000001 0.000000 -0.000001
# 3 -0.001702 -0.010785 0.019560 -0.000002 0.000001 0.000003
# 4 0.000000 0.000001 -0.000002 0.056521 -0.000001 -0.000002
# 5 0.000000 0.000000 0.000001 -0.000001 0.027240 0.000000
# 6 0.000000 -0.000001 0.000003 -0.000002 0.000000 0.054091
#
#
# Mechanical properties :
#
#
# Convention : Reuss Voigt Hill
#
# Bulk Modulus (GPa) = 37.42479 39.16886 38.29682
# Shear Modulus (GPa) = 23.15236 28.81245 25.98240
#
# Velocity S-wave (km/s) = 3.40135 3.79440 3.60324
# Velocity P-wave (km/s) = 5.84179 6.22649 6.03721
#
# Compressibility (1/GPa) = 0.02672026
#
# Stress axis : x y z
#
# Youngs Moduli (GPa) = 86.48895 59.38717 51.12549
#
# Poissons Ratio (x) = -0.11083 0.08699
# Poissons Ratio (y) = -0.16141 0.55138
# Poissons Ratio (z) = 0.14716 0.64048
#
# Static dielectric constant tensor:
#      x y z
#    x 3.540690 0.000000 0.000000 
#    y 0.000000 3.264360 0.000000 
#    z 0.000000 0.000000 3.636440 
# 
# 
# High freq. dielectric constant tensor:
#      x y z
#    x 1.774420 0.000000 0.000000 
#    y 0.000000 1.758190 0.000000 
#    z 0.000000 0.000000 1.790280 
# 
# From -- ./inp_files/8881.got.cif
#   From: 2010.03.12/outbox.cif.g09.slc.cpg/sg24_5_cif.got.tgz:8881.got - 2010.04.14 03:06:53.
