data_PCOD8165443
_publ_section_title
;
Structure prediction by ZEFSAII (Michael W. Deem and Ramdas Pophale) SiO2 
 PCOD8165443
Probable space group: I 21 21 21
;
_chemical_formula_sum "Si O2"
_cell_formula_units_Z 36
_cell_length_a 13.205785
_cell_length_b 25.087435
_cell_length_c 5.025283
_cell_angle_alpha 90.000000
_cell_angle_beta 90.000000
_cell_angle_gamma 90.000000
_cell_volume 1664.872604
_symmetry_space_group_name_H-M "I 21 21 21"
_symmetry_group_IT_number 24
_symmetry_cell_setting 'orthorhombic'
loop_
_space_group_symop_operation_xyz
x,y,z
-x,1/2-y,z
x,-y,1/2-z
1/2-x,y,-z
1/2+x,1/2+y,1/2+z
1/2-x,-y,1/2+z
1/2+x,1/2-y,-z
-x,1/2+y,1/2-z
loop_
_atom_site_type_symbol
_atom_site_label
_atom_site_fract_x
_atom_site_fract_y
_atom_site_fract_z
Si Si1 0.437438 0.899354 0.957093
Si Si2 0.631352 0.219907 0.993828
Si Si3 0.367175 0.348478 0.490471
Si Si4 0.817421 0.500000 0.250000
Si Si5 0.131689 0.837270 0.533758
O O1 0.560781 0.900706 0.974381
O O2 0.390130 0.955422 0.873557
O O3 0.413333 0.855659 0.741504
O O4 0.390797 0.879279 0.233813
O O5 0.605739 0.197441 0.702554
O O6 0.750000 0.229971 0.000000
O O7 0.600381 0.175232 0.206286
O O8 0.581528 0.277897 0.064545
O O9 0.250000 0.366838 0.500000
O O10 0.750000 0.521428 0.500000
O O11 0.250000 0.832839 0.500000
#
# Coordination Sequence:
#
# PCOD8165443 Si02
#       5
#     8   8   8   4   8
#     4  12  24  38  63  87 113 159 202 241 301 351
#     4   9  19  35  56  85 126 163 191 234 288 340
#     4  10  21  38  58  86 123 159 195 238 284 346
#     4  12  26  46  66  88 118 148 192 256 312 354
#     4  11  22  37  58  90 124 156 198 242 288 355
#
# _framework density 21.623277000000002
#
# number of rings (size 3 to 8) (size 9 to 14) (size 15 to 20)
#    0.000    1.333    0.000    6.667    0.000    8.889 
#    0.000    0.000    0.000    8.000    0.000    0.000 
#    0.000    0.000    0.000    0.000    0.000    0.000 
#
# Total GULP energy -223103.194075 kJ/mol
# GULP energy per Si atom -12394.621893 kJ/mol
# Density = 2.157406 g / cm^3
# Si number density = 21.623277 Si / 1000 Ang^3
#
#
#
# Elastic Constant Matrix: (Units=GPa)
#
#
# Indices 1 2 3 4 5 6 
#
# 1 113.9819 80.6312 51.6089 -0.3526 -0.0850 -0.0376
# 2 80.6312 140.7414 69.8118 -0.8875 -0.1824 0.0280
# 3 51.6089 69.8118 186.9174 -0.5303 -0.1874 0.0413
# 4 -0.3526 -0.8875 -0.5303 209.0270 -0.4102 -0.2908
# 5 -0.0850 -0.1824 -0.1874 -0.4102 27.0860 -0.0452
# 6 -0.0376 0.0280 0.0413 -0.2908 -0.0452 31.7039
#
#
#
# Elastic Compliance Matrix: (Units=1/GPa)
#
#
# Indices 1 2 3 4 5 6 
#
# 1 0.014947 -0.007998 -0.001140 -0.000012 -0.000015 0.000026
# 2 -0.007998 0.013001 -0.002647 0.000035 0.000045 -0.000017
# 3 -0.001140 -0.002647 0.006653 0.000004 0.000025 -0.000008
# 4 -0.000012 0.000035 0.000004 0.004784 0.000073 0.000044
# 5 -0.000015 0.000045 0.000025 0.000073 0.036921 0.000053
# 6 0.000026 -0.000017 -0.000008 0.000044 0.000053 0.031542
#
#
# Mechanical properties :
#
#
# Convention : Reuss Voigt Hill
#
# Bulk Modulus (GPa) = 90.65218 93.97160 92.31189
# Shear Modulus (GPa) = 37.01061 69.53596 53.27329
#
# Velocity S-wave (km/s) = 4.14165 5.67695 4.96895
# Velocity P-wave (km/s) = 8.05515 9.30178 8.70082
#
# Compressibility (1/GPa) = 0.01103117
#
# Stress axis : x y z
#
# Youngs Moduli (GPa) = 66.90219 76.91920 150.29867
#
# Poissons Ratio (x) = 0.61520 0.17132
# Poissons Ratio (y) = 0.53508 0.39787
# Poissons Ratio (z) = 0.07626 0.20362
#
# Static dielectric constant tensor:
#      x y z
#    x 4.239080 0.000100 0.007400 
#    y 0.000100 3.621050 -0.000300 
#    z 0.007400 -0.000300 3.910420 
# 
# 
# High freq. dielectric constant tensor:
#      x y z
#    x 1.875850 0.000000 0.000000 
#    y 0.000000 1.812480 -0.000020 
#    z 0.000000 -0.000020 1.868030 
# 
# From -- ./inp_files/3363.got.cif
#   From: 2010.03.12/outbox.cif.g09.slc.cpg/sg24_2_cif.got.tgz:3363.got - 2010.04.14 03:06:53.
