data_PCOD8165904
_publ_section_title
;
Structure prediction by ZEFSAII (Michael W. Deem and Ramdas Pophale) SiO2 
 PCOD8165904
Probable space group: I 21 21 21
;
_chemical_formula_sum "Si O2"
_cell_formula_units_Z 60
_cell_length_a 6.459200
_cell_length_b 20.749659
_cell_length_c 21.834061
_cell_angle_alpha 90.000000
_cell_angle_beta 90.000000
_cell_angle_gamma 90.000000
_cell_volume 2926.336170
_symmetry_space_group_name_H-M "I 21 21 21"
_symmetry_group_IT_number 24
_symmetry_cell_setting 'orthorhombic'
loop_
_space_group_symop_operation_xyz
x,y,z
-x,1/2-y,z
x,-y,1/2-z
1/2-x,y,-z
1/2+x,1/2+y,1/2+z
1/2-x,-y,1/2+z
1/2+x,1/2-y,-z
-x,1/2+y,1/2-z
loop_
_atom_site_type_symbol
_atom_site_label
_atom_site_fract_x
_atom_site_fract_y
_atom_site_fract_z
Si Si1 0.770710 0.923564 0.433784
Si Si2 0.141996 0.331040 0.275300
Si Si3 0.500000 0.750000 0.167057
Si Si4 0.482828 0.178565 0.860840
Si Si5 0.131774 0.982076 0.064164
Si Si6 0.229986 0.864426 0.141179
Si Si7 0.858912 0.414631 0.868228
Si Si8 0.485505 0.426587 0.261527
O O1 0.750000 0.890846 0.500000
O O2 0.542449 0.938088 0.411134
O O3 0.848559 0.869629 0.387397
O O4 0.895385 0.991680 0.441066
O O5 0.318448 0.277308 0.288795
O O6 0.258368 0.399149 0.275233
O O7 0.021189 0.317964 0.212261
O O8 0.972408 0.332372 0.328955
O O9 0.394066 0.806397 0.125295
O O10 0.500000 0.250000 0.888565
O O11 0.261145 0.151553 0.884302
O O12 0.155453 0.906223 0.082141
O O13 0.207688 0.024869 0.121867
O O14 0.250000 0.994662 0.000000
O O15 0.348691 0.913813 0.185572
O O16 0.919924 0.397688 0.799612
O O17 0.443619 0.500000 0.250000
#
# Coordination Sequence:
#
# PCOD8165904 Si02
#       8
#     8   8   4   8   8   8   8   8
#     4  11  24  43  62  87 127 172 211 271 324 376
#     4  11  23  38  62  95 128 168 205 258 326 382
#     4  10  24  42  64  86 136 168 202 260 326 394
#     4  11  24  38  62  91 126 174 222 262 310 379
#     4  11  24  42  69  92 122 164 216 265 322 391
#     4  11  23  40  64  95 125 163 210 261 323 393
#     4  11  22  41  60  91 130 163 209 266 322 369
#     4  11  22  35  60  95 130 161 201 262 321 386
#
# _framework density 20.503453
#
# number of rings (size 3 to 8) (size 9 to 14) (size 15 to 20)
#    0.000    1.067    5.333    1.200    3.733    1.067 
#    2.400    0.000    2.933    0.000    0.000    0.000 
#    0.000    0.000    0.000    0.000    0.000    0.000 
#
# Total GULP energy -371655.505314 kJ/mol
# GULP energy per Si atom -12388.516844 kJ/mol
# Density = 2.045679 g / cm^3
# Si number density = 20.503453 Si / 1000 Ang^3
#
#
#
# Elastic Constant Matrix: (Units=GPa)
#
#
# Indices 1 2 3 4 5 6 
#
# 1 119.0897 53.0815 23.3198 0.0000 0.0000 0.0000
# 2 53.0815 139.5095 21.9948 0.0000 0.0000 0.0000
# 3 23.3198 21.9948 58.3826 0.0000 0.0000 -0.0002
# 4 0.0000 0.0000 0.0000 11.8936 0.0000 -0.0001
# 5 0.0000 0.0000 0.0000 0.0000 24.8478 0.0000
# 6 0.0000 0.0000 -0.0002 -0.0001 0.0000 -368.4334
#
#
#
# Elastic Compliance Matrix: (Units=1/GPa)
#
#
# Indices 1 2 3 4 5 6 
#
# 1 0.010546 -0.003560 -0.002871 0.000000 0.000000 0.000000
# 2 -0.003560 0.008822 -0.001902 0.000000 0.000000 0.000000
# 3 -0.002871 -0.001902 0.018992 0.000000 0.000000 0.000000
# 4 0.000000 0.000000 0.000000 0.084079 0.000000 0.000000
# 5 0.000000 0.000000 0.000000 0.000000 0.040245 0.000000
# 6 0.000000 0.000000 0.000000 0.000000 0.000000 -0.002714
#
#
# Mechanical properties :
#
#
# Convention : Reuss Voigt Hill
#
# Bulk Modulus (GPa) = 46.09530 57.08602 51.59066
# Shear Modulus (GPa) = 27.19361 -51.76601 -12.28620
#
# Velocity S-wave (km/s) = 3.64578 -5.03014 -2.45057
# Velocity P-wave (km/s) = 6.34451 2.41532 4.14844
#
# Compressibility (1/GPa) = 0.02169419
#
# Stress axis : x y z
#
# Youngs Moduli (GPa) = 94.82230 113.34903 52.65459
#
# Poissons Ratio (x) = 0.40352 0.15118
# Poissons Ratio (y) = 0.33756 0.10013
# Poissons Ratio (z) = 0.27226 0.21556
#
# Static dielectric constant tensor:
#      x y z
#    x 3.970690 0.000000 0.000000 
#    y 0.000000 3.807830 0.000000 
#    z 0.000000 0.000000 5.781520 
# 
# 
# High freq. dielectric constant tensor:
#      x y z
#    x 1.818400 0.000000 0.000000 
#    y 0.000000 1.802050 0.000000 
#    z 0.000000 0.000000 1.771730 
# 
# From -- ./inp_files/34805.got.cif
#   From: 2010.03.12/outbox.cif.g09.slc.cpg/sg24_18_cif.got.tgz:34805.got - 2010.04.14 03:06:53.
