data_PCOD8165452
_publ_section_title
;
Structure prediction by ZEFSAII (Michael W. Deem and Ramdas Pophale) SiO2 
 PCOD8165452
Probable space group: I 21 21 21
;
_chemical_formula_sum "Si O2"
_cell_formula_units_Z 56
_cell_length_a 23.651508
_cell_length_b 5.073264
_cell_length_c 24.107309
_cell_angle_alpha 90.000000
_cell_angle_beta 90.000000
_cell_angle_gamma 90.000000
_cell_volume 2892.644302
_symmetry_space_group_name_H-M "I 21 21 21"
_symmetry_group_IT_number 24
_symmetry_cell_setting 'orthorhombic'
loop_
_space_group_symop_operation_xyz
x,y,z
-x,1/2-y,z
x,-y,1/2-z
1/2-x,y,-z
1/2+x,1/2+y,1/2+z
1/2-x,-y,1/2+z
1/2+x,1/2-y,-z
-x,1/2+y,1/2-z
loop_
_atom_site_type_symbol
_atom_site_label
_atom_site_fract_x
_atom_site_fract_y
_atom_site_fract_z
Si Si1 0.962130 0.496791 0.685986
Si Si2 0.345401 0.819964 0.876612
Si Si3 0.812807 0.838855 0.566870
Si Si4 0.347064 0.839714 0.132394
Si Si5 0.818366 0.843997 0.441702
Si Si6 0.250120 0.245228 0.287562
Si Si7 0.433932 0.752665 0.785397
O O1 0.942552 0.500000 0.750000
O O2 0.907910 0.462457 0.646879
O O3 0.000000 0.250000 0.673048
O O4 0.000000 0.750000 0.670377
O O5 0.350463 0.611927 0.926353
O O6 0.292922 0.737517 0.838276
O O7 0.403535 0.783824 0.843854
O O8 0.338376 0.110721 0.901352
O O9 0.814686 0.565641 0.599449
O O10 0.835331 0.781704 0.504973
O O11 0.747400 0.915266 0.565014
O O12 0.849300 0.071620 0.595884
O O13 0.313747 0.776600 0.189133
O O14 0.245090 0.500000 0.250000
O O15 0.233467 0.000000 0.250000
O O16 0.500000 0.750000 0.798340
O O17 0.414476 0.500000 0.750000
O O18 0.414796 0.000000 0.750000
#
# Coordination Sequence:
#
# PCOD8165452 Si02
#       7
#     8   8   8   8   8   8   8
#     4  10  22  40  61  86 115 156 202 239 286 356
#     4  12  21  38  58  86 121 158 193 244 297 351
#     4  11  22  39  59  87 117 155 201 243 293 361
#     4  12  22  39  61  86 119 153 195 246 299 351
#     4  11  22  38  60  85 119 155 201 242 293 361
#     4  12  23  34  52  86 124 152 184 235 304 362
#     4  10  21  38  60  86 117 159 203 237 281 351
#
# _framework density 19.359448
#
# number of rings (size 3 to 8) (size 9 to 14) (size 15 to 20)
#    0.000    0.857    2.857    5.571    0.000    4.000 
#    0.000    0.000    0.000    8.571    0.000    0.000 
#    0.000    0.000    0.000    0.000    0.000    0.000 
#
# Total GULP energy -347266.013771 kJ/mol
# GULP energy per Si atom -12402.357635 kJ/mol
# Density = 1.931538 g / cm^3
# Si number density = 19.359448 Si / 1000 Ang^3
#
#
#
# Elastic Constant Matrix: (Units=GPa)
#
#
# Indices 1 2 3 4 5 6 
#
# 1 62.9268 19.5686 28.5763 0.0000 0.0000 0.0000
# 2 19.5686 134.9008 36.1303 0.0000 0.0000 0.0000
# 3 28.5763 36.1303 89.3265 0.0000 0.0000 0.0000
# 4 0.0000 0.0000 0.0000 28.2336 0.0000 0.0000
# 5 0.0000 0.0000 0.0000 0.0000 25.3190 0.0000
# 6 0.0000 0.0000 0.0000 0.0000 0.0000 -59.4044
#
#
#
# Elastic Compliance Matrix: (Units=1/GPa)
#
#
# Indices 1 2 3 4 5 6 
#
# 1 0.018779 -0.001251 -0.005502 0.000000 0.000000 0.000000
# 2 -0.001251 0.008397 -0.002996 0.000000 0.000000 0.000000
# 3 -0.005502 -0.002996 0.014167 0.000000 0.000000 0.000000
# 4 0.000000 0.000000 0.000000 0.035419 0.000000 0.000000
# 5 0.000000 0.000000 0.000000 0.000000 0.039496 0.000000
# 6 0.000000 0.000000 0.000000 0.000000 0.000000 -0.016834
#
#
# Mechanical properties :
#
#
# Convention : Reuss Voigt Hill
#
# Bulk Modulus (GPa) = 45.77606 50.63383 48.20495
# Shear Modulus (GPa) = 39.61899 12.35488 25.98694
#
# Velocity S-wave (km/s) = 4.52873 2.52897 3.66777
# Velocity P-wave (km/s) = 7.14440 5.89398 6.54910
#
# Compressibility (1/GPa) = 0.02184548
#
# Stress axis : x y z
#
# Youngs Moduli (GPa) = 53.25161 119.09405 70.58754
#
# Poissons Ratio (x) = 0.14893 0.38835
# Poissons Ratio (y) = 0.06659 0.21149
# Poissons Ratio (z) = 0.29297 0.35683
#
# Static dielectric constant tensor:
#      x y z
#    x 3.317780 0.000000 0.000000 
#    y 0.000000 3.687820 0.000000 
#    z 0.000000 0.000000 3.832010 
# 
# 
# High freq. dielectric constant tensor:
#      x y z
#    x 1.734550 0.000000 0.000000 
#    y 0.000000 1.776980 0.000000 
#    z 0.000000 0.000000 1.755270 
# 
# From -- ./inp_files/34258.got.cif
#   From: 2010.03.12/outbox.cif.g09.slc.cpg/sg24_18_cif.got.tgz:34258.got - 2010.04.14 03:06:53.
