data_PCOD8165236
_publ_section_title
;
Structure prediction by ZEFSAII (Michael W. Deem and Ramdas Pophale) SiO2 
 PCOD8165236
Probable space group: I 21 21 21
;
_chemical_formula_sum "Si O2"
_cell_formula_units_Z 56
_cell_length_a 22.332711
_cell_length_b 6.727713
_cell_length_c 19.032848
_cell_angle_alpha 90.000000
_cell_angle_beta 90.000000
_cell_angle_gamma 90.000000
_cell_volume 2859.648681
_symmetry_space_group_name_H-M "I 21 21 21"
_symmetry_group_IT_number 24
_symmetry_cell_setting 'orthorhombic'
loop_
_space_group_symop_operation_xyz
x,y,z
-x,1/2-y,z
x,-y,1/2-z
1/2-x,y,-z
1/2+x,1/2+y,1/2+z
1/2-x,-y,1/2+z
1/2+x,1/2-y,-z
-x,1/2+y,1/2-z
loop_
_atom_site_type_symbol
_atom_site_label
_atom_site_fract_x
_atom_site_fract_y
_atom_site_fract_z
Si Si1 0.660285 0.745217 0.414055
Si Si2 0.000000 0.250000 0.576608
Si Si3 0.829093 0.713762 0.136333
Si Si4 0.185776 0.500000 0.250000
Si Si5 0.257865 0.877205 0.686034
Si Si6 0.285313 0.342005 0.432610
Si Si7 0.551959 0.910621 0.325283
Si Si8 0.384251 0.891320 0.009761
O O1 0.709780 0.609420 0.376151
O O2 0.609923 0.805703 0.357925
O O3 0.631700 0.625331 0.480352
O O4 0.696184 0.930945 0.444364
O O5 0.031013 0.414449 0.624086
O O6 0.046270 0.142184 0.524537
O O7 0.855473 0.865986 0.195924
O O8 0.820049 0.488614 0.163682
O O9 0.760896 0.802588 0.130269
O O10 0.869449 0.703171 0.066637
O O11 0.227531 0.650549 0.294224
O O12 0.228941 0.000000 0.750000
O O13 0.250000 0.261271 0.500000
O O14 0.347128 0.219282 0.428439
O O15 0.500000 0.750000 0.314921
O O16 0.570202 0.000000 0.250000
#
# Coordination Sequence:
#
# PCOD8165236 Si02
#       8
#     8   4   8   4   8   8   8   8
#     4  12  23  35  58  87 119 162 200 253 298 359
#     4  12  24  46  58  84 122 154 214 264 296 354
#     4  10  21  38  59  92 119 161 194 247 306 372
#     4  10  20  38  58  88 130 158 192 236 304 384
#     4  10  22  34  55  86 126 153 195 241 297 367
#     4  10  21  34  55  87 122 156 193 237 304 363
#     4  12  26  41  60  81 115 168 220 257 299 337
#     4  11  24  38  61  86 121 154 205 255 303 356
#
# _framework density 19.582823999999999
#
# number of rings (size 3 to 8) (size 9 to 14) (size 15 to 20)
#    0.000    1.143    6.429    0.000    3.000    1.714 
#    0.000    0.000    0.000    0.000    5.571    0.000 
#    0.000    0.000    0.000    0.000    0.000    0.000 
#
# Total GULP energy -347007.130014 kJ/mol
# GULP energy per Si atom -12393.111786 kJ/mol
# Density = 1.953825 g / cm^3
# Si number density = 19.582824 Si / 1000 Ang^3
#
#
#
# Elastic Constant Matrix: (Units=GPa)
#
#
# Indices 1 2 3 4 5 6 
#
# 1 53.7625 16.5986 26.6085 0.0000 0.0000 0.0000
# 2 16.5986 100.6327 30.1940 0.0000 0.0000 0.0000
# 3 26.6085 30.1940 92.9042 0.0000 0.0000 0.0000
# 4 0.0000 0.0000 0.0000 36.7584 0.0000 0.0000
# 5 0.0000 0.0000 0.0000 0.0000 18.9087 0.0000
# 6 0.0000 0.0000 0.0000 0.0000 0.0000 24.9104
#
#
#
# Elastic Compliance Matrix: (Units=1/GPa)
#
#
# Indices 1 2 3 4 5 6 
#
# 1 0.022004 -0.001926 -0.005676 0.000000 0.000000 0.000000
# 2 -0.001926 0.011179 -0.003082 0.000000 0.000000 0.000000
# 3 -0.005676 -0.003082 0.013391 0.000000 0.000000 0.000000
# 4 0.000000 0.000000 0.000000 0.027205 0.000000 0.000000
# 5 0.000000 0.000000 0.000000 0.000000 0.052886 0.000000
# 6 0.000000 0.000000 0.000000 0.000000 0.000000 0.040144
#
#
# Mechanical properties :
#
#
# Convention : Reuss Voigt Hill
#
# Bulk Modulus (GPa) = 39.67219 43.78905 41.73062
# Shear Modulus (GPa) = 25.43500 27.70872 26.57186
#
# Velocity S-wave (km/s) = 3.60785 3.76566 3.68760
# Velocity P-wave (km/s) = 6.13662 6.42779 6.28389
#
# Compressibility (1/GPa) = 0.02520657
#
# Stress axis : x y z
#
# Youngs Moduli (GPa) = 45.44553 89.44957 74.67708
#
# Poissons Ratio (x) = 0.17231 0.42388
# Poissons Ratio (y) = 0.08755 0.23013
# Poissons Ratio (z) = 0.25795 0.27565
#
# Static dielectric constant tensor:
#      x y z
#    x 3.280250 0.000000 0.000000 
#    y 0.000000 3.791970 0.000000 
#    z 0.000000 0.000000 3.541010 
# 
# 
# High freq. dielectric constant tensor:
#      x y z
#    x 1.719980 0.000000 0.000000 
#    y 0.000000 1.786990 0.000000 
#    z 0.000000 0.000000 1.759170 
# 
# From -- ./inp_files/36140.got.cif
#   From: 2010.03.12/outbox.cif.g09.slc.cpg/sg24_19_cif.got.tgz:36140.got - 2010.04.14 03:06:53.
