data_PCOD8165081
_publ_section_title
;
Structure prediction by ZEFSAII (Michael W. Deem and Ramdas Pophale) SiO2 
 PCOD8165081
Probable space group: I 21 21 21
;
_chemical_formula_sum "Si O2"
_cell_formula_units_Z 56
_cell_length_a 25.031520
_cell_length_b 4.973213
_cell_length_c 23.609037
_cell_angle_alpha 90.000000
_cell_angle_beta 90.000000
_cell_angle_gamma 90.000000
_cell_volume 2939.020094
_symmetry_space_group_name_H-M "I 21 21 21"
_symmetry_group_IT_number 24
_symmetry_cell_setting 'orthorhombic'
loop_
_space_group_symop_operation_xyz
x,y,z
-x,1/2-y,z
x,-y,1/2-z
1/2-x,y,-z
1/2+x,1/2+y,1/2+z
1/2-x,-y,1/2+z
1/2+x,1/2-y,-z
-x,1/2+y,1/2-z
loop_
_atom_site_type_symbol
_atom_site_label
_atom_site_fract_x
_atom_site_fract_y
_atom_site_fract_z
Si Si1 0.185146 0.603407 0.066976
Si Si2 0.465044 0.001778 0.885283
Si Si3 0.149980 0.146250 0.550909
Si Si4 0.964665 0.502120 0.981785
Si Si5 0.296269 0.624769 0.403880
Si Si6 0.848785 0.605613 0.366918
Si Si7 0.742561 0.743206 0.711637
O O1 0.245556 0.498758 0.063069
O O2 0.148318 0.356101 0.088943
O O3 0.184657 0.853952 0.109578
O O4 0.162220 0.705198 0.007975
O O5 0.500000 0.250000 0.866226
O O6 0.408779 0.010818 0.852272
O O7 0.500000 0.750000 0.866489
O O8 0.451196 0.001955 0.951739
O O9 0.090228 0.028198 0.552931
O O10 0.159025 0.386481 0.596795
O O11 0.187643 0.890404 0.561330
O O12 0.000000 0.750000 0.964274
O O13 0.000000 0.250000 0.962727
O O14 0.283370 0.710041 0.339933
O O15 0.817657 0.693466 0.310542
O O16 0.763840 0.500000 0.750000
O O17 0.740123 0.000000 0.750000
#
# Coordination Sequence:
#
# PCOD8165081 Si02
#       7
#     8   8   8   8   8   8   8
#     4  11  22  35  54  83 122 156 186 227 273 350
#     4  10  20  33  54  79 113 149 198 241 267 322
#     4  12  22  37  56  84 125 157 182 232 274 340
#     4  10  21  35  53  79 117 163 196 216 262 325
#     4  11  24  37  56  86 113 151 194 228 293 350
#     4  11  21  37  59  84 110 152 205 233 288 344
#     4  11  23  42  61  80 110 148 192 251 296 348
#
# _framework density 19.053971000000001
#
# number of rings (size 3 to 8) (size 9 to 14) (size 15 to 20)
#    0.000    1.143    1.429    7.286    4.000    2.286 
#    0.000    0.000    0.000    1.714    0.000    0.000 
#    0.000   32.000    0.000    0.000    0.000    0.000 
#
# Total GULP energy -347194.692499 kJ/mol
# GULP energy per Si atom -12399.810446 kJ/mol
# Density = 1.901060 g / cm^3
# Si number density = 19.053971 Si / 1000 Ang^3
#
#
#
# Elastic Constant Matrix: (Units=GPa)
#
#
# Indices 1 2 3 4 5 6 
#
# 1 89.9823 47.7356 41.2953 0.0000 0.0000 0.0000
# 2 47.7356 167.8714 41.4198 0.0000 0.0000 0.0000
# 3 41.2953 41.4198 62.9983 0.0000 0.0000 0.0000
# 4 0.0000 0.0000 0.0000 34.1536 0.0000 0.0000
# 5 0.0000 0.0000 0.0000 0.0000 17.5551 0.0000
# 6 0.0000 0.0000 0.0000 0.0000 0.0000 32.2396
#
#
#
# Elastic Compliance Matrix: (Units=1/GPa)
#
#
# Indices 1 2 3 4 5 6 
#
# 1 0.016694 -0.002444 -0.009337 0.000000 0.000000 0.000000
# 2 -0.002444 0.007468 -0.003308 0.000000 0.000000 0.000000
# 3 -0.009337 -0.003308 0.024169 0.000000 0.000000 0.000000
# 4 0.000000 0.000000 0.000000 0.029279 0.000000 0.000000
# 5 0.000000 0.000000 0.000000 0.000000 0.056963 0.000000
# 6 0.000000 0.000000 0.000000 0.000000 0.000000 0.031018
#
#
# Mechanical properties :
#
#
# Convention : Reuss Voigt Hill
#
# Bulk Modulus (GPa) = 55.08348 64.63927 59.86138
# Shear Modulus (GPa) = 24.77453 29.48308 27.12881
#
# Velocity S-wave (km/s) = 3.60978 3.93790 3.77740
# Velocity P-wave (km/s) = 6.80779 7.39419 7.10704
#
# Compressibility (1/GPa) = 0.01815426
#
# Stress axis : x y z
#
# Youngs Moduli (GPa) = 59.90038 133.90357 41.37585
#
# Poissons Ratio (x) = 0.32720 0.38631
# Poissons Ratio (y) = 0.14637 0.13689
# Poissons Ratio (z) = 0.55926 0.44300
#
# Static dielectric constant tensor:
#      x y z
#    x 3.501590 0.000000 0.000000 
#    y 0.000000 3.942630 0.000000 
#    z 0.000000 0.000000 3.160320 
# 
# 
# High freq. dielectric constant tensor:
#      x y z
#    x 1.734400 0.000000 0.000000 
#    y 0.000000 1.777400 0.000000 
#    z 0.000000 0.000000 1.693540 
# 
# From -- ./inp_files/34252.got.cif
#   From: 2010.03.12/outbox.cif.g09.slc.cpg/sg24_18_cif.got.tgz:34252.got - 2010.04.14 03:06:53.
