data_PCOD8165292
_publ_section_title
;
Structure prediction by ZEFSAII (Michael W. Deem and Ramdas Pophale) SiO2 
 PCOD8165292
Probable space group: I 21 21 21
;
_chemical_formula_sum "Si O2"
_cell_formula_units_Z 48
_cell_length_a 9.602263
_cell_length_b 27.458825
_cell_length_c 9.243878
_cell_angle_alpha 90.000000
_cell_angle_beta 90.000000
_cell_angle_gamma 90.000000
_cell_volume 2437.304280
_symmetry_space_group_name_H-M "I 21 21 21"
_symmetry_group_IT_number 24
_symmetry_cell_setting 'orthorhombic'
loop_
_space_group_symop_operation_xyz
x,y,z
-x,1/2-y,z
x,-y,1/2-z
1/2-x,y,-z
1/2+x,1/2+y,1/2+z
1/2-x,-y,1/2+z
1/2+x,1/2-y,-z
-x,1/2+y,1/2-z
loop_
_atom_site_type_symbol
_atom_site_label
_atom_site_fract_x
_atom_site_fract_y
_atom_site_fract_z
Si Si1 0.661040 0.541430 0.866387
Si Si2 0.994178 0.804109 0.325091
Si Si3 0.735625 0.132824 0.161331
Si Si4 0.838298 0.045272 0.356976
Si Si5 0.273306 0.852263 0.834400
Si Si6 0.967087 0.305301 0.845974
O O1 0.670941 0.500000 0.750000
O O2 0.499499 0.552927 0.903187
O O3 0.739992 0.589825 0.810866
O O4 0.750000 0.521075 0.000000
O O5 0.071142 0.838733 0.212191
O O6 0.064260 0.806388 0.483358
O O7 0.000000 0.750000 0.262340
O O8 0.835246 0.820465 0.333281
O O9 0.776111 0.092856 0.279429
O O10 0.584751 0.155127 0.195459
O O11 0.750000 0.109525 0.000000
O O12 0.750000 0.034543 0.500000
O O13 0.822444 0.000000 0.250000
O O14 0.170096 0.822175 0.734921
O O15 0.250000 0.837779 0.000000
O O16 0.000000 0.250000 0.796527
#
# Coordination Sequence:
#
# PCOD8165292 Si02
#       6
#     8   8   8   8   8   8
#     4  10  24  44  63  92 124 160 203 250 305 368
#     4  10  20  39  63  87 121 162 208 257 301 357
#     4  10  21  38  61  92 122 161 205 254 308 356
#     4  11  24  43  66  92 125 159 202 253 308 368
#     4  11  23  39  59  92 126 161 202 250 309 367
#     4  10  22  39  63  91 122 163 214 254 299 360
#
# _framework density 19.693888999999999
#
# number of rings (size 3 to 8) (size 9 to 14) (size 15 to 20)
#    0.000    1.667    1.667    2.000    4.667    5.333 
#    3.000    1.667    0.000    0.000    0.000    0.000 
#    0.000    0.000    0.000    0.000    0.000    0.000 
#
# Total GULP energy -297627.141823 kJ/mol
# GULP energy per Si atom -12401.130909 kJ/mol
# Density = 1.964906 g / cm^3
# Si number density = 19.693889 Si / 1000 Ang^3
#
#
#
# Elastic Constant Matrix: (Units=GPa)
#
#
# Indices 1 2 3 4 5 6 
#
# 1 78.9598 24.9642 40.0892 -0.0194 -0.0108 -0.0011
# 2 24.9642 82.9684 36.6247 -0.0107 -0.0065 -0.0013
# 3 40.0892 36.6247 82.9278 -0.0636 -0.0432 -0.0062
# 4 -0.0194 -0.0107 -0.0636 27.4971 -0.0075 0.0011
# 5 -0.0108 -0.0065 -0.0432 -0.0075 33.8316 -0.0034
# 6 -0.0011 -0.0013 -0.0062 0.0011 -0.0034 28.0163
#
#
#
# Elastic Compliance Matrix: (Units=1/GPa)
#
#
# Indices 1 2 3 4 5 6 
#
# 1 0.017009 -0.001849 -0.007406 -0.000006 -0.000004 -0.000001
# 2 -0.001849 0.015172 -0.005807 -0.000009 -0.000005 -0.000001
# 3 -0.007406 -0.005807 0.018204 0.000035 0.000020 0.000003
# 4 -0.000006 -0.000009 0.000035 0.036368 0.000008 -0.000001
# 5 -0.000004 -0.000005 0.000020 0.000008 0.029558 0.000004
# 6 -0.000001 -0.000001 0.000003 -0.000001 0.000004 0.035694
#
#
# Mechanical properties :
#
#
# Convention : Reuss Voigt Hill
#
# Bulk Modulus (GPa) = 49.35468 49.80133 49.57800
# Shear Modulus (GPa) = 26.47138 27.41418 26.94278
#
# Velocity S-wave (km/s) = 3.67023 3.73502 3.70277
# Velocity P-wave (km/s) = 6.56324 6.62896 6.59618
#
# Compressibility (1/GPa) = 0.02026150
#
# Stress axis : x y z
#
# Youngs Moduli (GPa) = 58.79084 65.90885 54.93339
#
# Poissons Ratio (x) = 0.12184 0.40686
# Poissons Ratio (y) = 0.10868 0.31901
# Poissons Ratio (z) = 0.43543 0.38275
#
# Static dielectric constant tensor:
#      x y z
#    x 3.694780 0.000000 0.000020 
#    y 0.000000 3.574790 -0.000010 
#    z 0.000020 -0.000010 3.606120 
# 
# 
# High freq. dielectric constant tensor:
#      x y z
#    x 1.777000 0.000000 0.000000 
#    y 0.000000 1.777430 0.000000 
#    z 0.000000 0.000000 1.761040 
# 
# From -- ./inp_files/9725.got.cif
#   From: 2010.03.12/outbox.cif.g09.slc.cpg/sg24_5_cif.got.tgz:9725.got - 2010.04.14 03:06:53.
