data_PCOD8165974
_publ_section_title
;
Structure prediction by ZEFSAII (Michael W. Deem and Ramdas Pophale) SiO2 
 PCOD8165974
Probable space group: I 21 21 21
;
_chemical_formula_sum "Si O2"
_cell_formula_units_Z 28
_cell_length_a 7.663236
_cell_length_b 8.934206
_cell_length_c 15.966203
_cell_angle_alpha 90.000000
_cell_angle_beta 90.000000
_cell_angle_gamma 90.000000
_cell_volume 1093.124956
_symmetry_space_group_name_H-M "I 21 21 21"
_symmetry_group_IT_number 24
_symmetry_cell_setting 'orthorhombic'
loop_
_space_group_symop_operation_xyz
x,y,z
-x,1/2-y,z
x,-y,1/2-z
1/2-x,y,-z
1/2+x,1/2+y,1/2+z
1/2-x,-y,1/2+z
1/2+x,1/2-y,-z
-x,1/2+y,1/2-z
loop_
_atom_site_type_symbol
_atom_site_label
_atom_site_fract_x
_atom_site_fract_y
_atom_site_fract_z
Si Si1 0.000000 0.250000 0.946398
Si Si2 0.297929 0.229004 0.356214
Si Si3 0.000000 0.250000 0.226112
Si Si4 0.750000 0.510487 0.500000
Si Si5 0.251819 0.455205 0.157907
O O1 0.917172 0.379318 0.004579
O O2 0.858164 0.174288 0.887028
O O3 0.500000 0.250000 0.329758
O O4 0.240658 0.390744 0.395986
O O5 0.171997 0.199330 0.277450
O O6 0.268136 0.093755 0.419385
O O7 0.944494 0.107878 0.169928
O O8 0.331754 0.500000 0.250000
#
# Coordination Sequence:
#
# PCOD8165974 Si02
#       5
#     4   8   4   4   8
#     4  12  28  47  76 115 160 208 262 334 392 464
#     4  11  25  53  80 115 155 212 260 327 395 483
#     4  10  26  45  82 121 154 200 260 334 404 478
#     4  12  30  50  80 108 166 212 268 326 396 478
#     4  10  25  49  76 116 152 199 261 325 405 467
#
# _framework density 25.614636999999998
#
# number of rings (size 3 to 8) (size 9 to 14) (size 15 to 20)
#    0.000    1.143    2.857    0.000   10.000   13.714 
#    0.000    0.000    0.000    0.000    0.000    0.000 
#    0.000    0.000    0.000    0.000    0.000    0.000 
#
# Total GULP energy -173435.054071 kJ/mol
# GULP energy per Si atom -12388.218148 kJ/mol
# Density = 2.555634 g / cm^3
# Si number density = 25.614637 Si / 1000 Ang^3
#
#
#
# Elastic Constant Matrix: (Units=GPa)
#
#
# Indices 1 2 3 4 5 6 
#
# 1 198.5462 100.1641 56.8878 0.0000 0.0000 0.0000
# 2 100.1641 229.6818 52.4941 0.0000 0.0000 0.0000
# 3 56.8878 52.4941 55.8766 0.0000 0.0000 0.0000
# 4 0.0000 0.0000 0.0000 41.1504 0.0000 0.0000
# 5 0.0000 0.0000 0.0000 0.0000 17.4656 0.0000
# 6 0.0000 0.0000 0.0000 0.0000 0.0000 61.0211
#
#
#
# Elastic Compliance Matrix: (Units=1/GPa)
#
#
# Indices 1 2 3 4 5 6 
#
# 1 0.007780 -0.002015 -0.006028 0.000000 0.000000 0.000000
# 2 -0.002015 0.006066 -0.003647 0.000000 0.000000 0.000000
# 3 -0.006028 -0.003647 0.027460 0.000000 0.000000 0.000000
# 4 0.000000 0.000000 0.000000 0.024301 0.000000 0.000000
# 5 0.000000 0.000000 0.000000 0.000000 0.057255 0.000000
# 6 0.000000 0.000000 0.000000 0.000000 0.000000 0.016388
#
#
# Mechanical properties :
#
#
# Convention : Reuss Voigt Hill
#
# Bulk Modulus (GPa) = 55.78564 100.35519 78.07041
# Shear Modulus (GPa) = 29.65470 42.23133 35.94302
#
# Velocity S-wave (km/s) = 3.40623 4.06485 3.75002
# Velocity P-wave (km/s) = 6.10704 7.82908 7.02106
#
# Compressibility (1/GPa) = 0.01792576
#
# Stress axis : x y z
#
# Youngs Moduli (GPa) = 128.52701 164.84404 36.41656
#
# Poissons Ratio (x) = 0.33222 0.21952
# Poissons Ratio (y) = 0.25903 0.13282
# Poissons Ratio (z) = 0.77475 0.60123
#
# Static dielectric constant tensor:
#      x y z
#    x 4.913600 0.000000 0.000000 
#    y 0.000000 5.539920 0.000000 
#    z 0.000000 0.000000 4.372590 
# 
# 
# High freq. dielectric constant tensor:
#      x y z
#    x 2.025750 0.000000 0.000000 
#    y 0.000000 2.060100 0.000000 
#    z 0.000000 0.000000 1.994840 
# 
# From -- ./inp_files/13680.got.cif
#   From: 2010.03.12/outbox.cif.g09.slc.cpg/sg24_7_cif.got.tgz:13680.got - 2010.04.14 03:06:53.
