data_PCOD8165539
_publ_section_title
;
Structure prediction by ZEFSAII (Michael W. Deem and Ramdas Pophale) SiO2 
 PCOD8165539
Probable space group: I 21 21 21
;
_chemical_formula_sum "Si O2"
_cell_formula_units_Z 32
_cell_length_a 5.201397
_cell_length_b 14.351184
_cell_length_c 17.855863
_cell_angle_alpha 90.000000
_cell_angle_beta 90.000000
_cell_angle_gamma 90.000000
_cell_volume 1332.872417
_symmetry_space_group_name_H-M "I 21 21 21"
_symmetry_group_IT_number 24
_symmetry_cell_setting 'orthorhombic'
loop_
_space_group_symop_operation_xyz
x,y,z
-x,1/2-y,z
x,-y,1/2-z
1/2-x,y,-z
1/2+x,1/2+y,1/2+z
1/2-x,-y,1/2+z
1/2+x,1/2-y,-z
-x,1/2+y,1/2-z
loop_
_atom_site_type_symbol
_atom_site_label
_atom_site_fract_x
_atom_site_fract_y
_atom_site_fract_z
Si Si1 0.501298 0.532605 0.549247
Si Si2 0.328631 0.333823 0.582620
Si Si3 0.009697 0.138887 0.200667
Si Si4 0.012544 0.354076 0.721871
O O1 0.750000 0.547242 0.500000
O O2 0.495817 0.427371 0.580180
O O3 0.530488 0.604837 0.616228
O O4 0.250000 0.554656 0.500000
O O5 0.500000 0.250000 0.619512
O O6 0.250000 0.301169 0.500000
O O7 0.071538 0.352340 0.632219
O O8 0.243614 0.099144 0.253118
O O9 0.000000 0.250000 0.200824
O O10 0.751547 0.095486 0.237063
O O11 0.000000 0.250000 0.753531
#
# Coordination Sequence:
#
# PCOD8165539 Si02
#       4
#     8   8   8   8
#     4  11  25  43  65  97 130 167 219 265 316 389
#     4  11  23  41  65  93 129 173 216 267 320 377
#     4  10  22  42  66  94 128 163 206 264 321 378
#     4  10  21  40  65  93 125 164 211 259 316 383
#
# _framework density 24.008300999999999
#
# number of rings (size 3 to 8) (size 9 to 14) (size 15 to 20)
#    0.000    1.500    0.000    5.250    0.000    8.000 
#    0.000    7.500    0.000    0.000    0.000    0.000 
#    0.000    0.000    0.000    0.000    0.000    0.000 
#
# Total GULP energy -198376.129860 kJ/mol
# GULP energy per Si atom -12398.508116 kJ/mol
# Density = 2.395366 g / cm^3
# Si number density = 24.008301 Si / 1000 Ang^3
#
#
#
# Elastic Constant Matrix: (Units=GPa)
#
#
# Indices 1 2 3 4 5 6 
#
# 1 209.5795 30.3007 101.0699 0.0000 0.0000 0.0000
# 2 30.3007 51.0261 41.4543 0.0000 -0.0002 0.0000
# 3 101.0699 41.4543 177.2244 0.0000 -0.0001 0.0000
# 4 0.0000 0.0000 0.0000 22.5969 0.0000 0.0000
# 5 0.0000 -0.0002 -0.0001 0.0000 361.9886 0.0000
# 6 0.0000 0.0000 0.0000 0.0000 0.0000 17.3966
#
#
#
# Elastic Compliance Matrix: (Units=1/GPa)
#
#
# Indices 1 2 3 4 5 6 
#
# 1 0.006628 -0.001068 -0.003530 0.000000 0.000000 0.000000
# 2 -0.001068 0.024368 -0.005091 0.000000 0.000000 0.000000
# 3 -0.003530 -0.005091 0.008847 0.000000 0.000000 0.000000
# 4 0.000000 0.000000 0.000000 0.044254 0.000000 0.000000
# 5 0.000000 0.000000 0.000000 0.000000 0.002763 0.000000
# 6 0.000000 0.000000 0.000000 0.000000 0.000000 0.057483
#
#
# Mechanical properties :
#
#
# Convention : Reuss Voigt Hill
#
# Bulk Modulus (GPa) = 48.86468 87.05331 67.95899
# Shear Modulus (GPa) = 29.31838 98.06344 63.69091
#
# Velocity S-wave (km/s) = 3.49833 6.39799 5.15619
# Velocity P-wave (km/s) = 6.05930 9.53507 7.98851
#
# Compressibility (1/GPa) = 0.02046468
#
# Stress axis : x y z
#
# Youngs Moduli (GPa) = 150.86702 41.03766 113.03742
#
# Poissons Ratio (x) = 0.04383 0.39905
# Poissons Ratio (y) = 0.16113 0.57545
# Poissons Ratio (z) = 0.53260 0.20891
#
# Static dielectric constant tensor:
#      x y z
#    x 4.788800 0.000000 0.000000 
#    y 0.000000 -2.561790 0.000000 
#    z 0.000000 0.000000 4.169570 
# 
# 
# High freq. dielectric constant tensor:
#      x y z
#    x 1.970290 0.000000 0.000000 
#    y 0.000000 1.937000 0.000000 
#    z 0.000000 0.000000 1.956720 
# 
# From -- ./inp_files/3186.got.cif
#   From: 2010.03.12/outbox.cif.g09.slc.cpg/sg24_2_cif.got.tgz:3186.got - 2010.04.14 03:06:53.
