data_PCOD8165742
_publ_section_title
;
Structure prediction by ZEFSAII (Michael W. Deem and Ramdas Pophale) SiO2 
 PCOD8165742
Probable space group: I 21 21 21
;
_chemical_formula_sum "Si O2"
_cell_formula_units_Z 40
_cell_length_a 13.915030
_cell_length_b 14.500065
_cell_length_c 8.549374
_cell_angle_alpha 90.000000
_cell_angle_beta 90.000000
_cell_angle_gamma 90.000000
_cell_volume 1724.997270
_symmetry_space_group_name_H-M "I 21 21 21"
_symmetry_group_IT_number 24
_symmetry_cell_setting 'orthorhombic'
loop_
_space_group_symop_operation_xyz
x,y,z
-x,1/2-y,z
x,-y,1/2-z
1/2-x,y,-z
1/2+x,1/2+y,1/2+z
1/2-x,-y,1/2+z
1/2+x,1/2-y,-z
-x,1/2+y,1/2-z
loop_
_atom_site_type_symbol
_atom_site_label
_atom_site_fract_x
_atom_site_fract_y
_atom_site_fract_z
Si Si1 0.547603 0.437575 0.536728
Si Si2 0.806827 0.669020 0.846347
Si Si3 0.134678 0.116993 0.161779
Si Si4 0.852737 0.983637 0.567787
Si Si5 0.391791 0.273951 0.079499
O O1 0.594904 0.383425 0.391573
O O2 0.608433 0.532586 0.548563
O O3 0.555257 0.379658 0.698631
O O4 0.435156 0.452761 0.507597
O O5 0.737924 0.601305 0.745332
O O6 0.832064 0.756525 0.738273
O O7 0.750000 0.704373 0.000000
O O8 0.141177 0.211235 0.065774
O O9 0.750000 0.013385 0.500000
O O10 0.876617 0.878207 0.524971
O O11 0.853069 0.000000 0.750000
O O12 0.500000 0.250000 0.120000
#
# Coordination Sequence:
#
# PCOD8165742 Si02
#       5
#     8   8   8   8   8
#     4  10  23  44  67 108 142 176 230 296 365 427
#     4  10  23  42  69 107 140 176 230 303 372 420
#     4  10  22  41  73 103 136 182 232 294 363 436
#     4  12  28  48  73  99 143 200 247 295 355 436
#     4  12  24  45  71 101 141 189 242 297 356 427
#
# _framework density 23.188442999999999
#
# number of rings (size 3 to 8) (size 9 to 14) (size 15 to 20)
#    0.000    1.200    2.000    3.000    2.800   10.400 
#    0.000    8.000    0.000    0.000    0.000    0.000 
#    0.000    0.000    0.000    0.000    0.000    0.000 
#
# Total GULP energy -248000.804105 kJ/mol
# GULP energy per Si atom -12400.040205 kJ/mol
# Density = 2.313567 g / cm^3
# Si number density = 23.188443 Si / 1000 Ang^3
#
#
#
# Elastic Constant Matrix: (Units=GPa)
#
#
# Indices 1 2 3 4 5 6 
#
# 1 164.3981 26.7984 60.3073 0.0000 0.0000 0.0000
# 2 26.7984 65.6065 46.6304 0.0000 0.0000 0.0000
# 3 60.3073 46.6304 130.3710 0.0000 0.0000 0.0000
# 4 0.0000 0.0000 0.0000 24.5687 0.0000 0.0000
# 5 0.0000 0.0000 0.0000 0.0000 40.3079 0.0000
# 6 0.0000 0.0000 0.0000 0.0000 0.0000 32.2046
#
#
#
# Elastic Compliance Matrix: (Units=1/GPa)
#
#
# Indices 1 2 3 4 5 6 
#
# 1 0.007356 -0.000786 -0.003122 0.000000 0.000000 0.000000
# 2 -0.000786 0.020522 -0.006977 0.000000 0.000000 0.000000
# 3 -0.003122 -0.006977 0.011610 0.000000 0.000000 0.000000
# 4 0.000000 0.000000 0.000000 0.040702 0.000000 0.000000
# 5 0.000000 0.000000 0.000000 0.000000 0.024809 0.000000
# 6 0.000000 0.000000 0.000000 0.000000 0.000000 0.031051
#
#
# Mechanical properties :
#
#
# Convention : Reuss Voigt Hill
#
# Bulk Modulus (GPa) = 56.43532 69.76090 63.09811
# Shear Modulus (GPa) = 30.53884 34.52553 32.53219
#
# Velocity S-wave (km/s) = 3.63297 3.86283 3.74966
# Velocity P-wave (km/s) = 6.47985 7.07424 6.78356
#
# Compressibility (1/GPa) = 0.01771940
#
# Stress axis : x y z
#
# Youngs Moduli (GPa) = 135.94238 48.72776 86.13402
#
# Poissons Ratio (x) = 0.03830 0.26888
# Poissons Ratio (y) = 0.10685 0.60093
# Poissons Ratio (z) = 0.42436 0.33996
#
# Static dielectric constant tensor:
#      x y z
#    x 4.715860 0.000000 0.000000 
#    y 0.000000 4.008720 0.000000 
#    z 0.000000 0.000000 4.339930 
# 
# 
# High freq. dielectric constant tensor:
#      x y z
#    x 1.927590 0.000000 0.000000 
#    y 0.000000 1.891450 0.000000 
#    z 0.000000 0.000000 1.931110 
# 
# From -- ./inp_files/12295.got.cif
#   From: 2010.03.12/outbox.cif.g09.slc.cpg/sg24_7_cif.got.tgz:12295.got - 2010.04.14 03:06:53.
