data_PCOD8165043
_publ_section_title
;
Structure prediction by ZEFSAII (Michael W. Deem and Ramdas Pophale) SiO2 
 PCOD8165043
Probable space group: I 21 21 21
;
_chemical_formula_sum "Si O2"
_cell_formula_units_Z 40
_cell_length_a 7.929641
_cell_length_b 14.528340
_cell_length_c 16.177323
_cell_angle_alpha 90.000000
_cell_angle_beta 90.000000
_cell_angle_gamma 90.000000
_cell_volume 1863.700740
_symmetry_space_group_name_H-M "I 21 21 21"
_symmetry_group_IT_number 24
_symmetry_cell_setting 'orthorhombic'
loop_
_space_group_symop_operation_xyz
x,y,z
-x,1/2-y,z
x,-y,1/2-z
1/2-x,y,-z
1/2+x,1/2+y,1/2+z
1/2-x,-y,1/2+z
1/2+x,1/2-y,-z
-x,1/2+y,1/2-z
loop_
_atom_site_type_symbol
_atom_site_label
_atom_site_fract_x
_atom_site_fract_y
_atom_site_fract_z
Si Si1 0.500000 0.250000 0.165044
Si Si2 0.250000 0.026678 0.000000
Si Si3 0.789969 0.433769 0.676216
Si Si4 0.910802 0.090390 0.953380
Si Si5 0.670179 0.060043 0.325286
Si Si6 0.314381 0.745655 0.781280
O O1 0.513074 0.157180 0.114192
O O2 0.674602 0.257201 0.212240
O O3 0.428969 0.078354 0.984844
O O4 0.282673 0.974613 0.085126
O O5 0.716719 0.500000 0.750000
O O6 0.691609 0.338079 0.663918
O O7 0.982336 0.409407 0.701259
O O8 0.837066 0.997209 0.910639
O O9 0.750000 0.134770 0.000000
O O10 0.782409 0.152793 0.335317
O O11 0.748805 0.000000 0.250000
O O12 0.500000 0.750000 0.740698
#
# Coordination Sequence:
#
# PCOD8165043 Si02
#       6
#     4   4   8   8   8   8
#     4  12  24  48  66 102 146 172 244 288 362 414
#     4  10  24  44  68 102 140 182 242 286 358 418
#     4  10  21  43  70  97 141 185 234 297 351 419
#     4  11  26  43  69  98 142 188 222 293 357 425
#     4  10  19  44  68  94 135 177 231 288 347 412
#     4  12  24  39  72 104 130 186 236 290 355 426
#
# _framework density 21.462672999999999
#
# number of rings (size 3 to 8) (size 9 to 14) (size 15 to 20)
#    0.000    1.200    4.000    2.400    4.200    4.000 
#    1.800    0.000    0.000    0.000    0.000    0.000 
#    0.000    0.000    0.000    0.000    0.000    0.000 
#
# Total GULP energy -247791.641288 kJ/mol
# GULP energy per Si atom -12389.582064 kJ/mol
# Density = 2.141382 g / cm^3
# Si number density = 21.462673 Si / 1000 Ang^3
#
#
#
# Elastic Constant Matrix: (Units=GPa)
#
#
# Indices 1 2 3 4 5 6 
#
# 1 164.7469 37.3788 34.1276 0.0000 0.0000 0.0000
# 2 37.3788 111.0952 20.5891 0.0000 0.0000 0.0000
# 3 34.1276 20.5891 80.4465 0.0000 0.0000 0.0000
# 4 0.0000 0.0000 0.0000 13.3801 0.0000 0.0000
# 5 0.0000 0.0000 0.0000 0.0000 17.5599 0.0000
# 6 0.0000 0.0000 0.0000 0.0000 0.0000 10.2060
#
#
#
# Elastic Compliance Matrix: (Units=1/GPa)
#
#
# Indices 1 2 3 4 5 6 
#
# 1 0.007017 -0.001899 -0.002491 0.000000 0.000000 0.000000
# 2 -0.001899 0.009964 -0.001744 0.000000 0.000000 0.000000
# 3 -0.002491 -0.001744 0.013934 0.000000 0.000000 0.000000
# 4 0.000000 0.000000 0.000000 0.074738 0.000000 0.000000
# 5 0.000000 0.000000 0.000000 0.000000 0.056948 0.000000
# 6 0.000000 0.000000 0.000000 0.000000 0.000000 0.097981
#
#
# Mechanical properties :
#
#
# Convention : Reuss Voigt Hill
#
# Bulk Modulus (GPa) = 53.63192 60.05328 56.84260
# Shear Modulus (GPa) = 17.91698 25.84207 21.87953
#
# Velocity S-wave (km/s) = 2.89242 3.47370 3.19630
# Velocity P-wave (km/s) = 6.01644 6.64303 6.33748
#
# Compressibility (1/GPa) = 0.01864561
#
# Stress axis : x y z
#
# Youngs Moduli (GPa) = 142.51577 100.36558 71.76875
#
# Poissons Ratio (x) = 0.19062 0.17875
# Poissons Ratio (y) = 0.27067 0.12519
# Poissons Ratio (z) = 0.35495 0.17507
#
# Static dielectric constant tensor:
#      x y z
#    x 4.100090 0.000000 0.000000 
#    y 0.000000 5.313600 0.000000 
#    z 0.000000 0.000000 3.634370 
# 
# 
# High freq. dielectric constant tensor:
#      x y z
#    x 1.851780 0.000000 0.000000 
#    y 0.000000 1.849990 0.000000 
#    z 0.000000 0.000000 1.818190 
# 
# From -- ./inp_files/24568.got.cif
#   From: 2010.03.12/outbox.cif.g09.slc.cpg/sg24_13_cif.got.tgz:24568.got - 2010.04.14 03:06:53.
