data_PCOD8165059
_publ_section_title
;
Structure prediction by ZEFSAII (Michael W. Deem and Ramdas Pophale) SiO2 
 PCOD8165059
Probable space group: I 21 21 21
;
_chemical_formula_sum "Si O2"
_cell_formula_units_Z 48
_cell_length_a 9.222714
_cell_length_b 14.830656
_cell_length_c 17.432599
_cell_angle_alpha 90.000000
_cell_angle_beta 90.000000
_cell_angle_gamma 90.000000
_cell_volume 2384.411693
_symmetry_space_group_name_H-M "I 21 21 21"
_symmetry_group_IT_number 24
_symmetry_cell_setting 'orthorhombic'
loop_
_space_group_symop_operation_xyz
x,y,z
-x,1/2-y,z
x,-y,1/2-z
1/2-x,y,-z
1/2+x,1/2+y,1/2+z
1/2-x,-y,1/2+z
1/2+x,1/2-y,-z
-x,1/2+y,1/2-z
loop_
_atom_site_type_symbol
_atom_site_label
_atom_site_fract_x
_atom_site_fract_y
_atom_site_fract_z
Si Si1 0.155100 0.755283 0.313862
Si Si2 0.816025 0.401529 0.582869
Si Si3 0.157092 0.734365 0.141149
Si Si4 0.865317 0.085821 0.642247
Si Si5 0.622124 0.111677 0.180408
Si Si6 0.810746 0.435572 0.822617
O O1 0.130499 0.712206 0.230232
O O2 0.279885 0.693538 0.353636
O O3 0.191024 0.860808 0.307720
O O4 0.000000 0.750000 0.358111
O O5 0.750000 0.381355 0.500000
O O6 0.758909 0.321665 0.636726
O O7 0.753792 0.497926 0.610686
O O8 0.991099 0.403839 0.589465
O O9 0.238755 0.647476 0.104232
O O10 0.000000 0.750000 0.100546
O O11 0.894993 0.121730 0.727903
O O12 0.810323 0.982617 0.649798
O O13 0.456996 0.115588 0.150094
O O14 0.846079 0.500000 0.750000
#
# Coordination Sequence:
#
# PCOD8165059 Si02
#       6
#     8   8   8   8   8   8
#     4  10  20  32  53  85 114 138 176 232 289 322
#     4  11  22  35  53  78 108 146 186 230 273 325
#     4  10  20  32  50  81 114 147 178 214 274 342
#     4   9  17  33  54  78 110 141 186 221 268 324
#     4   9  16  32  56  83 105 142 183 226 271 325
#     4  11  18  35  56  78 104 145 188 229 271 330
#
# _framework density 20.130752000000001
#
# number of rings (size 3 to 8) (size 9 to 14) (size 15 to 20)
#    0.000    2.000    5.000    1.000    0.000    5.333 
#    3.000    0.000    0.000    4.000    0.000    0.000 
#    0.000    0.000    0.000    0.000    0.000    0.000 
#
# Total GULP energy -297383.132656 kJ/mol
# GULP energy per Si atom -12390.963861 kJ/mol
# Density = 2.008493 g / cm^3
# Si number density = 20.130752 Si / 1000 Ang^3
#
#
#
# Elastic Constant Matrix: (Units=GPa)
#
#
# Indices 1 2 3 4 5 6 
#
# 1 129.0034 79.1433 19.3067 0.0000 0.0000 0.0000
# 2 79.1433 125.4612 8.8577 0.0000 0.0000 0.0000
# 3 19.3067 8.8577 25.3869 0.0000 0.0000 0.0000
# 4 0.0000 0.0000 0.0000 8.6120 0.0000 0.0000
# 5 0.0000 0.0000 0.0000 0.0000 13.2614 0.0000
# 6 0.0000 0.0000 0.0000 0.0000 0.0000 31.3784
#
#
#
# Elastic Compliance Matrix: (Units=1/GPa)
#
#
# Indices 1 2 3 4 5 6 
#
# 1 0.013990 -0.008278 -0.007751 0.000000 0.000000 0.000000
# 2 -0.008278 0.013070 0.001735 0.000000 0.000000 0.000000
# 3 -0.007751 0.001735 0.044680 0.000000 0.000000 0.000000
# 4 0.000000 0.000000 0.000000 0.116118 0.000000 0.000000
# 5 0.000000 0.000000 0.000000 0.000000 0.075407 0.000000
# 6 0.000000 0.000000 0.000000 0.000000 0.000000 0.031869
#
#
# Mechanical properties :
#
#
# Convention : Reuss Voigt Hill
#
# Bulk Modulus (GPa) = 23.17398 54.94077 39.05738
# Shear Modulus (GPa) = 14.78824 22.15327 18.47075
#
# Velocity S-wave (km/s) = 2.71331 3.32093 3.03238
# Velocity P-wave (km/s) = 4.62091 6.48506 5.63066
#
# Compressibility (1/GPa) = 0.04315185
#
# Stress axis : x y z
#
# Youngs Moduli (GPa) = 71.47713 76.51031 22.38142
#
# Poissons Ratio (x) = 0.63337 0.17349
# Poissons Ratio (y) = 0.59170 -0.03884
# Poissons Ratio (z) = 0.55405 -0.13277
#
# Static dielectric constant tensor:
#      x y z
#    x 3.877290 0.000000 0.000000 
#    y 0.000000 3.898600 0.000000 
#    z 0.000000 0.000000 3.049320 
# 
# 
# High freq. dielectric constant tensor:
#      x y z
#    x 1.789860 0.000000 0.000000 
#    y 0.000000 1.797940 0.000000 
#    z 0.000000 0.000000 1.712520 
# 
# From -- ./inp_files/14204.got.cif
#   From: 2010.03.12/outbox.cif.g09.slc.cpg/sg24_8_cif.got.tgz:14204.got - 2010.04.14 03:06:53.
