data_PCOD8165532
_publ_section_title
;
Structure prediction by ZEFSAII (Michael W. Deem and Ramdas Pophale) SiO2 
 PCOD8165532
Probable space group: I 21 21 21
;
_chemical_formula_sum "Si O2"
_cell_formula_units_Z 48
_cell_length_a 14.495124
_cell_length_b 17.917830
_cell_length_c 8.830549
_cell_angle_alpha 90.000000
_cell_angle_beta 90.000000
_cell_angle_gamma 90.000000
_cell_volume 2293.480497
_symmetry_space_group_name_H-M "I 21 21 21"
_symmetry_group_IT_number 24
_symmetry_cell_setting 'orthorhombic'
loop_
_space_group_symop_operation_xyz
x,y,z
-x,1/2-y,z
x,-y,1/2-z
1/2-x,y,-z
1/2+x,1/2+y,1/2+z
1/2-x,-y,1/2+z
1/2+x,1/2-y,-z
-x,1/2+y,1/2-z
loop_
_atom_site_type_symbol
_atom_site_label
_atom_site_fract_x
_atom_site_fract_y
_atom_site_fract_z
Si Si1 0.328679 0.948831 0.104602
Si Si2 0.144863 0.683574 0.171689
Si Si3 0.500000 0.250000 0.229603
Si Si4 0.810012 0.919053 0.750523
Si Si5 0.150076 0.302953 0.988078
Si Si6 0.018520 0.388507 0.561636
Si Si7 0.250000 0.807215 0.000000
O O1 0.431818 0.943809 0.030855
O O2 0.336385 0.000000 0.250000
O O3 0.250000 0.988152 0.000000
O O4 0.295853 0.862052 0.127676
O O5 0.239931 0.637238 0.167713
O O6 0.108489 0.694143 0.343165
O O7 0.058357 0.642818 0.095337
O O8 0.169315 0.759534 0.081264
O O9 0.514912 0.321877 0.331174
O O10 0.410812 0.253633 0.122966
O O11 0.836689 0.886261 0.584743
O O12 0.900265 0.931817 0.852672
O O13 0.761525 0.000000 0.750000
O O14 0.250000 0.263698 0.000000
#
# Coordination Sequence:
#
# PCOD8165532 Si02
#       7
#     8   8   4   8   8   8   4
#     4  10  25  47  65  92 128 178 237 284 344 408
#     4  11  21  40  65 108 131 171 228 278 354 423
#     4  10  22  40  58  96 126 168 218 286 334 404
#     4  10  21  40  64  96 143 176 207 271 348 425
#     4   9  22  37  59  93 137 161 223 267 337 404
#     4  11  21  38  69  90 131 175 228 269 349 413
#     4  10  22  42  70  96 132 174 226 294 346 418
#
# _framework density 20.928889999999999
#
# number of rings (size 3 to 8) (size 9 to 14) (size 15 to 20)
#    0.500    1.333    1.667    1.500    4.667    6.000 
#    3.000    4.167    0.000    0.000    0.000    0.000 
#    0.000    0.000    0.000    0.000    0.000    0.000 
#
# Total GULP energy -297355.010945 kJ/mol
# GULP energy per Si atom -12389.792123 kJ/mol
# Density = 2.088126 g / cm^3
# Si number density = 20.928890 Si / 1000 Ang^3
#
#
#
# Elastic Constant Matrix: (Units=GPa)
#
#
# Indices 1 2 3 4 5 6 
#
# 1 129.5735 21.9976 48.1168 0.0000 0.0000 0.0000
# 2 21.9976 91.8300 37.7822 0.0000 0.0000 0.0000
# 3 48.1168 37.7822 141.7060 0.0000 0.0000 0.0000
# 4 0.0000 0.0000 0.0000 24.7482 0.0000 0.0000
# 5 0.0000 0.0000 0.0000 0.0000 38.5882 0.0000
# 6 0.0000 0.0000 0.0000 0.0000 0.0000 13.0196
#
#
#
# Elastic Compliance Matrix: (Units=1/GPa)
#
#
# Indices 1 2 3 4 5 6 
#
# 1 0.008912 -0.000999 -0.002760 0.000000 0.000000 0.000000
# 2 -0.000999 0.012344 -0.002952 0.000000 0.000000 0.000000
# 3 -0.002760 -0.002952 0.008781 0.000000 0.000000 0.000000
# 4 0.000000 0.000000 0.000000 0.040407 0.000000 0.000000
# 5 0.000000 0.000000 0.000000 0.000000 0.025915 0.000000
# 6 0.000000 0.000000 0.000000 0.000000 0.000000 0.076807
#
#
# Mechanical properties :
#
#
# Convention : Reuss Voigt Hill
#
# Bulk Modulus (GPa) = 60.18691 64.32255 62.25473
# Shear Modulus (GPa) = 26.02467 32.28538 29.15502
#
# Velocity S-wave (km/s) = 3.53013 3.93188 3.73641
# Velocity P-wave (km/s) = 6.74062 7.17032 6.95879
#
# Compressibility (1/GPa) = 0.01661491
#
# Stress axis : x y z
#
# Youngs Moduli (GPa) = 112.20704 81.01396 113.88333
#
# Poissons Ratio (x) = 0.08097 0.31428
# Poissons Ratio (y) = 0.11214 0.33615
# Poissons Ratio (z) = 0.30965 0.23913
#
# Static dielectric constant tensor:
#      x y z
#    x 3.979360 0.000000 0.000000 
#    y 0.000000 3.565540 0.000000 
#    z 0.000000 0.000000 3.834160 
# 
# 
# High freq. dielectric constant tensor:
#      x y z
#    x 1.830080 0.000000 0.000000 
#    y 0.000000 1.796240 0.000000 
#    z 0.000000 0.000000 1.812800 
# 
# From -- ./inp_files/12843.got.cif
#   From: 2010.03.12/outbox.cif.g09.slc.cpg/sg24_7_cif.got.tgz:12843.got - 2010.04.14 03:06:53.
