data_PCOD8165015
_publ_section_title
;
Structure prediction by ZEFSAII (Michael W. Deem and Ramdas Pophale) SiO2 
 PCOD8165015
Probable space group: I 21 21 21
;
_chemical_formula_sum "Si O2"
_cell_formula_units_Z 48
_cell_length_a 5.265121
_cell_length_b 16.047122
_cell_length_c 27.785514
_cell_angle_alpha 90.000000
_cell_angle_beta 90.000000
_cell_angle_gamma 90.000000
_cell_volume 2347.599162
_symmetry_space_group_name_H-M "I 21 21 21"
_symmetry_group_IT_number 24
_symmetry_cell_setting 'orthorhombic'
loop_
_space_group_symop_operation_xyz
x,y,z
-x,1/2-y,z
x,-y,1/2-z
1/2-x,y,-z
1/2+x,1/2+y,1/2+z
1/2-x,-y,1/2+z
1/2+x,1/2-y,-z
-x,1/2+y,1/2-z
loop_
_atom_site_type_symbol
_atom_site_label
_atom_site_fract_x
_atom_site_fract_y
_atom_site_fract_z
Si Si1 0.485697 0.935818 0.292945
Si Si2 0.504109 0.561077 0.120969
Si Si3 0.499812 0.082783 0.056326
Si Si4 0.985164 0.151816 0.236842
Si Si5 0.005638 0.348873 0.347491
Si Si6 0.499982 0.653222 0.549082
O O1 0.223734 0.885137 0.291526
O O2 0.724376 0.874345 0.288403
O O3 0.496046 0.000000 0.250000
O O4 0.502698 0.983793 0.342785
O O5 0.501869 0.515984 0.068697
O O6 0.258456 0.619172 0.126216
O O7 0.756141 0.615872 0.126596
O O8 0.749357 0.127842 0.079081
O O9 0.250838 0.128175 0.079112
O O10 0.499866 0.097283 0.999155
O O11 0.000000 0.250000 0.235161
O O12 0.991596 0.120447 0.292222
O O13 0.000000 0.250000 0.351232
O O14 0.500000 0.750000 0.535091
#
# Coordination Sequence:
#
# PCOD8165015 Si02
#       6
#     8   8   8   8   8   8
#     4  12  21  37  56  80 111 152 185 235 293 328
#     4  12  23  36  57  88 112 139 188 239 284 329
#     4  10  20  34  55  88 113 142 185 227 269 321
#     4  11  22  38  55  76 105 151 198 226 274 343
#     4  11  22  38  58  79 106 145 190 238 275 323
#     4  10  19  38  62  84 113 156 188 215 266 336
#
# _framework density 20.446421999999998
#
# number of rings (size 3 to 8) (size 9 to 14) (size 15 to 20)
#    0.000    1.000    3.333    6.000    0.000    2.667 
#    0.000    6.667    0.000    0.000    0.000   46.667 
#    0.000    0.000    0.000    0.000    0.000    0.000 
#
# Total GULP energy -297558.423399 kJ/mol
# GULP energy per Si atom -12398.267642 kJ/mol
# Density = 2.039988 g / cm^3
# Si number density = 20.446422 Si / 1000 Ang^3
#
#
#
# Elastic Constant Matrix: (Units=GPa)
#
#
# Indices 1 2 3 4 5 6 
#
# 1 190.5999 54.7754 15.8585 0.0000 0.0000 0.0000
# 2 54.7754 100.8508 37.8470 0.0000 0.0000 0.0000
# 3 15.8585 37.8470 41.6754 0.0000 0.0000 0.0000
# 4 0.0000 0.0000 0.0000 34.7069 0.0000 0.0000
# 5 0.0000 0.0000 0.0000 0.0000 9.0302 0.0000
# 6 0.0000 0.0000 0.0000 0.0000 0.0000 46.0274
#
#
#
# Elastic Compliance Matrix: (Units=1/GPa)
#
#
# Indices 1 2 3 4 5 6 
#
# 1 0.006248 -0.003795 0.001068 0.000000 0.000000 0.000000
# 2 -0.003795 0.017346 -0.014309 0.000000 0.000000 0.000000
# 3 0.001068 -0.014309 0.036583 0.000000 0.000000 0.000000
# 4 0.000000 0.000000 0.000000 0.028813 0.000000 0.000000
# 5 0.000000 0.000000 0.000000 0.000000 0.110740 0.000000
# 6 0.000000 0.000000 0.000000 0.000000 0.000000 0.021726
#
#
# Mechanical properties :
#
#
# Convention : Reuss Voigt Hill
#
# Bulk Modulus (GPa) = 38.30355 61.12088 49.71221
# Shear Modulus (GPa) = 18.92294 32.92924 25.92609
#
# Velocity S-wave (km/s) = 3.04549 4.01747 3.56476
# Velocity P-wave (km/s) = 5.58041 7.17483 6.42725
#
# Compressibility (1/GPa) = 0.02610724
#
# Stress axis : x y z
#
# Youngs Moduli (GPa) = 160.04638 57.64865 27.33503
#
# Poissons Ratio (x) = 0.21875 -0.02920
# Poissons Ratio (y) = 0.60730 0.39114
# Poissons Ratio (z) = -0.17099 0.82490
#
# Static dielectric constant tensor:
#      x y z
#    x 5.025790 0.000000 0.000000 
#    y 0.000000 3.720920 0.000000 
#    z 0.000000 0.000000 3.787830 
# 
# 
# High freq. dielectric constant tensor:
#      x y z
#    x 1.837860 0.000000 0.000000 
#    y 0.000000 1.798360 0.000000 
#    z 0.000000 0.000000 1.758570 
# 
# From -- ./inp_files/37883.got.cif
#   From: 2010.03.12/outbox.cif.g09.slc.cpg/sg24_19_cif.got.tgz:37883.got - 2010.04.14 03:06:53.
