data_PCOD8165487
_publ_section_title
;
Structure prediction by ZEFSAII (Michael W. Deem and Ramdas Pophale) SiO2 
 PCOD8165487
Probable space group: I 21 21 21
;
_chemical_formula_sum "Si O2"
_cell_formula_units_Z 48
_cell_length_a 17.640043
_cell_length_b 15.612154
_cell_length_c 9.082901
_cell_angle_alpha 90.000000
_cell_angle_beta 90.000000
_cell_angle_gamma 90.000000
_cell_volume 2501.422469
_symmetry_space_group_name_H-M "I 21 21 21"
_symmetry_group_IT_number 24
_symmetry_cell_setting 'orthorhombic'
loop_
_space_group_symop_operation_xyz
x,y,z
-x,1/2-y,z
x,-y,1/2-z
1/2-x,y,-z
1/2+x,1/2+y,1/2+z
1/2-x,-y,1/2+z
1/2+x,1/2-y,-z
-x,1/2+y,1/2-z
loop_
_atom_site_type_symbol
_atom_site_label
_atom_site_fract_x
_atom_site_fract_y
_atom_site_fract_z
Si Si1 0.047980 0.381192 0.935194
Si Si2 0.044975 0.404002 0.267544
Si Si3 0.963562 0.500000 0.750000
Si Si4 0.781075 0.917574 0.162111
Si Si5 0.302846 0.702299 0.363815
Si Si6 0.077795 0.819158 0.766099
Si Si7 0.000000 0.750000 0.029851
O O1 0.137183 0.372421 0.902028
O O2 0.018537 0.476187 0.889307
O O3 0.999836 0.314073 0.834743
O O4 0.038700 0.361364 0.107173
O O5 0.008729 0.500000 0.250000
O O6 0.128484 0.414403 0.333590
O O7 0.003677 0.336968 0.375448
O O8 0.910684 0.579431 0.799761
O O9 0.749413 0.829978 0.231209
O O10 0.751415 0.000000 0.250000
O O11 0.750000 0.927105 0.000000
O O12 0.250000 0.726270 0.500000
O O13 0.348360 0.787986 0.320988
O O14 0.070748 0.764915 0.917910
#
# Coordination Sequence:
#
# PCOD8165487 Si02
#       7
#     8   8   4   8   8   8   4
#     4  10  21  39  60  92 117 165 214 263 317 388
#     4  11  25  38  56  93 131 158 211 270 331 383
#     4   8  20  36  72  84 118 156 226 272 306 376
#     4  11  25  37  55  85 127 167 203 252 326 401
#     4  12  22  37  61  91 127 167 205 262 327 393
#     4  10  21  40  64  90 119 166 226 253 322 385
#     4  12  22  38  66  90 128 172 218 274 320 392
#
# _framework density 19.189081000000002
#
# number of rings (size 3 to 8) (size 9 to 14) (size 15 to 20)
#    1.000    0.333    3.333    2.500    5.833    0.000 
#    0.000    0.000    0.000    3.000    2.167    0.000 
#    0.000    0.000    0.000    0.000    0.000    0.000 
#
# Total GULP energy -297327.789367 kJ/mol
# GULP energy per Si atom -12388.657890 kJ/mol
# Density = 1.914541 g / cm^3
# Si number density = 19.189081 Si / 1000 Ang^3
#
#
#
# Elastic Constant Matrix: (Units=GPa)
#
#
# Indices 1 2 3 4 5 6 
#
# 1 67.4276 41.5356 33.2835 0.0000 0.0000 0.0000
# 2 41.5356 107.2511 51.1454 0.0000 0.0000 0.0000
# 3 33.2835 51.1454 149.3088 0.0000 0.0000 0.0000
# 4 0.0000 0.0000 0.0000 34.6083 0.0000 0.0000
# 5 0.0000 0.0000 0.0000 0.0000 27.7528 0.0000
# 6 0.0000 0.0000 0.0000 0.0000 0.0000 42.3180
#
#
#
# Elastic Compliance Matrix: (Units=1/GPa)
#
#
# Indices 1 2 3 4 5 6 
#
# 1 0.020045 -0.006732 -0.002162 0.000000 0.000000 0.000000
# 2 -0.006732 0.013405 -0.003091 0.000000 0.000000 0.000000
# 3 -0.002162 -0.003091 0.008238 0.000000 0.000000 0.000000
# 4 0.000000 0.000000 0.000000 0.028895 0.000000 0.000000
# 5 0.000000 0.000000 0.000000 0.000000 0.036032 0.000000
# 6 0.000000 0.000000 0.000000 0.000000 0.000000 0.023631
#
#
# Mechanical properties :
#
#
# Convention : Reuss Voigt Hill
#
# Bulk Modulus (GPa) = 56.44077 63.99072 60.21574
# Shear Modulus (GPa) = 31.22602 34.13734 32.68168
#
# Velocity S-wave (km/s) = 4.03833 4.22239 4.13139
# Velocity P-wave (km/s) = 7.15688 7.56249 7.36248
#
# Compressibility (1/GPa) = 0.01771769
#
# Stress axis : x y z
#
# Youngs Moduli (GPa) = 49.88809 74.59867 121.38159
#
# Poissons Ratio (x) = 0.50217 0.26248
# Poissons Ratio (y) = 0.33583 0.37522
# Poissons Ratio (z) = 0.10788 0.23060
#
# Static dielectric constant tensor:
#      x y z
#    x 3.162100 0.000000 0.000000 
#    y 0.000000 3.547030 0.000000 
#    z 0.000000 0.000000 3.516990 
# 
# 
# High freq. dielectric constant tensor:
#      x y z
#    x 1.708220 0.000000 0.000000 
#    y 0.000000 1.752500 0.000000 
#    z 0.000000 0.000000 1.758670 
# 
# From -- ./inp_files/14224.got.cif
#   From: 2010.03.12/outbox.cif.g09.slc.cpg/sg24_8_cif.got.tgz:14224.got - 2010.04.14 03:06:53.
