data_PCOD8165805
_publ_section_title
;
Structure prediction by ZEFSAII (Michael W. Deem and Ramdas Pophale) SiO2 
 PCOD8165805
Probable space group: I 21 21 21
;
_chemical_formula_sum "Si O2"
_cell_formula_units_Z 20
_cell_length_a 5.205550
_cell_length_b 29.614714
_cell_length_c 5.111625
_cell_angle_alpha 90.000000
_cell_angle_beta 90.000000
_cell_angle_gamma 90.000000
_cell_volume 788.012580
_symmetry_space_group_name_H-M "I 21 21 21"
_symmetry_group_IT_number 24
_symmetry_cell_setting 'orthorhombic'
loop_
_space_group_symop_operation_xyz
x,y,z
-x,1/2-y,z
x,-y,1/2-z
1/2-x,y,-z
1/2+x,1/2+y,1/2+z
1/2-x,-y,1/2+z
1/2+x,1/2-y,-z
-x,1/2+y,1/2-z
loop_
_atom_site_type_symbol
_atom_site_label
_atom_site_fract_x
_atom_site_fract_y
_atom_site_fract_z
Si Si1 0.250000 0.221273 0.500000
Si Si2 0.484065 0.402933 0.338383
Si Si3 0.250000 0.161552 0.000000
Si Si4 0.922825 0.500000 0.750000
O O1 0.500000 0.250000 0.422065
O O2 0.170017 0.191522 0.249353
O O3 0.750000 0.402003 0.500000
O O4 0.514888 0.371604 0.081552
O O5 0.406041 0.454558 0.265754
O O6 0.250000 0.381559 0.500000
O O7 0.750000 0.506573 0.500000
#
# Coordination Sequence:
#
# PCOD8165805 Si02
#       4
#     4   8   4   4
#     4  12  30  52  81 112 152 198 253 332 412 480
#     4  11  26  46  76 113 158 210 261 319 380 462
#     4  12  26  54  79 118 152 202 265 324 394 476
#     4  10  22  46  68 108 160 210 264 314 378 446
#
# _framework density 25.380306000000001
#
# number of rings (size 3 to 8) (size 9 to 14) (size 15 to 20)
#    0.000    0.800    4.000    1.200    2.800   11.200 
#    0.000    0.000    0.000    0.000    0.000    0.000 
#    0.000    0.000    0.000    0.000    0.000    0.000 
#
# Total GULP energy -123984.408257 kJ/mol
# GULP energy per Si atom -12398.440826 kJ/mol
# Density = 2.532254 g / cm^3
# Si number density = 25.380306 Si / 1000 Ang^3
#
#
#
# Elastic Constant Matrix: (Units=GPa)
#
#
# Indices 1 2 3 4 5 6 
#
# 1 143.8535 54.1391 54.7408 -0.0001 -0.0004 0.0011
# 2 54.1391 175.8933 66.9941 -0.0007 0.0015 -0.0028
# 3 54.7408 66.9941 187.4222 -0.0012 0.0017 0.0021
# 4 -0.0001 -0.0007 -0.0012 40.6002 -0.0001 -0.0038
# 5 -0.0004 0.0015 0.0017 -0.0001 47.3314 -0.0008
# 6 0.0011 -0.0028 0.0021 -0.0038 -0.0008 -13.3582
#
#
#
# Elastic Compliance Matrix: (Units=1/GPa)
#
#
# Indices 1 2 3 4 5 6 
#
# 1 0.008333 -0.001896 -0.001756 0.000000 0.000000 0.000001
# 2 -0.001896 0.007013 -0.001953 0.000000 0.000000 -0.000002
# 3 -0.001756 -0.001953 0.006547 0.000000 0.000000 0.000001
# 4 0.000000 0.000000 0.000000 0.024630 0.000000 -0.000007
# 5 0.000000 0.000000 0.000000 0.000000 0.021128 -0.000001
# 6 0.000001 -0.000002 0.000001 -0.000007 -0.000001 -0.074860
#
#
# Mechanical properties :
#
#
# Convention : Reuss Voigt Hill
#
# Bulk Modulus (GPa) = 93.61294 95.43522 94.52408
# Shear Modulus (GPa) = 661.25219 37.00102 349.12660
#
# Velocity S-wave (km/s) = 16.15869 3.82234 11.74124
# Velocity P-wave (km/s) = 19.62401 7.56069 14.87054
#
# Compressibility (1/GPa) = 0.01068228
#
# Stress axis : x y z
#
# Youngs Moduli (GPa) = 119.99912 142.59874 152.75227
#
# Poissons Ratio (x) = 0.27038 0.26826
# Poissons Ratio (y) = 0.22753 0.29831
# Poissons Ratio (z) = 0.21074 0.27848
#
# Static dielectric constant tensor:
#      x y z
#    x 4.079310 0.000020 0.000000 
#    y 0.000020 5.342600 -0.000010 
#    z 0.000000 -0.000010 4.777100 
# 
# 
# High freq. dielectric constant tensor:
#      x y z
#    x 1.990400 0.000000 0.000000 
#    y 0.000000 2.031620 0.000000 
#    z 0.000000 0.000000 2.031650 
# 
# From -- ./inp_files/422.got.cif
#   From: 2010.03.12/outbox.cif.g09.slc.cpg/sg24_1_cif.got.tgz:422.got - 2010.04.14 03:06:53.
