data_PCOD8165910
_publ_section_title
;
Structure prediction by ZEFSAII (Michael W. Deem and Ramdas Pophale) SiO2 
 PCOD8165910
Probable space group: I 21 21 21
;
_chemical_formula_sum "Si O2"
_cell_formula_units_Z 52
_cell_length_a 13.738578
_cell_length_b 7.870203
_cell_length_c 22.742725
_cell_angle_alpha 90.000000
_cell_angle_beta 90.000000
_cell_angle_gamma 90.000000
_cell_volume 2459.066187
_symmetry_space_group_name_H-M "I 21 21 21"
_symmetry_group_IT_number 24
_symmetry_cell_setting 'orthorhombic'
loop_
_space_group_symop_operation_xyz
x,y,z
-x,1/2-y,z
x,-y,1/2-z
1/2-x,y,-z
1/2+x,1/2+y,1/2+z
1/2-x,-y,1/2+z
1/2+x,1/2-y,-z
-x,1/2+y,1/2-z
loop_
_atom_site_type_symbol
_atom_site_label
_atom_site_fract_x
_atom_site_fract_y
_atom_site_fract_z
Si Si1 0.181017 0.149370 0.295179
Si Si2 0.212867 0.384047 0.875742
Si Si3 0.268442 0.500000 0.750000
Si Si4 0.977329 0.058266 0.934738
Si Si5 0.115053 0.458299 0.449846
Si Si6 0.750000 0.315751 0.500000
Si Si7 0.000000 0.250000 0.359894
Si Si8 0.820479 0.487401 0.611233
O O1 0.170484 0.331518 0.263528
O O2 0.076649 0.131883 0.325521
O O3 0.194766 0.000000 0.250000
O O4 0.275700 0.136221 0.338336
O O5 0.210863 0.457389 0.809729
O O6 0.124277 0.488693 0.904294
O O7 0.304298 0.420158 0.919299
O O8 0.198622 0.182289 0.871735
O O9 0.000000 0.250000 0.919006
O O10 0.065667 0.949646 0.905268
O O11 0.961445 0.046177 0.005365
O O12 0.157993 0.302941 0.487312
O O13 0.055428 0.391855 0.395561
O O14 0.761490 0.444341 0.553294
#
# Coordination Sequence:
#
# PCOD8165910 Si02
#       8
#     8   8   4   8   8   4   4   8
#     4  12  27  49  71 100 138 185 234 295 350 411
#     4  11  23  44  73 101 139 185 232 288 340 409
#     4  12  24  50  72  96 136 188 234 290 350 396
#     4  10  24  42  68 106 135 178 231 282 347 422
#     4  12  23  43  68 103 141 177 226 282 348 415
#     4  12  22  40  68  96 142 188 212 278 350 408
#     4  12  26  42  70 106 134 174 240 276 352 428
#     4  11  25  45  68 101 144 181 233 283 351 415
#
# _framework density 21.146239000000001
#
# number of rings (size 3 to 8) (size 9 to 14) (size 15 to 20)
#    0.000    0.615    6.154    0.923    5.385    0.000 
#    1.385    0.000    0.000    0.000    0.000    0.000 
#    0.000    0.000    0.000    0.000    0.000    0.000 
#
# Total GULP energy -322133.800896 kJ/mol
# GULP energy per Si atom -12389.761573 kJ/mol
# Density = 2.109811 g / cm^3
# Si number density = 21.146239 Si / 1000 Ang^3
#
#
#
# Elastic Constant Matrix: (Units=GPa)
#
#
# Indices 1 2 3 4 5 6 
#
# 1 127.9856 28.0309 46.8960 0.0000 0.0000 0.0000
# 2 28.0309 87.2281 36.8630 0.0000 0.0000 0.0000
# 3 46.8960 36.8630 131.9928 0.0000 0.0000 0.0000
# 4 0.0000 0.0000 0.0000 -17.1232 0.0000 0.0000
# 5 0.0000 0.0000 0.0000 0.0000 20.4522 0.0000
# 6 0.0000 0.0000 0.0000 0.0000 0.0000 24.6413
#
#
#
# Elastic Compliance Matrix: (Units=1/GPa)
#
#
# Indices 1 2 3 4 5 6 
#
# 1 0.009223 -0.001790 -0.002777 0.000000 0.000000 0.000000
# 2 -0.001790 0.013346 -0.003091 0.000000 0.000000 0.000000
# 3 -0.002777 -0.003091 0.009426 0.000000 0.000000 0.000000
# 4 0.000000 0.000000 0.000000 -0.058400 0.000000 0.000000
# 5 0.000000 0.000000 0.000000 0.000000 0.048895 0.000000
# 6 0.000000 0.000000 0.000000 0.000000 0.000000 0.040582
#
#
# Mechanical properties :
#
#
# Convention : Reuss Voigt Hill
#
# Bulk Modulus (GPa) = 59.95829 63.42070 61.68949
# Shear Modulus (GPa) = 59.56116 21.28851 40.42484
#
# Velocity S-wave (km/s) = 5.31295 3.17634 4.37702
# Velocity P-wave (km/s) = 8.12726 6.59612 7.40139
#
# Compressibility (1/GPa) = 0.01667826
#
# Stress axis : x y z
#
# Youngs Moduli (GPa) = 108.42504 74.92971 106.08884
#
# Poissons Ratio (x) = 0.13415 0.29459
# Poissons Ratio (y) = 0.19411 0.32794
# Poissons Ratio (z) = 0.30108 0.23162
#
# Static dielectric constant tensor:
#      x y z
#    x 4.953180 0.000000 0.000000 
#    y 0.000000 3.894510 0.000000 
#    z 0.000000 0.000000 4.069340 
# 
# 
# High freq. dielectric constant tensor:
#      x y z
#    x 1.826750 0.000000 0.000000 
#    y 0.000000 1.832230 0.000000 
#    z 0.000000 0.000000 1.842090 
# 
# From -- ./inp_files/13102.got.cif
#   From: 2010.03.12/outbox.cif.g09.slc.cpg/sg24_7_cif.got.tgz:13102.got - 2010.04.14 03:06:53.
