data_PCOD8165824
_publ_section_title
;
Structure prediction by ZEFSAII (Michael W. Deem and Ramdas Pophale) SiO2 
 PCOD8165824
Probable space group: I 21 21 21
;
_chemical_formula_sum "Si O2"
_cell_formula_units_Z 64
_cell_length_a 16.291856
_cell_length_b 19.085548
_cell_length_c 9.032027
_cell_angle_alpha 90.000000
_cell_angle_beta 90.000000
_cell_angle_gamma 90.000000
_cell_volume 2808.409441
_symmetry_space_group_name_H-M "I 21 21 21"
_symmetry_group_IT_number 24
_symmetry_cell_setting 'orthorhombic'
loop_
_space_group_symop_operation_xyz
x,y,z
-x,1/2-y,z
x,-y,1/2-z
1/2-x,y,-z
1/2+x,1/2+y,1/2+z
1/2-x,-y,1/2+z
1/2+x,1/2-y,-z
-x,1/2+y,1/2-z
loop_
_atom_site_type_symbol
_atom_site_label
_atom_site_fract_x
_atom_site_fract_y
_atom_site_fract_z
Si Si1 0.158578 0.285585 0.036955
Si Si2 0.480751 0.037324 0.893476
Si Si3 0.440999 0.649819 0.776459
Si Si4 0.160144 0.305891 0.519928
Si Si5 0.048861 0.058616 0.637308
Si Si6 0.829309 0.372637 0.081258
Si Si7 0.879882 0.656613 0.106428
Si Si8 0.052361 0.681286 0.720806
O O1 0.125419 0.296386 0.204021
O O2 0.158864 0.203169 0.005366
O O3 0.250000 0.316115 0.000000
O O4 0.084771 0.323267 0.946262
O O5 0.557904 0.080589 0.826528
O O6 0.409590 0.084419 0.966590
O O7 0.439777 0.000000 0.750000
O O8 0.510079 0.982761 0.019313
O O9 0.402952 0.640643 0.939270
O O10 0.534423 0.674865 0.807089
O O11 0.250000 0.336402 0.500000
O O12 0.155214 0.226223 0.464866
O O13 0.137117 0.309868 0.690834
O O14 0.112752 0.099449 0.527762
O O15 0.997488 0.111882 0.737867
O O16 0.088180 0.000000 0.750000
O O17 0.819101 0.369658 0.261389
O O18 0.750000 0.406853 0.000000
O O19 0.000000 0.750000 0.755625
#
# Coordination Sequence:
#
# PCOD8165824 Si02
#       8
#     8   8   8   8   8   8   8   8
#     4  11  25  41  66 108 142 173 224 307 373 419
#     4  11  22  42  72  98 131 188 246 281 337 429
#     4  11  21  41  72  97 130 185 242 283 342 423
#     4  12  23  39  67 105 146 183 221 301 372 425
#     4  12  25  45  68 105 142 182 240 302 351 418
#     4  10  23  40  68 100 144 181 231 290 354 429
#     4  11  22  43  69 102 139 185 246 284 354 438
#     4  12  25  42  68 104 141 178 241 300 355 421
#
# _framework density 22.788701
#
# number of rings (size 3 to 8) (size 9 to 14) (size 15 to 20)
#    0.000    0.750    6.250    1.875    8.750    0.000 
#    0.000    1.250    0.000   11.250    0.000    0.000 
#    0.000    0.000    0.000    0.000    0.000    0.000 
#
# Total GULP energy -396458.725080 kJ/mol
# GULP energy per Si atom -12389.335159 kJ/mol
# Density = 2.273683 g / cm^3
# Si number density = 22.788701 Si / 1000 Ang^3
#
#
#
# Elastic Constant Matrix: (Units=GPa)
#
#
# Indices 1 2 3 4 5 6 
#
# 1 84.0915 20.2753 20.4234 0.0000 0.0000 0.0000
# 2 20.2753 88.3964 25.9632 0.0000 0.0000 0.0000
# 3 20.4234 25.9632 95.0971 0.0000 0.0000 0.0000
# 4 0.0000 0.0000 0.0000 49.6513 0.0000 0.0000
# 5 0.0000 0.0000 0.0000 0.0000 40.4604 0.0000
# 6 0.0000 0.0000 0.0000 0.0000 0.0000 10.0347
#
#
#
# Elastic Compliance Matrix: (Units=1/GPa)
#
#
# Indices 1 2 3 4 5 6 
#
# 1 0.012979 -0.002346 -0.002147 0.000000 0.000000 0.000000
# 2 -0.002346 0.012723 -0.002970 0.000000 0.000000 0.000000
# 3 -0.002147 -0.002970 0.011787 0.000000 0.000000 0.000000
# 4 0.000000 0.000000 0.000000 0.020140 0.000000 0.000000
# 5 0.000000 0.000000 0.000000 0.000000 0.024716 0.000000
# 6 0.000000 0.000000 0.000000 0.000000 0.000000 0.099654
#
#
# Mechanical properties :
#
#
# Convention : Reuss Voigt Hill
#
# Bulk Modulus (GPa) = 44.31911 44.54542 44.43227
# Shear Modulus (GPa) = 24.45628 33.42417 28.94023
#
# Velocity S-wave (km/s) = 3.27949 3.83391 3.56748
# Velocity P-wave (km/s) = 5.81637 6.26003 6.04227
#
# Compressibility (1/GPa) = 0.02256363
#
# Stress axis : x y z
#
# Youngs Moduli (GPa) = 77.04786 78.59709 84.83632
#
# Poissons Ratio (x) = 0.18442 0.18213
# Poissons Ratio (y) = 0.18079 0.25194
# Poissons Ratio (z) = 0.16541 0.23341
#
# Static dielectric constant tensor:
#      x y z
#    x 3.808400 0.000000 0.000000 
#    y 0.000000 4.189120 0.000000 
#    z 0.000000 0.000000 4.467100 
# 
# 
# High freq. dielectric constant tensor:
#      x y z
#    x 1.861130 0.000000 0.000000 
#    y 0.000000 1.888590 0.000000 
#    z 0.000000 0.000000 1.928640 
# 
# From -- ./inp_files/14585.got.cif
#   From: 2010.03.12/outbox.cif.g09.slc.cpg/sg24_8_cif.got.tgz:14585.got - 2010.04.14 03:06:53.
