data_PCOD8165216
_publ_section_title
;
Structure prediction by ZEFSAII (Michael W. Deem and Ramdas Pophale) SiO2 
 PCOD8165216
Probable space group: I 21 21 21
;
_chemical_formula_sum "Si O2"
_cell_formula_units_Z 64
_cell_length_a 23.880502
_cell_length_b 14.631665
_cell_length_c 8.396068
_cell_angle_alpha 90.000000
_cell_angle_beta 90.000000
_cell_angle_gamma 90.000000
_cell_volume 2933.682758
_symmetry_space_group_name_H-M "I 21 21 21"
_symmetry_group_IT_number 24
_symmetry_cell_setting 'orthorhombic'
loop_
_space_group_symop_operation_xyz
x,y,z
-x,1/2-y,z
x,-y,1/2-z
1/2-x,y,-z
1/2+x,1/2+y,1/2+z
1/2-x,-y,1/2+z
1/2+x,1/2-y,-z
-x,1/2+y,1/2-z
loop_
_atom_site_type_symbol
_atom_site_label
_atom_site_fract_x
_atom_site_fract_y
_atom_site_fract_z
Si Si1 0.186976 0.809749 0.049254
Si Si2 0.061182 0.236028 0.909045
Si Si3 0.976661 0.453146 0.904403
Si Si4 0.633675 0.498781 0.562486
Si Si5 0.835941 0.696523 0.416211
Si Si6 0.409971 0.515360 0.563784
Si Si7 0.626374 0.155761 0.354954
Si Si8 0.692284 0.125813 0.063394
O O1 0.183304 0.793306 0.236552
O O2 0.169787 0.912791 0.002000
O O3 0.250000 0.790449 0.000000
O O4 0.146145 0.739116 0.962926
O O5 0.080779 0.308047 0.774009
O O6 0.000000 0.250000 0.979773
O O7 0.056304 0.134813 0.836008
O O8 0.100243 0.232178 0.064920
O O9 0.001982 0.500000 0.750000
O O10 0.031528 0.436244 0.014390
O O11 0.928901 0.511763 0.993525
O O12 0.625984 0.500000 0.750000
O O13 0.667314 0.592233 0.516750
O O14 0.800961 0.764970 0.529143
O O15 0.413064 0.500000 0.750000
O O16 0.400898 0.421545 0.465259
O O17 0.358672 0.583466 0.535576
O O18 0.679148 0.114078 0.252858
O O19 0.750000 0.078956 0.000000
#
# Coordination Sequence:
#
# PCOD8165216 Si02
#       8
#     8   8   8   8   8   8   8   8
#     4  11  22  39  61  89 127 170 215 267 320 390
#     4  10  20  37  62  88 121 162 206 263 324 385
#     4  11  20  37  63  90 123 157 200 259 319 383
#     4   9  20  38  60  90 127 166 209 262 325 393
#     4   9  20  39  60  88 125 165 212 262 328 394
#     4  12  26  42  64  93 128 173 217 263 320 385
#     4  11  24  41  62  93 128 165 217 267 321 387
#     4  11  23  41  63  89 122 164 214 271 324 379
#
# _framework density 21.815581999999999
#
# number of rings (size 3 to 8) (size 9 to 14) (size 15 to 20)
#    0.000    1.500    0.000    6.000    0.000    2.000 
#    0.000   10.000    0.000    1.500    0.000    0.000 
#    0.000    0.000    0.000    0.000    0.000    0.000 
#
# Total GULP energy -396489.018045 kJ/mol
# GULP energy per Si atom -12390.281814 kJ/mol
# Density = 2.176593 g / cm^3
# Si number density = 21.815582 Si / 1000 Ang^3
#
#
#
# Elastic Constant Matrix: (Units=GPa)
#
#
# Indices 1 2 3 4 5 6 
#
# 1 104.5670 27.8507 31.3611 0.0000 0.0000 0.0000
# 2 27.8507 98.4106 34.5291 0.0000 0.0000 0.0000
# 3 31.3611 34.5291 103.8788 0.0000 0.0000 0.0000
# 4 0.0000 0.0000 0.0000 37.9330 0.0000 0.0000
# 5 0.0000 0.0000 0.0000 0.0000 28.6829 0.0000
# 6 0.0000 0.0000 0.0000 0.0000 0.0000 27.3340
#
#
#
# Elastic Compliance Matrix: (Units=1/GPa)
#
#
# Indices 1 2 3 4 5 6 
#
# 1 0.010916 -0.002188 -0.002568 0.000000 0.000000 0.000000
# 2 -0.002188 0.011942 -0.003309 0.000000 0.000000 0.000000
# 3 -0.002568 -0.003309 0.011502 0.000000 0.000000 0.000000
# 4 0.000000 0.000000 0.000000 0.026362 0.000000 0.000000
# 5 0.000000 0.000000 0.000000 0.000000 0.034864 0.000000
# 6 0.000000 0.000000 0.000000 0.000000 0.000000 0.036585
#
#
# Mechanical properties :
#
#
# Convention : Reuss Voigt Hill
#
# Bulk Modulus (GPa) = 54.85685 54.92645 54.89165
# Shear Modulus (GPa) = 32.38811 32.99768 32.69289
#
# Velocity S-wave (km/s) = 3.85727 3.89340 3.87538
# Velocity P-wave (km/s) = 6.71106 6.74120 6.72615
#
# Compressibility (1/GPa) = 0.01822926
#
# Stress axis : x y z
#
# Youngs Moduli (GPa) = 91.60585 83.73994 86.94299
#
# Poissons Ratio (x) = 0.18324 0.22329
# Poissons Ratio (y) = 0.20046 0.28767
# Poissons Ratio (z) = 0.23527 0.27708
#
# Static dielectric constant tensor:
#      x y z
#    x 4.083810 0.000000 0.000000 
#    y 0.000000 4.453660 0.000000 
#    z 0.000000 0.000000 3.813500 
# 
# 
# High freq. dielectric constant tensor:
#      x y z
#    x 1.862840 0.000000 0.000000 
#    y 0.000000 1.873060 0.000000 
#    z 0.000000 0.000000 1.844520 
# 
# From -- ./inp_files/16049.got.cif
#   From: 2010.03.12/outbox.cif.g09.slc.cpg/sg24_9_cif.got.tgz:16049.got - 2010.04.14 03:06:53.
