data_PCOD8165692
_publ_section_title
;
Structure prediction by ZEFSAII (Michael W. Deem and Ramdas Pophale) SiO2 
 PCOD8165692
Probable space group: I 21 21 21
;
_chemical_formula_sum "Si O2"
_cell_formula_units_Z 64
_cell_length_a 25.240779
_cell_length_b 9.294492
_cell_length_c 13.789835
_cell_angle_alpha 90.000000
_cell_angle_beta 90.000000
_cell_angle_gamma 90.000000
_cell_volume 3235.098304
_symmetry_space_group_name_H-M "I 21 21 21"
_symmetry_group_IT_number 24
_symmetry_cell_setting 'orthorhombic'
loop_
_space_group_symop_operation_xyz
x,y,z
-x,1/2-y,z
x,-y,1/2-z
1/2-x,y,-z
1/2+x,1/2+y,1/2+z
1/2-x,-y,1/2+z
1/2+x,1/2-y,-z
-x,1/2+y,1/2-z
loop_
_atom_site_type_symbol
_atom_site_label
_atom_site_fract_x
_atom_site_fract_y
_atom_site_fract_z
Si Si1 0.174072 0.078878 0.148063
Si Si2 0.222725 0.925918 0.851364
Si Si3 0.298299 0.639809 0.562423
Si Si4 0.437034 0.244204 0.181249
Si Si5 0.381015 0.016978 0.040590
Si Si6 0.264528 0.588524 0.157918
Si Si7 0.061503 0.246048 0.593490
Si Si8 0.374410 0.482045 0.083595
O O1 0.189930 0.250581 0.153185
O O2 0.157910 0.000000 0.250000
O O3 0.224395 0.995081 0.104340
O O4 0.127337 0.075648 0.068388
O O5 0.237232 0.759150 0.834769
O O6 0.209162 0.000000 0.750000
O O7 0.174060 0.952814 0.921138
O O8 0.250000 0.712163 0.500000
O O9 0.278728 0.476040 0.583142
O O10 0.353253 0.622059 0.502409
O O11 0.500000 0.250000 0.161052
O O12 0.407528 0.129417 0.113849
O O13 0.424256 0.213992 0.293750
O O14 0.411915 0.397696 0.157940
O O15 0.420459 0.885595 0.027970
O O16 0.245494 0.500000 0.250000
O O17 0.324325 0.543932 0.138687
O O18 0.089204 0.386478 0.548042
O O19 0.000000 0.250000 0.578907
#
# Coordination Sequence:
#
# PCOD8165692 Si02
#       8
#     8   8   8   8   8   8   8   8
#     4  11  24  41  61  86 120 161 209 261 301 353
#     4  11  23  36  60  94 128 161 202 244 303 368
#     4  10  22  40  59  86 124 164 206 248 301 363
#     4  11  23  40  62  91 125 161 201 248 304 372
#     4  12  23  38  64  89 123 163 205 252 305 365
#     4  11  22  35  58  88 124 163 199 241 294 364
#     4  11  23  39  60  94 128 158 198 248 304 371
#     4  11  22  37  60  85 126 164 199 238 299 364
#
# _framework density 19.783014999999999
#
# number of rings (size 3 to 8) (size 9 to 14) (size 15 to 20)
#    0.000    1.000    2.500    5.625    5.250    3.000 
#    0.000    0.000    0.000    0.750    0.000    0.000 
#    0.000    0.000    0.000    0.000    0.000    0.000 
#
# Total GULP energy -396468.868337 kJ/mol
# GULP energy per Si atom -12389.652136 kJ/mol
# Density = 1.973799 g / cm^3
# Si number density = 19.783015 Si / 1000 Ang^3
#
#
#
# Elastic Constant Matrix: (Units=GPa)
#
#
# Indices 1 2 3 4 5 6 
#
# 1 91.9288 33.3152 35.2951 0.0000 0.0000 0.0000
# 2 33.3152 132.9808 31.2266 0.0000 0.0000 0.0000
# 3 35.2951 31.2266 69.8220 0.0000 0.0000 0.0000
# 4 0.0000 0.0000 0.0000 28.9259 0.0000 0.0000
# 5 0.0000 0.0000 0.0000 0.0000 30.6800 0.0000
# 6 0.0000 0.0000 0.0000 0.0000 0.0000 31.8398
#
#
#
# Elastic Compliance Matrix: (Units=1/GPa)
#
#
# Indices 1 2 3 4 5 6 
#
# 1 0.013985 -0.002060 -0.006148 0.000000 0.000000 0.000000
# 2 -0.002060 0.008706 -0.002852 0.000000 0.000000 0.000000
# 3 -0.006148 -0.002852 0.018706 0.000000 0.000000 0.000000
# 4 0.000000 0.000000 0.000000 0.034571 0.000000 0.000000
# 5 0.000000 0.000000 0.000000 0.000000 0.032595 0.000000
# 6 0.000000 0.000000 0.000000 0.000000 0.000000 0.031407
#
#
# Mechanical properties :
#
#
# Convention : Reuss Voigt Hill
#
# Bulk Modulus (GPa) = 51.87851 54.93394 53.40623
# Shear Modulus (GPa) = 29.67095 31.28213 30.47654
#
# Velocity S-wave (km/s) = 3.87695 3.98082 3.92923
# Velocity P-wave (km/s) = 6.80600 6.99698 6.90215
#
# Compressibility (1/GPa) = 0.01927581
#
# Stress axis : x y z
#
# Youngs Moduli (GPa) = 71.50502 114.86741 53.45978
#
# Poissons Ratio (x) = 0.23661 0.32868
# Poissons Ratio (y) = 0.14729 0.15248
# Poissons Ratio (z) = 0.43963 0.32762
#
# Static dielectric constant tensor:
#      x y z
#    x 3.610950 0.000000 0.000000 
#    y 0.000000 3.781450 0.000000 
#    z 0.000000 0.000000 3.478340 
# 
# 
# High freq. dielectric constant tensor:
#      x y z
#    x 1.760300 0.000000 0.000000 
#    y 0.000000 1.793430 0.000000 
#    z 0.000000 0.000000 1.747890 
# 
# From -- ./inp_files/27896.got.cif
#   From: 2010.03.12/outbox.cif.g09.slc.cpg/sg24_14_cif.got.tgz:27896.got - 2010.04.14 03:06:53.
