data_PCOD8165943
_publ_section_title
;
Structure prediction by ZEFSAII (Michael W. Deem and Ramdas Pophale) SiO2 
 PCOD8165943
Probable space group: I 21 21 21
;
_chemical_formula_sum "Si O2"
_cell_formula_units_Z 36
_cell_length_a 7.798453
_cell_length_b 8.962101
_cell_length_c 22.118147
_cell_angle_alpha 90.000000
_cell_angle_beta 90.000000
_cell_angle_gamma 90.000000
_cell_volume 1545.848871
_symmetry_space_group_name_H-M "I 21 21 21"
_symmetry_group_IT_number 24
_symmetry_cell_setting 'orthorhombic'
loop_
_space_group_symop_operation_xyz
x,y,z
-x,1/2-y,z
x,-y,1/2-z
1/2-x,y,-z
1/2+x,1/2+y,1/2+z
1/2-x,-y,1/2+z
1/2+x,1/2-y,-z
-x,1/2+y,1/2-z
loop_
_atom_site_type_symbol
_atom_site_label
_atom_site_fract_x
_atom_site_fract_y
_atom_site_fract_z
Si Si1 0.976439 0.424444 0.607198
Si Si2 0.405926 0.500000 0.750000
Si Si3 0.372284 0.946190 0.634757
Si Si4 0.549966 0.081855 0.990540
Si Si5 0.324654 0.329756 0.175682
O O1 0.796096 0.454451 0.638741
O O2 0.000000 0.250000 0.613384
O O3 0.955317 0.473333 0.537604
O O4 0.131483 0.520272 0.637782
O O5 0.519169 0.488455 0.690275
O O6 0.275337 0.361786 0.761566
O O7 0.486891 0.966501 0.575450
O O8 0.690936 0.727356 0.637468
O O9 0.500000 0.250000 0.007862
O O10 0.750000 0.057145 0.000000
O O11 0.500000 0.250000 0.193388
#
# Coordination Sequence:
#
# PCOD8165943 Si02
#       5
#     8   4   8   8   8
#     4  11  25  44  69 102 138 179 227 286 345 402
#     4  12  24  42  72 104 132 170 232 290 330 394
#     4  11  25  46  69 100 137 182 230 279 342 416
#     4  12  23  42  71 100 134 180 229 280 340 415
#     4  10  24  46  70  98 136 183 232 277 340 415
#
# _framework density 23.288177000000001
#
# number of rings (size 3 to 8) (size 9 to 14) (size 15 to 20)
#    0.000    0.889    0.000    8.667    0.000    9.778 
#    0.000    4.444    0.000    0.000    0.000    0.000 
#    0.000    0.000    0.000    0.000    0.000    0.000 
#
# Total GULP energy -223139.358826 kJ/mol
# GULP energy per Si atom -12396.631046 kJ/mol
# Density = 2.323517 g / cm^3
# Si number density = 23.288177 Si / 1000 Ang^3
#
#
#
# Elastic Constant Matrix: (Units=GPa)
#
#
# Indices 1 2 3 4 5 6 
#
# 1 142.9327 42.9686 86.0781 0.0000 0.0000 0.0000
# 2 42.9686 154.5690 74.6598 0.0000 0.0000 0.0000
# 3 86.0781 74.6598 163.1344 0.0000 0.0000 0.0000
# 4 0.0000 0.0000 0.0000 38.4840 0.0000 0.0000
# 5 0.0000 0.0000 0.0000 0.0000 41.6353 0.0000
# 6 0.0000 0.0000 0.0000 0.0000 0.0000 15.5965
#
#
#
# Elastic Compliance Matrix: (Units=1/GPa)
#
#
# Indices 1 2 3 4 5 6 
#
# 1 0.010266 -0.000305 -0.005277 0.000000 0.000000 0.000000
# 2 -0.000305 0.008315 -0.003644 0.000000 0.000000 0.000000
# 3 -0.005277 -0.003644 0.010583 0.000000 0.000000 0.000000
# 4 0.000000 0.000000 0.000000 0.025985 0.000000 0.000000
# 5 0.000000 0.000000 0.000000 0.000000 0.024018 0.000000
# 6 0.000000 0.000000 0.000000 0.000000 0.000000 0.064117
#
#
# Mechanical properties :
#
#
# Convention : Reuss Voigt Hill
#
# Bulk Modulus (GPa) = 93.37140 96.44990 94.91065
# Shear Modulus (GPa) = 30.24685 36.27180 33.25932
#
# Velocity S-wave (km/s) = 3.60781 3.95082 3.78320
# Velocity P-wave (km/s) = 7.58525 7.89416 7.74124
#
# Compressibility (1/GPa) = 0.01070992
#
# Stress axis : x y z
#
# Youngs Moduli (GPa) = 97.40743 120.26927 94.49563
#
# Poissons Ratio (x) = 0.03665 0.49870
# Poissons Ratio (y) = 0.02969 0.34439
# Poissons Ratio (z) = 0.51406 0.43832
#
# Static dielectric constant tensor:
#      x y z
#    x 4.629830 0.000000 0.000000 
#    y 0.000000 4.126030 0.000000 
#    z 0.000000 0.000000 4.253100 
# 
# 
# High freq. dielectric constant tensor:
#      x y z
#    x 1.956000 0.000000 0.000000 
#    y 0.000000 1.900310 0.000000 
#    z 0.000000 0.000000 1.922400 
# 
# From -- ./inp_files/36718.got.cif
#   From: 2010.03.12/outbox.cif.g09.slc.cpg/sg24_19_cif.got.tgz:36718.got - 2010.04.14 03:06:53.
