data_PCOD8165675
_publ_section_title
;
Structure prediction by ZEFSAII (Michael W. Deem and Ramdas Pophale) SiO2 
 PCOD8165675
Probable space group: I 21 21 21
;
_chemical_formula_sum "Si O2"
_cell_formula_units_Z 32
_cell_length_a 8.783192
_cell_length_b 7.239043
_cell_length_c 21.119617
_cell_angle_alpha 90.000000
_cell_angle_beta 90.000000
_cell_angle_gamma 90.000000
_cell_volume 1342.825473
_symmetry_space_group_name_H-M "I 21 21 21"
_symmetry_group_IT_number 24
_symmetry_cell_setting 'orthorhombic'
loop_
_space_group_symop_operation_xyz
x,y,z
-x,1/2-y,z
x,-y,1/2-z
1/2-x,y,-z
1/2+x,1/2+y,1/2+z
1/2-x,-y,1/2+z
1/2+x,1/2-y,-z
-x,1/2+y,1/2-z
loop_
_atom_site_type_symbol
_atom_site_label
_atom_site_fract_x
_atom_site_fract_y
_atom_site_fract_z
Si Si1 0.740343 0.925662 0.835234
Si Si2 0.666458 0.342708 0.434510
Si Si3 0.738907 0.345134 0.161818
Si Si4 0.494910 0.000000 0.250000
Si Si5 0.512699 0.500000 0.750000
O O1 0.726666 0.797400 0.895969
O O2 0.903914 0.894543 0.802387
O O3 0.726033 0.136816 0.859256
O O4 0.610777 0.860282 0.784101
O O5 0.500000 0.250000 0.443651
O O6 0.750000 0.380402 0.500000
O O7 0.669687 0.537058 0.396646
O O8 0.613122 0.346144 0.217316
O O9 0.895699 0.421403 0.190726
#
# Coordination Sequence:
#
# PCOD8165675 Si02
#       5
#     8   8   8   4   4
#     4  11  25  43  70 106 143 186 228 295 364 424
#     4  12  30  50  72 100 142 198 251 292 345 432
#     4  11  25  43  70 106 143 186 228 295 364 424
#     4  10  22  38  70 106 134 174 230 284 374 432
#     4  10  26  38  70 114 146 178 226 288 362 436
#
# _framework density 23.830349999999999
#
# number of rings (size 3 to 8) (size 9 to 14) (size 15 to 20)
#    0.000    1.000    2.500    1.500   24.500    1.000 
#    0.000    0.000    0.000    0.000    0.000    0.000 
#    0.000    0.000    0.000    0.000    0.000    0.000 
#
# Total GULP energy -198322.158186 kJ/mol
# GULP energy per Si atom -12395.134887 kJ/mol
# Density = 2.377611 g / cm^3
# Si number density = 23.830350 Si / 1000 Ang^3
#
#
#
# Elastic Constant Matrix: (Units=GPa)
#
#
# Indices 1 2 3 4 5 6 
#
# 1 130.2442 -4.4445 31.5917 0.0000 0.0000 0.0000
# 2 -4.4445 77.4534 31.1380 0.0000 0.0000 0.0000
# 3 31.5917 31.1380 114.6213 0.0000 0.0000 0.0000
# 4 0.0000 0.0000 0.0000 33.2067 0.0000 0.0000
# 5 0.0000 0.0000 0.0000 0.0000 14.9258 0.0000
# 6 0.0000 0.0000 0.0000 0.0000 0.0000 30.0257
#
#
#
# Elastic Compliance Matrix: (Units=1/GPa)
#
#
# Indices 1 2 3 4 5 6 
#
# 1 0.008398 0.001586 -0.002745 0.000000 0.000000 0.000000
# 2 0.001586 0.014793 -0.004456 0.000000 0.000000 0.000000
# 3 -0.002745 -0.004456 0.010691 0.000000 0.000000 0.000000
# 4 0.000000 0.000000 0.000000 0.030114 0.000000 0.000000
# 5 0.000000 0.000000 0.000000 0.000000 0.066998 0.000000
# 6 0.000000 0.000000 0.000000 0.000000 0.000000 0.033305
#
#
# Mechanical properties :
#
#
# Convention : Reuss Voigt Hill
#
# Bulk Modulus (GPa) = 44.14691 48.76547 46.45619
# Shear Modulus (GPa) = 27.31022 33.23388 30.27205
#
# Velocity S-wave (km/s) = 3.38897 3.73849 3.56801
# Velocity P-wave (km/s) = 5.82059 6.25644 6.04245
#
# Compressibility (1/GPa) = 0.02265164
#
# Stress axis : x y z
#
# Youngs Moduli (GPa) = 119.07748 67.59825 93.53230
#
# Poissons Ratio (x) = -0.10718 0.25678
# Poissons Ratio (y) = -0.18881 0.41676
# Poissons Ratio (z) = 0.32691 0.30120
#
# Static dielectric constant tensor:
#      x y z
#    x 4.677380 0.000000 0.000000 
#    y 0.000000 4.291220 0.000000 
#    z 0.000000 0.000000 4.069850 
# 
# 
# High freq. dielectric constant tensor:
#      x y z
#    x 1.973130 0.000000 0.000000 
#    y 0.000000 1.958910 0.000000 
#    z 0.000000 0.000000 1.908420 
# 
# From -- ./inp_files/32457.got.cif
#   From: 2010.03.12/outbox.cif.g09.slc.cpg/sg24_17_cif.got.tgz:32457.got - 2010.04.14 03:06:53.
