data_PCOD8165517
_publ_section_title
;
Structure prediction by ZEFSAII (Michael W. Deem and Ramdas Pophale) SiO2 
 PCOD8165517
Probable space group: I 21 21 21
;
_chemical_formula_sum "Si O2"
_cell_formula_units_Z 60
_cell_length_a 22.964249
_cell_length_b 5.061207
_cell_length_c 25.330764
_cell_angle_alpha 90.000000
_cell_angle_beta 90.000000
_cell_angle_gamma 90.000000
_cell_volume 2944.114092
_symmetry_space_group_name_H-M "I 21 21 21"
_symmetry_group_IT_number 24
_symmetry_cell_setting 'orthorhombic'
loop_
_space_group_symop_operation_xyz
x,y,z
-x,1/2-y,z
x,-y,1/2-z
1/2-x,y,-z
1/2+x,1/2+y,1/2+z
1/2-x,-y,1/2+z
1/2+x,1/2-y,-z
-x,1/2+y,1/2-z
loop_
_atom_site_type_symbol
_atom_site_label
_atom_site_fract_x
_atom_site_fract_y
_atom_site_fract_z
Si Si1 0.134617 0.219375 0.088794
Si Si2 0.733089 0.245712 0.713924
Si Si3 0.063164 0.801224 0.917692
Si Si4 0.686487 0.766263 0.112575
Si Si5 0.613970 0.216745 0.652454
Si Si6 0.562885 0.801148 0.487353
Si Si7 0.237341 0.764064 0.561231
Si Si8 0.000000 0.250000 0.284665
O O1 0.103857 0.424878 0.128571
O O2 0.113810 0.254577 0.029082
O O3 0.203089 0.274745 0.093430
O O4 0.123870 0.917930 0.104596
O O5 0.738714 0.500000 0.750000
O O6 0.780101 0.260848 0.667406
O O7 0.667636 0.220436 0.692663
O O8 0.749284 0.000000 0.750000
O O9 0.116907 0.762242 0.877210
O O10 0.000000 0.750000 0.889759
O O11 0.068123 0.600441 0.967027
O O12 0.068262 0.099706 0.938623
O O13 0.709415 0.549235 0.071213
O O14 0.693696 0.046235 0.083805
O O15 0.556044 0.316127 0.680688
O O16 0.500000 0.750000 0.514935
O O17 0.250000 0.726286 0.500000
O O18 0.016693 0.500000 0.250000
#
# Coordination Sequence:
#
# PCOD8165517 Si02
#       8
#     8   8   8   8   8   8   8   4
#     4  12  22  39  57  91 125 162 203 251 307 356
#     4  12  24  43  65  88 121 160 204 261 313 370
#     4  10  21  40  61  89 123 163 205 241 292 367
#     4  12  23  41  62  95 122 160 209 251 308 377
#     4  12  25  41  64  87 120 159 207 262 311 362
#     4  10  22  37  59  86 124 172 206 239 290 362
#     4  12  23  38  62  92 130 164 198 253 306 369
#     4  12  26  46  64  88 112 156 214 268 320 360
#
# _framework density 20.379646000000001
#
# number of rings (size 3 to 8) (size 9 to 14) (size 15 to 20)
#    0.000    0.533    2.667    6.800    1.867    0.000 
#    0.000    0.000    0.000    0.800    0.000    0.000 
#    0.000    0.000    0.000    0.000    0.000    0.000 
#
# Total GULP energy -372146.397599 kJ/mol
# GULP energy per Si atom -12404.879920 kJ/mol
# Density = 2.033326 g / cm^3
# Si number density = 20.379646 Si / 1000 Ang^3
#
#
#
# Elastic Constant Matrix: (Units=GPa)
#
#
# Indices 1 2 3 4 5 6 
#
# 1 152.8817 7.2830 35.0601 0.0000 0.0000 0.0000
# 2 7.2830 101.4025 16.3395 0.0000 0.0000 0.0000
# 3 35.0601 16.3395 68.9688 0.0000 0.0000 0.0000
# 4 0.0000 0.0000 0.0000 29.4564 0.0000 0.0000
# 5 0.0000 0.0000 0.0000 0.0000 32.8763 0.0000
# 6 0.0000 0.0000 0.0000 0.0000 0.0000 25.3642
#
#
#
# Elastic Compliance Matrix: (Units=1/GPa)
#
#
# Indices 1 2 3 4 5 6 
#
# 1 0.007405 0.000078 -0.003783 0.000000 0.000000 0.000000
# 2 0.000078 0.010254 -0.002469 0.000000 0.000000 0.000000
# 3 -0.003783 -0.002469 0.017007 0.000000 0.000000 0.000000
# 4 0.000000 0.000000 0.000000 0.033948 0.000000 0.000000
# 5 0.000000 0.000000 0.000000 0.000000 0.030417 0.000000
# 6 0.000000 0.000000 0.000000 0.000000 0.000000 0.039426
#
#
# Mechanical properties :
#
#
# Convention : Reuss Voigt Hill
#
# Bulk Modulus (GPa) = 44.80610 48.95757 46.88184
# Shear Modulus (GPa) = 31.59682 35.17739 33.38710
#
# Velocity S-wave (km/s) = 3.94180 4.15915 4.05193
# Velocity P-wave (km/s) = 6.53838 6.86583 6.70411
#
# Compressibility (1/GPa) = 0.02231839
#
# Stress axis : x y z
#
# Youngs Moduli (GPa) = 135.04819 97.52378 58.79911
#
# Poissons Ratio (x) = -0.00758 0.22241
# Poissons Ratio (y) = -0.01049 0.14516
# Poissons Ratio (z) = 0.51083 0.24076
#
# Static dielectric constant tensor:
#      x y z
#    x 4.025040 0.000000 0.000000 
#    y 0.000000 3.856360 0.000000 
#    z 0.000000 0.000000 3.396650 
# 
# 
# High freq. dielectric constant tensor:
#      x y z
#    x 1.811460 0.000000 0.000000 
#    y 0.000000 1.819650 0.000000 
#    z 0.000000 0.000000 1.763590 
# 
# From -- ./inp_files/36101.got.cif
#   From: 2010.03.12/outbox.cif.g09.slc.cpg/sg24_19_cif.got.tgz:36101.got - 2010.04.14 03:06:53.
