data_PCOD8165509
_publ_section_title
;
Structure prediction by ZEFSAII (Michael W. Deem and Ramdas Pophale) SiO2 
 PCOD8165509
Probable space group: I 21 21 21
;
_chemical_formula_sum "Si O2"
_cell_formula_units_Z 40
_cell_length_a 24.283356
_cell_length_b 8.385475
_cell_length_c 8.888773
_cell_angle_alpha 90.000000
_cell_angle_beta 90.000000
_cell_angle_gamma 90.000000
_cell_volume 1809.998399
_symmetry_space_group_name_H-M "I 21 21 21"
_symmetry_group_IT_number 24
_symmetry_cell_setting 'orthorhombic'
loop_
_space_group_symop_operation_xyz
x,y,z
-x,1/2-y,z
x,-y,1/2-z
1/2-x,y,-z
1/2+x,1/2+y,1/2+z
1/2-x,-y,1/2+z
1/2+x,1/2-y,-z
-x,1/2+y,1/2-z
loop_
_atom_site_type_symbol
_atom_site_label
_atom_site_fract_x
_atom_site_fract_y
_atom_site_fract_z
Si Si1 0.941322 0.183995 0.950055
Si Si2 0.654388 0.616310 0.607836
Si Si3 0.057936 0.679829 0.905964
Si Si4 0.671920 0.314269 0.452196
Si Si5 0.237932 0.315925 0.275978
O O1 0.935273 0.202341 0.771927
O O2 0.000000 0.250000 0.004214
O O3 0.936697 0.995321 0.977248
O O4 0.896782 0.280644 0.047213
O O5 0.638977 0.500000 0.750000
O O6 0.678397 0.503047 0.477074
O O7 0.704300 0.737280 0.639939
O O8 0.107325 0.783030 0.970684
O O9 0.000000 0.750000 0.961250
O O10 0.701558 0.267481 0.294686
O O11 0.701822 0.206367 0.575591
O O12 0.248865 0.500000 0.250000
#
# Coordination Sequence:
#
# PCOD8165509 Si02
#       5
#     8   8   8   8   8
#     4  10  21  39  66  96 127 164 207 259 322 375
#     4  10  22  44  62  91 130 165 214 262 313 382
#     4  10  21  39  66  97 128 161 206 263 320 380
#     4  10  22  42  62  94 127 163 210 262 317 372
#     4  10  22  43  64  89 128 167 215 256 315 382
#
# _framework density 22.099468999999999
#
# number of rings (size 3 to 8) (size 9 to 14) (size 15 to 20)
#    0.000    2.000    0.000    2.400    2.800    2.400 
#   21.600    9.000    0.000    0.000    0.000    0.000 
#    0.000    0.000    0.000    0.000    0.000    0.000 
#
# Total GULP energy -247866.373153 kJ/mol
# GULP energy per Si atom -12393.318658 kJ/mol
# Density = 2.204917 g / cm^3
# Si number density = 22.099469 Si / 1000 Ang^3
#
#
#
# Elastic Constant Matrix: (Units=GPa)
#
#
# Indices 1 2 3 4 5 6 
#
# 1 184.4308 86.2538 43.8240 0.0000 0.0000 0.0000
# 2 86.2538 181.5227 60.9916 0.0000 0.0000 0.0000
# 3 43.8240 60.9916 31.6752 0.0000 0.0000 0.0000
# 4 0.0000 0.0000 0.0000 32.4389 0.0000 0.0000
# 5 0.0000 0.0000 0.0000 0.0000 37.4211 0.0000
# 6 0.0000 0.0000 0.0000 0.0000 0.0000 42.0124
#
#
#
# Elastic Compliance Matrix: (Units=1/GPa)
#
#
# Indices 1 2 3 4 5 6 
#
# 1 0.008081 -0.000236 -0.010727 0.000000 0.000000 0.000000
# 2 -0.000236 0.015612 -0.029735 0.000000 0.000000 0.000000
# 3 -0.010727 -0.029735 0.103668 0.000000 0.000000 0.000000
# 4 0.000000 0.000000 0.000000 0.030827 0.000000 0.000000
# 5 0.000000 0.000000 0.000000 0.000000 0.026723 0.000000
# 6 0.000000 0.000000 0.000000 0.000000 0.000000 0.023803
#
#
# Mechanical properties :
#
#
# Convention : Reuss Voigt Hill
#
# Bulk Modulus (GPa) = 21.75550 86.64083 54.19816
# Shear Modulus (GPa) = 16.37028 36.14510 26.25769
#
# Velocity S-wave (km/s) = 2.72463 4.04860 3.45071
# Velocity P-wave (km/s) = 4.44566 7.81952 6.36038
#
# Compressibility (1/GPa) = 0.04596540
#
# Stress axis : x y z
#
# Youngs Moduli (GPa) = 123.74385 64.05312 9.64618
#
# Poissons Ratio (x) = 0.01510 0.10347
# Poissons Ratio (y) = 0.02917 0.28683
# Poissons Ratio (z) = 1.32738 1.90464
#
# Static dielectric constant tensor:
#      x y z
#    x 4.282960 0.000000 0.000000 
#    y 0.000000 4.053660 0.000000 
#    z 0.000000 0.000000 3.915950 
# 
# 
# High freq. dielectric constant tensor:
#      x y z
#    x 1.882850 0.000000 0.000000 
#    y 0.000000 1.882480 0.000000 
#    z 0.000000 0.000000 1.849970 
# 
# From -- ./inp_files/9296.got.cif
#   From: 2010.03.12/outbox.cif.g09.slc.cpg/sg24_5_cif.got.tgz:9296.got - 2010.04.14 03:06:53.
