data_PCOD8165355
_publ_section_title
;
Structure prediction by ZEFSAII (Michael W. Deem and Ramdas Pophale) SiO2 
 PCOD8165355
Probable space group: I 21 21 21
;
_chemical_formula_sum "Si O2"
_cell_formula_units_Z 56
_cell_length_a 8.935364
_cell_length_b 18.387098
_cell_length_c 16.814058
_cell_angle_alpha 90.000000
_cell_angle_beta 90.000000
_cell_angle_gamma 90.000000
_cell_volume 2762.472612
_symmetry_space_group_name_H-M "I 21 21 21"
_symmetry_group_IT_number 24
_symmetry_cell_setting 'orthorhombic'
loop_
_space_group_symop_operation_xyz
x,y,z
-x,1/2-y,z
x,-y,1/2-z
1/2-x,y,-z
1/2+x,1/2+y,1/2+z
1/2-x,-y,1/2+z
1/2+x,1/2-y,-z
-x,1/2+y,1/2-z
loop_
_atom_site_type_symbol
_atom_site_label
_atom_site_fract_x
_atom_site_fract_y
_atom_site_fract_z
Si Si1 0.478650 0.468525 0.059743
Si Si2 0.857859 0.650063 0.865445
Si Si3 0.250000 0.947519 0.000000
Si Si4 0.773109 0.222758 0.840795
Si Si5 0.675333 0.114349 0.417693
Si Si6 0.933616 0.635440 0.689905
Si Si7 0.750000 0.855925 0.500000
Si Si8 0.656153 0.219504 0.678165
O O1 0.355432 0.527746 0.087963
O O2 0.563387 0.437668 0.137418
O O3 0.397323 0.403620 0.013722
O O4 0.599912 0.503589 0.000105
O O5 0.747801 0.600929 0.919618
O O6 0.879894 0.613622 0.778371
O O7 0.789633 0.729457 0.853899
O O8 0.017887 0.656538 0.908805
O O9 0.823780 0.306191 0.851568
O O10 0.712441 0.194635 0.924815
O O11 0.644358 0.218721 0.773949
O O12 0.903433 0.171654 0.805783
O O13 0.750000 0.136809 0.500000
O O14 0.798854 0.138969 0.352331
O O15 0.500000 0.250000 0.643991
#
# Coordination Sequence:
#
# PCOD8165355 Si02
#       8
#     8   8   4   8   8   8   4   8
#     4  10  22  41  63  94 128 162 214 257 316 392
#     4  10  22  42  64  86 129 163 219 260 317 377
#     4  10  24  37  57  94 124 166 206 266 312 378
#     4   9  19  40  63  97 119 155 215 260 322 378
#     4  11  23  38  63  89 124 167 213 256 308 382
#     4   9  18  40  69  88 116 169 214 253 309 396
#     4  10  20  41  69  90 124 166 204 272 320 380
#     4  11  24  39  62  94 129 162 210 270 319 372
#
# _framework density 20.271694
#
# number of rings (size 3 to 8) (size 9 to 14) (size 15 to 20)
#    0.000    2.000    2.143    0.429    5.000    2.857 
#   10.286    0.000    0.000    0.000    0.000    0.000 
#    0.000    0.000    0.000    0.000    0.000    0.000 
#
# Total GULP energy -347129.910758 kJ/mol
# GULP energy per Si atom -12397.496813 kJ/mol
# Density = 2.022556 g / cm^3
# Si number density = 20.271694 Si / 1000 Ang^3
#
#
#
# Elastic Constant Matrix: (Units=GPa)
#
#
# Indices 1 2 3 4 5 6 
#
# 1 78.0835 45.8179 55.5569 0.0000 0.0000 0.0000
# 2 45.8179 88.8588 72.6298 0.0000 0.0000 0.0000
# 3 55.5569 72.6298 153.4570 0.0000 0.0000 0.0000
# 4 0.0000 0.0000 0.0000 30.5885 0.0000 0.0000
# 5 0.0000 0.0000 0.0000 0.0000 35.7261 0.0000
# 6 0.0000 0.0000 0.0000 0.0000 0.0000 26.4830
#
#
#
# Elastic Compliance Matrix: (Units=1/GPa)
#
#
# Indices 1 2 3 4 5 6 
#
# 1 0.019618 -0.007030 -0.003775 0.000000 0.000000 0.000000
# 2 -0.007030 0.020873 -0.007334 0.000000 0.000000 0.000000
# 3 -0.003775 -0.007334 0.011354 0.000000 0.000000 0.000000
# 4 0.000000 0.000000 0.000000 0.032692 0.000000 0.000000
# 5 0.000000 0.000000 0.000000 0.000000 0.027991 0.000000
# 6 0.000000 0.000000 0.000000 0.000000 0.000000 0.037760
#
#
# Mechanical properties :
#
#
# Convention : Reuss Voigt Hill
#
# Bulk Modulus (GPa) = 64.23727 74.26764 69.25246
# Shear Modulus (GPa) = 26.07489 28.31914 27.19702
#
# Velocity S-wave (km/s) = 3.59035 3.74167 3.66679
# Velocity P-wave (km/s) = 6.99603 7.44194 7.22243
#
# Compressibility (1/GPa) = 0.01556729
#
# Stress axis : x y z
#
# Youngs Moduli (GPa) = 50.97406 47.90862 88.07161
#
# Poissons Ratio (x) = 0.33678 0.33249
# Poissons Ratio (y) = 0.35833 0.64592
# Poissons Ratio (z) = 0.19244 0.35136
#
# Static dielectric constant tensor:
#      x y z
#    x 3.535190 0.000000 0.000000 
#    y 0.000000 3.707760 0.000000 
#    z 0.000000 0.000000 3.710540 
# 
# 
# High freq. dielectric constant tensor:
#      x y z
#    x 1.778360 0.000000 0.000000 
#    y 0.000000 1.788510 0.000000 
#    z 0.000000 0.000000 1.791300 
# 
# From -- ./inp_files/32927.got.cif
#   From: 2010.03.12/outbox.cif.g09.slc.cpg/sg24_17_cif.got.tgz:32927.got - 2010.04.14 03:06:53.
