data_PCOD8165766
_publ_section_title
;
Structure prediction by ZEFSAII (Michael W. Deem and Ramdas Pophale) SiO2 
 PCOD8165766
Probable space group: I 21 21 21
;
_chemical_formula_sum "Si O2"
_cell_formula_units_Z 32
_cell_length_a 4.966446
_cell_length_b 33.059859
_cell_length_c 7.977532
_cell_angle_alpha 90.000000
_cell_angle_beta 90.000000
_cell_angle_gamma 90.000000
_cell_volume 1309.831015
_symmetry_space_group_name_H-M "I 21 21 21"
_symmetry_group_IT_number 24
_symmetry_cell_setting 'orthorhombic'
loop_
_space_group_symop_operation_xyz
x,y,z
-x,1/2-y,z
x,-y,1/2-z
1/2-x,y,-z
1/2+x,1/2+y,1/2+z
1/2-x,-y,1/2+z
1/2+x,1/2-y,-z
-x,1/2+y,1/2-z
loop_
_atom_site_type_symbol
_atom_site_label
_atom_site_fract_x
_atom_site_fract_y
_atom_site_fract_z
Si Si1 0.750000 0.442506 0.500000
Si Si2 0.750000 0.385208 0.000000
Si Si3 0.042958 0.000000 0.750000
Si Si4 0.750000 0.057648 0.000000
Si Si5 0.616420 0.336057 0.685605
Si Si6 0.750000 0.886282 0.000000
Si Si7 0.000000 0.750000 0.114715
O O1 0.762845 0.472363 0.343271
O O2 0.496344 0.415145 0.459420
O O3 0.711036 0.356732 0.165362
O O4 0.497623 0.413156 0.954035
O O5 0.840397 0.971708 0.647971
O O6 0.750000 0.340031 0.500000
O O7 0.327183 0.358577 0.662042
O O8 0.574265 0.288701 0.730071
O O9 0.750000 0.763171 0.000000
#
# Coordination Sequence:
#
# PCOD8165766 Si02
#       7
#     4   4   4   4   8   4   4
#     4  12  27  44  73 100 138 190 240 304 375 446
#     4  12  29  48  75 118 148 192 260 314 375 458
#     4  12  28  52  70 106 148 196 248 318 382 456
#     4  12  29  52  75 108 144 194 252 316 377 464
#     4  11  25  48  76 113 152 204 246 314 374 452
#     4  12  23  44  73 104 134 198 244 298 381 436
#     4  10  22  42  76 110 150 202 252 296 376 460
#
# _framework density 24.430630000000001
#
# number of rings (size 3 to 8) (size 9 to 14) (size 15 to 20)
#    0.000    0.500    2.500    4.500    3.500    7.000 
#    0.000    6.250    0.000    0.000    0.000    0.000 
#    0.000    0.000    0.000    0.000    0.000    0.000 
#
# Total GULP energy -198231.297187 kJ/mol
# GULP energy per Si atom -12389.456074 kJ/mol
# Density = 2.437502 g / cm^3
# Si number density = 24.430630 Si / 1000 Ang^3
#
#
#
# Elastic Constant Matrix: (Units=GPa)
#
#
# Indices 1 2 3 4 5 6 
#
# 1 108.0368 47.1015 20.4717 0.0000 0.0000 0.0000
# 2 47.1015 208.7087 68.2345 0.0002 0.0000 0.0003
# 3 20.4717 68.2345 121.7529 0.0003 0.0001 0.0004
# 4 0.0000 0.0002 0.0003 39.9849 0.0000 0.0005
# 5 0.0000 0.0000 0.0001 0.0000 35.9474 0.0000
# 6 0.0000 0.0003 0.0004 0.0005 0.0000 11.9399
#
#
#
# Elastic Compliance Matrix: (Units=1/GPa)
#
#
# Indices 1 2 3 4 5 6 
#
# 1 0.010294 -0.002151 -0.000525 0.000000 0.000000 0.000000
# 2 -0.002151 0.006316 -0.003178 0.000000 0.000000 0.000000
# 3 -0.000525 -0.003178 0.010083 0.000000 0.000000 0.000000
# 4 0.000000 0.000000 0.000000 0.025009 0.000000 -0.000001
# 5 0.000000 0.000000 0.000000 0.000000 0.027818 0.000000
# 6 0.000000 0.000000 0.000000 -0.000001 0.000000 0.083753
#
#
# Mechanical properties :
#
#
# Convention : Reuss Voigt Hill
#
# Bulk Modulus (GPa) = 66.74061 78.90153 72.82107
# Shear Modulus (GPa) = 27.78150 37.75383 32.76767
#
# Velocity S-wave (km/s) = 3.37584 3.93536 3.66629
# Velocity P-wave (km/s) = 6.52478 7.28118 6.91333
#
# Compressibility (1/GPa) = 0.01498338
#
# Stress axis : x y z
#
# Youngs Moduli (GPa) = 97.14816 158.33149 99.18038
#
# Poissons Ratio (x) = 0.34063 0.05207
# Poissons Ratio (y) = 0.20900 0.31518
# Poissons Ratio (z) = 0.05101 0.50316
#
# Static dielectric constant tensor:
#      x y z
#    x 4.176770 0.000000 0.000000 
#    y 0.000000 5.152040 0.000000 
#    z 0.000000 0.000000 4.407870 
# 
# 
# High freq. dielectric constant tensor:
#      x y z
#    x 1.977900 0.000000 0.000000 
#    y 0.000000 2.006270 0.000000 
#    z 0.000000 0.000000 1.942160 
# 
# From -- ./inp_files/1255.got.cif
#   From: 2010.03.12/outbox.cif.g09.slc.cpg/sg24_1_cif.got.tgz:1255.got - 2010.04.14 03:06:53.
