data_PCOD8165042
_publ_section_title
;
Structure prediction by ZEFSAII (Michael W. Deem and Ramdas Pophale) SiO2 
 PCOD8165042
Probable space group: I 21 21 21
;
_chemical_formula_sum "Si O2"
_cell_formula_units_Z 56
_cell_length_a 8.390947
_cell_length_b 21.033133
_cell_length_c 13.871431
_cell_angle_alpha 90.000000
_cell_angle_beta 90.000000
_cell_angle_gamma 90.000000
_cell_volume 2448.139786
_symmetry_space_group_name_H-M "I 21 21 21"
_symmetry_group_IT_number 24
_symmetry_cell_setting 'orthorhombic'
loop_
_space_group_symop_operation_xyz
x,y,z
-x,1/2-y,z
x,-y,1/2-z
1/2-x,y,-z
1/2+x,1/2+y,1/2+z
1/2-x,-y,1/2+z
1/2+x,1/2-y,-z
-x,1/2+y,1/2-z
loop_
_atom_site_type_symbol
_atom_site_label
_atom_site_fract_x
_atom_site_fract_y
_atom_site_fract_z
Si Si1 0.093081 0.835921 0.115263
Si Si2 0.843758 0.476968 0.347715
Si Si3 0.222597 0.710183 0.200883
Si Si4 0.934771 0.420225 0.015339
Si Si5 0.373902 0.695515 0.585246
Si Si6 0.407197 0.636873 0.062569
Si Si7 0.479715 0.498961 0.356738
O O1 0.172515 0.901746 0.143485
O O2 0.207338 0.779652 0.151500
O O3 0.927260 0.832668 0.171498
O O4 0.058987 0.836302 0.998993
O O5 0.930909 0.500000 0.250000
O O6 0.936990 0.509857 0.435164
O O7 0.667473 0.503054 0.345663
O O8 0.223585 0.709713 0.316523
O O9 0.385561 0.678286 0.160583
O O10 0.027025 0.370362 0.082885
O O11 0.750000 0.397169 0.000000
O O12 0.043496 0.435503 0.919312
O O13 0.500000 0.750000 0.567438
O O14 0.250000 0.697200 0.500000
O O15 0.421605 0.563114 0.087362
O O16 0.250000 0.647726 0.000000
O O17 0.398762 0.500000 0.250000
#
# Coordination Sequence:
#
# PCOD8165042 Si02
#       7
#     8   8   8   8   8   8   8
#     4  10  19  43  67  91 132 170 223 277 340 410
#     4  10  20  37  68  97 123 175 221 276 342 411
#     4  10  23  44  66  95 135 181 225 279 342 417
#     4  10  22  43  70 102 136 178 232 286 345 415
#     4  12  26  47  74  99 138 186 238 286 348 420
#     4  10  22  42  62  96 130 172 222 284 346 409
#     4  10  22  41  63  96 138 166 220 285 342 409
#
# _framework density 22.874510999999998
#
# number of rings (size 3 to 8) (size 9 to 14) (size 15 to 20)
#    0.000    1.714    2.857    1.286    2.000    0.571 
#   18.000    1.429    0.000    0.000    0.000    0.000 
#    0.000    0.000    0.000    0.000    0.000    0.000 
#
# Total GULP energy -346963.913964 kJ/mol
# GULP energy per Si atom -12391.568356 kJ/mol
# Density = 2.282245 g / cm^3
# Si number density = 22.874511 Si / 1000 Ang^3
#
#
#
# Elastic Constant Matrix: (Units=GPa)
#
#
# Indices 1 2 3 4 5 6 
#
# 1 26.1660 23.2831 36.8312 0.0001 0.0000 0.0000
# 2 23.2831 132.8069 53.2345 0.0002 0.0000 0.0000
# 3 36.8312 53.2345 117.0200 0.0004 -0.0001 0.0000
# 4 0.0001 0.0002 0.0004 37.9086 -0.0001 0.0000
# 5 0.0000 0.0000 -0.0001 -0.0001 20.5754 0.0000
# 6 0.0000 0.0000 0.0000 0.0000 0.0000 25.7500
#
#
#
# Elastic Compliance Matrix: (Units=1/GPa)
#
#
# Indices 1 2 3 4 5 6 
#
# 1 0.070516 -0.004239 -0.020266 0.000000 0.000000 0.000000
# 2 -0.004239 0.009464 -0.002971 0.000000 0.000000 0.000000
# 3 -0.020266 -0.002971 0.016276 0.000000 0.000000 0.000000
# 4 0.000000 0.000000 0.000000 0.026379 0.000000 0.000000
# 5 0.000000 0.000000 0.000000 0.000000 0.048602 0.000000
# 6 0.000000 0.000000 0.000000 0.000000 0.000000 0.038835
#
#
# Mechanical properties :
#
#
# Convention : Reuss Voigt Hill
#
# Bulk Modulus (GPa) = 24.21113 55.85450 40.03282
# Shear Modulus (GPa) = 17.93455 27.68972 22.81214
#
# Velocity S-wave (km/s) = 2.80311 3.48301 3.16139
# Velocity P-wave (km/s) = 4.59172 6.37541 5.55562
#
# Compressibility (1/GPa) = 0.04130331
#
# Stress axis : x y z
#
# Youngs Moduli (GPa) = 14.18119 105.66555 61.44136
#
# Poissons Ratio (x) = 0.44793 1.24517
# Poissons Ratio (y) = 0.06012 0.18254
# Poissons Ratio (z) = 0.28740 0.31394
#
# Static dielectric constant tensor:
#      x y z
#    x 3.899880 0.000000 0.000000 
#    y 0.000000 3.971840 0.000000 
#    z 0.000000 0.000000 5.016460 
# 
# 
# High freq. dielectric constant tensor:
#      x y z
#    x 1.876370 0.000000 0.000000 
#    y 0.000000 1.903540 0.000000 
#    z 0.000000 0.000000 1.917720 
# 
# From -- ./inp_files/25059.got.cif
#   From: 2010.03.12/outbox.cif.g09.slc.cpg/sg24_13_cif.got.tgz:25059.got - 2010.04.14 03:06:53.
