data_PCOD8165776
_publ_section_title
;
Structure prediction by ZEFSAII (Michael W. Deem and Ramdas Pophale) SiO2 
 PCOD8165776
Probable space group: I 21 21 21
;
_chemical_formula_sum "Si O2"
_cell_formula_units_Z 56
_cell_length_a 8.793087
_cell_length_b 14.104411
_cell_length_c 20.676049
_cell_angle_alpha 90.000000
_cell_angle_beta 90.000000
_cell_angle_gamma 90.000000
_cell_volume 2564.270745
_symmetry_space_group_name_H-M "I 21 21 21"
_symmetry_group_IT_number 24
_symmetry_cell_setting 'orthorhombic'
loop_
_space_group_symop_operation_xyz
x,y,z
-x,1/2-y,z
x,-y,1/2-z
1/2-x,y,-z
1/2+x,1/2+y,1/2+z
1/2-x,-y,1/2+z
1/2+x,1/2-y,-z
-x,1/2+y,1/2-z
loop_
_atom_site_type_symbol
_atom_site_label
_atom_site_fract_x
_atom_site_fract_y
_atom_site_fract_z
Si Si1 0.335402 0.854767 0.832868
Si Si2 0.026854 0.029131 0.677366
Si Si3 0.919343 0.346277 0.187428
Si Si4 0.647917 0.187268 0.380849
Si Si5 0.250000 0.101516 0.000000
Si Si6 0.898454 0.660928 0.621540
Si Si7 0.250000 0.576492 0.000000
Si Si8 0.009123 0.999507 0.086784
O O1 0.188677 0.921945 0.834725
O O2 0.423018 0.860213 0.764547
O O3 0.291009 0.746962 0.852678
O O4 0.452866 0.894821 0.886163
O O5 0.883213 0.097252 0.665033
O O6 0.012463 0.000000 0.750000
O O7 0.010269 0.937459 0.630973
O O8 0.742488 0.340897 0.170103
O O9 0.007112 0.429519 0.148352
O O10 0.000000 0.250000 0.166104
O O11 0.500000 0.250000 0.380854
O O12 0.663490 0.148275 0.452996
O O13 0.152699 0.169787 0.953174
O O14 0.354177 0.034010 0.957630
O O15 0.000000 0.750000 0.640962
O O16 0.140854 0.508198 0.042515
#
# Coordination Sequence:
#
# PCOD8165776 Si02
#       8
#     8   8   8   8   4   8   4   8
#     4  11  22  45  73 101 136 185 238 294 364 430
#     4  11  20  43  71 102 139 179 234 286 362 425
#     4  11  25  43  69 104 140 184 232 298 368 423
#     4  10  27  42  68 106 137 182 233 296 352 425
#     4  10  22  43  69  98 128 194 232 280 352 412
#     4  11  24  41  71 102 136 186 235 292 351 430
#     4  12  28  45  67 104 144 188 234 288 352 422
#     4  11  25  45  71  98 140 188 235 288 356 431
#
# _framework density 21.838569
#
# number of rings (size 3 to 8) (size 9 to 14) (size 15 to 20)
#    0.000    1.143    4.286    1.286    8.000    4.571 
#    0.000    1.429    0.000    0.000    0.000    0.000 
#    0.000    0.000    0.000    0.000    0.000    0.000 
#
# Total GULP energy -347221.359557 kJ/mol
# GULP energy per Si atom -12400.762841 kJ/mol
# Density = 2.178886 g / cm^3
# Si number density = 21.838569 Si / 1000 Ang^3
#
#
#
# Elastic Constant Matrix: (Units=GPa)
#
#
# Indices 1 2 3 4 5 6 
#
# 1 63.4559 54.2042 40.6175 0.0000 0.0000 0.0000
# 2 54.2042 137.4594 27.8761 0.0000 0.0000 0.0000
# 3 40.6175 27.8761 108.0182 0.0000 0.0000 0.0000
# 4 0.0000 0.0000 0.0000 25.8548 0.0000 0.0000
# 5 0.0000 0.0000 0.0000 0.0000 22.7977 0.0000
# 6 0.0000 0.0000 0.0000 0.0000 0.0000 39.8376
#
#
#
# Elastic Compliance Matrix: (Units=1/GPa)
#
#
# Indices 1 2 3 4 5 6 
#
# 1 0.029844 -0.010017 -0.008637 0.000000 0.000000 0.000000
# 2 -0.010017 0.011039 0.000918 0.000000 0.000000 0.000000
# 3 -0.008637 0.000918 0.012269 0.000000 0.000000 0.000000
# 4 0.000000 0.000000 0.000000 0.038678 0.000000 0.000000
# 5 0.000000 0.000000 0.000000 0.000000 0.043864 0.000000
# 6 0.000000 0.000000 0.000000 0.000000 0.000000 0.025102
#
#
# Mechanical properties :
#
#
# Convention : Reuss Voigt Hill
#
# Bulk Modulus (GPa) = 56.56380 61.59211 59.07796
# Shear Modulus (GPa) = 24.73299 30.11373 27.42336
#
# Velocity S-wave (km/s) = 3.36897 3.71742 3.54747
# Velocity P-wave (km/s) = 6.41018 6.83302 6.62497
#
# Compressibility (1/GPa) = 0.01767915
#
# Stress axis : x y z
#
# Youngs Moduli (GPa) = 33.50794 90.59098 81.50921
#
# Poissons Ratio (x) = 0.90742 0.70399
# Poissons Ratio (y) = 0.33564 -0.07481
# Poissons Ratio (z) = 0.28941 -0.08314
#
# Static dielectric constant tensor:
#      x y z
#    x 4.229030 0.000000 0.000000 
#    y 0.000000 4.387260 0.000000 
#    z 0.000000 0.000000 4.052030 
# 
# 
# High freq. dielectric constant tensor:
#      x y z
#    x 1.846830 0.000000 0.000000 
#    y 0.000000 1.865490 0.000000 
#    z 0.000000 0.000000 1.871600 
# 
# From -- ./inp_files/32882.got.cif
#   From: 2010.03.12/outbox.cif.g09.slc.cpg/sg24_17_cif.got.tgz:32882.got - 2010.04.14 03:06:53.
