data_PCOD8165633
_publ_section_title
;
Structure prediction by ZEFSAII (Michael W. Deem and Ramdas Pophale) SiO2 
 PCOD8165633
Probable space group: I 21 21 21
;
_chemical_formula_sum "Si O2"
_cell_formula_units_Z 40
_cell_length_a 8.655105
_cell_length_b 11.229671
_cell_length_c 22.624613
_cell_angle_alpha 90.000000
_cell_angle_beta 90.000000
_cell_angle_gamma 90.000000
_cell_volume 2198.976220
_symmetry_space_group_name_H-M "I 21 21 21"
_symmetry_group_IT_number 24
_symmetry_cell_setting 'orthorhombic'
loop_
_space_group_symop_operation_xyz
x,y,z
-x,1/2-y,z
x,-y,1/2-z
1/2-x,y,-z
1/2+x,1/2+y,1/2+z
1/2-x,-y,1/2+z
1/2+x,1/2-y,-z
-x,1/2+y,1/2-z
loop_
_atom_site_type_symbol
_atom_site_label
_atom_site_fract_x
_atom_site_fract_y
_atom_site_fract_z
Si Si1 0.250000 0.002262 0.500000
Si Si2 0.500000 0.750000 0.363766
Si Si3 0.196044 0.042278 0.816251
Si Si4 0.780206 0.926275 0.568498
Si Si5 0.547103 0.386317 0.900499
Si Si6 0.966837 0.387007 0.590863
O O1 0.135401 0.090573 0.533228
O O2 0.156002 0.916728 0.456109
O O3 0.581514 0.654728 0.321307
O O4 0.628856 0.811941 0.405203
O O5 0.364321 0.079200 0.840569
O O6 0.217122 0.000000 0.750000
O O7 0.124528 0.932389 0.851951
O O8 0.750000 0.899817 0.500000
O O9 0.616097 0.954568 0.599274
O O10 0.872899 0.045997 0.580914
O O11 0.500000 0.250000 0.903914
O O12 0.000000 0.250000 0.600071
#
# Coordination Sequence:
#
# PCOD8165633 Si02
#       6
#     4   4   8   8   8   8
#     4  10  22  34  56  92 124 158 190 236 302 364
#     4  10  22  38  62  92 114 158 196 246 298 350
#     4  10  23  42  61  85 119 155 206 246 291 340
#     4  11  22  35  62  94 123 153 191 239 305 358
#     4  11  22  36  60  92 123 152 194 247 300 350
#     4  10  23  39  58  87 120 162 199 236 293 361
#
# _framework density 18.190283000000001
#
# number of rings (size 3 to 8) (size 9 to 14) (size 15 to 20)
#    0.000    1.600    4.000    0.000    5.600    0.000 
#    0.000    9.000    0.000    0.000    0.000    0.000 
#    0.000    0.000    0.000    0.000    0.000    0.000 
#
# Total GULP energy -248010.965195 kJ/mol
# GULP energy per Si atom -12400.548260 kJ/mol
# Density = 1.814888 g / cm^3
# Si number density = 18.190283 Si / 1000 Ang^3
#
#
#
# Elastic Constant Matrix: (Units=GPa)
#
#
# Indices 1 2 3 4 5 6 
#
# 1 122.5888 37.4109 27.5697 0.0000 0.0000 0.0000
# 2 37.4109 126.2712 33.1214 0.0000 0.0000 0.0000
# 3 27.5697 33.1214 93.3159 0.0000 0.0000 0.0000
# 4 0.0000 0.0000 0.0000 19.9517 0.0000 0.0000
# 5 0.0000 0.0000 0.0000 0.0000 19.7898 0.0000
# 6 0.0000 0.0000 0.0000 0.0000 0.0000 20.0021
#
#
#
# Elastic Compliance Matrix: (Units=1/GPa)
#
#
# Indices 1 2 3 4 5 6 
#
# 1 0.009278 -0.002238 -0.001947 0.000000 0.000000 0.000000
# 2 -0.002238 0.009272 -0.002630 0.000000 0.000000 0.000000
# 3 -0.001947 -0.002630 0.012225 0.000000 0.000000 0.000000
# 4 0.000000 0.000000 0.000000 0.050121 0.000000 0.000000
# 5 0.000000 0.000000 0.000000 0.000000 0.050531 0.000000
# 6 0.000000 0.000000 0.000000 0.000000 0.000000 0.049995
#
#
# Mechanical properties :
#
#
# Convention : Reuss Voigt Hill
#
# Bulk Modulus (GPa) = 58.32338 59.81999 59.07168
# Shear Modulus (GPa) = 24.90445 28.22032 26.56239
#
# Velocity S-wave (km/s) = 3.70416 3.94305 3.82547
# Velocity P-wave (km/s) = 7.10119 7.32716 7.21506
#
# Compressibility (1/GPa) = 0.01714578
#
# Stress axis : x y z
#
# Youngs Moduli (GPa) = 107.77917 107.84668 81.80041
#
# Poissons Ratio (x) = 0.24139 0.15925
# Poissons Ratio (y) = 0.24124 0.21512
# Poissons Ratio (z) = 0.20982 0.28362
#
# Static dielectric constant tensor:
#      x y z
#    x 4.068570 0.000000 0.000000 
#    y 0.000000 3.200120 0.000000 
#    z 0.000000 0.000000 3.251900 
# 
# 
# High freq. dielectric constant tensor:
#      x y z
#    x 1.728800 0.000000 0.000000 
#    y 0.000000 1.700730 0.000000 
#    z 0.000000 0.000000 1.688260 
# 
# From -- ./inp_files/11072.got.cif
#   From: 2010.03.12/outbox.cif.g09.slc.cpg/sg24_6_cif.got.tgz:11072.got - 2010.04.14 03:06:53.
