data_PCOD8165329
_publ_section_title
;
Structure prediction by ZEFSAII (Michael W. Deem and Ramdas Pophale) SiO2 
 PCOD8165329
Probable space group: I 21 21 21
;
_chemical_formula_sum "Si O2"
_cell_formula_units_Z 40
_cell_length_a 5.185973
_cell_length_b 29.880834
_cell_length_c 13.109848
_cell_angle_alpha 90.000000
_cell_angle_beta 90.000000
_cell_angle_gamma 90.000000
_cell_volume 2031.517756
_symmetry_space_group_name_H-M "I 21 21 21"
_symmetry_group_IT_number 24
_symmetry_cell_setting 'orthorhombic'
loop_
_space_group_symop_operation_xyz
x,y,z
-x,1/2-y,z
x,-y,1/2-z
1/2-x,y,-z
1/2+x,1/2+y,1/2+z
1/2-x,-y,1/2+z
1/2+x,1/2-y,-z
-x,1/2+y,1/2-z
loop_
_atom_site_type_symbol
_atom_site_label
_atom_site_fract_x
_atom_site_fract_y
_atom_site_fract_z
Si Si1 0.000000 0.250000 0.564794
Si Si2 0.895531 0.967171 0.099275
Si Si3 0.830530 0.390235 0.306829
Si Si4 0.047676 0.500000 0.750000
Si Si5 0.181158 0.342931 0.617725
Si Si6 0.684461 0.445061 0.888855
O O1 0.250000 0.233400 0.500000
O O2 0.098965 0.291234 0.633616
O O3 0.137099 0.934684 0.122141
O O4 0.716379 0.960454 0.199032
O O5 0.750000 0.949385 0.000000
O O6 0.949060 0.020395 0.092755
O O7 0.551734 0.372260 0.338319
O O8 0.854297 0.403630 0.187405
O O9 0.055685 0.353680 0.322186
O O10 0.896026 0.478107 0.842623
O O11 0.250000 0.352488 0.500000
O O12 0.750000 0.424840 0.000000
#
# Coordination Sequence:
#
# PCOD8165329 Si02
#       6
#     4   8   8   4   8   8
#     4  10  20  40  66  94 130 162 192 228 308 394
#     4  12  24  36  58  79 116 163 207 256 302 350
#     4  12  24  40  59  91 125 158 209 255 300 361
#     4  12  20  40  56  78 108 158 220 252 304 352
#     4  11  24  40  65  94 128 159 189 245 308 376
#     4  12  25  38  57  78 118 168 214 257 302 348
#
# _framework density 19.689713999999999
#
# number of rings (size 3 to 8) (size 9 to 14) (size 15 to 20)
#    0.000    0.400    6.000    4.800    0.000    3.200 
#    0.000    0.000    0.000    0.000    0.000    2.800 
#    0.000    1.600    0.000    0.000    0.000    0.000 
#
# Total GULP energy -247813.257194 kJ/mol
# GULP energy per Si atom -12390.662860 kJ/mol
# Density = 1.964490 g / cm^3
# Si number density = 19.689714 Si / 1000 Ang^3
#
#
#
# Elastic Constant Matrix: (Units=GPa)
#
#
# Indices 1 2 3 4 5 6 
#
# 1 90.8701 26.3928 28.0586 0.0000 0.0000 0.0000
# 2 26.3928 104.9150 40.0472 0.0000 0.0000 0.0000
# 3 28.0586 40.0472 134.2125 0.0000 0.0000 0.0000
# 4 0.0000 0.0000 0.0000 25.0323 0.0000 0.0000
# 5 0.0000 0.0000 0.0000 0.0000 28.7579 0.0000
# 6 0.0000 0.0000 0.0000 0.0000 0.0000 29.3224
#
#
#
# Elastic Compliance Matrix: (Units=1/GPa)
#
#
# Indices 1 2 3 4 5 6 
#
# 1 0.012268 -0.002378 -0.001855 0.000000 0.000000 0.000000
# 2 -0.002378 0.011218 -0.002850 0.000000 0.000000 0.000000
# 3 -0.001855 -0.002850 0.008689 0.000000 0.000000 0.000000
# 4 0.000000 0.000000 0.000000 0.039948 0.000000 0.000000
# 5 0.000000 0.000000 0.000000 0.000000 0.034773 0.000000
# 6 0.000000 0.000000 0.000000 0.000000 0.000000 0.034104
#
#
# Mechanical properties :
#
#
# Convention : Reuss Voigt Hill
#
# Bulk Modulus (GPa) = 55.52972 57.66607 56.59789
# Shear Modulus (GPa) = 31.02319 32.32243 31.67281
#
# Velocity S-wave (km/s) = 3.97369 4.05605 4.01508
# Velocity P-wave (km/s) = 7.02263 7.16145 7.09238
#
# Compressibility (1/GPa) = 0.01800838
#
# Stress axis : x y z
#
# Youngs Moduli (GPa) = 81.51105 89.14520 115.08628
#
# Poissons Ratio (x) = 0.21200 0.21351
# Poissons Ratio (y) = 0.19384 0.32800
# Poissons Ratio (z) = 0.15122 0.25407
#
# Static dielectric constant tensor:
#      x y z
#    x 3.902300 0.000000 0.000000 
#    y 0.000000 3.517440 0.000000 
#    z 0.000000 0.000000 3.585690 
# 
# 
# High freq. dielectric constant tensor:
#      x y z
#    x 1.794870 0.000000 0.000000 
#    y 0.000000 1.737340 0.000000 
#    z 0.000000 0.000000 1.749110 
# 
# From -- ./inp_files/17758.got.cif
#   From: 2010.03.12/outbox.cif.g09.slc.cpg/sg24_9_cif.got.tgz:17758.got - 2010.04.14 03:06:53.
