data_PCOD8165785
_publ_section_title
;
Structure prediction by ZEFSAII (Michael W. Deem and Ramdas Pophale) SiO2 
 PCOD8165785
Probable space group: I 21 21 21
;
_chemical_formula_sum "Si O2"
_cell_formula_units_Z 64
_cell_length_a 28.515924
_cell_length_b 12.360296
_cell_length_c 8.529763
_cell_angle_alpha 90.000000
_cell_angle_beta 90.000000
_cell_angle_gamma 90.000000
_cell_volume 3006.445145
_symmetry_space_group_name_H-M "I 21 21 21"
_symmetry_group_IT_number 24
_symmetry_cell_setting 'orthorhombic'
loop_
_space_group_symop_operation_xyz
x,y,z
-x,1/2-y,z
x,-y,1/2-z
1/2-x,y,-z
1/2+x,1/2+y,1/2+z
1/2-x,-y,1/2+z
1/2+x,1/2-y,-z
-x,1/2+y,1/2-z
loop_
_atom_site_type_symbol
_atom_site_label
_atom_site_fract_x
_atom_site_fract_y
_atom_site_fract_z
Si Si1 0.600246 0.310199 0.118570
Si Si2 0.378924 0.399194 0.532190
Si Si3 0.053099 0.230296 0.577871
Si Si4 0.704249 0.547468 0.078892
Si Si5 0.370766 0.639253 0.611199
Si Si6 0.270475 0.398333 0.845308
Si Si7 0.393664 0.026090 0.568368
Si Si8 0.688618 0.770722 0.177576
O O1 0.556908 0.297208 0.237635
O O2 0.648793 0.283801 0.210879
O O3 0.597429 0.228609 0.972471
O O4 0.593088 0.429506 0.049295
O O5 0.422617 0.346889 0.442986
O O6 0.377223 0.528397 0.512506
O O7 0.387564 0.368700 0.711927
O O8 0.331877 0.349946 0.455642
O O9 0.078120 0.135085 0.477350
O O10 0.000000 0.250000 0.525785
O O11 0.692255 0.500000 0.250000
O O12 0.715671 0.673826 0.094614
O O13 0.750000 0.490984 0.000000
O O14 0.661693 0.539633 0.956641
O O15 0.315766 0.675558 0.615182
O O16 0.291176 0.500000 0.750000
O O17 0.228059 0.334096 0.770557
O O18 0.250000 0.452325 0.000000
O O19 0.404260 0.000000 0.750000
#
# Coordination Sequence:
#
# PCOD8165785 Si02
#       8
#     8   8   8   8   8   8   8   8
#     4  11  23  45  70  96 141 176 225 279 356 411
#     4  10  22  44  66  94 142 176 223 281 352 397
#     4  11  25  49  77 105 131 179 232 288 357 439
#     4  12  25  42  63  99 137 187 240 283 335 411
#     4  11  23  40  64 102 137 187 220 282 345 411
#     4  12  24  37  57  93 135 184 245 283 334 398
#     4  12  24  48  74 102 144 184 225 291 357 413
#     4  11  24  37  63  89 135 188 229 286 330 396
#
# _framework density 21.287599
#
# number of rings (size 3 to 8) (size 9 to 14) (size 15 to 20)
#    0.000    0.750    6.250    2.250    1.750    3.000 
#    6.750    1.250    0.000    0.000    0.000    0.000 
#    0.000    0.000    0.000    0.000    0.000    0.000 
#
# Total GULP energy -396624.148649 kJ/mol
# GULP energy per Si atom -12394.504645 kJ/mol
# Density = 2.123915 g / cm^3
# Si number density = 21.287599 Si / 1000 Ang^3
#
#
#
# Elastic Constant Matrix: (Units=GPa)
#
#
# Indices 1 2 3 4 5 6 
#
# 1 107.0549 29.9696 20.9826 0.0000 0.0000 0.0000
# 2 29.9696 89.2365 18.8155 0.0000 0.0000 0.0000
# 3 20.9826 18.8155 83.2947 0.0000 0.0000 0.0000
# 4 0.0000 0.0000 0.0000 36.3165 0.0000 0.0000
# 5 0.0000 0.0000 0.0000 0.0000 22.3378 0.0000
# 6 0.0000 0.0000 0.0000 0.0000 0.0000 6.3557
#
#
#
# Elastic Compliance Matrix: (Units=1/GPa)
#
#
# Indices 1 2 3 4 5 6 
#
# 1 0.010607 -0.003149 -0.001961 0.000000 0.000000 0.000000
# 2 -0.003149 0.012701 -0.002076 0.000000 0.000000 0.000000
# 3 -0.001961 -0.002076 0.012968 0.000000 0.000000 0.000000
# 4 0.000000 0.000000 0.000000 0.027536 0.000000 0.000000
# 5 0.000000 0.000000 0.000000 0.000000 0.044767 0.000000
# 6 0.000000 0.000000 0.000000 0.000000 0.000000 0.157340
#
#
# Mechanical properties :
#
#
# Convention : Reuss Voigt Hill
#
# Bulk Modulus (GPa) = 45.65001 46.56908 46.10954
# Shear Modulus (GPa) = 17.38572 26.98989 22.18781
#
# Velocity S-wave (km/s) = 2.86091 3.56458 3.23195
# Velocity P-wave (km/s) = 5.69245 6.23420 5.96948
#
# Compressibility (1/GPa) = 0.02190580
#
# Stress axis : x y z
#
# Youngs Moduli (GPa) = 94.27924 78.73152 77.11055
#
# Poissons Ratio (x) = 0.24791 0.15119
# Poissons Ratio (y) = 0.29687 0.16007
# Poissons Ratio (z) = 0.18485 0.16344
#
# Static dielectric constant tensor:
#      x y z
#    x 3.539510 0.000000 0.000000 
#    y 0.000000 4.075190 0.000000 
#    z 0.000000 0.000000 4.091760 
# 
# 
# High freq. dielectric constant tensor:
#      x y z
#    x 1.805980 0.000000 0.000000 
#    y 0.000000 1.840820 0.000000 
#    z 0.000000 0.000000 1.850490 
# 
# From -- ./inp_files/17009.got.cif
#   From: 2010.03.12/outbox.cif.g09.slc.cpg/sg24_9_cif.got.tgz:17009.got - 2010.04.14 03:06:53.
