data_PCOD8165684
_publ_section_title
;
Structure prediction by ZEFSAII (Michael W. Deem and Ramdas Pophale) SiO2 
 PCOD8165684
Probable space group: I 21 21 21
;
_chemical_formula_sum "Si O2"
_cell_formula_units_Z 64
_cell_length_a 14.717328
_cell_length_b 9.395800
_cell_length_c 21.626983
_cell_angle_alpha 90.000000
_cell_angle_beta 90.000000
_cell_angle_gamma 90.000000
_cell_volume 2990.602359
_symmetry_space_group_name_H-M "I 21 21 21"
_symmetry_group_IT_number 24
_symmetry_cell_setting 'orthorhombic'
loop_
_space_group_symop_operation_xyz
x,y,z
-x,1/2-y,z
x,-y,1/2-z
1/2-x,y,-z
1/2+x,1/2+y,1/2+z
1/2-x,-y,1/2+z
1/2+x,1/2-y,-z
-x,1/2+y,1/2-z
loop_
_atom_site_type_symbol
_atom_site_label
_atom_site_fract_x
_atom_site_fract_y
_atom_site_fract_z
Si Si1 0.603249 0.233917 0.280176
Si Si2 0.459089 0.096213 0.696277
Si Si3 0.977699 0.406039 0.945788
Si Si4 0.783366 0.809027 0.064799
Si Si5 0.667666 0.310873 0.148278
Si Si6 0.978591 0.912455 0.062478
Si Si7 0.765186 0.586604 0.164870
Si Si8 0.853387 0.996614 0.632632
O O1 0.500000 0.250000 0.304499
O O2 0.604240 0.270828 0.207458
O O3 0.670998 0.347967 0.311188
O O4 0.634193 0.073328 0.299981
O O5 0.500000 0.250000 0.702735
O O6 0.482966 0.032034 0.628434
O O7 0.350997 0.107152 0.709795
O O8 0.503537 0.000000 0.750000
O O9 0.884802 0.392289 0.906947
O O10 0.000000 0.250000 0.970745
O O11 0.049236 0.467870 0.897350
O O12 0.972813 0.501566 0.007237
O O13 0.868679 0.917851 0.062729
O O14 0.800731 0.664434 0.102830
O O15 0.698877 0.894141 0.090652
O O16 0.750000 0.750803 0.000000
O O17 0.751565 0.415758 0.160869
O O18 0.703304 0.152023 0.132139
O O19 0.000000 0.750000 0.049668
#
# Coordination Sequence:
#
# PCOD8165684 Si02
#       8
#     8   8   8   8   8   8   8   8
#     4  11  22  39  66  97 137 186 229 265 327 418
#     4  11  24  48  70  94 131 172 228 297 350 409
#     4  10  22  40  62  97 141 172 220 276 342 409
#     4  11  22  43  68  92 132 172 228 282 342 412
#     4  11  23  39  62  98 140 174 216 275 342 411
#     4  11  23  44  69  94 127 173 230 289 337 422
#     4  11  24  43  65  98 131 174 228 284 342 408
#     4  10  22  39  61  93 134 182 218 269 332 411
#
# _framework density 21.400371
#
# number of rings (size 3 to 8) (size 9 to 14) (size 15 to 20)
#    0.000    1.250    3.750    3.375    1.750    2.000 
#    6.750    0.625    0.000    0.000    0.000    0.000 
#    0.000    0.000    0.000    0.000    0.000    0.000 
#
# Total GULP energy -396482.224053 kJ/mol
# GULP energy per Si atom -12390.069502 kJ/mol
# Density = 2.135166 g / cm^3
# Si number density = 21.400371 Si / 1000 Ang^3
#
#
#
# Elastic Constant Matrix: (Units=GPa)
#
#
# Indices 1 2 3 4 5 6 
#
# 1 75.7361 20.3675 21.7001 0.0000 0.0000 0.0000
# 2 20.3675 122.1946 59.4621 0.0000 0.0000 0.0000
# 3 21.7001 59.4621 144.6462 0.0000 0.0000 0.0000
# 4 0.0000 0.0000 0.0000 45.6857 0.0000 0.0000
# 5 0.0000 0.0000 0.0000 0.0000 41.3555 0.0000
# 6 0.0000 0.0000 0.0000 0.0000 0.0000 29.7376
#
#
#
# Elastic Compliance Matrix: (Units=1/GPa)
#
#
# Indices 1 2 3 4 5 6 
#
# 1 0.014057 -0.001646 -0.001432 0.000000 0.000000 0.000000
# 2 -0.001646 0.010423 -0.004038 0.000000 0.000000 0.000000
# 3 -0.001432 -0.004038 0.008788 0.000000 0.000000 0.000000
# 4 0.000000 0.000000 0.000000 0.021889 0.000000 0.000000
# 5 0.000000 0.000000 0.000000 0.000000 0.024181 0.000000
# 6 0.000000 0.000000 0.000000 0.000000 0.000000 0.033627
#
#
# Mechanical properties :
#
#
# Convention : Reuss Voigt Hill
#
# Bulk Modulus (GPa) = 52.53255 60.62626 56.57941
# Shear Modulus (GPa) = 37.44146 39.42556 38.43351
#
# Velocity S-wave (km/s) = 4.18732 4.29684 4.24244
# Velocity P-wave (km/s) = 6.92669 7.28067 7.10588
#
# Compressibility (1/GPa) = 0.01903582
#
# Stress axis : x y z
#
# Youngs Moduli (GPa) = 71.14010 95.94276 113.78971
#
# Poissons Ratio (x) = 0.15793 0.16296
# Poissons Ratio (y) = 0.11710 0.45945
# Poissons Ratio (z) = 0.10188 0.38739
#
# Static dielectric constant tensor:
#      x y z
#    x 3.930000 0.000000 0.000000 
#    y 0.000000 4.076690 0.000000 
#    z 0.000000 0.000000 4.107140 
# 
# 
# High freq. dielectric constant tensor:
#      x y z
#    x 1.831540 0.000000 0.000000 
#    y 0.000000 1.841690 0.000000 
#    z 0.000000 0.000000 1.843560 
# 
# From -- ./inp_files/35860.got.cif
#   From: 2010.03.12/outbox.cif.g09.slc.cpg/sg24_18_cif.got.tgz:35860.got - 2010.04.14 03:06:53.
