data_PCOD8165612
_publ_section_title
;
Structure prediction by ZEFSAII (Michael W. Deem and Ramdas Pophale) SiO2 
 PCOD8165612
Probable space group: I 21 21 21
;
_chemical_formula_sum "Si O2"
_cell_formula_units_Z 60
_cell_length_a 7.893715
_cell_length_b 25.679946
_cell_length_c 12.979106
_cell_angle_alpha 90.000000
_cell_angle_beta 90.000000
_cell_angle_gamma 90.000000
_cell_volume 2630.996848
_symmetry_space_group_name_H-M "I 21 21 21"
_symmetry_group_IT_number 24
_symmetry_cell_setting 'orthorhombic'
loop_
_space_group_symop_operation_xyz
x,y,z
-x,1/2-y,z
x,-y,1/2-z
1/2-x,y,-z
1/2+x,1/2+y,1/2+z
1/2-x,-y,1/2+z
1/2+x,1/2-y,-z
-x,1/2+y,1/2-z
loop_
_atom_site_type_symbol
_atom_site_label
_atom_site_fract_x
_atom_site_fract_y
_atom_site_fract_z
Si Si1 0.560865 0.554910 0.368551
Si Si2 0.993790 0.106765 0.402757
Si Si3 0.084209 0.615098 0.450303
Si Si4 0.934462 0.691509 0.950086
Si Si5 0.282717 0.556434 0.743428
Si Si6 0.141750 0.789631 0.406748
Si Si7 0.750000 0.526286 0.000000
Si Si8 0.218227 0.853919 0.758206
O O1 0.473823 0.568169 0.476847
O O2 0.414856 0.545240 0.282933
O O3 0.684172 0.506639 0.399467
O O4 0.668953 0.601652 0.322519
O O5 0.947101 0.155618 0.476891
O O6 0.093802 0.062213 0.465177
O O7 0.109657 0.127576 0.310411
O O8 0.817967 0.084496 0.354117
O O9 0.250000 0.642122 0.500000
O O10 0.125888 0.592164 0.339640
O O11 0.936348 0.656520 0.445773
O O12 0.926365 0.661740 0.840255
O O13 0.000000 0.750000 0.938129
O O14 0.750000 0.693253 0.000000
O O15 0.372404 0.500000 0.750000
O O16 0.250000 0.765090 0.500000
O O17 0.254257 0.800839 0.306430
O O18 0.000000 0.750000 0.370192
#
# Coordination Sequence:
#
# PCOD8165612 Si02
#       8
#     8   8   8   8   8   8   4   8
#     4  11  25  42  70 102 143 190 231 297 368 441
#     4  11  24  45  70 103 141 189 250 302 355 445
#     4  10  21  44  62  94 143 181 227 286 359 433
#     4  10  24  48  70  98 136 184 242 309 365 426
#     4  11  25  41  67 107 142 183 239 295 356 430
#     4  12  24  42  70 102 138 179 234 302 372 439
#     4  12  24  44  78 102 152 200 238 304 374 450
#     4  11  23  44  69 102 136 183 250 288 362 459
#
# _framework density 22.805046000000001
#
# number of rings (size 3 to 8) (size 9 to 14) (size 15 to 20)
#    0.000    1.067    4.667    2.000    3.733    3.733 
#    4.800    1.333    0.000    0.000    0.000    0.000 
#    0.000    0.000    0.000    0.000    0.000    0.000 
#
# Total GULP energy -371884.747900 kJ/mol
# GULP energy per Si atom -12396.158263 kJ/mol
# Density = 2.275314 g / cm^3
# Si number density = 22.805046 Si / 1000 Ang^3
#
#
#
# Elastic Constant Matrix: (Units=GPa)
#
#
# Indices 1 2 3 4 5 6 
#
# 1 60.3917 26.9634 37.0797 -0.0001 0.0000 0.0001
# 2 26.9634 116.4338 51.9622 -0.0002 0.0002 0.0003
# 3 37.0797 51.9622 114.7639 0.0004 0.0004 0.0015
# 4 -0.0001 -0.0002 0.0004 8.3103 0.0003 0.0008
# 5 0.0000 0.0002 0.0004 0.0003 35.1114 0.0001
# 6 0.0001 0.0003 0.0015 0.0008 0.0001 21.0464
#
#
#
# Elastic Compliance Matrix: (Units=1/GPa)
#
#
# Indices 1 2 3 4 5 6 
#
# 1 0.021143 -0.002315 -0.005783 0.000000 0.000000 0.000000
# 2 -0.002315 0.011017 -0.004240 0.000000 0.000000 0.000000
# 3 -0.005783 -0.004240 0.012502 -0.000001 0.000000 -0.000001
# 4 0.000000 0.000000 -0.000001 0.120332 -0.000001 -0.000005
# 5 0.000000 0.000000 0.000000 -0.000001 0.028481 0.000000
# 6 0.000000 0.000000 -0.000001 -0.000005 0.000000 0.047514
#
#
# Mechanical properties :
#
#
# Convention : Reuss Voigt Hill
#
# Bulk Modulus (GPa) = 50.03765 58.17780 54.10773
# Shear Modulus (GPa) = 18.36026 24.59924 21.47975
#
# Velocity S-wave (km/s) = 2.84050 3.28788 3.07235
# Velocity P-wave (km/s) = 5.72250 6.32296 6.03021
#
# Compressibility (1/GPa) = 0.01998495
#
# Stress axis : x y z
#
# Youngs Moduli (GPa) = 47.29719 90.76821 79.98876
#
# Poissons Ratio (x) = 0.21017 0.46256
# Poissons Ratio (y) = 0.10952 0.33916
# Poissons Ratio (z) = 0.27351 0.38487
#
# Static dielectric constant tensor:
#      x y z
#    x 4.073230 0.000000 0.000000 
#    y 0.000000 4.122920 0.000000 
#    z 0.000000 0.000000 4.413380 
# 
# 
# High freq. dielectric constant tensor:
#      x y z
#    x 1.887550 0.000000 0.000000 
#    y 0.000000 1.899970 0.000000 
#    z 0.000000 0.000000 1.913090 
# 
# From -- ./inp_files/18813.got.cif
#   From: 2010.03.12/outbox.cif.g09.slc.cpg/sg24_10_cif.got.tgz:18813.got - 2010.04.14 03:06:53.
