data_PCOD8165025
_publ_section_title
;
Structure prediction by ZEFSAII (Michael W. Deem and Ramdas Pophale) SiO2 
 PCOD8165025
Probable space group: I 21 21 21
;
_chemical_formula_sum "Si O2"
_cell_formula_units_Z 48
_cell_length_a 22.028525
_cell_length_b 10.723683
_cell_length_c 9.382635
_cell_angle_alpha 90.000000
_cell_angle_beta 90.000000
_cell_angle_gamma 90.000000
_cell_volume 2216.430959
_symmetry_space_group_name_H-M "I 21 21 21"
_symmetry_group_IT_number 24
_symmetry_cell_setting 'orthorhombic'
loop_
_space_group_symop_operation_xyz
x,y,z
-x,1/2-y,z
x,-y,1/2-z
1/2-x,y,-z
1/2+x,1/2+y,1/2+z
1/2-x,-y,1/2+z
1/2+x,1/2-y,-z
-x,1/2+y,1/2-z
loop_
_atom_site_type_symbol
_atom_site_label
_atom_site_fract_x
_atom_site_fract_y
_atom_site_fract_z
Si Si1 0.432742 0.623616 0.544734
Si Si2 0.103597 0.000000 0.750000
Si Si3 0.338499 0.227538 0.103805
Si Si4 0.648330 0.000000 0.750000
Si Si5 0.451627 0.030368 0.528562
Si Si6 0.000000 0.250000 0.278401
Si Si7 0.148885 0.000000 0.250000
Si Si8 0.212983 0.248199 0.209648
O O1 0.398650 0.684584 0.407844
O O2 0.391749 0.511159 0.606183
O O3 0.499922 0.580397 0.501929
O O4 0.441489 0.718275 0.679651
O O5 0.143313 0.091690 0.844411
O O6 0.064776 0.076488 0.631282
O O7 0.286000 0.269632 0.214508
O O8 0.309173 0.226813 0.949647
O O9 0.687278 0.124894 0.722668
O O10 0.482196 0.136300 0.621881
O O11 0.393691 0.974423 0.612177
O O12 0.190814 0.878934 0.211573
#
# Coordination Sequence:
#
# PCOD8165025 Si02
#       8
#     8   4   8   4   8   4   4   8
#     4  11  21  39  70  97 135 181 233 292 351 422
#     4  12  25  44  59 101 142 177 228 286 362 432
#     4  10  22  42  65  92 138 186 224 276 357 427
#     4  10  19  38  67 103 120 167 232 294 324 410
#     4  12  24  37  67  99 135 179 226 291 356 423
#     4  12  20  38  64 104 128 176 240 298 338 420
#     4  12  20  42  70 106 128 180 240 296 342 412
#     4  10  22  40  72  99 129 179 237 290 345 408
#
# _framework density 21.656438999999999
#
# number of rings (size 3 to 8) (size 9 to 14) (size 15 to 20)
#    0.000    1.000    5.000    3.500    0.000    1.333 
#    0.000    2.500   11.000    0.000    0.000    0.000 
#    0.000    0.000    0.000    0.000    0.000    0.000 
#
# Total GULP energy -297385.709704 kJ/mol
# GULP energy per Si atom -12391.071238 kJ/mol
# Density = 2.160715 g / cm^3
# Si number density = 21.656439 Si / 1000 Ang^3
#
#
#
# Elastic Constant Matrix: (Units=GPa)
#
#
# Indices 1 2 3 4 5 6 
#
# 1 133.0627 59.0338 40.3743 0.0000 0.0000 0.0000
# 2 59.0338 131.0909 31.7473 0.0000 0.0000 0.0000
# 3 40.3743 31.7473 78.4503 0.0000 0.0000 0.0000
# 4 0.0000 0.0000 0.0000 32.7015 0.0000 0.0000
# 5 0.0000 0.0000 0.0000 0.0000 15.4907 0.0000
# 6 0.0000 0.0000 0.0000 0.0000 0.0000 24.0060
#
#
#
# Elastic Compliance Matrix: (Units=1/GPa)
#
#
# Indices 1 2 3 4 5 6 
#
# 1 0.010323 -0.003728 -0.003804 0.000000 0.000000 0.000000
# 2 -0.003728 0.009803 -0.002049 0.000000 0.000000 0.000000
# 3 -0.003804 -0.002049 0.015534 0.000000 0.000000 0.000000
# 4 0.000000 0.000000 0.000000 0.030580 0.000000 0.000000
# 5 0.000000 0.000000 0.000000 0.000000 0.064555 0.000000
# 6 0.000000 0.000000 0.000000 0.000000 0.000000 0.041656
#
#
# Mechanical properties :
#
#
# Convention : Reuss Voigt Hill
#
# Bulk Modulus (GPa) = 60.60993 67.21276 63.91134
# Shear Modulus (GPa) = 25.36628 28.53622 26.95125
#
# Velocity S-wave (km/s) = 3.42615 3.63392 3.53156
# Velocity P-wave (km/s) = 6.61053 6.97929 6.79741
#
# Compressibility (1/GPa) = 0.01649895
#
# Stress axis : x y z
#
# Youngs Moduli (GPa) = 96.86787 102.00891 64.37519
#
# Poissons Ratio (x) = 0.38024 0.24491
# Poissons Ratio (y) = 0.36108 0.13189
# Poissons Ratio (z) = 0.36853 0.20899
#
# Static dielectric constant tensor:
#      x y z
#    x 4.654070 0.000000 0.000000 
#    y 0.000000 3.902810 0.000000 
#    z 0.000000 0.000000 3.921450 
# 
# 
# High freq. dielectric constant tensor:
#      x y z
#    x 1.866600 0.000000 0.000000 
#    y 0.000000 1.846750 0.000000 
#    z 0.000000 0.000000 1.814910 
# 
# From -- ./inp_files/15888.got.cif
#   From: 2010.03.12/outbox.cif.g09.slc.cpg/sg24_8_cif.got.tgz:15888.got - 2010.04.14 03:06:53.
