data_PCOD8165356
_publ_section_title
;
Structure prediction by ZEFSAII (Michael W. Deem and Ramdas Pophale) SiO2 
 PCOD8165356
Probable space group: I 21 21 21
;
_chemical_formula_sum "Si O2"
_cell_formula_units_Z 40
_cell_length_a 25.604313
_cell_length_b 8.411296
_cell_length_c 8.227752
_cell_angle_alpha 90.000000
_cell_angle_beta 90.000000
_cell_angle_gamma 90.000000
_cell_volume 1771.973557
_symmetry_space_group_name_H-M "I 21 21 21"
_symmetry_group_IT_number 24
_symmetry_cell_setting 'orthorhombic'
loop_
_space_group_symop_operation_xyz
x,y,z
-x,1/2-y,z
x,-y,1/2-z
1/2-x,y,-z
1/2+x,1/2+y,1/2+z
1/2-x,-y,1/2+z
1/2+x,1/2-y,-z
-x,1/2+y,1/2-z
loop_
_atom_site_type_symbol
_atom_site_label
_atom_site_fract_x
_atom_site_fract_y
_atom_site_fract_z
Si Si1 0.092833 0.289444 0.071529
Si Si2 0.512075 0.000000 0.750000
Si Si3 0.307244 0.224466 0.528199
Si Si4 0.500000 0.750000 0.002575
Si Si5 0.374055 0.000000 0.750000
Si Si6 0.100412 0.810923 0.786991
Si Si7 0.174247 0.500000 0.250000
O O1 0.043293 0.382876 0.132173
O O2 0.088303 0.109550 0.140404
O O3 0.142977 0.374757 0.143300
O O4 0.097079 0.286982 0.878740
O O5 0.482876 0.104292 0.614551
O O6 0.250000 0.150415 0.500000
O O7 0.337252 0.101546 0.637863
O O8 0.343988 0.237931 0.368093
O O9 0.294800 0.392784 0.618982
O O10 0.447445 0.735965 0.108912
O O11 0.095695 0.000000 0.750000
#
# Coordination Sequence:
#
# PCOD8165356 Si02
#       7
#     8   4   8   4   4   8   4
#     4  10  22  44  72  97 142 178 235 284 361 417
#     4  11  28  45  72 100 140 194 236 292 362 444
#     4  11  25  44  71 105 142 189 241 295 369 426
#     4  12  30  46  72 102 144 188 244 292 368 428
#     4  10  20  41  70  97 140 183 230 289 354 444
#     4  12  27  44  71 108 144 183 238 306 355 422
#     4   9  22  44  68 103 134 191 230 287 354 444
#
# _framework density 22.573699000000001
#
# number of rings (size 3 to 8) (size 9 to 14) (size 15 to 20)
#    0.000    1.200    2.000    3.600    7.000    4.800 
#    0.000    4.000    0.000    0.000    0.000    0.000 
#    0.000    0.000    0.000    0.000    0.000    0.000 
#
# Total GULP energy -247791.854701 kJ/mol
# GULP energy per Si atom -12389.592735 kJ/mol
# Density = 2.252232 g / cm^3
# Si number density = 22.573699 Si / 1000 Ang^3
#
#
#
# Elastic Constant Matrix: (Units=GPa)
#
#
# Indices 1 2 3 4 5 6 
#
# 1 100.5616 6.8852 49.0347 0.0000 0.0000 0.0000
# 2 6.8852 104.0362 50.3724 0.0000 0.0000 0.0000
# 3 49.0347 50.3724 181.9933 0.0000 0.0000 0.0000
# 4 0.0000 0.0000 0.0000 29.4137 0.0000 0.0000
# 5 0.0000 0.0000 0.0000 0.0000 524.2280 0.0000
# 6 0.0000 0.0000 0.0000 0.0000 0.0000 139.9864
#
#
#
# Elastic Compliance Matrix: (Units=1/GPa)
#
#
# Indices 1 2 3 4 5 6 
#
# 1 0.011514 0.000855 -0.003339 0.000000 0.000000 0.000000
# 2 0.000855 0.011163 -0.003320 0.000000 0.000000 0.000000
# 3 -0.003339 -0.003320 0.007313 0.000000 0.000000 0.000000
# 4 0.000000 0.000000 0.000000 0.033998 0.000000 0.000000
# 5 0.000000 0.000000 0.000000 0.000000 0.001908 0.000000
# 6 0.000000 0.000000 0.000000 0.000000 0.000000 0.007144
#
#
# Mechanical properties :
#
#
# Convention : Reuss Voigt Hill
#
# Bulk Modulus (GPa) = 54.40230 66.57509 60.48869
# Shear Modulus (GPa) = 55.08198 157.41220 106.24709
#
# Velocity S-wave (km/s) = 4.94509 8.35966 6.86796
# Velocity P-wave (km/s) = 7.53375 11.07858 9.47345
#
# Compressibility (1/GPa) = 0.01838158
#
# Stress axis : x y z
#
# Youngs Moduli (GPa) = 86.85380 89.58223 136.74023
#
# Poissons Ratio (x) = -0.07655 0.45653
# Poissons Ratio (y) = -0.07422 0.45397
# Poissons Ratio (z) = 0.28997 0.29741
#
# Static dielectric constant tensor:
#      x y z
#    x 3.805390 0.000000 0.000000 
#    y 0.000000 3.762910 0.000000 
#    z 0.000000 0.000000 3.559520 
# 
# 
# High freq. dielectric constant tensor:
#      x y z
#    x 1.875760 0.000000 0.000000 
#    y 0.000000 1.908000 0.000000 
#    z 0.000000 0.000000 1.910860 
# 
# From -- ./inp_files/16300.got.cif
#   From: 2010.03.12/outbox.cif.g09.slc.cpg/sg24_9_cif.got.tgz:16300.got - 2010.04.14 03:06:53.
