data_PCOD8165574
_publ_section_title
;
Structure prediction by ZEFSAII (Michael W. Deem and Ramdas Pophale) SiO2 
 PCOD8165574
Probable space group: I 21 21 21
;
_chemical_formula_sum "Si O2"
_cell_formula_units_Z 40
_cell_length_a 17.916407
_cell_length_b 5.366321
_cell_length_c 19.978807
_cell_angle_alpha 90.000000
_cell_angle_beta 90.000000
_cell_angle_gamma 90.000000
_cell_volume 1920.866218
_symmetry_space_group_name_H-M "I 21 21 21"
_symmetry_group_IT_number 24
_symmetry_cell_setting 'orthorhombic'
loop_
_space_group_symop_operation_xyz
x,y,z
-x,1/2-y,z
x,-y,1/2-z
1/2-x,y,-z
1/2+x,1/2+y,1/2+z
1/2-x,-y,1/2+z
1/2+x,1/2-y,-z
-x,1/2+y,1/2-z
loop_
_atom_site_type_symbol
_atom_site_label
_atom_site_fract_x
_atom_site_fract_y
_atom_site_fract_z
Si Si1 0.654599 0.629642 0.851856
Si Si2 0.412513 0.251826 0.510486
Si Si3 0.200169 0.870168 0.680517
Si Si4 0.412644 0.754862 0.432040
Si Si5 0.953143 0.500000 0.250000
Si Si6 0.296760 0.500000 0.750000
O O1 0.740019 0.537292 0.860582
O O2 0.595241 0.435589 0.819391
O O3 0.649774 0.817192 0.789345
O O4 0.630530 0.764099 0.919724
O O5 0.500000 0.250000 0.524388
O O6 0.388570 0.493856 0.466873
O O7 0.389520 0.990511 0.477058
O O8 0.127884 0.796556 0.638267
O O9 0.242825 0.617260 0.694731
O O10 0.174729 0.000000 0.750000
O O11 0.500000 0.750000 0.416356
O O12 0.000000 0.250000 0.263740
#
# Coordination Sequence:
#
# PCOD8165574 Si02
#       6
#     8   8   8   8   4   4
#     4  11  23  41  63  96 133 173 221 267 329 384
#     4  10  24  43  66  93 135 175 218 268 321 391
#     4  10  23  43  68  96 131 170 214 283 330 384
#     4  10  24  47  67  98 133 171 220 272 327 396
#     4  12  25  38  64  95 132 178 224 268 321 392
#     4  10  21  42  64  91 136 166 212 284 315 386
#
# _framework density 20.823937000000001
#
# number of rings (size 3 to 8) (size 9 to 14) (size 15 to 20)
#    0.000    1.600    3.000    1.200    8.400    3.200 
#    1.800    0.000    0.000    0.000    0.000    0.000 
#    0.000    0.000    0.000    0.000    0.000    0.000 
#
# Total GULP energy -247847.933143 kJ/mol
# GULP energy per Si atom -12392.396657 kJ/mol
# Density = 2.077654 g / cm^3
# Si number density = 20.823937 Si / 1000 Ang^3
#
#
#
# Elastic Constant Matrix: (Units=GPa)
#
#
# Indices 1 2 3 4 5 6 
#
# 1 80.2801 31.5129 65.8963 0.0000 0.0000 0.0000
# 2 31.5129 119.4338 40.6827 0.0000 0.0000 0.0000
# 3 65.8963 40.6827 121.8959 0.0000 0.0000 0.0000
# 4 0.0000 0.0000 0.0000 16.2469 0.0000 0.0000
# 5 0.0000 0.0000 0.0000 0.0000 43.6505 0.0000
# 6 0.0000 0.0000 0.0000 0.0000 0.0000 8.9457
#
#
#
# Elastic Compliance Matrix: (Units=1/GPa)
#
#
# Indices 1 2 3 4 5 6 
#
# 1 0.022831 -0.002053 -0.011657 0.000000 0.000000 0.000000
# 2 -0.002053 0.009631 -0.002105 0.000000 0.000000 0.000000
# 3 -0.011657 -0.002105 0.015208 0.000000 0.000000 0.000000
# 4 0.000000 0.000000 0.000000 0.061550 0.000000 0.000000
# 5 0.000000 0.000000 0.000000 0.000000 0.022909 0.000000
# 6 0.000000 0.000000 0.000000 0.000000 0.000000 0.111785
#
#
# Mechanical properties :
#
#
# Convention : Reuss Voigt Hill
#
# Bulk Modulus (GPa) = 62.34182 66.42151 64.38167
# Shear Modulus (GPa) = 17.80054 26.00317 21.90185
#
# Velocity S-wave (km/s) = 2.92689 3.53755 3.24661
# Velocity P-wave (km/s) = 6.43621 6.97507 6.71105
#
# Compressibility (1/GPa) = 0.01604060
#
# Stress axis : x y z
#
# Youngs Moduli (GPa) = 43.80071 103.82646 65.75601
#
# Poissons Ratio (x) = 0.21318 0.76651
# Poissons Ratio (y) = 0.08993 0.13838
# Poissons Ratio (z) = 0.51058 0.21850
#
# Static dielectric constant tensor:
#      x y z
#    x 3.668520 0.000000 0.000000 
#    y 0.000000 4.036260 0.000000 
#    z 0.000000 0.000000 3.604160 
# 
# 
# High freq. dielectric constant tensor:
#      x y z
#    x 1.813020 0.000000 0.000000 
#    y 0.000000 1.827200 0.000000 
#    z 0.000000 0.000000 1.805600 
# 
# From -- ./inp_files/4553.got.cif
#   From: 2010.03.12/outbox.cif.g09.slc.cpg/sg24_3_cif.got.tgz:4553.got - 2010.04.14 03:06:53.
