data_PCOD8165105
_publ_section_title
;
Structure prediction by ZEFSAII (Michael W. Deem and Ramdas Pophale) SiO2 
 PCOD8165105
Probable space group: I 21 21 21
;
_chemical_formula_sum "Si O2"
_cell_formula_units_Z 64
_cell_length_a 9.888228
_cell_length_b 12.596484
_cell_length_c 26.654934
_cell_angle_alpha 90.000000
_cell_angle_beta 90.000000
_cell_angle_gamma 90.000000
_cell_volume 3320.056103
_symmetry_space_group_name_H-M "I 21 21 21"
_symmetry_group_IT_number 24
_symmetry_cell_setting 'orthorhombic'
loop_
_space_group_symop_operation_xyz
x,y,z
-x,1/2-y,z
x,-y,1/2-z
1/2-x,y,-z
1/2+x,1/2+y,1/2+z
1/2-x,-y,1/2+z
1/2+x,1/2-y,-z
-x,1/2+y,1/2-z
loop_
_atom_site_type_symbol
_atom_site_label
_atom_site_fract_x
_atom_site_fract_y
_atom_site_fract_z
Si Si1 0.134843 0.193232 0.957730
Si Si2 0.246245 0.853452 0.885049
Si Si3 0.455263 0.040956 0.452164
Si Si4 0.504848 0.131833 0.554869
Si Si5 0.158815 0.244421 0.848242
Si Si6 0.219443 0.612640 0.892366
Si Si7 0.349259 0.022673 0.193690
Si Si8 0.670110 0.964245 0.305133
O O1 0.192899 0.251672 0.907869
O O2 0.000000 0.250000 0.979184
O O3 0.089420 0.077745 0.938480
O O4 0.250000 0.191696 0.000000
O O5 0.163508 0.881508 0.934965
O O6 0.404174 0.870720 0.897570
O O7 0.207446 0.732689 0.872179
O O8 0.207710 0.926252 0.838630
O O9 0.466133 0.048264 0.512028
O O10 0.591573 0.072397 0.423761
O O11 0.500000 0.250000 0.531109
O O12 0.653463 0.099892 0.571562
O O13 0.214277 0.134788 0.824328
O O14 0.220653 0.344647 0.818039
O O15 0.000000 0.250000 0.840543
O O16 0.243588 0.541751 0.843697
O O17 0.510013 0.023258 0.188229
O O18 0.302443 0.000000 0.250000
O O19 0.716924 0.000000 0.250000
#
# Coordination Sequence:
#
# PCOD8165105 Si02
#       8
#     8   8   8   8   8   8   8   8
#     4  11  23  38  59  86 120 165 205 247 308 362
#     4  11  21  37  59  89 120 150 201 247 300 366
#     4  12  21  37  60  88 119 155 201 254 292 355
#     4  10  23  38  57  84 122 162 191 243 309 363
#     4   9  18  37  55  80 123 151 189 247 302 354
#     4  11  22  37  58  88 119 156 197 249 300 364
#     4  10  20  34  59  88 116 154 194 252 308 352
#     4  10  21  36  58  87 116 152 195 250 304 352
#
# _framework density 19.276782999999998
#
# number of rings (size 3 to 8) (size 9 to 14) (size 15 to 20)
#    0.000    1.500    2.500    4.125    1.750    4.000 
#    0.000    0.625    0.000    0.000    0.000    0.000 
#    0.000    0.000    0.000    0.000    0.000    0.000 
#
# Total GULP energy -396834.584645 kJ/mol
# GULP energy per Si atom -12401.080770 kJ/mol
# Density = 1.923291 g / cm^3
# Si number density = 19.276783 Si / 1000 Ang^3
#
#
#
# Elastic Constant Matrix: (Units=GPa)
#
#
# Indices 1 2 3 4 5 6 
#
# 1 62.3430 28.5315 22.4295 0.0000 0.0000 0.0000
# 2 28.5315 131.8245 70.4526 0.0000 0.0000 0.0000
# 3 22.4295 70.4526 118.6856 0.0000 0.0000 0.0000
# 4 0.0000 0.0000 0.0000 30.9994 0.0000 0.0000
# 5 0.0000 0.0000 0.0000 0.0000 8.6070 0.0000
# 6 0.0000 0.0000 0.0000 0.0000 0.0000 12.3655
#
#
#
# Elastic Compliance Matrix: (Units=1/GPa)
#
#
# Indices 1 2 3 4 5 6 
#
# 1 0.018008 -0.003045 -0.001596 0.000000 0.000000 0.000000
# 2 -0.003045 0.011625 -0.006326 0.000000 0.000000 0.000000
# 3 -0.001596 -0.006326 0.012482 0.000000 0.000000 0.000000
# 4 0.000000 0.000000 0.000000 0.032259 0.000000 0.000000
# 5 0.000000 0.000000 0.000000 0.000000 0.116185 0.000000
# 6 0.000000 0.000000 0.000000 0.000000 0.000000 0.080870
#
#
# Mechanical properties :
#
#
# Convention : Reuss Voigt Hill
#
# Bulk Modulus (GPa) = 49.54594 61.74225 55.64410
# Shear Modulus (GPa) = 16.66173 23.15700 19.90937
#
# Velocity S-wave (km/s) = 2.94316 3.46972 3.21723
# Velocity P-wave (km/s) = 6.10801 6.93908 6.53677
#
# Compressibility (1/GPa) = 0.02018329
#
# Stress axis : x y z
#
# Youngs Moduli (GPa) = 55.53140 86.01798 80.11463
#
# Poissons Ratio (x) = 0.26190 0.12785
# Poissons Ratio (y) = 0.16907 0.50677
# Poissons Ratio (z) = 0.08862 0.54411
#
# Static dielectric constant tensor:
#      x y z
#    x 3.276350 0.000000 0.000000 
#    y 0.000000 3.804460 0.000000 
#    z 0.000000 0.000000 3.523640 
# 
# 
# High freq. dielectric constant tensor:
#      x y z
#    x 1.718730 0.000000 0.000000 
#    y 0.000000 1.765260 0.000000 
#    z 0.000000 0.000000 1.751020 
# 
# From -- ./inp_files/37261.got.cif
#   From: 2010.03.12/outbox.cif.g09.slc.cpg/sg24_19_cif.got.tgz:37261.got - 2010.04.14 03:06:53.
