data_PCOD8165144
_publ_section_title
;
Structure prediction by ZEFSAII (Michael W. Deem and Ramdas Pophale) SiO2 
 PCOD8165144
Probable space group: I 21 21 21
;
_chemical_formula_sum "Si O2"
_cell_formula_units_Z 48
_cell_length_a 16.466278
_cell_length_b 8.957041
_cell_length_c 17.825836
_cell_angle_alpha 90.000000
_cell_angle_beta 90.000000
_cell_angle_gamma 90.000000
_cell_volume 2629.116993
_symmetry_space_group_name_H-M "I 21 21 21"
_symmetry_group_IT_number 24
_symmetry_cell_setting 'orthorhombic'
loop_
_space_group_symop_operation_xyz
x,y,z
-x,1/2-y,z
x,-y,1/2-z
1/2-x,y,-z
1/2+x,1/2+y,1/2+z
1/2-x,-y,1/2+z
1/2+x,1/2-y,-z
-x,1/2+y,1/2-z
loop_
_atom_site_type_symbol
_atom_site_label
_atom_site_fract_x
_atom_site_fract_y
_atom_site_fract_z
Si Si1 0.091504 0.227459 0.436620
Si Si2 0.249250 0.274143 0.196532
Si Si3 0.080341 0.822787 0.744920
Si Si4 0.775276 0.520899 0.416693
Si Si5 0.642538 0.720732 0.099328
Si Si6 0.781860 0.895151 0.145812
O O1 0.087022 0.228050 0.526351
O O2 0.136570 0.370247 0.401334
O O3 0.000000 0.250000 0.405959
O O4 0.141825 0.077530 0.414894
O O5 0.344940 0.236759 0.195185
O O6 0.206424 0.152347 0.143026
O O7 0.226685 0.433883 0.164826
O O8 0.218060 0.279622 0.282634
O O9 0.085573 0.758885 0.829072
O O10 0.000000 0.750000 0.708102
O O11 0.075080 0.000000 0.750000
O O12 0.750000 0.580526 0.500000
O O13 0.696670 0.428366 0.390470
O O14 0.705434 0.857633 0.093155
#
# Coordination Sequence:
#
# PCOD8165144 Si02
#       6
#     8   8   8   8   8   8
#     4  10  20  36  55  82 108 141 190 236 273 319
#     4  10  20  38  54  81 111 145 188 223 268 337
#     4  11  22  33  56  86 118 146 173 225 276 329
#     4   9  18  34  58  80 105 146 187 220 274 336
#     4   9  18  35  56  79 109 149 182 212 273 341
#     4   9  20  34  58  79 107 147 187 222 273 333
#
# _framework density 18.257079999999998
#
# number of rings (size 3 to 8) (size 9 to 14) (size 15 to 20)
#    0.000    2.333    1.667    2.000    4.667    1.333 
#    0.000    4.167    0.000    0.000    0.000    0.000 
#    0.000    0.000    0.000    0.000    0.000    0.000 
#
# Total GULP energy -297346.827919 kJ/mol
# GULP energy per Si atom -12389.451163 kJ/mol
# Density = 1.821553 g / cm^3
# Si number density = 18.257080 Si / 1000 Ang^3
#
#
#
# Elastic Constant Matrix: (Units=GPa)
#
#
# Indices 1 2 3 4 5 6 
#
# 1 111.6283 42.8594 22.1204 0.0000 0.0000 0.0000
# 2 42.8594 85.4452 41.8658 0.0000 0.0000 0.0000
# 3 22.1204 41.8658 49.7935 0.0000 0.0000 0.0000
# 4 0.0000 0.0000 0.0000 23.4831 0.0000 0.0000
# 5 0.0000 0.0000 0.0000 0.0000 16.9395 0.0000
# 6 0.0000 0.0000 0.0000 0.0000 0.0000 2.9210
#
#
#
# Elastic Compliance Matrix: (Units=1/GPa)
#
#
# Indices 1 2 3 4 5 6 
#
# 1 0.011100 -0.005360 -0.000425 0.000000 0.000000 0.000000
# 2 -0.005360 0.022491 -0.016529 0.000000 0.000000 0.000000
# 3 -0.000425 -0.016529 0.034169 0.000000 0.000000 0.000000
# 4 0.000000 0.000000 0.000000 0.042584 0.000000 0.000000
# 5 0.000000 0.000000 0.000000 0.000000 0.059034 0.000000
# 6 0.000000 0.000000 0.000000 0.000000 0.000000 0.342354
#
#
# Mechanical properties :
#
#
# Convention : Reuss Voigt Hill
#
# Bulk Modulus (GPa) = 43.22818 51.17313 47.20066
# Shear Modulus (GPa) = 8.86416 18.00347 13.43381
#
# Velocity S-wave (km/s) = 2.20584 3.14364 2.71553
# Velocity P-wave (km/s) = 5.49696 6.42392 5.97843
#
# Compressibility (1/GPa) = 0.02313306
#
# Stress axis : x y z
#
# Youngs Moduli (GPa) = 90.08713 44.46314 29.26646
#
# Poissons Ratio (x) = 0.23831 0.01243
# Poissons Ratio (y) = 0.48285 0.48374
# Poissons Ratio (z) = 0.03827 0.73492
#
# Static dielectric constant tensor:
#      x y z
#    x 3.250800 0.000000 0.000000 
#    y 0.000000 3.358400 0.000000 
#    z 0.000000 0.000000 3.579180 
# 
# 
# High freq. dielectric constant tensor:
#      x y z
#    x 1.692400 0.000000 0.000000 
#    y 0.000000 1.695780 0.000000 
#    z 0.000000 0.000000 1.710600 
# 
# From -- ./inp_files/12828.got.cif
#   From: 2010.03.12/outbox.cif.g09.slc.cpg/sg24_7_cif.got.tgz:12828.got - 2010.04.14 03:06:53.
