data_PCOD8165426
_publ_section_title
;
Structure prediction by ZEFSAII (Michael W. Deem and Ramdas Pophale) SiO2 
 PCOD8165426
Probable space group: I 21 21 21
;
_chemical_formula_sum "Si O2"
_cell_formula_units_Z 28
_cell_length_a 5.017335
_cell_length_b 7.629250
_cell_length_c 31.989092
_cell_angle_alpha 90.000000
_cell_angle_beta 90.000000
_cell_angle_gamma 90.000000
_cell_volume 1224.494556
_symmetry_space_group_name_H-M "I 21 21 21"
_symmetry_group_IT_number 24
_symmetry_cell_setting 'orthorhombic'
loop_
_space_group_symop_operation_xyz
x,y,z
-x,1/2-y,z
x,-y,1/2-z
1/2-x,y,-z
1/2+x,1/2+y,1/2+z
1/2-x,-y,1/2+z
1/2+x,1/2-y,-z
-x,1/2+y,1/2-z
loop_
_atom_site_type_symbol
_atom_site_label
_atom_site_fract_x
_atom_site_fract_y
_atom_site_fract_z
Si Si1 0.738730 0.636847 0.928734
Si Si2 0.482965 0.958832 0.653884
Si Si3 0.013678 0.545437 0.702790
Si Si4 0.750000 0.368650 0.000000
O O1 0.500000 0.750000 0.950003
O O2 0.599737 0.550648 0.888679
O O3 0.000000 0.750000 0.917081
O O4 0.831347 0.486831 0.960499
O O5 0.500000 0.750000 0.647154
O O6 0.274519 0.023895 0.689219
O O7 0.765339 0.030856 0.670790
O O8 0.087262 0.500000 0.750000
O O9 0.000000 0.750000 0.697258
O O10 0.500000 0.250000 0.987626
#
# Coordination Sequence:
#
# PCOD8165426 Si02
#       4
#     8   8   8   4
#     4  12  25  43  67 100 133 165 211 271 319 370
#     4  10  22  40  61  88 126 172 216 258 317 389
#     4  10  21  37  59  87 122 166 216 267 316 376
#     4  12  26  46  72  98 130 176 212 252 316 392
#
# _framework density 22.866578000000001
#
# number of rings (size 3 to 8) (size 9 to 14) (size 15 to 20)
#    0.000    1.143    0.000    6.000    0.000    6.857 
#    0.000    0.000    0.000    0.000    0.000    0.000 
#    0.000    0.000    0.000    0.000    0.000    0.000 
#
# Total GULP energy -173585.670647 kJ/mol
# GULP energy per Si atom -12398.976475 kJ/mol
# Density = 2.281453 g / cm^3
# Si number density = 22.866578 Si / 1000 Ang^3
#
#
#
# Elastic Constant Matrix: (Units=GPa)
#
#
# Indices 1 2 3 4 5 6 
#
# 1 162.3440 53.1222 37.8581 0.0000 0.0000 0.0000
# 2 53.1222 73.8500 44.0358 0.0000 0.0000 0.0000
# 3 37.8581 44.0358 132.3472 0.0000 0.0000 0.0000
# 4 0.0000 0.0000 0.0000 27.8648 0.0000 0.0000
# 5 0.0000 0.0000 0.0000 0.0000 37.0249 0.0000
# 6 0.0000 0.0000 0.0000 0.0000 0.0000 31.3677
#
#
#
# Elastic Compliance Matrix: (Units=1/GPa)
#
#
# Indices 1 2 3 4 5 6 
#
# 1 0.008079 -0.005531 -0.000471 0.000000 0.000000 0.000000
# 2 -0.005531 0.020679 -0.005298 0.000000 0.000000 0.000000
# 3 -0.000471 -0.005298 0.009453 0.000000 0.000000 0.000000
# 4 0.000000 0.000000 0.000000 0.035888 0.000000 0.000000
# 5 0.000000 0.000000 0.000000 0.000000 0.027009 0.000000
# 6 0.000000 0.000000 0.000000 0.000000 0.000000 0.031880
#
#
# Mechanical properties :
#
#
# Convention : Reuss Voigt Hill
#
# Bulk Modulus (GPa) = 64.05531 70.95260 67.50395
# Shear Modulus (GPa) = 31.09605 34.81982 32.95793
#
# Velocity S-wave (km/s) = 3.69167 3.90646 3.80058
# Velocity P-wave (km/s) = 6.80034 7.17242 6.98886
#
# Compressibility (1/GPa) = 0.01561151
#
# Stress axis : x y z
#
# Youngs Moduli (GPa) = 123.77159 48.35859 105.78139
#
# Poissons Ratio (x) = 0.26747 0.04980
# Poissons Ratio (y) = 0.68458 0.56046
# Poissons Ratio (z) = 0.05827 0.25622
#
# Static dielectric constant tensor:
#      x y z
#    x 4.869780 0.000000 0.000000 
#    y 0.000000 4.266950 0.000000 
#    z 0.000000 0.000000 3.805610 
# 
# 
# High freq. dielectric constant tensor:
#      x y z
#    x 1.923240 0.000000 0.000000 
#    y 0.000000 1.904930 0.000000 
#    z 0.000000 0.000000 1.902320 
# 
# From -- ./inp_files/37689.got.cif
#   From: 2010.03.12/outbox.cif.g09.slc.cpg/sg24_19_cif.got.tgz:37689.got - 2010.04.14 03:06:53.
