data_PCOD8165897
_publ_section_title
;
Structure prediction by ZEFSAII (Michael W. Deem and Ramdas Pophale) SiO2 
 PCOD8165897
Probable space group: I 21 21 21
;
_chemical_formula_sum "Si O2"
_cell_formula_units_Z 56
_cell_length_a 15.389279
_cell_length_b 22.099622
_cell_length_c 6.964877
_cell_angle_alpha 90.000000
_cell_angle_beta 90.000000
_cell_angle_gamma 90.000000
_cell_volume 2368.735506
_symmetry_space_group_name_H-M "I 21 21 21"
_symmetry_group_IT_number 24
_symmetry_cell_setting 'orthorhombic'
loop_
_space_group_symop_operation_xyz
x,y,z
-x,1/2-y,z
x,-y,1/2-z
1/2-x,y,-z
1/2+x,1/2+y,1/2+z
1/2-x,-y,1/2+z
1/2+x,1/2-y,-z
-x,1/2+y,1/2-z
loop_
_atom_site_type_symbol
_atom_site_label
_atom_site_fract_x
_atom_site_fract_y
_atom_site_fract_z
Si Si1 0.602147 0.371294 0.167039
Si Si2 0.429932 0.441766 0.065031
Si Si3 0.843332 0.734520 0.409521
Si Si4 0.402637 0.157713 0.610290
Si Si5 0.409595 0.352320 0.746410
Si Si6 0.656057 0.065701 0.439358
Si Si7 0.271245 0.930318 0.780815
O O1 0.525427 0.419879 0.136122
O O2 0.600332 0.348065 0.384385
O O3 0.694878 0.406039 0.138652
O O4 0.594040 0.311503 0.031514
O O5 0.354447 0.418468 0.213228
O O6 0.420752 0.514663 0.036450
O O7 0.413617 0.415286 0.857162
O O8 0.750000 0.729515 0.500000
O O9 0.844076 0.714211 0.184624
O O10 0.871576 0.804210 0.398971
O O11 0.499386 0.172270 0.673868
O O12 0.364988 0.102064 0.743232
O O13 0.355417 0.371763 0.557769
O O14 0.750000 0.038459 0.500000
O O15 0.285737 0.000000 0.750000
O O16 0.250000 0.914264 0.000000
#
# Coordination Sequence:
#
# PCOD8165897 Si02
#       7
#     8   8   8   8   8   8   8
#     4  11  24  48  71 109 154 192 251 299 384 459
#     4  11  26  45  77 106 145 198 241 316 387 447
#     4  12  27  47  75 103 149 203 257 315 380 451
#     4  11  24  48  67 108 151 194 244 314 371 444
#     4  12  27  47  73 109 142 197 260 311 376 457
#     4  11  28  49  72 109 151 193 250 320 378 452
#     4  10  24  38  70 105 145 190 235 295 369 459
#
# _framework density 23.641306
#
# number of rings (size 3 to 8) (size 9 to 14) (size 15 to 20)
#    0.000    0.857    4.286    0.857   10.000    2.286 
#    2.571    0.000    0.000    0.000    0.000    0.000 
#    0.000    0.000    0.000    0.000    0.000    0.000 
#
# Total GULP energy -346940.292855 kJ/mol
# GULP energy per Si atom -12390.724745 kJ/mol
# Density = 2.358750 g / cm^3
# Si number density = 23.641306 Si / 1000 Ang^3
#
#
#
# Elastic Constant Matrix: (Units=GPa)
#
#
# Indices 1 2 3 4 5 6 
#
# 1 113.8822 31.8247 28.1302 0.0000 0.0000 0.0000
# 2 31.8247 102.7599 28.0617 0.0000 0.0000 0.0000
# 3 28.1302 28.0617 63.1495 0.0000 0.0000 0.0000
# 4 0.0000 0.0000 0.0000 45.5901 0.0000 0.0000
# 5 0.0000 0.0000 0.0000 0.0000 27.9382 0.0000
# 6 0.0000 0.0000 0.0000 0.0000 0.0000 32.9968
#
#
#
# Elastic Compliance Matrix: (Units=1/GPa)
#
#
# Indices 1 2 3 4 5 6 
#
# 1 0.010286 -0.002202 -0.003604 0.000000 0.000000 0.000000
# 2 -0.002202 0.011547 -0.004150 0.000000 0.000000 0.000000
# 3 -0.003604 -0.004150 0.019285 0.000000 0.000000 0.000000
# 4 0.000000 0.000000 0.000000 0.021935 0.000000 0.000000
# 5 0.000000 0.000000 0.000000 0.000000 0.035793 0.000000
# 6 0.000000 0.000000 0.000000 0.000000 0.000000 0.030306
#
#
# Mechanical properties :
#
#
# Convention : Reuss Voigt Hill
#
# Bulk Modulus (GPa) = 47.15482 50.64723 48.90103
# Shear Modulus (GPa) = 32.02415 34.09000 33.05707
#
# Velocity S-wave (km/s) = 3.68446 3.80144 3.74341
# Velocity P-wave (km/s) = 6.17168 6.38261 6.27803
#
# Compressibility (1/GPa) = 0.02120674
#
# Stress axis : x y z
#
# Youngs Moduli (GPa) = 97.21545 86.60556 51.85371
#
# Poissons Ratio (x) = 0.19067 0.18687
# Poissons Ratio (y) = 0.21403 0.21521
# Poissons Ratio (z) = 0.35035 0.35944
#
# Static dielectric constant tensor:
#      x y z
#    x 4.372810 0.000000 0.000000 
#    y 0.000000 4.120990 0.000000 
#    z 0.000000 0.000000 4.562300 
# 
# 
# High freq. dielectric constant tensor:
#      x y z
#    x 1.929570 0.000000 0.000000 
#    y 0.000000 1.925200 0.000000 
#    z 0.000000 0.000000 1.958090 
# 
# From -- ./inp_files/13123.got.cif
#   From: 2010.03.12/outbox.cif.g09.slc.cpg/sg24_7_cif.got.tgz:13123.got - 2010.04.14 03:06:53.
