data_PCOD8165946
_publ_section_title
;
Structure prediction by ZEFSAII (Michael W. Deem and Ramdas Pophale) SiO2 
 PCOD8165946
Probable space group: I 21 21 21
;
_chemical_formula_sum "Si O2"
_cell_formula_units_Z 60
_cell_length_a 10.624702
_cell_length_b 19.594969
_cell_length_c 12.296746
_cell_angle_alpha 90.000000
_cell_angle_beta 90.000000
_cell_angle_gamma 90.000000
_cell_volume 2560.068235
_symmetry_space_group_name_H-M "I 21 21 21"
_symmetry_group_IT_number 24
_symmetry_cell_setting 'orthorhombic'
loop_
_space_group_symop_operation_xyz
x,y,z
-x,1/2-y,z
x,-y,1/2-z
1/2-x,y,-z
1/2+x,1/2+y,1/2+z
1/2-x,-y,1/2+z
1/2+x,1/2-y,-z
-x,1/2+y,1/2-z
loop_
_atom_site_type_symbol
_atom_site_label
_atom_site_fract_x
_atom_site_fract_y
_atom_site_fract_z
Si Si1 0.135003 0.391413 0.784025
Si Si2 0.750000 0.635060 0.000000
Si Si3 0.531796 0.958703 0.495409
Si Si4 0.097835 0.943047 0.836258
Si Si5 0.464793 0.827043 0.860497
Si Si6 0.322348 0.434914 0.608985
Si Si7 0.799511 0.788853 0.387259
Si Si8 0.077151 0.847302 0.367566
O O1 0.229409 0.437945 0.712667
O O2 0.197396 0.315475 0.797047
O O3 0.998666 0.390604 0.724443
O O4 0.119422 0.422740 0.904925
O O5 0.783068 0.593752 0.889727
O O6 0.628850 0.678935 0.964008
O O7 0.423179 0.909775 0.546931
O O8 0.467578 0.023105 0.439896
O O9 0.611910 0.990222 0.596382
O O10 0.143791 0.000000 0.750000
O O11 0.500000 0.750000 0.825745
O O12 0.585286 0.871070 0.886965
O O13 0.395839 0.864850 0.758295
O O14 0.250000 0.418779 0.500000
O O15 0.750000 0.818110 0.500000
O O16 0.814311 0.707116 0.398039
O O17 0.934807 0.820038 0.365947
#
# Coordination Sequence:
#
# PCOD8165946 Si02
#       8
#     8   4   8   8   8   8   8   8
#     4  11  22  41  72 107 148 186 240 314 374 441
#     4  12  26  52  70 100 142 194 242 302 366 450
#     4  11  24  41  69 109 147 185 237 308 376 436
#     4  10  24  46  72 107 146 185 241 303 372 455
#     4  12  26  48  70  98 141 192 247 302 359 453
#     4  12  24  40  71 108 142 187 245 302 383 439
#     4  11  22  44  70  98 144 186 241 300 363 440
#     4  11  24  44  66 103 142 189 235 303 370 443
#
# _framework density 23.436876000000002
#
# number of rings (size 3 to 8) (size 9 to 14) (size 15 to 20)
#    0.000    0.800    6.667    0.000    2.800    2.667 
#    8.400    0.000    0.000    0.000    0.000    0.000 
#    0.000    0.000    0.000    0.000    0.000    0.000 
#
# Total GULP energy -371690.750634 kJ/mol
# GULP energy per Si atom -12389.691688 kJ/mol
# Density = 2.338353 g / cm^3
# Si number density = 23.436876 Si / 1000 Ang^3
#
#
#
# Elastic Constant Matrix: (Units=GPa)
#
#
# Indices 1 2 3 4 5 6 
#
# 1 66.7055 36.7809 30.0830 -0.0003 0.0001 -0.0002
# 2 36.7809 99.2205 45.2236 0.0003 0.0002 -0.0003
# 3 30.0830 45.2236 114.2993 -0.0005 0.0005 -0.0005
# 4 -0.0003 0.0003 -0.0005 24.8040 0.0002 -0.0002
# 5 0.0001 0.0002 0.0005 0.0002 43.1561 0.0001
# 6 -0.0002 -0.0003 -0.0005 -0.0002 0.0001 26.4569
#
#
#
# Elastic Compliance Matrix: (Units=1/GPa)
#
#
# Indices 1 2 3 4 5 6 
#
# 1 0.019540 -0.005977 -0.002778 0.000000 0.000000 0.000000
# 2 -0.005977 0.014124 -0.004015 0.000000 0.000000 0.000000
# 3 -0.002778 -0.004015 0.011069 0.000000 0.000000 0.000000
# 4 0.000000 0.000000 0.000000 0.040316 0.000000 0.000000
# 5 0.000000 0.000000 0.000000 0.000000 0.023172 0.000000
# 6 0.000000 0.000000 0.000000 0.000000 0.000000 0.037797
#
#
# Mechanical properties :
#
#
# Convention : Reuss Voigt Hill
#
# Bulk Modulus (GPa) = 52.10429 56.04446 54.07438
# Shear Modulus (GPa) = 28.09679 30.09260 29.09469
#
# Velocity S-wave (km/s) = 3.46617 3.58716 3.52718
# Velocity P-wave (km/s) = 6.18863 6.41263 6.30162
#
# Compressibility (1/GPa) = 0.01919228
#
# Stress axis : x y z
#
# Youngs Moduli (GPa) = 51.17746 70.79922 90.34445
#
# Poissons Ratio (x) = 0.42319 0.25096
# Poissons Ratio (y) = 0.30590 0.36276
# Poissons Ratio (z) = 0.14216 0.28428
#
# Static dielectric constant tensor:
#      x y z
#    x 3.406550 0.000010 0.000000 
#    y 0.000010 4.254600 0.000000 
#    z 0.000000 0.000000 4.607310 
# 
# 
# High freq. dielectric constant tensor:
#      x y z
#    x 1.917520 0.000000 0.000000 
#    y 0.000000 1.905700 0.000000 
#    z 0.000000 0.000000 1.947670 
# 
# From -- ./inp_files/19990.got.cif
#   From: 2010.03.12/outbox.cif.g09.slc.cpg/sg24_10_cif.got.tgz:19990.got - 2010.04.14 03:06:53.
