data_PCOD8165058
_publ_section_title
;
Structure prediction by ZEFSAII (Michael W. Deem and Ramdas Pophale) SiO2 
 PCOD8165058
Probable space group: I 21 21 21
;
_chemical_formula_sum "Si O2"
_cell_formula_units_Z 28
_cell_length_a 25.510902
_cell_length_b 11.787832
_cell_length_c 4.921713
_cell_angle_alpha 90.000000
_cell_angle_beta 90.000000
_cell_angle_gamma 90.000000
_cell_volume 1480.048807
_symmetry_space_group_name_H-M "I 21 21 21"
_symmetry_group_IT_number 24
_symmetry_cell_setting 'orthorhombic'
loop_
_space_group_symop_operation_xyz
x,y,z
-x,1/2-y,z
x,-y,1/2-z
1/2-x,y,-z
1/2+x,1/2+y,1/2+z
1/2-x,-y,1/2+z
1/2+x,1/2-y,-z
-x,1/2+y,1/2-z
loop_
_atom_site_type_symbol
_atom_site_label
_atom_site_fract_x
_atom_site_fract_y
_atom_site_fract_z
Si Si1 0.250000 0.578011 0.000000
Si Si2 0.417431 0.282984 0.105685
Si Si3 0.638371 0.871586 0.861250
Si Si4 0.515940 0.576864 0.493290
O O1 0.234339 0.500000 0.750000
O O2 0.301692 0.652595 0.947192
O O3 0.401376 0.337434 0.395308
O O4 0.464541 0.348350 0.949227
O O5 0.435422 0.152117 0.121047
O O6 0.369455 0.289355 0.895483
O O7 0.629577 0.000000 0.750000
O O8 0.497566 0.500000 0.250000
O O9 0.532392 0.500000 0.750000
#
# Coordination Sequence:
#
# PCOD8165058 Si02
#       4
#     4   8   8   8
#     4  10  20  32  50  78 108 136 166 206 262 316
#     4  11  22  34  54  79 104 142 179 207 264 317
#     4  11  20  34  53  79 110 138 169 213 262 318
#     4  11  22  36  52  76 108 139 176 220 255 306
#
# _framework density 18.918296999999999
#
# number of rings (size 3 to 8) (size 9 to 14) (size 15 to 20)
#    0.000    1.143    0.000   10.286    0.000    4.571 
#    0.000    0.000    0.000    0.000    0.000   20.000 
#    0.000    0.000    0.000    0.000    0.000    0.000 
#
# Total GULP energy -173496.195529 kJ/mol
# GULP energy per Si atom -12392.585395 kJ/mol
# Density = 1.887524 g / cm^3
# Si number density = 18.918297 Si / 1000 Ang^3
#
#
#
# Elastic Constant Matrix: (Units=GPa)
#
#
# Indices 1 2 3 4 5 6 
#
# 1 81.4449 30.6666 26.3821 -0.0001 0.0001 0.0000
# 2 30.6666 63.5026 26.5572 0.0000 0.0000 0.0000
# 3 26.3821 26.5572 121.4424 -0.0001 0.0003 0.0001
# 4 -0.0001 0.0000 -0.0001 27.6067 0.0000 0.0000
# 5 0.0001 0.0000 0.0003 0.0000 40.9457 0.0001
# 6 0.0000 0.0000 0.0001 0.0000 0.0001 36.6737
#
#
#
# Elastic Compliance Matrix: (Units=1/GPa)
#
#
# Indices 1 2 3 4 5 6 
#
# 1 0.015392 -0.006642 -0.001891 0.000000 0.000000 0.000000
# 2 -0.006642 0.020199 -0.002974 0.000000 0.000000 0.000000
# 3 -0.001891 -0.002974 0.009296 0.000000 0.000000 0.000000
# 4 0.000000 0.000000 0.000000 0.036223 0.000000 0.000000
# 5 0.000000 0.000000 0.000000 0.000000 0.024423 0.000000
# 6 0.000000 0.000000 0.000000 0.000000 0.000000 0.027267
#
#
# Mechanical properties :
#
#
# Convention : Reuss Voigt Hill
#
# Bulk Modulus (GPa) = 45.72210 48.17797 46.95003
# Shear Modulus (GPa) = 30.65518 33.23085 31.94301
#
# Velocity S-wave (km/s) = 4.02978 4.19566 4.11356
# Velocity P-wave (km/s) = 6.77295 6.99951 6.88716
#
# Compressibility (1/GPa) = 0.02187126
#
# Stress axis : x y z
#
# Youngs Moduli (GPa) = 64.96969 49.50797 107.57782
#
# Poissons Ratio (x) = 0.32883 0.20345
# Poissons Ratio (y) = 0.43153 0.31996
# Poissons Ratio (z) = 0.12287 0.14725
#
# Static dielectric constant tensor:
#      x y z
#    x 3.514590 0.000000 0.000000 
#    y 0.000000 3.288210 0.000000 
#    z 0.000000 0.000000 3.270640 
# 
# 
# High freq. dielectric constant tensor:
#      x y z
#    x 1.727510 0.000000 0.000000 
#    y 0.000000 1.699710 0.000000 
#    z 0.000000 0.000000 1.758560 
# 
# From -- ./inp_files/2108.got.cif
#   From: 2010.03.12/outbox.cif.g09.slc.cpg/sg24_2_cif.got.tgz:2108.got - 2010.04.14 03:06:53.
