data_PCOD8165462
_publ_section_title
;
Structure prediction by ZEFSAII (Michael W. Deem and Ramdas Pophale) SiO2 
 PCOD8165462
Probable space group: I 21 21 21
;
_chemical_formula_sum "Si O2"
_cell_formula_units_Z 28
_cell_length_a 23.159093
_cell_length_b 10.900509
_cell_length_c 5.073079
_cell_angle_alpha 90.000000
_cell_angle_beta 90.000000
_cell_angle_gamma 90.000000
_cell_volume 1280.678002
_symmetry_space_group_name_H-M "I 21 21 21"
_symmetry_group_IT_number 24
_symmetry_cell_setting 'orthorhombic'
loop_
_space_group_symop_operation_xyz
x,y,z
-x,1/2-y,z
x,-y,1/2-z
1/2-x,y,-z
1/2+x,1/2+y,1/2+z
1/2-x,-y,1/2+z
1/2+x,1/2-y,-z
-x,1/2+y,1/2-z
loop_
_atom_site_type_symbol
_atom_site_label
_atom_site_fract_x
_atom_site_fract_y
_atom_site_fract_z
Si Si1 0.213134 0.000000 0.750000
Si Si2 0.955516 0.641659 0.256508
Si Si3 0.784005 0.144163 0.750410
Si Si4 0.117991 0.189557 0.744385
O O1 0.250000 0.957836 0.500000
O O2 0.172706 0.889742 0.843986
O O3 0.980445 0.500000 0.250000
O O4 0.905407 0.644205 0.474156
O O5 0.000000 0.750000 0.337300
O O6 0.932373 0.679531 0.970000
O O7 0.750000 0.198878 0.500000
O O8 0.852866 0.175970 0.758606
O O9 0.780778 0.000000 0.750000
O O10 0.750000 0.199212 0.000000
#
# Coordination Sequence:
#
# PCOD8165462 Si02
#       4
#     4   8   8   8
#     4  12  22  36  64  96 132 166 200 250 330 398
#     4  12  26  46  67  92 127 171 223 285 331 387
#     4  10  21  38  61  93 132 171 209 254 316 397
#     4  12  23  42  65  93 132 163 217 268 329 389
#
# _framework density 21.863416999999998
#
# number of rings (size 3 to 8) (size 9 to 14) (size 15 to 20)
#    0.000    0.571    2.857    6.000    0.000    2.286 
#    0.000    0.000    0.000    0.000    0.000    0.000 
#    0.000    0.000    0.000    0.000    0.000    0.000 
#
# Total GULP energy -173551.287383 kJ/mol
# GULP energy per Si atom -12396.520527 kJ/mol
# Density = 2.181366 g / cm^3
# Si number density = 21.863417 Si / 1000 Ang^3
#
#
#
# Elastic Constant Matrix: (Units=GPa)
#
#
# Indices 1 2 3 4 5 6 
#
# 1 79.2012 49.8916 21.9610 0.0000 0.0000 0.0000
# 2 49.8916 93.0093 31.3508 0.0000 0.0000 0.0000
# 3 21.9610 31.3508 130.5872 0.0000 0.0000 0.0000
# 4 0.0000 0.0000 0.0000 17.6354 0.0000 0.0000
# 5 0.0000 0.0000 0.0000 0.0000 32.2065 0.0000
# 6 0.0000 0.0000 0.0000 0.0000 0.0000 44.6228
#
#
#
# Elastic Compliance Matrix: (Units=1/GPa)
#
#
# Indices 1 2 3 4 5 6 
#
# 1 0.019150 -0.009996 -0.000821 0.000000 0.000000 0.000000
# 2 -0.009996 0.016916 -0.002380 0.000000 0.000000 0.000000
# 3 -0.000821 -0.002380 0.008367 0.000000 0.000000 0.000000
# 4 0.000000 0.000000 0.000000 0.056704 0.000000 0.000000
# 5 0.000000 0.000000 0.000000 0.000000 0.031050 0.000000
# 6 0.000000 0.000000 0.000000 0.000000 0.000000 0.022410
#
#
# Mechanical properties :
#
#
# Convention : Reuss Voigt Hill
#
# Bulk Modulus (GPa) = 55.43268 56.57830 56.00549
# Shear Modulus (GPa) = 26.73737 32.19923 29.46830
#
# Velocity S-wave (km/s) = 3.50083 3.84180 3.67527
# Velocity P-wave (km/s) = 6.46144 6.75377 6.60922
#
# Compressibility (1/GPa) = 0.01803990
#
# Stress axis : x y z
#
# Youngs Moduli (GPa) = 52.21812 59.11621 119.51513
#
# Poissons Ratio (x) = 0.59092 0.09809
# Poissons Ratio (y) = 0.52197 0.28445
# Poissons Ratio (z) = 0.04286 0.14070
#
# Static dielectric constant tensor:
#      x y z
#    x 3.741460 0.000000 0.000000 
#    y 0.000000 4.263230 0.000000 
#    z 0.000000 0.000000 4.142370 
# 
# 
# High freq. dielectric constant tensor:
#      x y z
#    x 1.844730 0.000000 0.000000 
#    y 0.000000 1.873160 0.000000 
#    z 0.000000 0.000000 1.874750 
# 
# From -- ./inp_files/1881.got.cif
#   From: 2010.03.12/outbox.cif.g09.slc.cpg/sg24_1_cif.got.tgz:1881.got - 2010.04.14 03:06:53.
