data_PCOD8165719
_publ_section_title
;
Structure prediction by ZEFSAII (Michael W. Deem and Ramdas Pophale) SiO2 
 PCOD8165719
Probable space group: I 21 21 21
;
_chemical_formula_sum "Si O2"
_cell_formula_units_Z 32
_cell_length_a 8.093012
_cell_length_b 5.363666
_cell_length_c 34.594631
_cell_angle_alpha 90.000000
_cell_angle_beta 90.000000
_cell_angle_gamma 90.000000
_cell_volume 1501.691122
_symmetry_space_group_name_H-M "I 21 21 21"
_symmetry_group_IT_number 24
_symmetry_cell_setting 'orthorhombic'
loop_
_space_group_symop_operation_xyz
x,y,z
-x,1/2-y,z
x,-y,1/2-z
1/2-x,y,-z
1/2+x,1/2+y,1/2+z
1/2-x,-y,1/2+z
1/2+x,1/2-y,-z
-x,1/2+y,1/2-z
loop_
_atom_site_type_symbol
_atom_site_label
_atom_site_fract_x
_atom_site_fract_y
_atom_site_fract_z
Si Si1 0.394745 0.506165 0.148683
Si Si2 0.000000 0.750000 0.471518
Si Si3 0.250000 0.106464 0.500000
Si Si4 0.096996 0.498190 0.204556
Si Si5 0.174325 0.384087 0.425160
O O1 0.500000 0.750000 0.158599
O O2 0.273945 0.473709 0.184725
O O3 0.290350 0.577671 0.111078
O O4 0.500000 0.250000 0.142988
O O5 0.141909 0.655046 0.442867
O O6 0.922015 0.542941 0.499040
O O7 0.270131 0.249729 0.459858
O O8 0.128895 0.500000 0.250000
O O9 0.000000 0.750000 0.191658
O O10 0.000000 0.250000 0.191703
O O11 0.000000 0.250000 0.413960
#
# Coordination Sequence:
#
# PCOD8165719 Si02
#       5
#     8   4   4   8   8
#     4  12  28  43  66 104 141 179 218 281 340 388
#     4  10  22  40  66  86 118 170 218 292 330 406
#     4  10  22  42  62  92 116 166 226 282 344 382
#     4  10  22  44  76 104 134 181 226 266 324 405
#     4  10  24  43  64  90 126 177 228 277 336 406
#
# _framework density 21.309307
#
# number of rings (size 3 to 8) (size 9 to 14) (size 15 to 20)
#    0.000    1.500    0.000    3.000    8.750    6.000 
#    2.250    0.000    0.000    0.000    0.000    0.000 
#    0.000    0.000    0.000    0.000    0.000    0.000 
#
# Total GULP energy -198292.008085 kJ/mol
# GULP energy per Si atom -12393.250505 kJ/mol
# Density = 2.126081 g / cm^3
# Si number density = 21.309307 Si / 1000 Ang^3
#
#
#
# Elastic Constant Matrix: (Units=GPa)
#
#
# Indices 1 2 3 4 5 6 
#
# 1 125.3670 65.6674 68.7134 0.0000 0.0000 0.0000
# 2 65.6674 162.4317 47.8643 0.0000 0.0000 0.0000
# 3 68.7134 47.8643 89.4514 0.0000 0.0000 0.0000
# 4 0.0000 0.0000 0.0000 20.8609 0.0000 0.0000
# 5 0.0000 0.0000 0.0000 0.0000 44.7300 0.0000
# 6 0.0000 0.0000 0.0000 0.0000 0.0000 -23.2566
#
#
#
# Elastic Compliance Matrix: (Units=1/GPa)
#
#
# Indices 1 2 3 4 5 6 
#
# 1 0.015042 -0.003177 -0.009855 0.000000 0.000000 0.000000
# 2 -0.003177 0.007980 -0.001829 0.000000 0.000000 0.000000
# 3 -0.009855 -0.001829 0.019728 0.000000 0.000000 0.000000
# 4 0.000000 0.000000 0.000000 0.047937 0.000000 0.000000
# 5 0.000000 0.000000 0.000000 0.000000 0.022356 0.000000
# 6 0.000000 0.000000 0.000000 0.000000 0.000000 -0.042999
#
#
# Mechanical properties :
#
#
# Convention : Reuss Voigt Hill
#
# Bulk Modulus (GPa) = 76.75985 82.41560 79.58772
# Shear Modulus (GPa) = 48.02609 21.46720 34.74665
#
# Velocity S-wave (km/s) = 4.75253 3.17741 4.04243
# Velocity P-wave (km/s) = 8.13728 7.22642 7.69534
#
# Compressibility (1/GPa) = 0.01302764
#
# Stress axis : x y z
#
# Youngs Moduli (GPa) = 66.47957 125.31347 50.68894
#
# Poissons Ratio (x) = 0.39816 0.49953
# Poissons Ratio (y) = 0.21122 0.09273
# Poissons Ratio (z) = 0.65514 0.22924
#
# Static dielectric constant tensor:
#      x y z
#    x 3.912390 0.000000 0.000000 
#    y 0.000000 4.317460 0.000000 
#    z 0.000000 0.000000 3.767030 
# 
# 
# High freq. dielectric constant tensor:
#      x y z
#    x 1.842060 0.000000 0.000000 
#    y 0.000000 1.857930 0.000000 
#    z 0.000000 0.000000 1.835720 
# 
# From -- ./inp_files/1171.got.cif
#   From: 2010.03.12/outbox.cif.g09.slc.cpg/sg24_1_cif.got.tgz:1171.got - 2010.04.14 03:06:53.
