data_PCOD8165799
_publ_section_title
;
Structure prediction by ZEFSAII (Michael W. Deem and Ramdas Pophale) SiO2 
 PCOD8165799
Probable space group: I 21 21 21
;
_chemical_formula_sum "Si O2"
_cell_formula_units_Z 32
_cell_length_a 5.058782
_cell_length_b 33.015519
_cell_length_c 8.085687
_cell_angle_alpha 90.000000
_cell_angle_beta 90.000000
_cell_angle_gamma 90.000000
_cell_volume 1350.457804
_symmetry_space_group_name_H-M "I 21 21 21"
_symmetry_group_IT_number 24
_symmetry_cell_setting 'orthorhombic'
loop_
_space_group_symop_operation_xyz
x,y,z
-x,1/2-y,z
x,-y,1/2-z
1/2-x,y,-z
1/2+x,1/2+y,1/2+z
1/2-x,-y,1/2+z
1/2+x,1/2-y,-z
-x,1/2+y,1/2-z
loop_
_atom_site_type_symbol
_atom_site_label
_atom_site_fract_x
_atom_site_fract_y
_atom_site_fract_z
Si Si1 0.750000 0.382668 0.000000
Si Si2 0.750000 0.060439 0.000000
Si Si3 0.750000 0.108680 0.500000
Si Si4 0.038928 0.500000 0.750000
Si Si5 0.500000 0.250000 0.388413
Si Si6 0.750000 0.555048 0.000000
Si Si7 0.103591 0.836850 0.821099
O O1 0.501821 0.411512 0.987682
O O2 0.757459 0.354939 0.164631
O O3 0.732374 0.030500 0.155745
O O4 0.498908 0.082187 0.559205
O O5 0.665262 0.136925 0.344112
O O6 0.838729 0.526872 0.853158
O O7 0.250000 0.260510 0.500000
O O8 0.547710 0.289855 0.276773
O O9 0.250000 0.839580 0.000000
#
# Coordination Sequence:
#
# PCOD8165799 Si02
#       7
#     4   4   4   4   4   4   8
#     4  12  31  48  77 120 152 198 262 318 383 464
#     4  12  31  52  77 110 150 196 258 320 385 464
#     4  12  25  44  77 108 140 200 248 306 383 440
#     4  12  30  52  74 104 152 192 254 314 386 456
#     4  10  22  44  78 112 152 206 256 300 378 464
#     4  12  29  46  77 104 144 198 246 308 387 448
#     4  11  26  48  79 113 156 204 252 315 381 455
#
# _framework density 23.695671000000001
#
# number of rings (size 3 to 8) (size 9 to 14) (size 15 to 20)
#    0.000    0.500    2.500    3.000    7.000   11.000 
#    0.000    6.250    0.000    0.000    0.000    0.000 
#    0.000    0.000    0.000    0.000    0.000    0.000 
#
# Total GULP energy -198357.324990 kJ/mol
# GULP energy per Si atom -12397.332812 kJ/mol
# Density = 2.364174 g / cm^3
# Si number density = 23.695671 Si / 1000 Ang^3
#
#
#
# Elastic Constant Matrix: (Units=GPa)
#
#
# Indices 1 2 3 4 5 6 
#
# 1 155.0577 80.6661 48.6682 -0.0004 0.0000 -0.0001
# 2 80.6661 230.8184 87.2643 -0.0001 0.0000 0.0000
# 3 48.6682 87.2643 146.6302 0.0017 0.0000 0.0003
# 4 -0.0004 -0.0001 0.0017 40.4431 0.0000 -0.0005
# 5 0.0000 0.0000 0.0000 0.0000 37.2422 0.0001
# 6 -0.0001 0.0000 0.0003 -0.0005 0.0001 31.8601
#
#
#
# Elastic Compliance Matrix: (Units=1/GPa)
#
#
# Indices 1 2 3 4 5 6 
#
# 1 0.008067 -0.002332 -0.001290 0.000000 0.000000 0.000000
# 2 -0.002332 0.006264 -0.002954 0.000000 0.000000 0.000000
# 3 -0.001290 -0.002954 0.009006 0.000000 0.000000 0.000000
# 4 0.000000 0.000000 0.000000 0.024726 0.000000 0.000000
# 5 0.000000 0.000000 0.000000 0.000000 0.026851 0.000000
# 6 0.000000 0.000000 0.000000 0.000000 0.000000 0.031387
#
#
# Mechanical properties :
#
#
# Convention : Reuss Voigt Hill
#
# Bulk Modulus (GPa) = 98.17382 107.30041 102.73711
# Shear Modulus (GPa) = 40.70058 42.96959 41.83509
#
# Velocity S-wave (km/s) = 4.14894 4.26302 4.20636
# Velocity P-wave (km/s) = 8.02948 8.34339 8.18794
#
# Compressibility (1/GPa) = 0.01018601
#
# Stress axis : x y z
#
# Youngs Moduli (GPa) = 123.96092 159.64034 111.03597
#
# Poissons Ratio (x) = 0.37221 0.14323
# Poissons Ratio (y) = 0.28902 0.32801
# Poissons Ratio (z) = 0.15990 0.47159
#
# Static dielectric constant tensor:
#      x y z
#    x 4.324320 0.000000 0.000000 
#    y 0.000000 4.956170 0.000000 
#    z 0.000000 0.000000 4.149630 
# 
# 
# High freq. dielectric constant tensor:
#      x y z
#    x 1.954350 0.000000 0.000000 
#    y 0.000000 1.969720 0.000000 
#    z 0.000000 0.000000 1.916420 
# 
# From -- ./inp_files/8322.got.cif
#   From: 2010.03.12/outbox.cif.g09.slc.cpg/sg24_5_cif.got.tgz:8322.got - 2010.04.14 03:06:53.
