data_PCOD8165764
_publ_section_title
;
Structure prediction by ZEFSAII (Michael W. Deem and Ramdas Pophale) SiO2 
 PCOD8165764
Probable space group: I 21 21 21
;
_chemical_formula_sum "Si O2"
_cell_formula_units_Z 28
_cell_length_a 7.198238
_cell_length_b 18.113973
_cell_length_c 9.929895
_cell_angle_alpha 90.000000
_cell_angle_beta 90.000000
_cell_angle_gamma 90.000000
_cell_volume 1294.745989
_symmetry_space_group_name_H-M "I 21 21 21"
_symmetry_group_IT_number 24
_symmetry_cell_setting 'orthorhombic'
loop_
_space_group_symop_operation_xyz
x,y,z
-x,1/2-y,z
x,-y,1/2-z
1/2-x,y,-z
1/2+x,1/2+y,1/2+z
1/2-x,-y,1/2+z
1/2+x,1/2-y,-z
-x,1/2+y,1/2-z
loop_
_atom_site_type_symbol
_atom_site_label
_atom_site_fract_x
_atom_site_fract_y
_atom_site_fract_z
Si Si1 0.593881 0.321321 0.601097
Si Si2 0.908029 0.972366 0.107483
Si Si3 0.250000 0.063199 0.000000
Si Si4 0.677600 0.704128 0.360932
O O1 0.500000 0.250000 0.532067
O O2 0.750000 0.351834 0.500000
O O3 0.442266 0.385083 0.619100
O O4 0.670441 0.293221 0.744212
O O5 0.830837 0.000000 0.250000
O O6 0.750000 0.990343 0.000000
O O7 0.100525 0.013162 0.074916
O O8 0.358294 0.116694 0.107295
O O9 0.500000 0.750000 0.310832
O O10 0.750000 0.742497 0.500000
#
# Coordination Sequence:
#
# PCOD8165764 Si02
#       4
#     8   8   4   8
#     4  12  25  43  66 100 143 180 234 289 360 424
#     4  12  26  47  73 103 141 192 239 294 356 425
#     4  10  24  46  72 100 142 178 238 300 348 416
#     4  10  22  42  72  99 135 180 233 292 358 412
#
# _framework density 21.625861
#
# number of rings (size 3 to 8) (size 9 to 14) (size 15 to 20)
#    0.857    0.000    4.286    2.571    0.000    6.857 
#    0.000    0.000    0.000    0.000    0.000    0.000 
#    0.000    0.000    0.000    0.000    0.000    0.000 
#
# Total GULP energy -173579.184965 kJ/mol
# GULP energy per Si atom -12398.513212 kJ/mol
# Density = 2.157664 g / cm^3
# Si number density = 21.625861 Si / 1000 Ang^3
#
#
#
# Elastic Constant Matrix: (Units=GPa)
#
#
# Indices 1 2 3 4 5 6 
#
# 1 86.1105 45.1631 50.1828 0.0000 0.0001 0.0000
# 2 45.1631 137.4406 20.1771 0.0001 0.0000 -0.0002
# 3 50.1828 20.1771 132.8622 0.0013 0.0001 -0.0005
# 4 0.0000 0.0001 0.0013 22.3494 -0.0001 -0.0002
# 5 0.0001 0.0000 0.0001 -0.0001 38.4750 0.0000
# 6 0.0000 -0.0002 -0.0005 -0.0002 0.0000 43.7850
#
#
#
# Elastic Compliance Matrix: (Units=1/GPa)
#
#
# Indices 1 2 3 4 5 6 
#
# 1 0.017647 -0.004930 -0.005917 0.000000 0.000000 0.000000
# 2 -0.004930 0.008819 0.000523 0.000000 0.000000 0.000000
# 3 -0.005917 0.000523 0.009682 -0.000001 0.000000 0.000000
# 4 0.000000 0.000000 -0.000001 0.044744 0.000000 0.000000
# 5 0.000000 0.000000 0.000000 0.000000 0.025991 0.000000
# 6 0.000000 0.000000 0.000000 0.000000 0.000000 0.022839
#
#
# Mechanical properties :
#
#
# Convention : Reuss Voigt Hill
#
# Bulk Modulus (GPa) = 64.51589 65.27326 64.89457
# Shear Modulus (GPa) = 32.14692 36.98124 34.56408
#
# Velocity S-wave (km/s) = 3.85970 4.13976 4.00218
# Velocity P-wave (km/s) = 7.05412 7.28688 7.17144
#
# Compressibility (1/GPa) = 0.01550006
#
# Stress axis : x y z
#
# Youngs Moduli (GPa) = 56.66772 113.38938 103.28543
#
# Poissons Ratio (x) = 0.55903 0.61109
# Poissons Ratio (y) = 0.27938 -0.05400
# Poissons Ratio (z) = 0.33528 -0.05928
#
# Static dielectric constant tensor:
#      x y z
#    x 3.597910 0.000000 0.000000 
#    y 0.000000 3.926510 0.000000 
#    z 0.000000 0.000000 3.881480 
# 
# 
# High freq. dielectric constant tensor:
#      x y z
#    x 1.832370 0.000000 0.000000 
#    y 0.000000 1.857290 0.000000 
#    z 0.000000 0.000000 1.856060 
# 
# From -- ./inp_files/8704.got.cif
#   From: 2010.03.12/outbox.cif.g09.slc.cpg/sg24_5_cif.got.tgz:8704.got - 2010.04.14 03:06:53.
