data_PCOD8165092
_publ_section_title
;
Structure prediction by ZEFSAII (Michael W. Deem and Ramdas Pophale) SiO2 
 PCOD8165092
Probable space group: I 21 21 21
;
_chemical_formula_sum "Si O2"
_cell_formula_units_Z 64
_cell_length_a 30.097803
_cell_length_b 8.373899
_cell_length_c 14.447811
_cell_angle_alpha 90.000000
_cell_angle_beta 90.000000
_cell_angle_gamma 90.000000
_cell_volume 3641.367951
_symmetry_space_group_name_H-M "I 21 21 21"
_symmetry_group_IT_number 24
_symmetry_cell_setting 'orthorhombic'
loop_
_space_group_symop_operation_xyz
x,y,z
-x,1/2-y,z
x,-y,1/2-z
1/2-x,y,-z
1/2+x,1/2+y,1/2+z
1/2-x,-y,1/2+z
1/2+x,1/2-y,-z
-x,1/2+y,1/2-z
loop_
_atom_site_type_symbol
_atom_site_label
_atom_site_fract_x
_atom_site_fract_y
_atom_site_fract_z
Si Si1 0.547726 0.687881 0.856970
Si Si2 0.135842 0.316074 0.417412
Si Si3 0.704669 0.312953 0.051579
Si Si4 0.452274 0.812119 0.643030
Si Si5 0.135842 0.316074 0.082588
Si Si6 0.795331 0.687047 0.948421
Si Si7 0.314703 0.179697 0.750000
Si Si8 0.222536 0.683523 0.750000
O O1 0.500000 0.750000 0.889952
O O2 0.583749 0.772941 0.923556
O O3 0.556272 0.736942 0.750000
O O4 0.550378 0.500000 0.870590
O O5 0.141775 0.500000 0.390111
O O6 0.161980 0.279907 0.511861
O O7 0.155580 0.200523 0.339790
O O8 0.698360 0.500000 0.036135
O O9 0.704781 0.272843 0.159604
O O10 0.750000 0.255183 0.000000
O O11 0.661980 0.220093 0.011861
O O12 0.500000 0.750000 0.610048
O O13 0.416251 0.727059 0.576444
O O14 0.155580 0.200523 0.160210
O O15 0.795219 0.727157 0.840396
O O16 0.750000 0.744817 0.000000
O O17 0.275714 0.308626 0.750000
O O18 0.294853 0.000000 0.750000
O O19 0.207347 0.500000 0.750000
#
# Coordination Sequence:
#
# PCOD8165092 Si02
#       8
#     8   8   8   8   8   8   8   8
#     4  10  20  34  53  77 110 145 181 222 271 325
#     4  12  23  35  54  80 109 144 186 227 271 321
#     4  11  23  38  57  78 108 146 185 224 271 324
#     4  10  20  34  53  77 110 145 181 222 271 325
#     4  12  23  35  54  80 109 144 186 227 271 321
#     4  11  23  38  57  78 108 146 185 224 271 324
#     4  12  22  34  51  75 108 147 185 222 269 321
#     4  12  24  38  56  79 108 141 184 232 274 317
#
# _framework density 17.575813
#
# number of rings (size 3 to 8) (size 9 to 14) (size 15 to 20)
#    0.000    0.750    3.750    6.000    0.000    2.000 
#    0.000    0.000    0.000    0.000    0.000    0.875 
#    0.000    0.000    0.000    0.000    0.000    0.000 
#
# Total GULP energy -396942.537074 kJ/mol
# GULP energy per Si atom -12404.454284 kJ/mol
# Density = 1.753581 g / cm^3
# Si number density = 17.575813 Si / 1000 Ang^3
#
#
#
# Elastic Constant Matrix: (Units=GPa)
#
#
# Indices 1 2 3 4 5 6 
#
# 1 128.9235 31.9697 47.6277 0.0000 0.0000 0.0000
# 2 31.9697 90.3486 19.7588 0.0000 0.0000 0.0000
# 3 47.6277 19.7588 99.4437 0.0000 0.0000 0.0000
# 4 0.0000 0.0000 0.0000 24.1840 0.0000 0.0000
# 5 0.0000 0.0000 0.0000 0.0000 52.5054 0.0000
# 6 0.0000 0.0000 0.0000 0.0000 0.0000 29.7092
#
#
#
# Elastic Compliance Matrix: (Units=1/GPa)
#
#
# Indices 1 2 3 4 5 6 
#
# 1 0.009975 -0.002598 -0.004261 0.000000 0.000000 0.000000
# 2 -0.002598 0.012248 -0.001189 0.000000 0.000000 0.000000
# 3 -0.004261 -0.001189 0.012333 0.000000 0.000000 0.000000
# 4 0.000000 0.000000 0.000000 0.041350 0.000000 0.000000
# 5 0.000000 0.000000 0.000000 0.000000 0.019046 0.000000
# 6 0.000000 0.000000 0.000000 0.000000 0.000000 0.033660
#
#
# Mechanical properties :
#
#
# Convention : Reuss Voigt Hill
#
# Bulk Modulus (GPa) = 54.17414 57.49201 55.83308
# Shear Modulus (GPa) = 33.14328 35.90369 34.52348
#
# Velocity S-wave (km/s) = 4.34721 4.52463 4.43681
# Velocity P-wave (km/s) = 7.48917 7.75101 7.62122
#
# Compressibility (1/GPa) = 0.01845899
#
# Stress axis : x y z
#
# Youngs Moduli (GPa) = 100.25149 81.64902 81.08227
#
# Poissons Ratio (x) = 0.21210 0.34551
# Poissons Ratio (y) = 0.26042 0.09644
# Poissons Ratio (z) = 0.42720 0.09711
#
# Static dielectric constant tensor:
#      x y z
#    x 3.337210 0.000000 0.000000 
#    y 0.000000 3.271270 0.000000 
#    z 0.000000 0.000000 3.087750 
# 
# 
# High freq. dielectric constant tensor:
#      x y z
#    x 1.671190 0.000000 0.000000 
#    y 0.000000 1.698430 0.000000 
#    z 0.000000 0.000000 1.648260 
# 
# From -- ./inp_files/28296.got.cif
#   From: 2010.03.12/outbox.cif.g09.slc.cpg/sg24_15_cif.got.tgz:28296.got - 2010.04.14 03:06:53.
