data_PCOD8165548
_publ_section_title
;
Structure prediction by ZEFSAII (Michael W. Deem and Ramdas Pophale) SiO2 
 PCOD8165548
Probable space group: I 21 21 21
;
_chemical_formula_sum "Si O2"
_cell_formula_units_Z 48
_cell_length_a 8.212956
_cell_length_b 31.910931
_cell_length_c 8.050897
_cell_angle_alpha 90.000000
_cell_angle_beta 90.000000
_cell_angle_gamma 90.000000
_cell_volume 2110.003820
_symmetry_space_group_name_H-M "I 21 21 21"
_symmetry_group_IT_number 24
_symmetry_cell_setting 'orthorhombic'
loop_
_space_group_symop_operation_xyz
x,y,z
-x,1/2-y,z
x,-y,1/2-z
1/2-x,y,-z
1/2+x,1/2+y,1/2+z
1/2-x,-y,1/2+z
1/2+x,1/2-y,-z
-x,1/2+y,1/2-z
loop_
_atom_site_type_symbol
_atom_site_label
_atom_site_fract_x
_atom_site_fract_y
_atom_site_fract_z
Si Si1 0.052596 0.704185 0.315092
Si Si2 0.422943 0.674161 0.348215
Si Si3 0.055131 0.349671 0.493759
Si Si4 0.579604 0.562025 0.074776
Si Si5 0.420019 0.092353 0.061513
Si Si6 0.582083 0.983954 0.566646
O O1 0.244071 0.693952 0.331128
O O2 0.980041 0.698681 0.503358
O O3 0.000000 0.750000 0.253569
O O4 0.984950 0.673584 0.170052
O O5 0.505548 0.674401 0.163977
O O6 0.433890 0.626251 0.416668
O O7 0.250000 0.350791 0.500000
O O8 0.988212 0.396466 0.483824
O O9 0.605210 0.568800 0.267079
O O10 0.750000 0.548505 0.000000
O O11 0.461431 0.522779 0.052152
O O12 0.250000 0.113501 0.000000
O O13 0.461899 0.055866 0.930727
O O14 0.750000 0.965285 0.500000
O O15 0.595930 0.000000 0.750000
#
# Coordination Sequence:
#
# PCOD8165548 Si02
#       6
#     8   8   8   8   8   8
#     4  10  21  40  68  96 128 172 219 282 345 412
#     4   9  22  42  65  96 132 173 220 281 338 418
#     4   9  20  40  67  93 130 177 221 275 339 410
#     4  11  23  41  62  96 137 175 227 281 333 400
#     4  11  24  43  67  96 134 182 226 280 344 407
#     4  12  26  41  66  98 134 183 230 285 333 405
#
# _framework density 22.748773
#
# number of rings (size 3 to 8) (size 9 to 14) (size 15 to 20)
#    0.000    1.667    0.000    3.500    7.000    2.000 
#    3.000    2.500    0.000    0.000    0.000    0.000 
#    0.000    0.000    0.000    0.000    0.000    0.000 
#
# Total GULP energy -297338.022104 kJ/mol
# GULP energy per Si atom -12389.084254 kJ/mol
# Density = 2.269700 g / cm^3
# Si number density = 22.748773 Si / 1000 Ang^3
#
#
#
# Elastic Constant Matrix: (Units=GPa)
#
#
# Indices 1 2 3 4 5 6 
#
# 1 73.4888 39.1122 19.0984 0.0002 -0.0004 -0.0002
# 2 39.1122 116.5239 31.4810 -0.0003 -0.0018 -0.0005
# 3 19.0984 31.4810 118.6355 -0.0030 0.0007 0.0030
# 4 0.0002 -0.0003 -0.0030 55.5663 0.0024 0.0036
# 5 -0.0004 -0.0018 0.0007 0.0024 21.5318 -0.0030
# 6 -0.0002 -0.0005 0.0030 0.0036 -0.0030 33.2879
#
#
#
# Elastic Compliance Matrix: (Units=1/GPa)
#
#
# Indices 1 2 3 4 5 6 
#
# 1 0.016751 -0.005272 -0.001298 0.000000 0.000000 0.000000
# 2 -0.005272 0.010904 -0.002045 0.000000 0.000001 0.000000
# 3 -0.001298 -0.002045 0.009181 0.000000 0.000000 -0.000001
# 4 0.000000 0.000000 0.000000 0.017997 -0.000002 -0.000002
# 5 0.000000 0.000001 0.000000 -0.000002 0.046443 0.000004
# 6 0.000000 0.000000 -0.000001 -0.000002 0.000004 0.030041
#
#
# Mechanical properties :
#
#
# Convention : Reuss Voigt Hill
#
# Bulk Modulus (GPa) = 51.00327 54.22572 52.61450
# Shear Modulus (GPa) = 32.24150 36.67430 34.45790
#
# Velocity S-wave (km/s) = 3.76877 4.01951 3.89616
# Velocity P-wave (km/s) = 6.43483 6.74021 6.58929
#
# Compressibility (1/GPa) = 0.01960659
#
# Stress axis : x y z
#
# Youngs Moduli (GPa) = 59.69953 91.71017 108.92447
#
# Poissons Ratio (x) = 0.48349 0.14134
# Poissons Ratio (y) = 0.31473 0.22273
# Poissons Ratio (z) = 0.07747 0.18753
#
# Static dielectric constant tensor:
#      x y z
#    x 3.833040 0.000000 -0.000010 
#    y 0.000000 4.041970 0.000000 
#    z -0.000010 0.000000 4.765650 
# 
# 
# High freq. dielectric constant tensor:
#      x y z
#    x 1.869350 0.000000 0.000000 
#    y 0.000000 1.890240 0.000000 
#    z 0.000000 0.000000 1.925810 
# 
# From -- ./inp_files/9714.got.cif
#   From: 2010.03.12/outbox.cif.g09.slc.cpg/sg24_5_cif.got.tgz:9714.got - 2010.04.14 03:06:53.
