data_PCOD8165821
_publ_section_title
;
Structure prediction by ZEFSAII (Michael W. Deem and Ramdas Pophale) SiO2 
 PCOD8165821
Probable space group: I 21 21 21
;
_chemical_formula_sum "Si O2"
_cell_formula_units_Z 40
_cell_length_a 22.378963
_cell_length_b 4.975836
_cell_length_c 15.619233
_cell_angle_alpha 90.000000
_cell_angle_beta 90.000000
_cell_angle_gamma 90.000000
_cell_volume 1739.264848
_symmetry_space_group_name_H-M "I 21 21 21"
_symmetry_group_IT_number 24
_symmetry_cell_setting 'orthorhombic'
loop_
_space_group_symop_operation_xyz
x,y,z
-x,1/2-y,z
x,-y,1/2-z
1/2-x,y,-z
1/2+x,1/2+y,1/2+z
1/2-x,-y,1/2+z
1/2+x,1/2-y,-z
-x,1/2+y,1/2-z
loop_
_atom_site_type_symbol
_atom_site_label
_atom_site_fract_x
_atom_site_fract_y
_atom_site_fract_z
Si Si1 0.321514 0.391843 0.377593
Si Si2 0.377817 0.000000 0.750000
Si Si3 0.144747 0.888478 0.521663
Si Si4 0.692198 0.500000 0.250000
Si Si5 0.960533 0.500055 0.095648
Si Si6 0.785199 0.775741 0.357607
O O1 0.354195 0.676094 0.398983
O O2 0.249204 0.437085 0.361965
O O3 0.336088 0.189601 0.454580
O O4 0.345136 0.255895 0.287205
O O5 0.418349 0.108530 0.672410
O O6 0.337603 0.751176 0.713906
O O7 0.077836 0.898308 0.484810
O O8 0.191394 0.784317 0.451766
O O9 0.732503 0.568119 0.333222
O O10 0.000000 0.250000 0.128934
O O11 0.000000 0.750000 0.065105
#
# Coordination Sequence:
#
# PCOD8165821 Si02
#       6
#     8   4   8   4   8   8
#     4  12  24  42  60  95 137 185 224 279 330 415
#     4   9  22  44  64 104 136 192 222 276 339 418
#     4  11  26  40  66  96 131 184 235 276 344 400
#     4  11  24  40  58  94 134 178 218 272 323 404
#     4  11  23  47  69  97 133 178 240 297 338 388
#     4  10  23  40  61  94 144 178 225 264 327 413
#
# _framework density 22.998225000000001
#
# number of rings (size 3 to 8) (size 9 to 14) (size 15 to 20)
#    0.000    1.200    2.000    3.000    5.600    0.000 
#   25.200    0.000    0.000    0.000    0.000    4.200 
#    0.000    0.000    0.000    0.000    0.000    0.000 
#
# Total GULP energy -247787.009844 kJ/mol
# GULP energy per Si atom -12389.350492 kJ/mol
# Density = 2.294588 g / cm^3
# Si number density = 22.998225 Si / 1000 Ang^3
#
#
#
# Elastic Constant Matrix: (Units=GPa)
#
#
# Indices 1 2 3 4 5 6 
#
# 1 101.4512 49.1790 57.7891 0.0000 0.0000 0.0000
# 2 49.1790 143.1352 36.7076 0.0000 0.0000 0.0000
# 3 57.7891 36.7076 61.5575 0.0000 0.0000 0.0000
# 4 0.0000 0.0000 0.0000 42.5270 0.0000 0.0000
# 5 0.0000 0.0000 0.0000 0.0000 23.2361 0.0000
# 6 0.0000 0.0000 0.0000 0.0000 0.0000 29.3825
#
#
#
# Elastic Compliance Matrix: (Units=1/GPa)
#
#
# Indices 1 2 3 4 5 6 
#
# 1 0.022020 -0.002673 -0.019078 0.000000 0.000000 0.000000
# 2 -0.002673 0.008572 -0.002602 0.000000 0.000000 0.000000
# 3 -0.019078 -0.002602 0.035707 0.000000 0.000000 0.000000
# 4 0.000000 0.000000 0.000000 0.023514 0.000000 0.000000
# 5 0.000000 0.000000 0.000000 0.000000 0.043036 0.000000
# 6 0.000000 0.000000 0.000000 0.000000 0.000000 0.034034
#
#
# Mechanical properties :
#
#
# Convention : Reuss Voigt Hill
#
# Bulk Modulus (GPa) = 56.84296 65.94392 61.39344
# Shear Modulus (GPa) = 22.57798 29.86035 26.21916
#
# Velocity S-wave (km/s) = 3.13665 3.60721 3.38013
# Velocity P-wave (km/s) = 6.15532 6.78859 6.47970
#
# Compressibility (1/GPa) = 0.01759233
#
# Stress axis : x y z
#
# Youngs Moduli (GPa) = 45.41312 116.65610 28.00583
#
# Poissons Ratio (x) = 0.31184 0.53430
# Poissons Ratio (y) = 0.12139 0.07288
# Poissons Ratio (z) = 0.86639 0.30357
#
# Static dielectric constant tensor:
#      x y z
#    x 4.046970 0.000000 0.000000 
#    y 0.000000 4.288300 0.000000 
#    z 0.000000 0.000000 4.351020 
# 
# 
# High freq. dielectric constant tensor:
#      x y z
#    x 1.861520 0.000000 0.000000 
#    y 0.000000 1.925560 0.000000 
#    z 0.000000 0.000000 1.919540 
# 
# From -- ./inp_files/31312.got.cif
#   From: 2010.03.12/outbox.cif.g09.slc.cpg/sg24_16_cif.got.tgz:31312.got - 2010.04.14 03:06:53.
