data_PCOD8165657
_publ_section_title
;
Structure prediction by ZEFSAII (Michael W. Deem and Ramdas Pophale) SiO2 
 PCOD8165657
Probable space group: I 21 21 21
;
_chemical_formula_sum "Si O2"
_cell_formula_units_Z 60
_cell_length_a 13.849339
_cell_length_b 8.863290
_cell_length_c 23.564971
_cell_angle_alpha 90.000000
_cell_angle_beta 90.000000
_cell_angle_gamma 90.000000
_cell_volume 2892.616871
_symmetry_space_group_name_H-M "I 21 21 21"
_symmetry_group_IT_number 24
_symmetry_cell_setting 'orthorhombic'
loop_
_space_group_symop_operation_xyz
x,y,z
-x,1/2-y,z
x,-y,1/2-z
1/2-x,y,-z
1/2+x,1/2+y,1/2+z
1/2-x,-y,1/2+z
1/2+x,1/2-y,-z
-x,1/2+y,1/2-z
loop_
_atom_site_type_symbol
_atom_site_label
_atom_site_fract_x
_atom_site_fract_y
_atom_site_fract_z
Si Si1 0.058518 0.597910 0.695802
Si Si2 0.228416 0.852547 0.849539
Si Si3 0.753507 0.163888 0.243634
Si Si4 0.473744 0.078653 0.402447
Si Si5 0.662478 0.279321 0.543153
Si Si6 0.000000 0.250000 0.103078
Si Si7 0.121379 0.913299 0.303132
Si Si8 0.516524 0.017124 0.524477
O O1 0.025430 0.500000 0.750000
O O2 0.169255 0.647865 0.697511
O O3 0.000000 0.750000 0.689567
O O4 0.047546 0.489434 0.642277
O O5 0.203654 0.731840 0.800532
O O6 0.134312 0.927107 0.877728
O O7 0.291696 0.761400 0.894949
O O8 0.287396 0.989648 0.822464
O O9 0.842763 0.257884 0.222520
O O10 0.800364 0.000000 0.250000
O O11 0.500000 0.250000 0.418093
O O12 0.487984 0.979761 0.459309
O O13 0.750000 0.319294 0.500000
O O14 0.609502 0.125875 0.525355
O O15 0.582110 0.410342 0.549069
O O16 0.940400 0.364680 0.142689
O O17 0.050354 0.368706 0.059770
O O18 0.067458 0.000000 0.250000
#
# Coordination Sequence:
#
# PCOD8165657 Si02
#       8
#     8   8   8   8   8   4   8   8
#     4  11  22  37  60  94 135 175 217 274 337 394
#     4  11  21  40  69  90 131 176 219 267 338 406
#     4  10  22  38  59  95 128 161 220 274 332 396
#     4  12  22  40  67  97 137 176 224 270 332 417
#     4  11  21  44  69  96 128 180 227 280 331 408
#     4  12  26  48  66  94 140 172 224 288 348 404
#     4  10  24  45  64  93 124 170 220 278 343 407
#     4  11  25  43  67 100 136 176 233 277 344 417
#
# _framework density 20.742463999999998
#
# number of rings (size 3 to 8) (size 9 to 14) (size 15 to 20)
#    0.000    1.067    4.000    3.600    2.800    1.600 
#    2.400    0.667    0.000    0.000    0.000    0.000 
#    0.000    0.000    0.000    0.000    0.000    0.000 
#
# Total GULP energy -371777.646435 kJ/mol
# GULP energy per Si atom -12392.588215 kJ/mol
# Density = 2.069525 g / cm^3
# Si number density = 20.742464 Si / 1000 Ang^3
#
#
#
# Elastic Constant Matrix: (Units=GPa)
#
#
# Indices 1 2 3 4 5 6 
#
# 1 62.9899 16.5672 27.3239 0.0000 0.0000 0.0000
# 2 16.5672 105.1101 42.3603 0.0000 0.0000 0.0000
# 3 27.3239 42.3603 137.5569 0.0000 0.0000 0.0000
# 4 0.0000 0.0000 0.0000 25.6569 0.0000 0.0000
# 5 0.0000 0.0000 0.0000 0.0000 -127.1074 0.0000
# 6 0.0000 0.0000 0.0000 0.0000 0.0000 18.9680
#
#
#
# Elastic Compliance Matrix: (Units=1/GPa)
#
#
# Indices 1 2 3 4 5 6 
#
# 1 0.017593 -0.001558 -0.003015 0.000000 0.000000 0.000000
# 2 -0.001558 0.011000 -0.003078 0.000000 0.000000 0.000000
# 3 -0.003015 -0.003078 0.008816 0.000000 0.000000 0.000000
# 4 0.000000 0.000000 0.000000 0.038976 0.000000 0.000000
# 5 0.000000 0.000000 0.000000 0.000000 -0.007867 0.000000
# 6 0.000000 0.000000 0.000000 0.000000 0.000000 0.052720
#
#
# Mechanical properties :
#
#
# Convention : Reuss Voigt Hill
#
# Bulk Modulus (GPa) = 45.23272 53.12885 49.18079
# Shear Modulus (GPa) = 34.74415 -1.86948 16.43734
#
# Velocity S-wave (km/s) = 4.09715 -0.95039 2.81810
# Velocity P-wave (km/s) = 6.65104 4.94620 5.86094
#
# Compressibility (1/GPa) = 0.02210789
#
# Stress axis : x y z
#
# Youngs Moduli (GPa) = 56.84038 90.91059 113.42477
#
# Poissons Ratio (x) = 0.14163 0.34196
# Poissons Ratio (y) = 0.08855 0.34911
# Poissons Ratio (z) = 0.17137 0.27981
#
# Static dielectric constant tensor:
#      x y z
#    x 3.649970 0.000000 0.000000 
#    y 0.000000 3.835310 0.000000 
#    z 0.000000 0.000000 4.059320 
# 
# 
# High freq. dielectric constant tensor:
#      x y z
#    x 1.797100 0.000000 0.000000 
#    y 0.000000 1.814140 0.000000 
#    z 0.000000 0.000000 1.828810 
# 
# From -- ./inp_files/35835.got.cif
#   From: 2010.03.12/outbox.cif.g09.slc.cpg/sg24_18_cif.got.tgz:35835.got - 2010.04.14 03:06:53.
