data_PCOD8165094
_publ_section_title
;
Structure prediction by ZEFSAII (Michael W. Deem and Ramdas Pophale) SiO2 
 PCOD8165094
Probable space group: I 21 21 21
;
_chemical_formula_sum "Si O2"
_cell_formula_units_Z 40
_cell_length_a 8.024789
_cell_length_b 9.701842
_cell_length_c 26.735189
_cell_angle_alpha 90.000000
_cell_angle_beta 90.000000
_cell_angle_gamma 90.000000
_cell_volume 2081.474421
_symmetry_space_group_name_H-M "I 21 21 21"
_symmetry_group_IT_number 24
_symmetry_cell_setting 'orthorhombic'
loop_
_space_group_symop_operation_xyz
x,y,z
-x,1/2-y,z
x,-y,1/2-z
1/2-x,y,-z
1/2+x,1/2+y,1/2+z
1/2-x,-y,1/2+z
1/2+x,1/2-y,-z
-x,1/2+y,1/2-z
loop_
_atom_site_type_symbol
_atom_site_label
_atom_site_fract_x
_atom_site_fract_y
_atom_site_fract_z
Si Si1 0.559541 0.399761 0.203813
Si Si2 0.174747 0.809400 0.369643
Si Si3 0.808804 0.198479 0.445482
Si Si4 0.364119 0.458474 0.107794
Si Si5 0.201122 0.991876 0.943323
O O1 0.500000 0.250000 0.222487
O O2 0.582165 0.500000 0.250000
O O3 0.738440 0.376177 0.178485
O O4 0.432740 0.472479 0.164583
O O5 0.280034 0.689910 0.396402
O O6 0.158356 0.929578 0.410888
O O7 0.000000 0.750000 0.351525
O O8 0.750000 0.144683 0.500000
O O9 0.769647 0.078508 0.405161
O O10 0.699241 0.330248 0.430200
O O11 0.000000 0.250000 0.445936
O O12 0.515806 0.455394 0.068500
O O13 0.250000 0.018523 0.000000
#
# Coordination Sequence:
#
# PCOD8165094 Si02
#       5
#     8   8   8   8   8
#     4   9  20  39  62  83 106 141 184 229 279 333
#     4  10  21  37  56  83 115 143 181 230 276 327
#     4  11  21  34  53  82 117 152 188 227 270 320
#     4  10  21  38  57  81 112 146 186 229 274 329
#     4  10  20  34  53  81 113 150 190 225 267 323
#
# _framework density 19.217148000000002
#
# number of rings (size 3 to 8) (size 9 to 14) (size 15 to 20)
#    0.000    2.000    0.000    6.000    0.000    5.600 
#    0.000    4.000    0.000    6.000    0.000    0.000 
#    0.000    0.000    0.000    0.000    0.000    0.000 
#
# Total GULP energy -247938.893071 kJ/mol
# GULP energy per Si atom -12396.944654 kJ/mol
# Density = 1.917341 g / cm^3
# Si number density = 19.217148 Si / 1000 Ang^3
#
#
#
# Elastic Constant Matrix: (Units=GPa)
#
#
# Indices 1 2 3 4 5 6 
#
# 1 96.9025 34.3963 42.5246 0.0000 0.0000 0.0000
# 2 34.3963 109.1051 87.9668 0.0000 0.0000 0.0000
# 3 42.5246 87.9668 116.6617 0.0000 0.0000 0.0000
# 4 0.0000 0.0000 0.0000 43.8989 0.0000 0.0000
# 5 0.0000 0.0000 0.0000 0.0000 17.9212 0.0000
# 6 0.0000 0.0000 0.0000 0.0000 0.0000 30.0806
#
#
#
# Elastic Compliance Matrix: (Units=1/GPa)
#
#
# Indices 1 2 3 4 5 6 
#
# 1 0.012304 -0.000671 -0.003979 0.000000 0.000000 0.000000
# 2 -0.000671 0.023415 -0.017411 0.000000 0.000000 0.000000
# 3 -0.003979 -0.017411 0.023151 0.000000 0.000000 0.000000
# 4 0.000000 0.000000 0.000000 0.022780 0.000000 0.000000
# 5 0.000000 0.000000 0.000000 0.000000 0.055800 0.000000
# 6 0.000000 0.000000 0.000000 0.000000 0.000000 0.033244
#
#
# Mechanical properties :
#
#
# Convention : Reuss Voigt Hill
#
# Bulk Modulus (GPa) = 67.80758 72.49387 70.15072
# Shear Modulus (GPa) = 22.75518 28.89891 25.82704
#
# Velocity S-wave (km/s) = 3.44482 3.88210 3.66998
# Velocity P-wave (km/s) = 7.15429 7.60919 7.38524
#
# Compressibility (1/GPa) = 0.01474761
#
# Stress axis : x y z
#
# Youngs Moduli (GPa) = 81.27473 42.70849 43.19524
#
# Poissons Ratio (x) = 0.02864 0.17189
# Poissons Ratio (y) = 0.05450 0.75207
# Poissons Ratio (z) = 0.32342 0.74359
#
# Static dielectric constant tensor:
#      x y z
#    x 3.605750 0.000000 0.000000 
#    y 0.000000 3.842640 0.000000 
#    z 0.000000 0.000000 3.261630 
# 
# 
# High freq. dielectric constant tensor:
#      x y z
#    x 1.749680 0.000000 0.000000 
#    y 0.000000 1.762530 0.000000 
#    z 0.000000 0.000000 1.724380 
# 
# From -- ./inp_files/9279.got.cif
#   From: 2010.03.12/outbox.cif.g09.slc.cpg/sg24_5_cif.got.tgz:9279.got - 2010.04.14 03:06:53.
