data_PCOD8165756
_publ_section_title
;
Structure prediction by ZEFSAII (Michael W. Deem and Ramdas Pophale) SiO2 
 PCOD8165756
Probable space group: I 21 21 21
;
_chemical_formula_sum "Si O2"
_cell_formula_units_Z 48
_cell_length_a 8.566481
_cell_length_b 27.654320
_cell_length_c 9.564274
_cell_angle_alpha 90.000000
_cell_angle_beta 90.000000
_cell_angle_gamma 90.000000
_cell_volume 2265.778489
_symmetry_space_group_name_H-M "I 21 21 21"
_symmetry_group_IT_number 24
_symmetry_cell_setting 'orthorhombic'
loop_
_space_group_symop_operation_xyz
x,y,z
-x,1/2-y,z
x,-y,1/2-z
1/2-x,y,-z
1/2+x,1/2+y,1/2+z
1/2-x,-y,1/2+z
1/2+x,1/2-y,-z
-x,1/2+y,1/2-z
loop_
_atom_site_type_symbol
_atom_site_label
_atom_site_fract_x
_atom_site_fract_y
_atom_site_fract_z
Si Si1 0.934416 0.196600 0.276465
Si Si2 0.568777 0.801399 0.275468
Si Si3 0.094349 0.443542 0.912648
Si Si4 0.930519 0.352825 0.021155
Si Si5 0.428857 0.854780 0.030813
Si Si6 0.594252 0.946974 0.086395
O O1 0.751264 0.196491 0.251546
O O2 0.000000 0.250000 0.249335
O O3 0.964726 0.179139 0.433626
O O4 0.022514 0.156875 0.181118
O O5 0.500000 0.750000 0.234392
O O6 0.535902 0.814518 0.436050
O O7 0.472930 0.840909 0.188154
O O8 0.128014 0.434581 0.748845
O O9 0.034292 0.498284 0.934319
O O10 0.962947 0.407812 0.973080
O O11 0.250000 0.433301 0.000000
O O12 0.750000 0.341053 0.000000
O O13 0.250000 0.844271 0.000000
O O14 0.464389 0.911945 0.018609
O O15 0.750000 0.937783 0.000000
#
# Coordination Sequence:
#
# PCOD8165756 Si02
#       6
#     8   8   8   8   8   8
#     4  12  26  44  67  96 129 172 216 265 323 387
#     4  12  24  44  67  92 129 170 218 267 321 387
#     4  10  22  42  68  98 132 172 218 268 326 391
#     4  12  25  42  65  97 132 170 214 268 326 384
#     4  12  25  42  65  97 132 170 214 268 326 384
#     4  10  22  42  68  98 132 172 218 268 326 391
#
# _framework density 21.184771000000001
#
# number of rings (size 3 to 8) (size 9 to 14) (size 15 to 20)
#    0.000    0.667    1.667    7.000    2.333    0.667 
#    0.000    0.000    0.000    0.000    0.000    0.000 
#    0.000    0.000    0.000    0.000    0.000    0.000 
#
# Total GULP energy -297723.785783 kJ/mol
# GULP energy per Si atom -12405.157741 kJ/mol
# Density = 2.113655 g / cm^3
# Si number density = 21.184771 Si / 1000 Ang^3
#
#
#
# Elastic Constant Matrix: (Units=GPa)
#
#
# Indices 1 2 3 4 5 6 
#
# 1 121.0403 39.9717 10.7391 0.0014 -0.0002 0.0002
# 2 39.9717 127.3622 24.7729 -0.0024 -0.0003 0.0003
# 3 10.7391 24.7729 69.6698 -0.0042 -0.0010 0.0011
# 4 0.0014 -0.0024 -0.0042 34.4026 -0.0005 0.0000
# 5 -0.0002 -0.0003 -0.0010 -0.0005 25.9534 -0.0001
# 6 0.0002 0.0003 0.0011 0.0000 -0.0001 25.1214
#
#
#
# Elastic Compliance Matrix: (Units=1/GPa)
#
#
# Indices 1 2 3 4 5 6 
#
# 1 0.009228 -0.002814 -0.000422 -0.000001 0.000000 0.000000
# 2 -0.002814 0.009293 -0.002871 0.000000 0.000000 0.000000
# 3 -0.000422 -0.002871 0.015439 0.000002 0.000001 -0.000001
# 4 -0.000001 0.000000 0.000002 0.029068 0.000001 0.000000
# 5 0.000000 0.000000 0.000001 0.000001 0.038531 0.000000
# 6 0.000000 0.000000 -0.000001 0.000000 0.000000 0.039807
#
#
# Mechanical properties :
#
#
# Convention : Reuss Voigt Hill
#
# Bulk Modulus (GPa) = 45.98242 52.11552 49.04897
# Shear Modulus (GPa) = 31.08903 33.26805 32.17854
#
# Velocity S-wave (km/s) = 3.83498 3.96710 3.90159
# Velocity P-wave (km/s) = 6.43132 6.75557 6.59544
#
# Compressibility (1/GPa) = 0.02174744
#
# Stress axis : x y z
#
# Youngs Moduli (GPa) = 108.36004 107.60531 64.77033
#
# Poissons Ratio (x) = 0.30283 0.02732
# Poissons Ratio (y) = 0.30495 0.18593
# Poissons Ratio (z) = 0.04571 0.30890
#
# Static dielectric constant tensor:
#      x y z
#    x 3.632330 0.000000 0.000000 
#    y 0.000000 4.005540 0.000000 
#    z 0.000000 0.000000 4.057300 
# 
# 
# High freq. dielectric constant tensor:
#      x y z
#    x 1.823350 0.000000 0.000000 
#    y 0.000000 1.845810 0.000000 
#    z 0.000000 0.000000 1.844600 
# 
# From -- ./inp_files/9759.got.cif
#   From: 2010.03.12/outbox.cif.g09.slc.cpg/sg24_5_cif.got.tgz:9759.got - 2010.04.14 03:06:53.
