data_PCOD8165939
_publ_section_title
;
Structure prediction by ZEFSAII (Michael W. Deem and Ramdas Pophale) SiO2 
 PCOD8165939
Probable space group: I 21 21 21
;
_chemical_formula_sum "Si O2"
_cell_formula_units_Z 56
_cell_length_a 21.388019
_cell_length_b 14.529767
_cell_length_c 8.267398
_cell_angle_alpha 90.000000
_cell_angle_beta 90.000000
_cell_angle_gamma 90.000000
_cell_volume 2569.200848
_symmetry_space_group_name_H-M "I 21 21 21"
_symmetry_group_IT_number 24
_symmetry_cell_setting 'orthorhombic'
loop_
_space_group_symop_operation_xyz
x,y,z
-x,1/2-y,z
x,-y,1/2-z
1/2-x,y,-z
1/2+x,1/2+y,1/2+z
1/2-x,-y,1/2+z
1/2+x,1/2-y,-z
-x,1/2+y,1/2-z
loop_
_atom_site_type_symbol
_atom_site_label
_atom_site_fract_x
_atom_site_fract_y
_atom_site_fract_z
Si Si1 0.699735 0.749028 0.711737
Si Si2 0.162448 0.233831 0.855596
Si Si3 0.904617 0.548421 0.585831
Si Si4 0.928516 0.215992 0.597268
Si Si5 0.504008 0.645835 0.628290
Si Si6 0.611702 0.376078 0.618706
Si Si7 0.114262 0.598958 0.188277
O O1 0.678656 0.774681 0.530363
O O2 0.773281 0.740202 0.745928
O O3 0.668323 0.651637 0.762413
O O4 0.673565 0.833762 0.816295
O O5 0.145777 0.126743 0.878985
O O6 0.106893 0.293896 0.771145
O O7 0.924083 0.500000 0.750000
O O8 0.970049 0.588663 0.522203
O O9 0.876816 0.477646 0.452745
O O10 0.890814 0.301833 0.523434
O O11 0.920564 0.122623 0.486013
O O12 0.000000 0.250000 0.618966
O O13 0.500000 0.750000 0.572057
O O14 0.546868 0.630236 0.784977
O O15 0.434467 0.617145 0.669030
O O16 0.138953 0.500000 0.250000
#
# Coordination Sequence:
#
# PCOD8165939 Si02
#       7
#     8   8   8   8   8   8   8
#     4  10  24  46  65  92 135 190 227 269 351 420
#     4  11  24  45  64  93 140 178 225 282 341 410
#     4  12  25  41  61 106 138 170 230 293 339 410
#     4  11  22  41  68 100 137 172 220 287 354 405
#     4  12  21  41  68  95 134 187 220 276 356 419
#     4  11  20  42  65  93 130 175 220 281 335 412
#     4  11  22  41  71 102 128 180 235 279 336 424
#
# _framework density 21.796661
#
# number of rings (size 3 to 8) (size 9 to 14) (size 15 to 20)
#    0.000    0.857    7.143    1.286    0.000    4.000 
#    5.143    3.571    0.000    0.000    0.000    0.000 
#    0.000    0.000    0.000    0.000    0.000    0.000 
#
# Total GULP energy -346961.283140 kJ/mol
# GULP energy per Si atom -12391.474398 kJ/mol
# Density = 2.174705 g / cm^3
# Si number density = 21.796661 Si / 1000 Ang^3
#
#
#
# Elastic Constant Matrix: (Units=GPa)
#
#
# Indices 1 2 3 4 5 6 
#
# 1 122.8375 35.2051 34.6920 0.0000 0.0000 0.0000
# 2 35.2051 116.3170 31.8748 0.0000 0.0000 0.0000
# 3 34.6920 31.8748 81.4004 0.0000 0.0000 0.0000
# 4 0.0000 0.0000 0.0000 38.8093 0.0000 0.0000
# 5 0.0000 0.0000 0.0000 0.0000 44.8967 0.0000
# 6 0.0000 0.0000 0.0000 0.0000 0.0000 22.8669
#
#
#
# Elastic Compliance Matrix: (Units=1/GPa)
#
#
# Indices 1 2 3 4 5 6 
#
# 1 0.009657 -0.002011 -0.003328 0.000000 0.000000 0.000000
# 2 -0.002011 0.010049 -0.003078 0.000000 0.000000 0.000000
# 3 -0.003328 -0.003078 0.014909 0.000000 0.000000 0.000000
# 4 0.000000 0.000000 0.000000 0.025767 0.000000 0.000000
# 5 0.000000 0.000000 0.000000 0.000000 0.022273 0.000000
# 6 0.000000 0.000000 0.000000 0.000000 0.000000 0.043731
#
#
# Mechanical properties :
#
#
# Convention : Reuss Voigt Hill
#
# Bulk Modulus (GPa) = 56.24096 58.23319 57.23708
# Shear Modulus (GPa) = 33.52364 35.90010 34.71187
#
# Velocity S-wave (km/s) = 3.92601 4.06278 3.99498
# Velocity P-wave (km/s) = 6.81249 6.98447 6.89902
#
# Compressibility (1/GPa) = 0.01778064
#
# Stress axis : x y z
#
# Youngs Moduli (GPa) = 103.55033 99.50935 67.07441
#
# Poissons Ratio (x) = 0.20009 0.22325
# Poissons Ratio (y) = 0.20822 0.20646
# Poissons Ratio (z) = 0.34466 0.30630
#
# Static dielectric constant tensor:
#      x y z
#    x 3.906180 0.000000 0.000000 
#    y 0.000000 3.789130 0.000000 
#    z 0.000000 0.000000 4.172370 
# 
# 
# High freq. dielectric constant tensor:
#      x y z
#    x 1.846040 0.000000 0.000000 
#    y 0.000000 1.839580 0.000000 
#    z 0.000000 0.000000 1.863300 
# 
# From -- ./inp_files/15272.got.cif
#   From: 2010.03.12/outbox.cif.g09.slc.cpg/sg24_8_cif.got.tgz:15272.got - 2010.04.14 03:06:53.
