data_PCOD8165036
_publ_section_title
;
Structure prediction by ZEFSAII (Michael W. Deem and Ramdas Pophale) SiO2 
 PCOD8165036
Probable space group: I 21 21 21
;
_chemical_formula_sum "Si O2"
_cell_formula_units_Z 64
_cell_length_a 15.611063
_cell_length_b 19.602769
_cell_length_c 10.172272
_cell_angle_alpha 90.000000
_cell_angle_beta 90.000000
_cell_angle_gamma 90.000000
_cell_volume 3112.919306
_symmetry_space_group_name_H-M "I 21 21 21"
_symmetry_group_IT_number 24
_symmetry_cell_setting 'orthorhombic'
loop_
_space_group_symop_operation_xyz
x,y,z
-x,1/2-y,z
x,-y,1/2-z
1/2-x,y,-z
1/2+x,1/2+y,1/2+z
1/2-x,-y,1/2+z
1/2+x,1/2-y,-z
-x,1/2+y,1/2-z
loop_
_atom_site_type_symbol
_atom_site_label
_atom_site_fract_x
_atom_site_fract_y
_atom_site_fract_z
Si Si1 0.644074 0.145192 0.121637
Si Si2 0.967616 0.122638 0.627883
Si Si3 0.279571 0.160190 0.862544
Si Si4 0.428871 0.067496 0.806621
Si Si5 0.035528 0.529494 0.542079
Si Si6 0.171286 0.305586 0.155066
Si Si7 0.618074 0.424342 0.224468
Si Si8 0.471695 0.674395 0.847852
O O1 0.584128 0.157932 0.250600
O O2 0.742689 0.149718 0.161443
O O3 0.622920 0.069789 0.069568
O O4 0.629384 0.195129 0.993606
O O5 0.952227 0.170941 0.502840
O O6 0.069167 0.114446 0.656738
O O7 0.939232 0.045602 0.591208
O O8 0.356150 0.106868 0.888586
O O9 0.311061 0.228720 0.789534
O O10 0.198570 0.123906 0.798071
O O11 0.250000 0.190494 0.000000
O O12 0.509204 0.038200 0.890151
O O13 0.457427 0.117966 0.689462
O O14 0.383263 0.000000 0.750000
O O15 0.955453 0.565648 0.615040
O O16 0.110469 0.342543 0.259335
O O17 0.655030 0.500000 0.250000
O O18 0.500000 0.750000 0.808471
#
# Coordination Sequence:
#
# PCOD8165036 Si02
#       8
#     8   8   8   8   8   8   8   8
#     4  10  21  41  65  95 127 166 216 277 319 377
#     4  10  23  43  66  94 133 172 221 264 331 398
#     4  12  22  38  64  95 128 169 217 274 326 375
#     4  12  23  39  66  97 129 172 223 269 326 393
#     4  10  19  39  68  92 124 169 220 271 318 390
#     4  11  24  41  64  95 131 164 224 271 326 396
#     4   9  20  39  62  94 126 163 217 271 320 387
#     4  12  25  44  64  94 132 179 214 269 334 398
#
# _framework density 20.559480000000001
#
# number of rings (size 3 to 8) (size 9 to 14) (size 15 to 20)
#    0.000    1.250    6.250    1.500    0.000    1.500 
#    0.000   11.250    0.000    0.000    0.000    0.000 
#    0.000    0.000    0.000    0.000    0.000    0.000 
#
# Total GULP energy -396428.050982 kJ/mol
# GULP energy per Si atom -12388.376593 kJ/mol
# Density = 2.051269 g / cm^3
# Si number density = 20.559480 Si / 1000 Ang^3
#
#
#
# Elastic Constant Matrix: (Units=GPa)
#
#
# Indices 1 2 3 4 5 6 
#
# 1 85.2220 47.9594 31.8838 0.0000 0.0000 0.0000
# 2 47.9594 110.2713 19.6373 0.0000 0.0000 0.0000
# 3 31.8838 19.6373 104.0425 0.0000 0.0000 0.0000
# 4 0.0000 0.0000 0.0000 26.9201 0.0000 0.0000
# 5 0.0000 0.0000 0.0000 0.0000 31.1213 0.0000
# 6 0.0000 0.0000 0.0000 0.0000 0.0000 36.8269
#
#
#
# Elastic Compliance Matrix: (Units=1/GPa)
#
#
# Indices 1 2 3 4 5 6 
#
# 1 0.016965 -0.006677 -0.003939 0.000000 0.000000 0.000000
# 2 -0.006677 0.012012 -0.000221 0.000000 0.000000 0.000000
# 3 -0.003939 -0.000221 0.010860 0.000000 0.000000 0.000000
# 4 0.000000 0.000000 0.000000 0.037147 0.000000 0.000000
# 5 0.000000 0.000000 0.000000 0.000000 0.032132 0.000000
# 6 0.000000 0.000000 0.000000 0.000000 0.000000 0.027154
#
#
# Mechanical properties :
#
#
# Convention : Reuss Voigt Hill
#
# Bulk Modulus (GPa) = 55.05489 55.38855 55.22172
# Shear Modulus (GPa) = 30.48798 32.31066 31.39932
#
# Velocity S-wave (km/s) = 3.85504 3.96860 3.91224
# Velocity P-wave (km/s) = 6.83020 6.92812 6.87933
#
# Compressibility (1/GPa) = 0.01816369
#
# Stress axis : x y z
#
# Youngs Moduli (GPa) = 58.94397 83.25053 92.07944
#
# Poissons Ratio (x) = 0.55588 0.36268
# Poissons Ratio (y) = 0.39358 0.02035
# Poissons Ratio (z) = 0.23216 0.01840
#
# Static dielectric constant tensor:
#      x y z
#    x 3.625140 0.000000 0.000000 
#    y 0.000000 3.647050 0.000000 
#    z 0.000000 0.000000 3.870770 
# 
# 
# High freq. dielectric constant tensor:
#      x y z
#    x 1.791520 0.000000 0.000000 
#    y 0.000000 1.806060 0.000000 
#    z 0.000000 0.000000 1.798950 
# 
# From -- ./inp_files/21081.got.cif
#   From: 2010.03.12/outbox.cif.g09.slc.cpg/sg24_11_cif.got.tgz:21081.got - 2010.04.14 03:06:53.
