data_PCOD8165396
_publ_section_title
;
Structure prediction by ZEFSAII (Michael W. Deem and Ramdas Pophale) SiO2 
 PCOD8165396
Probable space group: I 21 21 21
;
_chemical_formula_sum "Si O2"
_cell_formula_units_Z 56
_cell_length_a 9.728617
_cell_length_b 20.115536
_cell_length_c 13.977357
_cell_angle_alpha 90.000000
_cell_angle_beta 90.000000
_cell_angle_gamma 90.000000
_cell_volume 2735.317685
_symmetry_space_group_name_H-M "I 21 21 21"
_symmetry_group_IT_number 24
_symmetry_cell_setting 'orthorhombic'
loop_
_space_group_symop_operation_xyz
x,y,z
-x,1/2-y,z
x,-y,1/2-z
1/2-x,y,-z
1/2+x,1/2+y,1/2+z
1/2-x,-y,1/2+z
1/2+x,1/2-y,-z
-x,1/2+y,1/2-z
loop_
_atom_site_type_symbol
_atom_site_label
_atom_site_fract_x
_atom_site_fract_y
_atom_site_fract_z
Si Si1 0.754940 0.577376 0.751300
Si Si2 0.756460 0.012132 0.857087
Si Si3 0.615950 0.575111 0.049333
Si Si4 0.544268 0.434595 0.085928
Si Si5 0.356665 0.380799 0.564417
Si Si6 0.121318 0.638615 0.443044
Si Si7 0.008952 0.325427 0.254161
O O1 0.701829 0.500000 0.750000
O O2 0.864434 0.587471 0.837306
O O3 0.840086 0.594148 0.656331
O O4 0.628633 0.629347 0.757055
O O5 0.661172 0.066292 0.906285
O O6 0.914020 0.036379 0.855632
O O7 0.704499 0.000000 0.750000
O O8 0.732729 0.947430 0.919987
O O9 0.603804 0.496550 0.025756
O O10 0.750000 0.604527 0.000000
O O11 0.491723 0.613707 0.000381
O O12 0.504272 0.373301 0.016807
O O13 0.250000 0.336388 0.500000
O O14 0.383900 0.354492 0.670155
O O15 0.250000 0.672549 0.500000
O O16 0.072856 0.680754 0.352285
O O17 0.000000 0.250000 0.289338
#
# Coordination Sequence:
#
# PCOD8165396 Si02
#       7
#     8   8   8   8   8   8   8
#     4  10  24  40  68  99 135 174 219 280 347 406
#     4  11  18  33  65  97 136 167 213 272 332 394
#     4  11  20  35  61 101 140 164 217 269 338 404
#     4  10  21  35  60 107 133 164 211 278 339 395
#     4  12  23  40  68  96 134 182 218 277 343 402
#     4  10  22  39  64  93 130 169 221 273 330 397
#     4  12  28  48  64  93 134 180 234 279 332 399
#
# _framework density 20.472942
#
# number of rings (size 3 to 8) (size 9 to 14) (size 15 to 20)
#    0.000    1.143    5.714    1.714    6.000    0.000 
#    5.143    0.000    0.000    3.429    0.000    0.000 
#    0.000    0.000    0.000    0.000    0.000    0.000 
#
# Total GULP energy -346966.005977 kJ/mol
# GULP energy per Si atom -12391.643071 kJ/mol
# Density = 2.042634 g / cm^3
# Si number density = 20.472942 Si / 1000 Ang^3
#
#
#
# Elastic Constant Matrix: (Units=GPa)
#
#
# Indices 1 2 3 4 5 6 
#
# 1 110.4317 25.2527 46.9769 -0.0001 0.0000 0.0000
# 2 25.2527 57.8052 13.5333 -0.0001 0.0000 0.0000
# 3 46.9769 13.5333 118.4157 -0.0002 0.0000 0.0000
# 4 -0.0001 -0.0001 -0.0002 1.5108 0.0000 0.0000
# 5 0.0000 0.0000 0.0000 0.0000 46.3900 0.0000
# 6 0.0000 0.0000 0.0000 0.0000 0.0000 -1.8544
#
#
#
# Elastic Compliance Matrix: (Units=1/GPa)
#
#
# Indices 1 2 3 4 5 6 
#
# 1 0.011797 -0.004169 -0.004203 0.000000 0.000000 0.000000
# 2 -0.004169 0.019249 -0.000546 0.000001 0.000000 0.000000
# 3 -0.004203 -0.000546 0.010175 0.000001 0.000000 0.000000
# 4 0.000000 0.000001 0.000001 0.661907 0.000000 -0.000017
# 5 0.000000 0.000000 0.000000 0.000000 0.021556 0.000000
# 6 0.000000 0.000000 0.000000 -0.000017 0.000000 -0.539265
#
#
# Mechanical properties :
#
#
# Convention : Reuss Voigt Hill
#
# Bulk Modulus (GPa) = 42.76615 50.90869 46.83742
# Shear Modulus (GPa) = 23.69094 22.60193 23.14643
#
# Velocity S-wave (km/s) = 3.40543 3.32624 3.36607
# Velocity P-wave (km/s) = 6.03300 6.29858 6.16722
#
# Compressibility (1/GPa) = 0.02338298
#
# Stress axis : x y z
#
# Youngs Moduli (GPa) = 84.76776 51.95146 98.28232
#
# Poissons Ratio (x) = 0.21661 0.41313
# Poissons Ratio (y) = 0.35344 0.05364
# Poissons Ratio (z) = 0.35632 0.02835
#
# Static dielectric constant tensor:
#      x y z
#    x 3.976370 0.000000 0.000000 
#    y 0.000000 3.195260 0.000000 
#    z 0.000000 0.000000 4.513730 
# 
# 
# High freq. dielectric constant tensor:
#      x y z
#    x 1.809590 0.000000 0.000000 
#    y 0.000000 1.738460 0.000000 
#    z 0.000000 0.000000 1.828950 
# 
# From -- ./inp_files/13187.got.cif
#   From: 2010.03.12/outbox.cif.g09.slc.cpg/sg24_7_cif.got.tgz:13187.got - 2010.04.14 03:06:53.
