data_PCOD8165636
_publ_section_title
;
Structure prediction by ZEFSAII (Michael W. Deem and Ramdas Pophale) SiO2 
 PCOD8165636
Probable space group: I 21 21 21
;
_chemical_formula_sum "Si O2"
_cell_formula_units_Z 52
_cell_length_a 11.588376
_cell_length_b 8.914420
_cell_length_c 25.038463
_cell_angle_alpha 90.000000
_cell_angle_beta 90.000000
_cell_angle_gamma 90.000000
_cell_volume 2586.564638
_symmetry_space_group_name_H-M "I 21 21 21"
_symmetry_group_IT_number 24
_symmetry_cell_setting 'orthorhombic'
loop_
_space_group_symop_operation_xyz
x,y,z
-x,1/2-y,z
x,-y,1/2-z
1/2-x,y,-z
1/2+x,1/2+y,1/2+z
1/2-x,-y,1/2+z
1/2+x,1/2-y,-z
-x,1/2+y,1/2-z
loop_
_atom_site_type_symbol
_atom_site_label
_atom_site_fract_x
_atom_site_fract_y
_atom_site_fract_z
Si Si1 0.433312 0.602673 0.129846
Si Si2 0.585392 0.457641 0.466016
Si Si3 0.227001 0.173556 0.892435
Si Si4 0.466963 0.084609 0.920665
Si Si5 0.250000 0.704688 0.000000
Si Si6 0.566526 0.608605 0.296341
Si Si7 0.795660 0.008929 0.404465
O O1 0.500000 0.750000 0.150518
O O2 0.470099 0.569054 0.068564
O O3 0.469250 0.469652 0.168312
O O4 0.292224 0.609314 0.131995
O O5 0.656264 0.593403 0.439485
O O6 0.553621 0.488081 0.526658
O O7 0.661827 0.306699 0.465600
O O8 0.350998 0.091992 0.885785
O O9 0.171283 0.158516 0.834094
O O10 0.235875 0.346094 0.910514
O O11 0.500000 0.250000 0.940633
O O12 0.571682 0.014356 0.884259
O O13 0.316129 0.594116 0.959979
O O14 0.500000 0.750000 0.270189
O O15 0.614417 0.500000 0.250000
#
# Coordination Sequence:
#
# PCOD8165636 Si02
#       7
#     8   8   8   8   4   8   8
#     4  11  22  38  57  87 128 160 204 263 314 368
#     4  11  22  35  51  81 126 167 215 254 299 355
#     4  10  22  41  59  84 121 163 209 263 314 382
#     4  10  22  35  57  84 119 174 214 244 297 380
#     4  12  22  34  52  84 128 174 216 262 290 362
#     4  11  23  42  69  94 115 149 200 271 336 392
#     4  11  23  35  56  86 121 170 210 253 303 372
#
# _framework density 20.103887
#
# number of rings (size 3 to 8) (size 9 to 14) (size 15 to 20)
#    0.000    1.231    4.615    1.385    6.462    0.000 
#    0.000    0.000    0.000    0.923    4.000    0.000 
#    0.000    0.000    0.000    0.000    0.000    0.000 
#
# Total GULP energy -322212.905068 kJ/mol
# GULP energy per Si atom -12392.804041 kJ/mol
# Density = 2.005813 g / cm^3
# Si number density = 20.103887 Si / 1000 Ang^3
#
#
#
# Elastic Constant Matrix: (Units=GPa)
#
#
# Indices 1 2 3 4 5 6 
#
# 1 123.7973 31.5535 19.3205 0.0000 0.0000 0.0000
# 2 31.5535 98.0851 27.4174 0.0000 0.0000 0.0000
# 3 19.3205 27.4174 61.8846 0.0000 0.0000 0.0000
# 4 0.0000 0.0000 0.0000 25.7686 0.0000 0.0000
# 5 0.0000 0.0000 0.0000 0.0000 7.4321 0.0000
# 6 0.0000 0.0000 0.0000 0.0000 0.0000 31.3904
#
#
#
# Elastic Compliance Matrix: (Units=1/GPa)
#
#
# Indices 1 2 3 4 5 6 
#
# 1 0.008960 -0.002397 -0.001735 0.000000 0.000000 0.000000
# 2 -0.002397 0.012278 -0.004691 0.000000 0.000000 0.000000
# 3 -0.001735 -0.004691 0.018779 0.000000 0.000000 0.000000
# 4 0.000000 0.000000 0.000000 0.038807 0.000000 0.000000
# 5 0.000000 0.000000 0.000000 0.000000 0.134551 0.000000
# 6 0.000000 0.000000 0.000000 0.000000 0.000000 0.031857
#
#
# Mechanical properties :
#
#
# Convention : Reuss Voigt Hill
#
# Bulk Modulus (GPa) = 44.70372 48.92776 46.81574
# Shear Modulus (GPa) = 18.49562 26.61661 22.55611
#
# Velocity S-wave (km/s) = 3.03644 3.64256 3.35323
# Velocity P-wave (km/s) = 5.88030 6.48701 6.19109
#
# Compressibility (1/GPa) = 0.02236950
#
# Stress axis : x y z
#
# Youngs Moduli (GPa) = 111.61317 81.44862 53.25051
#
# Poissons Ratio (x) = 0.19525 0.09240
# Poissons Ratio (y) = 0.26756 0.24980
# Poissons Ratio (z) = 0.19366 0.38208
#
# Static dielectric constant tensor:
#      x y z
#    x 3.949130 0.000000 0.000000 
#    y 0.000000 3.905210 0.000000 
#    z 0.000000 0.000000 3.202330 
# 
# 
# High freq. dielectric constant tensor:
#      x y z
#    x 1.794450 0.000000 0.000000 
#    y 0.000000 1.805040 0.000000 
#    z 0.000000 0.000000 1.729360 
# 
# From -- ./inp_files/11457.got.cif
#   From: 2010.03.12/outbox.cif.g09.slc.cpg/sg24_6_cif.got.tgz:11457.got - 2010.04.14 03:06:53.
