data_PCOD8165634
_publ_section_title
;
Structure prediction by ZEFSAII (Michael W. Deem and Ramdas Pophale) SiO2 
 PCOD8165634
Probable space group: I 21 21 21
;
_chemical_formula_sum "Si O2"
_cell_formula_units_Z 48
_cell_length_a 9.198803
_cell_length_b 13.466055
_cell_length_c 18.023633
_cell_angle_alpha 90.000000
_cell_angle_beta 90.000000
_cell_angle_gamma 90.000000
_cell_volume 2232.616026
_symmetry_space_group_name_H-M "I 21 21 21"
_symmetry_group_IT_number 24
_symmetry_cell_setting 'orthorhombic'
loop_
_space_group_symop_operation_xyz
x,y,z
-x,1/2-y,z
x,-y,1/2-z
1/2-x,y,-z
1/2+x,1/2+y,1/2+z
1/2-x,-y,1/2+z
1/2+x,1/2-y,-z
-x,1/2+y,1/2-z
loop_
_atom_site_type_symbol
_atom_site_label
_atom_site_fract_x
_atom_site_fract_y
_atom_site_fract_z
Si Si1 0.411318 0.588094 0.491160
Si Si2 0.698215 0.400001 0.821339
Si Si3 0.978191 0.861105 0.670962
Si Si4 0.503538 0.636475 0.809059
Si Si5 0.745377 0.000000 0.750000
Si Si6 0.377959 0.057040 0.552798
Si Si7 0.500000 0.250000 0.894198
O O1 0.250000 0.547510 0.500000
O O2 0.449085 0.646331 0.416435
O O3 0.509464 0.490091 0.495064
O O4 0.432447 0.662371 0.558742
O O5 0.621943 0.421349 0.741824
O O6 0.663755 0.473103 0.888392
O O7 0.635971 0.291631 0.846030
O O8 0.869257 0.411143 0.809046
O O9 0.000000 0.750000 0.703226
O O10 0.846001 0.924954 0.703927
O O11 0.500000 0.750000 0.781438
O O12 0.353708 0.572716 0.801357
O O13 0.551370 0.642176 0.895813
O O14 0.250000 0.098895 0.500000
#
# Coordination Sequence:
#
# PCOD8165634 Si02
#       7
#     8   8   8   8   4   8   4
#     4  11  22  36  62  97 139 175 220 293 359 432
#     4  11  22  41  68  98 135 185 229 297 363 438
#     4  12  25  41  66 102 145 182 235 300 377 430
#     4  12  25  48  75 101 142 197 247 296 373 456
#     4  12  28  46  68 110 146 188 248 308 366 452
#     4  11  23  42  67  97 134 183 235 293 360 430
#     4  10  22  34  64 100 136 170 234 276 366 446
#
# _framework density 21.499442999999999
#
# number of rings (size 3 to 8) (size 9 to 14) (size 15 to 20)
#    0.000    0.667    5.000    3.000    4.667    0.000 
#    0.000    2.500    0.000    0.000    0.000    0.000 
#    0.000    0.000    0.000    0.000    0.000    0.000 
#
# Total GULP energy -297373.892619 kJ/mol
# GULP energy per Si atom -12390.578859 kJ/mol
# Density = 2.145051 g / cm^3
# Si number density = 21.499443 Si / 1000 Ang^3
#
#
#
# Elastic Constant Matrix: (Units=GPa)
#
#
# Indices 1 2 3 4 5 6 
#
# 1 150.2416 32.6261 43.9805 0.0000 0.0000 0.0000
# 2 32.6261 87.7726 23.0420 0.0000 0.0000 0.0000
# 3 43.9805 23.0420 103.1794 0.0000 0.0000 0.0000
# 4 0.0000 0.0000 0.0000 22.2813 0.0000 0.0000
# 5 0.0000 0.0000 0.0000 0.0000 38.9282 0.0000
# 6 0.0000 0.0000 0.0000 0.0000 0.0000 30.4816
#
#
#
# Elastic Compliance Matrix: (Units=1/GPa)
#
#
# Indices 1 2 3 4 5 6 
#
# 1 0.007987 -0.002204 -0.002912 0.000000 0.000000 0.000000
# 2 -0.002204 0.012711 -0.001899 0.000000 0.000000 0.000000
# 3 -0.002912 -0.001899 0.011357 0.000000 0.000000 0.000000
# 4 0.000000 0.000000 0.000000 0.044881 0.000000 0.000000
# 5 0.000000 0.000000 0.000000 0.000000 0.025688 0.000000
# 6 0.000000 0.000000 0.000000 0.000000 0.000000 0.032807
#
#
# Mechanical properties :
#
#
# Convention : Reuss Voigt Hill
#
# Bulk Modulus (GPa) = 55.48109 60.05455 57.76782
# Shear Modulus (GPa) = 32.16046 34.44122 33.30084
#
# Velocity S-wave (km/s) = 3.87185 4.00679 3.93990
# Velocity P-wave (km/s) = 6.77127 7.02848 6.90107
#
# Compressibility (1/GPa) = 0.01802416
#
# Stress axis : x y z
#
# Youngs Moduli (GPa) = 125.20089 78.67203 88.04910
#
# Poissons Ratio (x) = 0.17342 0.25642
# Poissons Ratio (y) = 0.27599 0.16720
# Poissons Ratio (z) = 0.36462 0.14940
#
# Static dielectric constant tensor:
#      x y z
#    x 4.908420 0.000000 0.000000 
#    y 0.000000 3.823320 0.000000 
#    z 0.000000 0.000000 3.945250 
# 
# 
# High freq. dielectric constant tensor:
#      x y z
#    x 1.851730 0.000000 0.000000 
#    y 0.000000 1.833560 0.000000 
#    z 0.000000 0.000000 1.842150 
# 
# From -- ./inp_files/27074.got.cif
#   From: 2010.03.12/outbox.cif.g09.slc.cpg/sg24_14_cif.got.tgz:27074.got - 2010.04.14 03:06:53.
