data_PCOD8165924
_publ_section_title
;
Structure prediction by ZEFSAII (Michael W. Deem and Ramdas Pophale) SiO2 
 PCOD8165924
Probable space group: I 21 21 21
;
_chemical_formula_sum "Si O2"
_cell_formula_units_Z 56
_cell_length_a 14.538745
_cell_length_b 14.455439
_cell_length_c 12.763585
_cell_angle_alpha 90.000000
_cell_angle_beta 90.000000
_cell_angle_gamma 90.000000
_cell_volume 2682.445331
_symmetry_space_group_name_H-M "I 21 21 21"
_symmetry_group_IT_number 24
_symmetry_cell_setting 'orthorhombic'
loop_
_space_group_symop_operation_xyz
x,y,z
-x,1/2-y,z
x,-y,1/2-z
1/2-x,y,-z
1/2+x,1/2+y,1/2+z
1/2-x,-y,1/2+z
1/2+x,1/2-y,-z
-x,1/2+y,1/2-z
loop_
_atom_site_type_symbol
_atom_site_label
_atom_site_fract_x
_atom_site_fract_y
_atom_site_fract_z
Si Si1 0.898708 0.406332 0.317242
Si Si2 0.750000 0.010077 0.000000
Si Si3 0.468618 0.038196 0.465192
Si Si4 0.305736 0.910563 0.186795
Si Si5 0.396979 0.745299 0.295617
Si Si6 0.422679 0.362297 0.995919
Si Si7 0.000000 0.250000 0.187930
Si Si8 0.361477 0.422020 0.333347
O O1 0.903715 0.500000 0.250000
O O2 0.961990 0.423153 0.418051
O O3 0.794807 0.378648 0.353865
O O4 0.937568 0.317492 0.256700
O O5 0.662473 0.071537 0.975529
O O6 0.769927 0.947099 0.898298
O O7 0.374166 0.063430 0.406936
O O8 0.552245 0.091816 0.410298
O O9 0.490785 0.926764 0.466776
O O10 0.347746 0.841660 0.273665
O O11 0.281627 0.000000 0.250000
O O12 0.500000 0.750000 0.251292
O O13 0.399735 0.716289 0.417807
O O14 0.339584 0.670891 0.228872
O O15 0.436070 0.311994 0.886350
O O16 0.389501 0.500000 0.250000
#
# Coordination Sequence:
#
# PCOD8165924 Si02
#       8
#     8   4   8   8   8   8   4   8
#     4  11  26  46  64 100 138 188 232 280 357 424
#     4  10  24  44  66 104 142 178 232 292 354 420
#     4  11  21  46  69  95 135 185 230 285 352 411
#     4  11  25  42  69 101 141 181 229 299 343 419
#     4  12  22  41  71 108 135 174 239 294 353 408
#     4  11  24  43  75 104 132 190 239 291 350 412
#     4  12  26  46  70  98 144 184 240 288 354 428
#     4  11  22  43  69 103 141 176 233 288 358 413
#
# _framework density 20.876474999999999
#
# number of rings (size 3 to 8) (size 9 to 14) (size 15 to 20)
#    0.000    0.857    6.429    1.714    2.000    1.143 
#   12.857    0.000    0.000    0.000    0.000    0.000 
#    0.000    0.000    0.000    0.000    0.000    0.000 
#
# Total GULP energy -347142.427240 kJ/mol
# GULP energy per Si atom -12397.943830 kJ/mol
# Density = 2.082896 g / cm^3
# Si number density = 20.876475 Si / 1000 Ang^3
#
#
#
# Elastic Constant Matrix: (Units=GPa)
#
#
# Indices 1 2 3 4 5 6 
#
# 1 114.9893 50.5972 55.3289 0.0000 0.0000 0.0000
# 2 50.5972 106.0173 42.9000 0.0000 0.0000 0.0000
# 3 55.3289 42.9000 130.4074 0.0000 0.0000 0.0000
# 4 0.0000 0.0000 0.0000 -18.7417 0.0000 0.0000
# 5 0.0000 0.0000 0.0000 0.0000 61.9631 0.0000
# 6 0.0000 0.0000 0.0000 0.0000 0.0000 -60.6143
#
#
#
# Elastic Compliance Matrix: (Units=1/GPa)
#
#
# Indices 1 2 3 4 5 6 
#
# 1 0.012485 -0.004401 -0.003849 0.000000 0.000000 0.000000
# 2 -0.004401 0.012432 -0.002223 0.000000 0.000000 0.000000
# 3 -0.003849 -0.002223 0.010033 0.000000 0.000000 0.000000
# 4 0.000000 0.000000 0.000000 -0.053357 0.000000 0.000000
# 5 0.000000 0.000000 0.000000 0.000000 0.016139 0.000000
# 6 0.000000 0.000000 0.000000 0.000000 0.000000 -0.016498
#
#
# Mechanical properties :
#
#
# Convention : Reuss Voigt Hill
#
# Bulk Modulus (GPa) = 71.40744 72.11846 71.76295
# Shear Modulus (GPa) = 730.16439 10.02729 370.09584
#
# Velocity S-wave (km/s) = 18.72202 2.19399 13.32906
# Velocity P-wave (km/s) = 22.39712 6.40612 16.47224
#
# Compressibility (1/GPa) = 0.01400414
#
# Stress axis : x y z
#
# Youngs Moduli (GPa) = 80.09531 80.43665 99.67463
#
# Poissons Ratio (x) = 0.35399 0.38369
# Poissons Ratio (y) = 0.35249 0.22153
# Poissons Ratio (z) = 0.30832 0.17878
#
# Static dielectric constant tensor:
#      x y z
#    x 3.894740 0.000000 0.000000 
#    y 0.000000 3.749210 0.000000 
#    z 0.000000 0.000000 4.399100 
# 
# 
# High freq. dielectric constant tensor:
#      x y z
#    x 1.815020 0.000000 0.000000 
#    y 0.000000 1.821400 0.000000 
#    z 0.000000 0.000000 1.821250 
# 
# From -- ./inp_files/20911.got.cif
#   From: 2010.03.12/outbox.cif.g09.slc.cpg/sg24_11_cif.got.tgz:20911.got - 2010.04.14 03:06:53.
