data_PCOD8165960
_publ_section_title
;
Structure prediction by ZEFSAII (Michael W. Deem and Ramdas Pophale) SiO2 
 PCOD8165960
Probable space group: I 21 21 21
;
_chemical_formula_sum "Si O2"
_cell_formula_units_Z 60
_cell_length_a 25.674485
_cell_length_b 5.965899
_cell_length_c 18.473792
_cell_angle_alpha 90.000000
_cell_angle_beta 90.000000
_cell_angle_gamma 90.000000
_cell_volume 2829.656296
_symmetry_space_group_name_H-M "I 21 21 21"
_symmetry_group_IT_number 24
_symmetry_cell_setting 'orthorhombic'
loop_
_space_group_symop_operation_xyz
x,y,z
-x,1/2-y,z
x,-y,1/2-z
1/2-x,y,-z
1/2+x,1/2+y,1/2+z
1/2-x,-y,1/2+z
1/2+x,1/2-y,-z
-x,1/2+y,1/2-z
loop_
_atom_site_type_symbol
_atom_site_label
_atom_site_fract_x
_atom_site_fract_y
_atom_site_fract_z
Si Si1 0.373358 0.847753 0.064313
Si Si2 0.057028 0.794391 0.365229
Si Si3 0.130264 0.000000 0.250000
Si Si4 0.971772 0.501353 0.993944
Si Si5 0.133009 0.494101 0.443042
Si Si6 0.698237 0.271107 0.046758
Si Si7 0.202026 0.658014 0.182036
Si Si8 0.684891 0.930630 0.170291
O O1 0.365431 0.685166 0.133342
O O2 0.426349 0.994771 0.068320
O O3 0.318489 0.977589 0.064906
O O4 0.379801 0.727656 0.987246
O O5 0.052430 0.992715 0.424891
O O6 0.080011 0.570914 0.403570
O O7 0.000000 0.750000 0.332488
O O8 0.094057 0.842373 0.297913
O O9 0.167134 0.123134 0.307227
O O10 0.000000 0.250000 0.983597
O O11 0.000000 0.750000 0.985508
O O12 0.150130 0.680625 0.500145
O O13 0.181677 0.462424 0.389767
O O14 0.704021 0.141418 0.122519
O O15 0.750000 0.265409 0.000000
O O16 0.193183 0.500000 0.250000
O O17 0.263044 0.723778 0.175441
O O18 0.666012 0.000000 0.250000
#
# Coordination Sequence:
#
# PCOD8165960 Si02
#       8
#     8   8   4   8   8   8   8   8
#     4  11  24  39  71 100 132 173 228 295 350 429
#     4  11  24  42  64  94 135 184 245 299 347 412
#     4  12  26  38  62  92 128 196 246 286 338 414
#     4  11  24  44  72 107 140 180 235 306 370 423
#     4  11  22  42  60  91 134 176 233 293 357 398
#     4  11  23  39  67 100 130 173 231 287 341 425
#     4  11  23  40  60  86 136 187 228 287 341 418
#     4  10  25  43  64  98 140 181 217 276 359 435
#
# _framework density 21.203990000000001
#
# number of rings (size 3 to 8) (size 9 to 14) (size 15 to 20)
#    0.000    1.067    4.000    2.400    3.733    4.267 
#    0.000    0.000    0.000    0.000    3.467    0.000 
#    0.000    0.000    0.000    0.000    0.000    0.000 
#
# Total GULP energy -371656.385455 kJ/mol
# GULP energy per Si atom -12388.546182 kJ/mol
# Density = 2.115573 g / cm^3
# Si number density = 21.203990 Si / 1000 Ang^3
#
#
#
# Elastic Constant Matrix: (Units=GPa)
#
#
# Indices 1 2 3 4 5 6 
#
# 1 99.4219 41.9325 47.0205 0.0000 0.0000 0.0000
# 2 41.9325 97.9441 37.8165 0.0000 0.0000 0.0000
# 3 47.0205 37.8165 121.3025 0.0000 0.0000 0.0000
# 4 0.0000 0.0000 0.0000 14.7220 0.0000 0.0000
# 5 0.0000 0.0000 0.0000 0.0000 32.0884 0.0000
# 6 0.0000 0.0000 0.0000 0.0000 0.0000 27.5036
#
#
#
# Elastic Compliance Matrix: (Units=1/GPa)
#
#
# Indices 1 2 3 4 5 6 
#
# 1 0.013781 -0.004363 -0.003982 0.000000 0.000000 0.000000
# 2 -0.004363 0.012988 -0.002358 0.000000 0.000000 0.000000
# 3 -0.003982 -0.002358 0.010523 0.000000 0.000000 0.000000
# 4 0.000000 0.000000 0.000000 0.067926 0.000000 0.000000
# 5 0.000000 0.000000 0.000000 0.000000 0.031164 0.000000
# 6 0.000000 0.000000 0.000000 0.000000 0.000000 0.036359
#
#
# Mechanical properties :
#
#
# Convention : Reuss Voigt Hill
#
# Bulk Modulus (GPa) = 62.94593 63.57861 63.26227
# Shear Modulus (GPa) = 25.06999 27.65604 26.36302
#
# Velocity S-wave (km/s) = 3.44222 3.61541 3.52988
# Velocity P-wave (km/s) = 6.74899 6.89040 6.82006
#
# Compressibility (1/GPa) = 0.01588665
#
# Stress axis : x y z
#
# Youngs Moduli (GPa) = 72.56140 76.99332 95.03437
#
# Poissons Ratio (x) = 0.33590 0.37843
# Poissons Ratio (y) = 0.31657 0.22409
# Poissons Ratio (z) = 0.28894 0.18155
#
# Static dielectric constant tensor:
#      x y z
#    x 3.967630 0.000000 0.000000 
#    y 0.000000 3.973360 0.000000 
#    z 0.000000 0.000000 3.795780 
# 
# 
# High freq. dielectric constant tensor:
#      x y z
#    x 1.837300 0.000000 0.000000 
#    y 0.000000 1.829650 0.000000 
#    z 0.000000 0.000000 1.817090 
# 
# From -- ./inp_files/31680.got.cif
#   From: 2010.03.12/outbox.cif.g09.slc.cpg/sg24_16_cif.got.tgz:31680.got - 2010.04.14 03:06:53.
