data_PCOD8165997
_publ_section_title
;
Structure prediction by ZEFSAII (Michael W. Deem and Ramdas Pophale) SiO2 
 PCOD8165997
Probable space group: I 21 21 21
;
_chemical_formula_sum "Si O2"
_cell_formula_units_Z 48
_cell_length_a 7.776753
_cell_length_b 21.464134
_cell_length_c 17.443051
_cell_angle_alpha 90.000000
_cell_angle_beta 90.000000
_cell_angle_gamma 90.000000
_cell_volume 2911.616199
_symmetry_space_group_name_H-M "I 21 21 21"
_symmetry_group_IT_number 24
_symmetry_cell_setting 'orthorhombic'
loop_
_space_group_symop_operation_xyz
x,y,z
-x,1/2-y,z
x,-y,1/2-z
1/2-x,y,-z
1/2+x,1/2+y,1/2+z
1/2-x,-y,1/2+z
1/2+x,1/2-y,-z
-x,1/2+y,1/2-z
loop_
_atom_site_type_symbol
_atom_site_label
_atom_site_fract_x
_atom_site_fract_y
_atom_site_fract_z
Si Si1 0.710685 0.995029 0.914426
Si Si2 0.438659 0.679865 0.468176
Si Si3 0.122393 0.075225 0.059786
Si Si4 0.389192 0.399664 0.174570
Si Si5 0.239324 0.929397 0.725346
Si Si6 0.093434 0.571445 0.221121
O O1 0.669510 0.932534 0.865127
O O2 0.540758 0.036057 0.916700
O O3 0.864096 0.037159 0.877471
O O4 0.750000 0.972415 0.000000
O O5 0.500000 0.750000 0.470911
O O6 0.250000 0.670813 0.500000
O O7 0.568762 0.640257 0.520424
O O8 0.430854 0.658001 0.380133
O O9 0.229454 0.085668 0.136445
O O10 0.250000 0.040055 0.000000
O O11 0.545464 0.404255 0.236821
O O12 0.217333 0.387567 0.224575
O O13 0.399110 0.899586 0.774323
O O14 0.234238 0.000000 0.750000
O O15 0.092292 0.500000 0.250000
#
# Coordination Sequence:
#
# PCOD8165997 Si02
#       6
#     8   8   8   8   8   8
#     4  11  17  32  47  69 100 130 164 206 250 303
#     4  12  23  35  48  67  97 136 179 216 247 285
#     4  12  19  31  47  70  96 131 170 214 242 290
#     4  11  19  32  49  65  92 131 167 209 247 293
#     4  11  18  29  48  69  92 123 170 202 249 300
#     4   9  18  30  46  67  93 123 164 202 245 302
#
# _framework density 16.485688
#
# number of rings (size 3 to 8) (size 9 to 14) (size 15 to 20)
#    0.000    1.000   10.000    2.000    0.000    0.000 
#    0.000    0.000    0.000    0.000    0.000    0.000 
#    0.000    0.000    5.667    0.000    0.000    0.000 
#
# Total GULP energy -297325.803700 kJ/mol
# GULP energy per Si atom -12388.575154 kJ/mol
# Density = 1.644817 g / cm^3
# Si number density = 16.485688 Si / 1000 Ang^3
#
#
#
# Elastic Constant Matrix: (Units=GPa)
#
#
# Indices 1 2 3 4 5 6 
#
# 1 95.5426 8.6951 14.8417 0.0000 0.0000 0.0000
# 2 8.6951 32.8367 17.9257 0.0000 0.0000 0.0000
# 3 14.8417 17.9257 74.3712 0.0000 0.0000 0.0000
# 4 0.0000 0.0000 0.0000 16.0094 0.0000 0.0000
# 5 0.0000 0.0000 0.0000 0.0000 32.2259 0.0000
# 6 0.0000 0.0000 0.0000 0.0000 0.0000 17.6507
#
#
#
# Elastic Compliance Matrix: (Units=1/GPa)
#
#
# Indices 1 2 3 4 5 6 
#
# 1 0.010910 -0.001958 -0.001705 0.000000 0.000000 0.000000
# 2 -0.001958 0.035419 -0.008146 0.000000 0.000000 0.000000
# 3 -0.001705 -0.008146 0.015750 0.000000 0.000000 0.000000
# 4 0.000000 0.000000 0.000000 0.062463 0.000000 0.000000
# 5 0.000000 0.000000 0.000000 0.000000 0.031031 0.000000
# 6 0.000000 0.000000 0.000000 0.000000 0.000000 0.056655
#
#
# Mechanical properties :
#
#
# Convention : Reuss Voigt Hill
#
# Bulk Modulus (GPa) = 26.00125 31.74172 28.87149
# Shear Modulus (GPa) = 20.10720 23.92973 22.01846
#
# Velocity S-wave (km/s) = 3.49617 3.81405 3.65857
# Velocity P-wave (km/s) = 5.66603 6.22028 5.94961
#
# Compressibility (1/GPa) = 0.03845969
#
# Stress axis : x y z
#
# Youngs Moduli (GPa) = 91.66228 28.23317 63.49247
#
# Poissons Ratio (x) = 0.05528 0.10827
# Poissons Ratio (y) = 0.17947 0.51723
# Poissons Ratio (z) = 0.15630 0.23000
#
# Static dielectric constant tensor:
#      x y z
#    x 3.824540 0.000000 0.000000 
#    y 0.000000 2.468630 0.000000 
#    z 0.000000 0.000000 3.080020 
# 
# 
# High freq. dielectric constant tensor:
#      x y z
#    x 1.671430 0.000000 0.000000 
#    y 0.000000 1.551110 0.000000 
#    z 0.000000 0.000000 1.632720 
# 
# From -- ./inp_files/29717.got.cif
#   From: 2010.03.12/outbox.cif.g09.slc.cpg/sg24_15_cif.got.tgz:29717.got - 2010.04.14 03:06:53.
