data_PCOD8165409
_publ_section_title
;
Structure prediction by ZEFSAII (Michael W. Deem and Ramdas Pophale) SiO2 
 PCOD8165409
Probable space group: I 21 21 21
;
_chemical_formula_sum "Si O2"
_cell_formula_units_Z 48
_cell_length_a 14.186526
_cell_length_b 11.222489
_cell_length_c 15.256056
_cell_angle_alpha 90.000000
_cell_angle_beta 90.000000
_cell_angle_gamma 90.000000
_cell_volume 2428.888177
_symmetry_space_group_name_H-M "I 21 21 21"
_symmetry_group_IT_number 24
_symmetry_cell_setting 'orthorhombic'
loop_
_space_group_symop_operation_xyz
x,y,z
-x,1/2-y,z
x,-y,1/2-z
1/2-x,y,-z
1/2+x,1/2+y,1/2+z
1/2-x,-y,1/2+z
1/2+x,1/2-y,-z
-x,1/2+y,1/2-z
loop_
_atom_site_type_symbol
_atom_site_label
_atom_site_fract_x
_atom_site_fract_y
_atom_site_fract_z
Si Si1 0.148706 0.486739 0.543236
Si Si2 0.109149 0.736010 0.853538
Si Si3 0.201380 0.822250 0.407681
Si Si4 0.147909 0.003232 0.649486
Si Si5 0.274659 0.385066 0.202084
Si Si6 0.524603 0.619822 0.492257
O O1 0.250000 0.489031 0.500000
O O2 0.119612 0.351291 0.563512
O O3 0.151377 0.563713 0.631975
O O4 0.069995 0.547239 0.479907
O O5 0.157595 0.860305 0.881388
O O6 0.164377 0.689605 0.769549
O O7 0.000000 0.750000 0.828610
O O8 0.250000 0.786122 0.500000
O O9 0.200819 0.705554 0.344765
O O10 0.095249 0.868514 0.424828
O O11 0.254338 0.933017 0.362787
O O12 0.114842 0.000000 0.750000
O O13 0.067419 0.945216 0.591284
O O14 0.224302 0.500000 0.250000
O O15 0.500000 0.750000 0.458263
#
# Coordination Sequence:
#
# PCOD8165409 Si02
#       6
#     8   8   8   8   8   8
#     4  11  23  39  59  91 125 165 201 252 313 367
#     4  11  23  37  60  95 125 158 197 262 322 368
#     4  10  21  38  60  90 126 165 202 247 306 382
#     4  11  22  37  62  91 127 155 203 254 317 373
#     4  10  21  36  60  92 125 157 199 256 318 365
#     4  11  23  37  62  91 120 162 210 252 300 371
#
# _framework density 19.762127
#
# number of rings (size 3 to 8) (size 9 to 14) (size 15 to 20)
#    0.000    1.333    3.333    3.500    2.333    2.000 
#    0.000    0.000    0.000    8.000    0.000    0.000 
#    0.000    0.000    0.000    0.000    0.000    0.000 
#
# Total GULP energy -297545.124151 kJ/mol
# GULP energy per Si atom -12397.713506 kJ/mol
# Density = 1.971715 g / cm^3
# Si number density = 19.762127 Si / 1000 Ang^3
#
#
#
# Elastic Constant Matrix: (Units=GPa)
#
#
# Indices 1 2 3 4 5 6 
#
# 1 124.2327 64.7560 51.0667 0.0000 0.0000 0.0000
# 2 64.7560 180.7841 53.7715 0.0000 0.0000 0.0000
# 3 51.0667 53.7715 71.2247 0.0000 0.0000 0.0000
# 4 0.0000 0.0000 0.0000 31.3115 0.0000 0.0000
# 5 0.0000 0.0000 0.0000 0.0000 24.5600 0.0000
# 6 0.0000 0.0000 0.0000 0.0000 0.0000 24.9664
#
#
#
# Elastic Compliance Matrix: (Units=1/GPa)
#
#
# Indices 1 2 3 4 5 6 
#
# 1 0.012089 -0.002260 -0.006962 0.000000 0.000000 0.000000
# 2 -0.002260 0.007556 -0.004084 0.000000 0.000000 0.000000
# 3 -0.006962 -0.004084 0.022115 0.000000 0.000000 0.000000
# 4 0.000000 0.000000 0.000000 0.031937 0.000000 0.000000
# 5 0.000000 0.000000 0.000000 0.000000 0.040717 0.000000
# 6 0.000000 0.000000 0.000000 0.000000 0.000000 0.040054
#
#
# Mechanical properties :
#
#
# Convention : Reuss Voigt Hill
#
# Bulk Modulus (GPa) = 66.01240 79.49222 72.75231
# Shear Modulus (GPa) = 26.86341 29.94404 28.40372
#
# Velocity S-wave (km/s) = 3.69092 3.89681 3.79526
# Velocity P-wave (km/s) = 7.18609 7.78195 7.48994
#
# Compressibility (1/GPa) = 0.01514867
#
# Stress axis : x y z
#
# Youngs Moduli (GPa) = 82.72117 132.35288 45.21874
#
# Poissons Ratio (x) = 0.29905 0.31479
# Poissons Ratio (y) = 0.18691 0.18468
# Poissons Ratio (z) = 0.57587 0.54054
#
# Static dielectric constant tensor:
#      x y z
#    x 3.538620 0.000000 0.000000 
#    y 0.000000 4.120760 0.000000 
#    z 0.000000 0.000000 3.510190 
# 
# 
# High freq. dielectric constant tensor:
#      x y z
#    x 1.751530 0.000000 0.000000 
#    y 0.000000 1.798010 0.000000 
#    z 0.000000 0.000000 1.745600 
# 
# From -- ./inp_files/26438.got.cif
#   From: 2010.03.12/outbox.cif.g09.slc.cpg/sg24_14_cif.got.tgz:26438.got - 2010.04.14 03:06:53.
