data_PCOD8165346
_publ_section_title
;
Structure prediction by ZEFSAII (Michael W. Deem and Ramdas Pophale) SiO2 
 PCOD8165346
Probable space group: I 21 21 21
;
_chemical_formula_sum "Si O2"
_cell_formula_units_Z 64
_cell_length_a 11.902230
_cell_length_b 10.420474
_cell_length_c 26.718209
_cell_angle_alpha 90.000000
_cell_angle_beta 90.000000
_cell_angle_gamma 90.000000
_cell_volume 3313.776055
_symmetry_space_group_name_H-M "I 21 21 21"
_symmetry_group_IT_number 24
_symmetry_cell_setting 'orthorhombic'
loop_
_space_group_symop_operation_xyz
x,y,z
-x,1/2-y,z
x,-y,1/2-z
1/2-x,y,-z
1/2+x,1/2+y,1/2+z
1/2-x,-y,1/2+z
1/2+x,1/2-y,-z
-x,1/2+y,1/2-z
loop_
_atom_site_type_symbol
_atom_site_label
_atom_site_fract_x
_atom_site_fract_y
_atom_site_fract_z
Si Si1 0.167063 0.483901 0.620823
Si Si2 0.133347 0.907039 0.109470
Si Si3 0.782109 0.499461 0.691759
Si Si4 0.872618 0.731398 0.635979
Si Si5 0.015077 0.395171 0.706604
Si Si6 0.476781 0.396668 0.470781
Si Si7 0.896823 0.886632 0.080691
Si Si8 0.313783 0.937297 0.453876
O O1 0.182311 0.630410 0.636170
O O2 0.117350 0.401522 0.667185
O O3 0.087125 0.467878 0.573493
O O4 0.291397 0.447034 0.607094
O O5 0.117255 0.763397 0.090537
O O6 0.222798 0.981080 0.076176
O O7 0.005238 0.957713 0.105523
O O8 0.178875 0.923509 0.166042
O O9 0.755565 0.500000 0.750000
O O10 0.797699 0.645992 0.673526
O O11 0.899287 0.429169 0.678071
O O12 0.871960 0.669331 0.580591
O O13 0.000000 0.750000 0.654925
O O14 0.035938 0.500000 0.750000
O O15 0.000000 0.250000 0.728020
O O16 0.500000 0.250000 0.455876
O O17 0.402367 0.406752 0.520926
O O18 0.595411 0.466798 0.477890
O O19 0.250000 0.867994 0.500000
#
# Coordination Sequence:
#
# PCOD8165346 Si02
#       8
#     8   8   8   8   8   8   8   8
#     4  12  24  39  60  92 132 158 215 252 328 369
#     4  10  20  41  60  89 123 158 210 257 317 369
#     4  10  22  39  71  89 118 162 217 256 329 379
#     4  11  22  42  58  90 126 167 196 270 312 386
#     4  11  24  40  66  98 124 159 207 266 331 384
#     4  12  21  36  62  91 122 164 212 263 314 377
#     4  11  22  38  61  88 128 166 201 260 313 375
#     4  11  20  36  60  85 119 163 213 250 310 374
#
# _framework density 19.313313999999998
#
# number of rings (size 3 to 8) (size 9 to 14) (size 15 to 20)
#    0.000    1.000    5.000    3.000    3.500    1.000 
#    0.000    3.125    2.750    0.000    0.000    0.000 
#    0.000    0.000    0.000    0.000    0.000    0.000 
#
# Total GULP energy -396702.572174 kJ/mol
# GULP energy per Si atom -12396.955380 kJ/mol
# Density = 1.926936 g / cm^3
# Si number density = 19.313314 Si / 1000 Ang^3
#
#
#
# Elastic Constant Matrix: (Units=GPa)
#
#
# Indices 1 2 3 4 5 6 
#
# 1 105.8639 17.3092 38.8492 0.0000 0.0000 0.0000
# 2 17.3092 83.4239 34.2760 0.0000 0.0000 0.0000
# 3 38.8492 34.2760 123.4438 0.0000 0.0000 0.0000
# 4 0.0000 0.0000 0.0000 24.1166 0.0000 0.0000
# 5 0.0000 0.0000 0.0000 0.0000 36.1839 0.0000
# 6 0.0000 0.0000 0.0000 0.0000 0.0000 22.9514
#
#
#
# Elastic Compliance Matrix: (Units=1/GPa)
#
#
# Indices 1 2 3 4 5 6 
#
# 1 0.010746 -0.000948 -0.003118 0.000000 0.000000 0.000000
# 2 -0.000948 0.013614 -0.003482 0.000000 0.000000 0.000000
# 3 -0.003118 -0.003482 0.010049 0.000000 0.000000 0.000000
# 4 0.000000 0.000000 0.000000 0.041465 0.000000 0.000000
# 5 0.000000 0.000000 0.000000 0.000000 0.027637 0.000000
# 6 0.000000 0.000000 0.000000 0.000000 0.000000 0.043570
#
#
# Mechanical properties :
#
#
# Convention : Reuss Voigt Hill
#
# Bulk Modulus (GPa) = 51.78170 54.84450 53.31310
# Shear Modulus (GPa) = 29.65331 31.47019 30.56175
#
# Velocity S-wave (km/s) = 3.92265 4.04103 3.98228
# Velocity P-wave (km/s) = 6.88373 7.08746 6.98634
#
# Compressibility (1/GPa) = 0.01931184
#
# Stress axis : x y z
#
# Youngs Moduli (GPa) = 93.06205 73.45239 99.51216
#
# Poissons Ratio (x) = 0.06965 0.31032
# Poissons Ratio (y) = 0.08825 0.34648
# Poissons Ratio (z) = 0.29021 0.25574
#
# Static dielectric constant tensor:
#      x y z
#    x 3.159860 0.000000 0.000000 
#    y 0.000000 3.351070 0.000000 
#    z 0.000000 0.000000 3.647560 
# 
# 
# High freq. dielectric constant tensor:
#      x y z
#    x 1.750590 0.000000 0.000000 
#    y 0.000000 1.748020 0.000000 
#    z 0.000000 0.000000 1.755140 
# 
# From -- ./inp_files/38617.got.cif
#   From: 2010.03.12/outbox.cif.g09.slc.cpg/sg24_20_cif.got.tgz:38617.got - 2010.04.14 03:06:53.
