data_PCOD8165593
_publ_section_title
;
Structure prediction by ZEFSAII (Michael W. Deem and Ramdas Pophale) SiO2 
 PCOD8165593
Probable space group: I 21 21 21
;
_chemical_formula_sum "Si O2"
_cell_formula_units_Z 36
_cell_length_a 10.798399
_cell_length_b 18.599791
_cell_length_c 7.691139
_cell_angle_alpha 90.000000
_cell_angle_beta 90.000000
_cell_angle_gamma 90.000000
_cell_volume 1544.749613
_symmetry_space_group_name_H-M "I 21 21 21"
_symmetry_group_IT_number 24
_symmetry_cell_setting 'orthorhombic'
loop_
_space_group_symop_operation_xyz
x,y,z
-x,1/2-y,z
x,-y,1/2-z
1/2-x,y,-z
1/2+x,1/2+y,1/2+z
1/2-x,-y,1/2+z
1/2+x,1/2-y,-z
-x,1/2+y,1/2-z
loop_
_atom_site_type_symbol
_atom_site_label
_atom_site_fract_x
_atom_site_fract_y
_atom_site_fract_z
Si Si1 0.939537 0.676942 0.697980
Si Si2 0.688246 0.720516 0.811696
Si Si3 0.123980 0.646013 0.395875
Si Si4 0.106352 0.088615 0.481527
Si Si5 0.050959 0.500000 0.250000
O O1 0.793978 0.695115 0.674312
O O2 0.997516 0.846314 0.517014
O O3 0.000000 0.750000 0.771959
O O4 0.955322 0.612668 0.836665
O O5 0.616888 0.790513 0.746052
O O6 0.593037 0.653566 0.839222
O O7 0.750000 0.735475 0.000000
O O8 0.250000 0.655451 0.500000
O O9 0.132926 0.568692 0.301795
O O10 0.250000 0.067774 0.500000
O O11 0.034158 0.019078 0.415411
#
# Coordination Sequence:
#
# PCOD8165593 Si02
#       5
#     8   8   8   8   4
#     4  10  21  42  71  99 126 171 225 293 332 378
#     4   9  22  44  73 100 129 173 232 292 332 387
#     4  12  27  42  66 101 138 178 225 276 336 417
#     4   9  24  46  68 100 129 179 226 285 338 395
#     4  12  30  40  64  98 142 188 210 264 350 428
#
# _framework density 23.304746999999999
#
# number of rings (size 3 to 8) (size 9 to 14) (size 15 to 20)
#    0.000    2.222    2.222    0.000    9.333    7.111 
#    0.000    0.000    0.000    0.000    0.000    0.000 
#    0.000    0.000    0.000    0.000    0.000    0.000 
#
# Total GULP energy -223153.766120 kJ/mol
# GULP energy per Si atom -12397.431451 kJ/mol
# Density = 2.325170 g / cm^3
# Si number density = 23.304747 Si / 1000 Ang^3
#
#
#
# Elastic Constant Matrix: (Units=GPa)
#
#
# Indices 1 2 3 4 5 6 
#
# 1 44.1381 14.3858 21.6602 0.0000 0.0000 -0.0002
# 2 14.3858 110.0226 25.5884 0.0003 0.0000 -0.0002
# 3 21.6602 25.5884 87.1779 0.0025 -0.0009 -0.0001
# 4 0.0000 0.0003 0.0025 46.6977 -0.0003 0.0001
# 5 0.0000 0.0000 -0.0009 -0.0003 30.2737 -0.0002
# 6 -0.0002 -0.0002 -0.0001 0.0001 -0.0002 31.5449
#
#
#
# Elastic Compliance Matrix: (Units=1/GPa)
#
#
# Indices 1 2 3 4 5 6 
#
# 1 0.026228 -0.002054 -0.005914 0.000000 0.000000 0.000000
# 2 -0.002054 0.009916 -0.002400 0.000000 0.000000 0.000000
# 3 -0.005914 -0.002400 0.013645 -0.000001 0.000000 0.000000
# 4 0.000000 0.000000 -0.000001 0.021414 0.000000 0.000000
# 5 0.000000 0.000000 0.000000 0.000000 0.033032 0.000000
# 6 0.000000 0.000000 0.000000 0.000000 0.000000 0.031701
#
#
# Mechanical properties :
#
#
# Convention : Reuss Voigt Hill
#
# Bulk Modulus (GPa) = 34.42041 40.51193 37.46617
# Shear Modulus (GPa) = 30.05620 33.68353 31.86987
#
# Velocity S-wave (km/s) = 3.59514 3.80590 3.70202
# Velocity P-wave (km/s) = 5.65996 6.06090 5.86386
#
# Compressibility (1/GPa) = 0.02905253
#
# Stress axis : x y z
#
# Youngs Moduli (GPa) = 38.12766 100.84890 73.28908
#
# Poissons Ratio (x) = 0.20714 0.43341
# Poissons Ratio (y) = 0.07831 0.17591
# Poissons Ratio (z) = 0.22547 0.24205
#
# Static dielectric constant tensor:
#      x y z
#    x 4.161990 0.000000 0.000000 
#    y 0.000000 4.155610 0.000000 
#    z 0.000000 0.000000 4.070370 
# 
# 
# High freq. dielectric constant tensor:
#      x y z
#    x 1.922230 0.000000 0.000000 
#    y 0.000000 1.916450 0.000000 
#    z 0.000000 0.000000 1.921860 
# 
# From -- ./inp_files/12189.got.cif
#   From: 2010.03.12/outbox.cif.g09.slc.cpg/sg24_7_cif.got.tgz:12189.got - 2010.04.14 03:06:53.
