data_PCOD8165242
_publ_section_title
;
Structure prediction by ZEFSAII (Michael W. Deem and Ramdas Pophale) SiO2 
 PCOD8165242
Probable space group: I 21 21 21
;
_chemical_formula_sum "Si O2"
_cell_formula_units_Z 56
_cell_length_a 15.198712
_cell_length_b 8.050795
_cell_length_c 21.736617
_cell_angle_alpha 90.000000
_cell_angle_beta 90.000000
_cell_angle_gamma 90.000000
_cell_volume 2659.729725
_symmetry_space_group_name_H-M "I 21 21 21"
_symmetry_group_IT_number 24
_symmetry_cell_setting 'orthorhombic'
loop_
_space_group_symop_operation_xyz
x,y,z
-x,1/2-y,z
x,-y,1/2-z
1/2-x,y,-z
1/2+x,1/2+y,1/2+z
1/2-x,-y,1/2+z
1/2+x,1/2-y,-z
-x,1/2+y,1/2-z
loop_
_atom_site_type_symbol
_atom_site_label
_atom_site_fract_x
_atom_site_fract_y
_atom_site_fract_z
Si Si1 0.520730 0.431421 0.485592
Si Si2 0.426061 0.868907 0.206688
Si Si3 0.821042 0.588420 0.903173
Si Si4 0.698800 0.150496 0.208339
Si Si5 0.250000 0.611570 0.500000
Si Si6 0.684770 0.680225 0.613720
Si Si7 0.366073 0.545555 0.094547
Si Si8 0.500000 0.250000 0.930841
O O1 0.500000 0.250000 0.517153
O O2 0.624881 0.448892 0.466806
O O3 0.469154 0.432056 0.420136
O O4 0.488464 0.585566 0.527085
O O5 0.500000 0.750000 0.176985
O O6 0.376338 0.978737 0.155207
O O7 0.357943 0.767185 0.248309
O O8 0.476704 0.000000 0.250000
O O9 0.724396 0.504349 0.900736
O O10 0.815413 0.784558 0.888336
O O11 0.780741 0.250793 0.178924
O O12 0.735945 0.000000 0.250000
O O13 0.642336 0.083671 0.150080
O O14 0.286513 0.715204 0.555733
O O15 0.327800 0.503328 0.471947
O O16 0.579563 0.697894 0.614589
#
# Coordination Sequence:
#
# PCOD8165242 Si02
#       8
#     8   8   8   8   4   8   8   4
#     4  10  23  39  63 100 141 174 222 276 345 413
#     4  12  24  38  61  97 138 178 215 260 328 411
#     4  11  23  39  61  97 135 168 218 274 334 409
#     4  11  23  40  65  91 136 178 219 271 332 406
#     4  10  20  38  60  92 122 170 214 270 338 396
#     4  11  24  42  65  95 126 178 231 278 346 396
#     4  10  21  38  62  95 132 175 217 269 335 404
#     4  12  24  46  72  90 138 178 236 298 344 402
#
# _framework density 21.054772
#
# number of rings (size 3 to 8) (size 9 to 14) (size 15 to 20)
#    0.000    1.143    4.286    2.571    4.000    2.857 
#    0.000    0.000    3.143    0.000    0.000    0.000 
#    0.000    0.000    0.000    0.000    0.000    0.000 
#
# Total GULP energy -346874.886790 kJ/mol
# GULP energy per Si atom -12388.388814 kJ/mol
# Density = 2.100685 g / cm^3
# Si number density = 21.054772 Si / 1000 Ang^3
#
#
#
# Elastic Constant Matrix: (Units=GPa)
#
#
# Indices 1 2 3 4 5 6 
#
# 1 115.3049 32.0916 22.9820 0.0000 0.0000 0.0000
# 2 32.0916 89.0982 12.6447 0.0000 0.0000 0.0000
# 3 22.9820 12.6447 70.4409 0.0000 0.0000 0.0000
# 4 0.0000 0.0000 0.0000 22.2527 0.0000 0.0000
# 5 0.0000 0.0000 0.0000 0.0000 1.1558 0.0000
# 6 0.0000 0.0000 0.0000 0.0000 0.0000 39.6270
#
#
#
# Elastic Compliance Matrix: (Units=1/GPa)
#
#
# Indices 1 2 3 4 5 6 
#
# 1 0.010122 -0.003260 -0.002717 0.000000 0.000000 0.000000
# 2 -0.003260 0.012567 -0.001192 0.000000 0.000000 0.000000
# 3 -0.002717 -0.001192 0.015297 0.000000 0.000000 0.000000
# 4 0.000000 0.000000 0.000000 0.044938 0.000000 0.000000
# 5 0.000000 0.000000 0.000000 0.000000 0.865205 0.000000
# 6 0.000000 0.000000 0.000000 0.000000 0.000000 0.025235
#
#
# Mechanical properties :
#
#
# Convention : Reuss Voigt Hill
#
# Bulk Modulus (GPa) = 42.28926 45.58672 43.93799
# Shear Modulus (GPa) = 5.02217 26.41549 15.71883
#
# Velocity S-wave (km/s) = 1.54611 3.54589 2.73530
# Velocity P-wave (km/s) = 4.82869 6.20185 5.55784
#
# Compressibility (1/GPa) = 0.02364667
#
# Stress axis : x y z
#
# Youngs Moduli (GPa) = 98.79937 79.57370 65.37324
#
# Poissons Ratio (x) = 0.25941 0.17762
# Poissons Ratio (y) = 0.32209 0.07794
# Poissons Ratio (z) = 0.26844 0.09487
#
# Static dielectric constant tensor:
#      x y z
#    x 3.781710 0.000000 0.000000 
#    y 0.000000 4.080510 0.000000 
#    z 0.000000 0.000000 2.864770 
# 
# 
# High freq. dielectric constant tensor:
#      x y z
#    x 1.800090 0.000000 0.000000 
#    y 0.000000 1.837420 0.000000 
#    z 0.000000 0.000000 1.818100 
# 
# From -- ./inp_files/33795.got.cif
#   From: 2010.03.12/outbox.cif.g09.slc.cpg/sg24_17_cif.got.tgz:33795.got - 2010.04.14 03:06:53.
