data_PCOD8165106
_publ_section_title
;
Structure prediction by ZEFSAII (Michael W. Deem and Ramdas Pophale) SiO2 
 PCOD8165106
Probable space group: I 21 21 21
;
_chemical_formula_sum "Si O2"
_cell_formula_units_Z 60
_cell_length_a 12.879694
_cell_length_b 20.818489
_cell_length_c 12.137135
_cell_angle_alpha 90.000000
_cell_angle_beta 90.000000
_cell_angle_gamma 90.000000
_cell_volume 3254.400013
_symmetry_space_group_name_H-M "I 21 21 21"
_symmetry_group_IT_number 24
_symmetry_cell_setting 'orthorhombic'
loop_
_space_group_symop_operation_xyz
x,y,z
-x,1/2-y,z
x,-y,1/2-z
1/2-x,y,-z
1/2+x,1/2+y,1/2+z
1/2-x,-y,1/2+z
1/2+x,1/2-y,-z
-x,1/2+y,1/2-z
loop_
_atom_site_type_symbol
_atom_site_label
_atom_site_fract_x
_atom_site_fract_y
_atom_site_fract_z
Si Si1 0.880890 0.365142 0.876321
Si Si2 0.064536 0.847168 0.178437
Si Si3 0.502366 0.440524 0.315108
Si Si4 0.868109 0.173244 0.624294
Si Si5 0.354493 0.908171 0.607331
Si Si6 0.863529 0.452866 0.477706
Si Si7 0.000000 0.750000 0.703743
Si Si8 0.140267 0.713917 0.120061
O O1 0.928502 0.401048 0.771408
O O2 0.756756 0.373912 0.877219
O O3 0.921324 0.291879 0.870486
O O4 0.916861 0.388819 0.996645
O O5 0.079304 0.885741 0.290193
O O6 0.069568 0.897933 0.079973
O O7 0.146350 0.789107 0.154876
O O8 0.949374 0.819542 0.189625
O O9 0.450509 0.500000 0.250000
O O10 0.409944 0.399994 0.372669
O O11 0.579031 0.469432 0.408059
O O12 0.925996 0.207936 0.721657
O O13 0.745363 0.176032 0.647305
O O14 0.890231 0.208619 0.508839
O O15 0.345323 0.985374 0.601019
O O16 0.750000 0.423551 0.500000
#
# Coordination Sequence:
#
# PCOD8165106 Si02
#       8
#     8   8   8   8   8   8   4   8
#     4  10  21  36  55  85 118 156 193 237 290 340
#     4  11  23  36  61  86 120 156 192 234 306 346
#     4  11  20  37  60  85 115 152 195 243 290 340
#     4  10  21  37  61  82 121 140 199 247 289 342
#     4  11  21  39  54  84 126 157 191 237 287 354
#     4  12  22  35  58  90 120 152 193 244 296 351
#     4  10  20  34  60  88 108 154 194 238 292 348
#     4  10  22  40  57  90 114 154 193 247 292 352
#
# _framework density 18.436577
#
# number of rings (size 3 to 8) (size 9 to 14) (size 15 to 20)
#    0.000    1.333    4.000    2.800    3.733    1.067 
#    0.000    1.333    0.000    2.400    0.000    0.000 
#    0.000    0.000    0.000    0.000    0.000    0.000 
#
# Total GULP energy -371867.269787 kJ/mol
# GULP energy per Si atom -12395.575660 kJ/mol
# Density = 1.839461 g / cm^3
# Si number density = 18.436577 Si / 1000 Ang^3
#
#
#
# Elastic Constant Matrix: (Units=GPa)
#
#
# Indices 1 2 3 4 5 6 
#
# 1 89.7363 39.4268 26.4434 0.0001 0.0000 0.0000
# 2 39.4268 104.5721 33.4243 0.0001 -0.0002 0.0000
# 3 26.4434 33.4243 91.7409 0.0003 -0.0002 -0.0001
# 4 0.0001 0.0001 0.0003 16.9336 -0.0002 0.0000
# 5 0.0000 -0.0002 -0.0002 -0.0002 28.4751 0.0000
# 6 0.0000 0.0000 -0.0001 0.0000 0.0000 27.1974
#
#
#
# Elastic Compliance Matrix: (Units=1/GPa)
#
#
# Indices 1 2 3 4 5 6 
#
# 1 0.013792 -0.004447 -0.002355 0.000000 0.000000 0.000000
# 2 -0.004447 0.012257 -0.003184 0.000000 0.000000 0.000000
# 3 -0.002355 -0.003184 0.012739 0.000000 0.000000 0.000000
# 4 0.000000 0.000000 0.000000 0.059054 0.000000 0.000000
# 5 0.000000 0.000000 0.000000 0.000000 0.035118 0.000000
# 6 0.000000 0.000000 0.000000 0.000000 0.000000 0.036768
#
#
# Mechanical properties :
#
#
# Convention : Reuss Voigt Hill
#
# Bulk Modulus (GPa) = 53.14688 53.84870 53.49779
# Shear Modulus (GPa) = 25.51377 26.97154 26.24265
#
# Velocity S-wave (km/s) = 3.72407 3.82898 3.77689
# Velocity P-wave (km/s) = 6.88339 6.98707 6.93542
#
# Compressibility (1/GPa) = 0.01881578
#
# Stress axis : x y z
#
# Youngs Moduli (GPa) = 72.50762 81.58518 78.49867
#
# Poissons Ratio (x) = 0.36282 0.18487
# Poissons Ratio (y) = 0.32245 0.24993
# Poissons Ratio (z) = 0.17076 0.25975
#
# Static dielectric constant tensor:
#      x y z
#    x 3.332010 0.000000 0.000000 
#    y 0.000000 3.608600 0.000000 
#    z 0.000000 0.000000 3.612290 
# 
# 
# High freq. dielectric constant tensor:
#      x y z
#    x 1.698820 0.000000 0.000000 
#    y 0.000000 1.719970 0.000000 
#    z 0.000000 0.000000 1.720550 
# 
# From -- ./inp_files/19998.got.cif
#   From: 2010.03.12/outbox.cif.g09.slc.cpg/sg24_10_cif.got.tgz:19998.got - 2010.04.14 03:06:53.
