data_PCOD8165163
_publ_section_title
;
Structure prediction by ZEFSAII (Michael W. Deem and Ramdas Pophale) SiO2 
 PCOD8165163
Probable space group: I 21 21 21
;
_chemical_formula_sum "Si O2"
_cell_formula_units_Z 56
_cell_length_a 9.506757
_cell_length_b 18.501435
_cell_length_c 14.363781
_cell_angle_alpha 90.000000
_cell_angle_beta 90.000000
_cell_angle_gamma 90.000000
_cell_volume 2526.426002
_symmetry_space_group_name_H-M "I 21 21 21"
_symmetry_group_IT_number 24
_symmetry_cell_setting 'orthorhombic'
loop_
_space_group_symop_operation_xyz
x,y,z
-x,1/2-y,z
x,-y,1/2-z
1/2-x,y,-z
1/2+x,1/2+y,1/2+z
1/2-x,-y,1/2+z
1/2+x,1/2-y,-z
-x,1/2+y,1/2-z
loop_
_atom_site_type_symbol
_atom_site_label
_atom_site_fract_x
_atom_site_fract_y
_atom_site_fract_z
Si Si1 0.322688 0.173837 0.907141
Si Si2 0.244733 0.513577 0.394671
Si Si3 0.977032 0.911390 0.878621
Si Si4 0.236389 0.302573 0.338714
Si Si5 0.143138 0.667948 0.365230
Si Si6 0.252418 0.139643 0.702012
Si Si7 0.522545 0.903941 0.907158
O O1 0.486369 0.152627 0.902213
O O2 0.298925 0.260194 0.914403
O O3 0.251159 0.143923 0.813872
O O4 0.250000 0.139910 0.000000
O O5 0.250000 0.486570 0.500000
O O6 0.386559 0.482182 0.347401
O O7 0.241335 0.599775 0.388310
O O8 0.106784 0.471128 0.357708
O O9 0.886520 0.840826 0.850415
O O10 0.120104 0.910469 0.820962
O O11 0.023412 0.916610 0.986704
O O12 0.150168 0.319579 0.244324
O O13 0.262921 0.217567 0.347623
O O14 0.124852 0.333252 0.413628
O O15 0.390850 0.103402 0.660790
#
# Coordination Sequence:
#
# PCOD8165163 Si02
#       7
#     8   8   8   8   8   8   8
#     4  10  22  42  66  96 123 158 218 276 326 387
#     4   9  20  40  64  91 123 165 214 251 306 395
#     4  10  22  36  57  97 129 166 213 261 308 374
#     4  10  20  36  60  90 127 169 214 256 305 386
#     4  10  20  41  70  90 121 172 214 259 335 390
#     4  11  21  38  60  92 132 161 206 273 321 367
#     4  10  20  36  61  88 131 172 210 252 310 391
#
# _framework density 22.165700000000001
#
# number of rings (size 3 to 8) (size 9 to 14) (size 15 to 20)
#    0.000    2.000    1.429    3.000    0.000    5.714 
#   12.857    2.857    3.143    0.000    0.000    0.000 
#    0.000    0.000    0.000    0.000    0.000    0.000 
#
# Total GULP energy -347070.071702 kJ/mol
# GULP energy per Si atom -12395.359704 kJ/mol
# Density = 2.211525 g / cm^3
# Si number density = 22.165700 Si / 1000 Ang^3
#
#
#
# Elastic Constant Matrix: (Units=GPa)
#
#
# Indices 1 2 3 4 5 6 
#
# 1 133.9848 48.2812 29.4953 0.0000 0.0000 0.0000
# 2 48.2812 98.6328 20.3551 0.0000 0.0000 0.0000
# 3 29.4953 20.3551 72.5755 -0.0001 0.0000 0.0000
# 4 0.0000 0.0000 -0.0001 15.3204 0.0000 0.0000
# 5 0.0000 0.0000 0.0000 0.0000 33.7932 0.0000
# 6 0.0000 0.0000 0.0000 0.0000 0.0000 21.1085
#
#
#
# Elastic Compliance Matrix: (Units=1/GPa)
#
#
# Indices 1 2 3 4 5 6 
#
# 1 0.009545 -0.004109 -0.002726 0.000000 0.000000 0.000000
# 2 -0.004109 0.012531 -0.001844 0.000000 0.000000 0.000000
# 3 -0.002726 -0.001844 0.015404 0.000000 0.000000 0.000000
# 4 0.000000 0.000000 0.000000 0.065273 0.000000 0.000000
# 5 0.000000 0.000000 0.000000 0.000000 0.029592 0.000000
# 6 0.000000 0.000000 0.000000 0.000000 0.000000 0.047374
#
#
# Mechanical properties :
#
#
# Convention : Reuss Voigt Hill
#
# Bulk Modulus (GPa) = 49.70434 55.71739 52.71086
# Shear Modulus (GPa) = 24.53567 27.84851 26.19209
#
# Velocity S-wave (km/s) = 3.33065 3.54839 3.44124
# Velocity P-wave (km/s) = 6.10440 6.47915 6.29456
#
# Compressibility (1/GPa) = 0.02011897
#
# Stress axis : x y z
#
# Youngs Moduli (GPa) = 104.77171 79.80309 64.91783
#
# Poissons Ratio (x) = 0.32795 0.17699
# Poissons Ratio (y) = 0.43055 0.11973
# Poissons Ratio (z) = 0.28565 0.14719
#
# Static dielectric constant tensor:
#      x y z
#    x 3.848740 0.000000 0.000000 
#    y 0.000000 3.918290 0.000000 
#    z 0.000000 0.000000 3.911200 
# 
# 
# High freq. dielectric constant tensor:
#      x y z
#    x 1.867500 0.000000 0.000000 
#    y 0.000000 1.858140 0.000000 
#    z 0.000000 0.000000 1.872680 
# 
# From -- ./inp_files/25092.got.cif
#   From: 2010.03.12/outbox.cif.g09.slc.cpg/sg24_13_cif.got.tgz:25092.got - 2010.04.14 03:06:53.
