data_PCOD8165784
_publ_section_title
;
Structure prediction by ZEFSAII (Michael W. Deem and Ramdas Pophale) SiO2 
 PCOD8165784
Probable space group: I 21 21 21
;
_chemical_formula_sum "Si O2"
_cell_formula_units_Z 32
_cell_length_a 14.485230
_cell_length_b 12.149709
_cell_length_c 7.723217
_cell_angle_alpha 90.000000
_cell_angle_beta 90.000000
_cell_angle_gamma 90.000000
_cell_volume 1359.219226
_symmetry_space_group_name_H-M "I 21 21 21"
_symmetry_group_IT_number 24
_symmetry_cell_setting 'orthorhombic'
loop_
_space_group_symop_operation_xyz
x,y,z
-x,1/2-y,z
x,-y,1/2-z
1/2-x,y,-z
1/2+x,1/2+y,1/2+z
1/2-x,-y,1/2+z
1/2+x,1/2-y,-z
-x,1/2+y,1/2-z
loop_
_atom_site_type_symbol
_atom_site_label
_atom_site_fract_x
_atom_site_fract_y
_atom_site_fract_z
Si Si1 0.336598 0.072177 0.908077
Si Si2 0.196904 0.270233 0.322263
Si Si3 0.845403 0.000000 0.250000
Si Si4 0.513004 0.012161 0.440718
Si Si5 0.000000 0.250000 0.457664
O O1 0.290214 0.185361 0.836146
O O2 0.373994 0.000000 0.750000
O O3 0.250000 0.012096 0.000000
O O4 0.426492 0.073486 0.032397
O O5 0.250000 0.236802 0.500000
O O6 0.223475 0.394628 0.265814
O O7 0.087078 0.276259 0.340069
O O8 0.908073 0.986713 0.420792
O O9 0.555350 0.000000 0.250000
O O10 0.476933 0.138962 0.437575
#
# Coordination Sequence:
#
# PCOD8165784 Si02
#       5
#     8   8   4   8   4
#     4  12  23  39  65 103 143 175 230 291 360 419
#     4  11  24  45  71  96 142 190 235 297 359 427
#     4  10  24  50  66  94 142 186 236 298 346 418
#     4  11  23  42  71 101 133 187 236 291 358 431
#     4  10  22  44  66  94 138 174 230 296 350 412
#
# _framework density 23.542928
#
# number of rings (size 3 to 8) (size 9 to 14) (size 15 to 20)
#    0.000    1.000    3.750    3.000    3.500    3.000 
#   13.500    0.000    0.000    0.000    0.000    0.000 
#    0.000    0.000    0.000    0.000    0.000    0.000 
#
# Total GULP energy -198235.714465 kJ/mol
# GULP energy per Si atom -12389.732154 kJ/mol
# Density = 2.348934 g / cm^3
# Si number density = 23.542928 Si / 1000 Ang^3
#
#
#
# Elastic Constant Matrix: (Units=GPa)
#
#
# Indices 1 2 3 4 5 6 
#
# 1 58.7742 -10.3932 21.5649 0.0000 0.0000 0.0000
# 2 -10.3932 126.4522 23.4439 0.0000 0.0000 0.0000
# 3 21.5649 23.4439 140.0490 0.0000 0.0000 0.0000
# 4 0.0000 0.0000 0.0000 21.6588 0.0000 0.0000
# 5 0.0000 0.0000 0.0000 0.0000 22.2801 0.0000
# 6 0.0000 0.0000 0.0000 0.0000 0.0000 19.4467
#
#
#
# Elastic Compliance Matrix: (Units=1/GPa)
#
#
# Indices 1 2 3 4 5 6 
#
# 1 0.018569 0.002122 -0.003215 0.000000 0.000000 0.000000
# 2 0.002122 0.008404 -0.001734 0.000000 0.000000 0.000000
# 3 -0.003215 -0.001734 0.007926 0.000000 0.000000 0.000000
# 4 0.000000 0.000000 0.000000 0.046171 0.000000 0.000000
# 5 0.000000 0.000000 0.000000 0.000000 0.044883 0.000000
# 6 0.000000 0.000000 0.000000 0.000000 0.000000 0.051423
#
#
# Mechanical properties :
#
#
# Convention : Reuss Voigt Hill
#
# Bulk Modulus (GPa) = 34.19201 43.83406 39.01303
# Shear Modulus (GPa) = 25.93690 32.05445 28.99568
#
# Velocity S-wave (km/s) = 3.32277 3.69390 3.51324
# Velocity P-wave (km/s) = 5.41071 6.07061 5.75014
#
# Compressibility (1/GPa) = 0.02924660
#
# Stress axis : x y z
#
# Youngs Moduli (GPa) = 53.85329 118.99169 126.17458
#
# Poissons Ratio (x) = -0.25252 0.40559
# Poissons Ratio (y) = -0.11429 0.21873
# Poissons Ratio (z) = 0.17311 0.20628
#
# Static dielectric constant tensor:
#      x y z
#    x 3.865240 0.000000 0.000000 
#    y 0.000000 5.143900 0.000000 
#    z 0.000000 0.000000 4.149700 
# 
# 
# High freq. dielectric constant tensor:
#      x y z
#    x 1.918800 0.000000 0.000000 
#    y 0.000000 1.938580 0.000000 
#    z 0.000000 0.000000 1.925010 
# 
# From -- ./inp_files/10291.got.cif
#   From: 2010.03.12/outbox.cif.g09.slc.cpg/sg24_6_cif.got.tgz:10291.got - 2010.04.14 03:06:53.
