data_PCOD8165226
_publ_section_title
;
Structure prediction by ZEFSAII (Michael W. Deem and Ramdas Pophale) SiO2 
 PCOD8165226
Probable space group: I 21 21 21
;
_chemical_formula_sum "Si O2"
_cell_formula_units_Z 40
_cell_length_a 12.399446
_cell_length_b 14.942430
_cell_length_c 9.514505
_cell_angle_alpha 90.000000
_cell_angle_beta 90.000000
_cell_angle_gamma 90.000000
_cell_volume 1762.827067
_symmetry_space_group_name_H-M "I 21 21 21"
_symmetry_group_IT_number 24
_symmetry_cell_setting 'orthorhombic'
loop_
_space_group_symop_operation_xyz
x,y,z
-x,1/2-y,z
x,-y,1/2-z
1/2-x,y,-z
1/2+x,1/2+y,1/2+z
1/2-x,-y,1/2+z
1/2+x,1/2-y,-z
-x,1/2+y,1/2-z
loop_
_atom_site_type_symbol
_atom_site_label
_atom_site_fract_x
_atom_site_fract_y
_atom_site_fract_z
Si Si1 0.872877 0.000000 0.250000
Si Si2 0.521041 0.643927 0.849527
Si Si3 0.970385 0.581671 0.848141
Si Si4 0.741614 0.674946 0.161008
Si Si5 0.750000 0.931491 0.500000
Si Si6 0.399809 0.299607 0.156781
O O1 0.793682 0.998478 0.382469
O O2 0.941475 0.906871 0.257575
O O3 0.500000 0.750000 0.873538
O O4 0.642670 0.637151 0.791417
O O5 0.503323 0.580383 0.986718
O O6 0.007627 0.500000 0.750000
O O7 0.841784 0.593048 0.835600
O O8 0.037760 0.664810 0.792863
O O9 0.701045 0.744495 0.279129
O O10 0.750000 0.714493 0.000000
O O11 0.849803 0.872041 0.553457
O O12 0.500000 0.250000 0.073855
#
# Coordination Sequence:
#
# PCOD8165226 Si02
#       6
#     4   8   8   8   4   8
#     4  12  30  46  70 100 140 184 236 298 350 430
#     4  11  23  44  69 101 136 183 237 287 353 422
#     4  10  20  37  66  99 137 179 223 283 336 420
#     4   9  19  38  66  98 133 175 225 279 347 417
#     4  12  28  46  66  98 136 182 224 296 360 408
#     4  10  22  41  66  98 130 173 230 282 353 414
#
# _framework density 22.690825
#
# number of rings (size 3 to 8) (size 9 to 14) (size 15 to 20)
#    0.000    1.600    0.000    5.400    5.600    2.400 
#    5.400    0.000    2.200    0.000    0.000    0.000 
#    0.000    0.000    0.000    0.000    0.000    0.000 
#
# Total GULP energy -247766.422547 kJ/mol
# GULP energy per Si atom -12388.321127 kJ/mol
# Density = 2.263918 g / cm^3
# Si number density = 22.690825 Si / 1000 Ang^3
#
#
#
# Elastic Constant Matrix: (Units=GPa)
#
#
# Indices 1 2 3 4 5 6 
#
# 1 145.0408 33.5751 43.8196 0.0000 0.0000 0.0000
# 2 33.5751 94.8001 31.7115 0.0000 0.0000 0.0000
# 3 43.8196 31.7115 74.6412 0.0000 0.0000 0.0000
# 4 0.0000 0.0000 0.0000 34.9886 0.0000 0.0000
# 5 0.0000 0.0000 0.0000 0.0000 31.1592 0.0000
# 6 0.0000 0.0000 0.0000 0.0000 0.0000 36.7431
#
#
#
# Elastic Compliance Matrix: (Units=1/GPa)
#
#
# Indices 1 2 3 4 5 6 
#
# 1 0.008579 -0.001578 -0.004366 0.000000 0.000000 0.000000
# 2 -0.001578 0.012586 -0.004421 0.000000 0.000000 0.000000
# 3 -0.004366 -0.004421 0.017839 0.000000 0.000000 0.000000
# 4 0.000000 0.000000 0.000000 0.028581 0.000000 0.000000
# 5 0.000000 0.000000 0.000000 0.000000 0.032093 0.000000
# 6 0.000000 0.000000 0.000000 0.000000 0.000000 0.027216
#
#
# Mechanical properties :
#
#
# Convention : Reuss Voigt Hill
#
# Bulk Modulus (GPa) = 54.72195 59.18827 56.95511
# Shear Modulus (GPa) = 32.52768 34.26990 33.39879
#
# Velocity S-wave (km/s) = 3.79029 3.89047 3.84071
# Velocity P-wave (km/s) = 6.58208 6.80605 6.69500
#
# Compressibility (1/GPa) = 0.01827420
#
# Stress axis : x y z
#
# Youngs Moduli (GPa) = 116.56446 79.45209 56.05740
#
# Poissons Ratio (x) = 0.12537 0.24475
# Poissons Ratio (y) = 0.18393 0.24783
# Poissons Ratio (z) = 0.50893 0.35125
#
# Static dielectric constant tensor:
#      x y z
#    x 4.662960 0.000000 0.000000 
#    y 0.000000 3.829940 0.000000 
#    z 0.000000 0.000000 3.843490 
# 
# 
# High freq. dielectric constant tensor:
#      x y z
#    x 1.921090 0.000000 0.000000 
#    y 0.000000 1.875080 0.000000 
#    z 0.000000 0.000000 1.881650 
# 
# From -- ./inp_files/10738.got.cif
#   From: 2010.03.12/outbox.cif.g09.slc.cpg/sg24_6_cif.got.tgz:10738.got - 2010.04.14 03:06:53.
