data_PCOD8165927
_publ_section_title
;
Structure prediction by ZEFSAII (Michael W. Deem and Ramdas Pophale) SiO2 
 PCOD8165927
Probable space group: I 21 21 21
;
_chemical_formula_sum "Si O2"
_cell_formula_units_Z 24
_cell_length_a 6.898860
_cell_length_b 12.018617
_cell_length_c 13.233301
_cell_angle_alpha 90.000000
_cell_angle_beta 90.000000
_cell_angle_gamma 90.000000
_cell_volume 1097.235925
_symmetry_space_group_name_H-M "I 21 21 21"
_symmetry_group_IT_number 24
_symmetry_cell_setting 'orthorhombic'
loop_
_space_group_symop_operation_xyz
x,y,z
-x,1/2-y,z
x,-y,1/2-z
1/2-x,y,-z
1/2+x,1/2+y,1/2+z
1/2-x,-y,1/2+z
1/2+x,1/2-y,-z
-x,1/2+y,1/2-z
loop_
_atom_site_type_symbol
_atom_site_label
_atom_site_fract_x
_atom_site_fract_y
_atom_site_fract_z
Si Si1 0.500000 0.250000 0.137979
Si Si2 0.250000 0.088624 0.000000
Si Si3 0.472001 0.066571 0.648993
Si Si4 0.296773 0.274870 0.330728
O O1 0.346073 0.310575 0.213886
O O2 0.385967 0.162236 0.070608
O O3 0.400593 0.013372 0.939040
O O4 0.313484 0.158793 0.673185
O O5 0.673222 0.127669 0.616434
O O6 0.512367 0.000000 0.750000
O O7 0.500000 0.250000 0.390604
#
# Coordination Sequence:
#
# PCOD8165927 Si02
#       4
#     4   4   8   8
#     4  10  24  44  70 106 144 186 240 294 342 432
#     4  12  26  42  72 112 140 184 246 296 350 412
#     4  11  22  43  72 102 142 188 232 296 354 415
#     4   9  22  46  69  94 143 191 234 280 354 424
#
# _framework density 21.873145999999998
#
# number of rings (size 3 to 8) (size 9 to 14) (size 15 to 20)
#    1.000    0.667    3.333    0.000    4.667    4.000 
#    6.000    0.000    0.000    0.000    0.000    0.000 
#    0.000    0.000    0.000    0.000    0.000    0.000 
#
# Total GULP energy -148686.330850 kJ/mol
# GULP energy per Si atom -12390.527571 kJ/mol
# Density = 2.182336 g / cm^3
# Si number density = 21.873146 Si / 1000 Ang^3
#
#
#
# Elastic Constant Matrix: (Units=GPa)
#
#
# Indices 1 2 3 4 5 6 
#
# 1 177.0012 76.6355 38.6554 0.0000 0.0000 0.0000
# 2 76.6355 108.1007 30.0302 0.0000 0.0000 0.0000
# 3 38.6554 30.0302 80.4918 0.0000 0.0000 0.0000
# 4 0.0000 0.0000 0.0000 80.6534 0.0000 0.0000
# 5 0.0000 0.0000 0.0000 0.0000 39.5332 0.0000
# 6 0.0000 0.0000 0.0000 0.0000 0.0000 90.1904
#
#
#
# Elastic Compliance Matrix: (Units=1/GPa)
#
#
# Indices 1 2 3 4 5 6 
#
# 1 0.008439 -0.005419 -0.002031 0.000000 0.000000 0.000000
# 2 -0.005419 0.013799 -0.002546 0.000000 0.000000 0.000000
# 3 -0.002031 -0.002546 0.014349 0.000000 0.000000 0.000000
# 4 0.000000 0.000000 0.000000 0.012399 0.000000 0.000000
# 5 0.000000 0.000000 0.000000 0.000000 0.025295 0.000000
# 6 0.000000 0.000000 0.000000 0.000000 0.000000 0.011088
#
#
# Mechanical properties :
#
#
# Convention : Reuss Voigt Hill
#
# Bulk Modulus (GPa) = 60.25646 72.91511 66.58579
# Shear Modulus (GPa) = 45.08841 56.76025 50.92433
#
# Velocity S-wave (km/s) = 4.54514 5.09962 4.83034
# Velocity P-wave (km/s) = 7.42647 8.25122 7.84968
#
# Compressibility (1/GPa) = 0.01659573
#
# Stress axis : x y z
#
# Youngs Moduli (GPa) = 118.49220 72.46735 69.69097
#
# Poissons Ratio (x) = 0.39267 0.14157
# Poissons Ratio (y) = 0.64206 0.17744
# Poissons Ratio (z) = 0.24070 0.18451
#
# Static dielectric constant tensor:
#      x y z
#    x 3.662890 0.000000 0.000000 
#    y 0.000000 3.894560 0.000000 
#    z 0.000000 0.000000 3.798300 
# 
# 
# High freq. dielectric constant tensor:
#      x y z
#    x 1.877200 0.000000 0.000000 
#    y 0.000000 1.859450 0.000000 
#    z 0.000000 0.000000 1.849820 
# 
# From -- ./inp_files/24229.got.cif
#   From: 2010.03.12/outbox.cif.g09.slc.cpg/sg24_13_cif.got.tgz:24229.got - 2010.04.14 03:06:53.
