data_PCOD8165708
_publ_section_title
;
Structure prediction by ZEFSAII (Michael W. Deem and Ramdas Pophale) SiO2 
 PCOD8165708
Probable space group: I 21 21 21
;
_chemical_formula_sum "Si O2"
_cell_formula_units_Z 36
_cell_length_a 5.037181
_cell_length_b 26.304070
_cell_length_c 11.610097
_cell_angle_alpha 90.000000
_cell_angle_beta 90.000000
_cell_angle_gamma 90.000000
_cell_volume 1538.318831
_symmetry_space_group_name_H-M "I 21 21 21"
_symmetry_group_IT_number 24
_symmetry_cell_setting 'orthorhombic'
loop_
_space_group_symop_operation_xyz
x,y,z
-x,1/2-y,z
x,-y,1/2-z
1/2-x,y,-z
1/2+x,1/2+y,1/2+z
1/2-x,-y,1/2+z
1/2+x,1/2-y,-z
-x,1/2+y,1/2-z
loop_
_atom_site_type_symbol
_atom_site_label
_atom_site_fract_x
_atom_site_fract_y
_atom_site_fract_z
Si Si1 0.008911 0.031476 0.574470
Si Si2 0.499496 0.690884 0.923423
Si Si3 0.250000 0.719104 0.500000
Si Si4 0.500455 0.422874 0.177744
Si Si5 0.995474 0.141703 0.176564
O O1 0.250000 0.052095 0.500000
O O2 0.011247 0.065028 0.688017
O O3 0.750000 0.041109 0.500000
O O4 0.052987 0.972371 0.602308
O O5 0.500000 0.750000 0.888436
O O6 0.492797 0.657835 0.808809
O O7 0.250000 0.675975 0.000000
O O8 0.750000 0.676263 0.000000
O O9 0.500000 0.750000 0.443886
O O10 0.401488 0.688373 0.599209
O O11 0.204854 0.404252 0.150857
O O12 0.711453 0.378838 0.143790
#
# Coordination Sequence:
#
# PCOD8165708 Si02
#       5
#     8   8   4   8   8
#     4  11  24  44  69  93 140 182 219 288 347 421
#     4  10  22  40  64  93 127 171 215 274 348 407
#     4  12  28  48  70 102 144 194 236 290 362 410
#     4  11  26  42  65 105 128 177 237 273 348 407
#     4  12  25  43  70  99 138 176 234 292 332 427
#
# _framework density 23.402173000000001
#
# number of rings (size 3 to 8) (size 9 to 14) (size 15 to 20)
#    0.000    0.889    0.000    6.000    4.667   11.556 
#    0.000    0.000    0.000    0.000    0.000    0.000 
#    0.000    0.000    0.000    0.000    0.000    0.000 
#
# Total GULP energy -223269.073944 kJ/mol
# GULP energy per Si atom -12403.837441 kJ/mol
# Density = 2.334891 g / cm^3
# Si number density = 23.402173 Si / 1000 Ang^3
#
#
#
# Elastic Constant Matrix: (Units=GPa)
#
#
# Indices 1 2 3 4 5 6 
#
# 1 161.3849 19.2115 28.6065 0.0000 0.0000 0.0000
# 2 19.2115 65.3899 10.1460 0.0000 0.0000 0.0000
# 3 28.6065 10.1460 71.3276 0.0000 0.0000 0.0000
# 4 0.0000 0.0000 0.0000 20.6396 0.0000 0.0000
# 5 0.0000 0.0000 0.0000 0.0000 46.0355 0.0000
# 6 0.0000 0.0000 0.0000 0.0000 0.0000 42.0168
#
#
#
# Elastic Compliance Matrix: (Units=1/GPa)
#
#
# Indices 1 2 3 4 5 6 
#
# 1 0.006834 -0.001618 -0.002511 0.000000 0.000000 0.000000
# 2 -0.001618 0.016021 -0.001630 0.000000 0.000000 0.000000
# 3 -0.002511 -0.001630 0.015259 0.000000 0.000000 0.000000
# 4 0.000000 0.000000 0.000000 0.048450 0.000000 0.000000
# 5 0.000000 0.000000 0.000000 0.000000 0.021722 0.000000
# 6 0.000000 0.000000 0.000000 0.000000 0.000000 0.023800
#
#
# Mechanical properties :
#
#
# Convention : Reuss Voigt Hill
#
# Bulk Modulus (GPa) = 37.59940 46.00335 41.80137
# Shear Modulus (GPa) = 32.79337 37.74760 35.27049
#
# Velocity S-wave (km/s) = 3.74745 4.02057 3.88641
# Velocity P-wave (km/s) = 5.90136 6.42290 6.16765
#
# Compressibility (1/GPa) = 0.02659617
#
# Stress axis : x y z
#
# Youngs Moduli (GPa) = 146.32635 62.41714 65.53685
#
# Poissons Ratio (x) = 0.10101 0.16454
# Poissons Ratio (y) = 0.23680 0.10682
# Poissons Ratio (z) = 0.36737 0.10173
#
# Static dielectric constant tensor:
#      x y z
#    x 4.457530 0.000000 0.000000 
#    y 0.000000 4.216940 0.000000 
#    z 0.000000 0.000000 4.209890 
# 
# 
# High freq. dielectric constant tensor:
#      x y z
#    x 1.943710 0.000000 0.000000 
#    y 0.000000 1.934440 0.000000 
#    z 0.000000 0.000000 1.936090 
# 
# From -- ./inp_files/17542.got.cif
#   From: 2010.03.12/outbox.cif.g09.slc.cpg/sg24_9_cif.got.tgz:17542.got - 2010.04.14 03:06:53.
