data_PCOD8165618
_publ_section_title
;
Structure prediction by ZEFSAII (Michael W. Deem and Ramdas Pophale) SiO2 
 PCOD8165618
Probable space group: I 21 21 21
;
_chemical_formula_sum "Si O2"
_cell_formula_units_Z 32
_cell_length_a 18.357712
_cell_length_b 6.149899
_cell_length_c 12.145464
_cell_angle_alpha 90.000000
_cell_angle_beta 90.000000
_cell_angle_gamma 90.000000
_cell_volume 1371.199502
_symmetry_space_group_name_H-M "I 21 21 21"
_symmetry_group_IT_number 24
_symmetry_cell_setting 'orthorhombic'
loop_
_space_group_symop_operation_xyz
x,y,z
-x,1/2-y,z
x,-y,1/2-z
1/2-x,y,-z
1/2+x,1/2+y,1/2+z
1/2-x,-y,1/2+z
1/2+x,1/2-y,-z
-x,1/2+y,1/2-z
loop_
_atom_site_type_symbol
_atom_site_label
_atom_site_fract_x
_atom_site_fract_y
_atom_site_fract_z
Si Si1 0.164087 0.899001 0.995378
Si Si2 0.916180 0.257012 0.709673
Si Si3 0.076526 0.642128 0.148388
Si Si4 0.419770 0.326311 0.053833
O O1 0.135190 0.825441 0.116133
O O2 0.250000 0.891756 0.000000
O O3 0.135004 0.732804 0.899861
O O4 0.137283 0.144592 0.981604
O O5 0.897350 0.500000 0.750000
O O6 0.000000 0.250000 0.669025
O O7 0.898992 0.905285 0.680583
O O8 0.105687 0.500000 0.250000
O O9 0.000000 0.750000 0.182030
O O10 0.069245 0.499439 0.040154
O O11 0.500000 0.250000 0.080895
#
# Coordination Sequence:
#
# PCOD8165618 Si02
#       4
#     8   8   8   8
#     4  11  25  45  67 106 147 185 230 292 370 438
#     4   9  20  38  68 102 125 172 231 296 350 407
#     4  12  26  45  71 103 138 195 250 291 349 433
#     4  10  21  44  73 100 132 182 243 306 350 413
#
# _framework density 23.337232
#
# number of rings (size 3 to 8) (size 9 to 14) (size 15 to 20)
#    0.000    1.500    2.500    1.500    7.000    1.000 
#   18.000    0.000    0.000    0.000    0.000    0.000 
#    0.000    0.000    0.000    0.000    0.000    0.000 
#
# Total GULP energy -198277.916701 kJ/mol
# GULP energy per Si atom -12392.369794 kJ/mol
# Density = 2.328412 g / cm^3
# Si number density = 23.337232 Si / 1000 Ang^3
#
#
#
# Elastic Constant Matrix: (Units=GPa)
#
#
# Indices 1 2 3 4 5 6 
#
# 1 145.8148 13.1387 41.2982 0.0000 0.0000 0.0000
# 2 13.1387 48.9833 56.7480 0.0000 0.0000 0.0000
# 3 41.2982 56.7480 144.8622 0.0000 0.0000 0.0000
# 4 0.0000 0.0000 0.0000 52.9846 0.0000 0.0000
# 5 0.0000 0.0000 0.0000 0.0000 81.5986 0.0000
# 6 0.0000 0.0000 0.0000 0.0000 0.0000 21.5296
#
#
#
# Elastic Compliance Matrix: (Units=1/GPa)
#
#
# Indices 1 2 3 4 5 6 
#
# 1 0.007480 0.000850 -0.002465 0.000000 0.000000 0.000000
# 2 0.000850 0.037476 -0.014923 0.000000 0.000000 0.000000
# 3 -0.002465 -0.014923 0.013452 0.000000 0.000000 0.000000
# 4 0.000000 0.000000 0.000000 0.018873 0.000000 0.000000
# 5 0.000000 0.000000 0.000000 0.000000 0.012255 0.000000
# 6 0.000000 0.000000 0.000000 0.000000 0.000000 0.046448
#
#
# Mechanical properties :
#
#
# Convention : Reuss Voigt Hill
#
# Bulk Modulus (GPa) = 39.47837 62.44778 50.96308
# Shear Modulus (GPa) = 28.16850 46.45426 37.31138
#
# Velocity S-wave (km/s) = 3.47799 4.46641 4.00283
# Velocity P-wave (km/s) = 5.75167 7.30859 6.57637
#
# Compressibility (1/GPa) = 0.02533033
#
# Stress axis : x y z
#
# Youngs Moduli (GPa) = 133.69596 26.68406 74.33975
#
# Poissons Ratio (x) = -0.02267 0.18326
# Poissons Ratio (y) = -0.11361 1.10936
# Poissons Ratio (z) = 0.32959 0.39820
#
# Static dielectric constant tensor:
#      x y z
#    x 3.787640 0.000000 0.000000 
#    y 0.000000 1.634880 0.000000 
#    z 0.000000 0.000000 4.779030 
# 
# 
# High freq. dielectric constant tensor:
#      x y z
#    x 1.871800 0.000000 0.000000 
#    y 0.000000 1.966920 0.000000 
#    z 0.000000 0.000000 1.958430 
# 
# From -- ./inp_files/23473.got.cif
#   From: 2010.03.12/outbox.cif.g09.slc.cpg/sg24_12_cif.got.tgz:23473.got - 2010.04.14 03:06:53.
