data_PCOD8165725
_publ_section_title
;
Structure prediction by ZEFSAII (Michael W. Deem and Ramdas Pophale) SiO2 
 PCOD8165725
Probable space group: I 21 21 21
;
_chemical_formula_sum "Si O2"
_cell_formula_units_Z 64
_cell_length_a 14.376090
_cell_length_b 11.863839
_cell_length_c 18.794103
_cell_angle_alpha 90.000000
_cell_angle_beta 90.000000
_cell_angle_gamma 90.000000
_cell_volume 3205.439837
_symmetry_space_group_name_H-M "I 21 21 21"
_symmetry_group_IT_number 24
_symmetry_cell_setting 'orthorhombic'
loop_
_space_group_symop_operation_xyz
x,y,z
-x,1/2-y,z
x,-y,1/2-z
1/2-x,y,-z
1/2+x,1/2+y,1/2+z
1/2-x,-y,1/2+z
1/2+x,1/2-y,-z
-x,1/2+y,1/2-z
loop_
_atom_site_type_symbol
_atom_site_label
_atom_site_fract_x
_atom_site_fract_y
_atom_site_fract_z
Si Si1 0.186423 0.579453 0.817173
Si Si2 0.276179 0.181325 0.147403
Si Si3 0.727519 0.089907 0.917828
Si Si4 0.542686 0.633546 0.425443
Si Si5 0.135758 0.996378 0.332221
Si Si6 0.021609 0.941925 0.822875
Si Si7 0.792529 0.329051 0.689550
Si Si8 0.011974 0.378622 0.087339
O O1 0.212979 0.500000 0.750000
O O2 0.220132 0.521619 0.890349
O O3 0.238641 0.699356 0.817872
O O4 0.077970 0.618286 0.813173
O O5 0.267405 0.312933 0.133054
O O6 0.348096 0.129174 0.091304
O O7 0.307724 0.147916 0.226819
O O8 0.178408 0.119983 0.137301
O O9 0.617907 0.082748 0.909100
O O10 0.750000 0.113826 0.000000
O O11 0.500000 0.750000 0.395597
O O12 0.495029 0.531923 0.383626
O O13 0.526889 0.621379 0.508166
O O14 0.208173 0.098971 0.346600
O O15 0.110567 0.000000 0.250000
O O16 0.037536 0.984957 0.372614
O O17 0.107717 0.861320 0.846673
O O18 0.053034 0.000000 0.750000
O O19 0.000000 0.250000 0.118750
#
# Coordination Sequence:
#
# PCOD8165725 Si02
#       8
#     8   8   8   8   8   8   8   8
#     4  11  24  38  61  92 125 176 225 263 322 393
#     4  11  20  37  64  92 131 156 200 267 333 388
#     4  12  24  43  64  91 131 169 216 278 325 381
#     4  11  22  35  59  98 130 165 210 261 331 392
#     4  10  22  41  62  95 126 163 212 265 327 388
#     4  11  20  35  58  95 136 169 208 261 324 394
#     4  11  21  41  62  94 133 171 210 268 324 392
#     4  11  23  41  64  93 127 168 220 271 331 385
#
# _framework density 19.966059000000001
#
# number of rings (size 3 to 8) (size 9 to 14) (size 15 to 20)
#    0.000    1.000    5.000    3.750    1.750    0.500 
#    0.000    1.875    0.000    0.000    0.000    0.000 
#    0.000    0.000    0.000    0.000    0.000    0.000 
#
# Total GULP energy -396543.287333 kJ/mol
# GULP energy per Si atom -12391.977729 kJ/mol
# Density = 1.992062 g / cm^3
# Si number density = 19.966059 Si / 1000 Ang^3
#
#
#
# Elastic Constant Matrix: (Units=GPa)
#
#
# Indices 1 2 3 4 5 6 
#
# 1 112.8514 33.1338 29.3214 0.0000 0.0000 0.0000
# 2 33.1338 110.1791 30.4095 0.0000 0.0000 0.0000
# 3 29.3214 30.4095 58.9108 0.0000 0.0000 0.0000
# 4 0.0000 0.0000 0.0000 28.8313 0.0000 0.0000
# 5 0.0000 0.0000 0.0000 0.0000 8.8925 0.0000
# 6 0.0000 0.0000 0.0000 0.0000 0.0000 12.0618
#
#
#
# Elastic Compliance Matrix: (Units=1/GPa)
#
#
# Indices 1 2 3 4 5 6 
#
# 1 0.010545 -0.002009 -0.004212 0.000000 0.000000 0.000000
# 2 -0.002009 0.010967 -0.004661 0.000000 0.000000 0.000000
# 3 -0.004212 -0.004661 0.021477 0.000000 0.000000 0.000000
# 4 0.000000 0.000000 0.000000 0.034684 0.000000 0.000000
# 5 0.000000 0.000000 0.000000 0.000000 0.112454 0.000000
# 6 0.000000 0.000000 0.000000 0.000000 0.000000 0.082906
#
#
# Mechanical properties :
#
#
# Convention : Reuss Voigt Hill
#
# Bulk Modulus (GPa) = 47.11244 51.96343 49.53794
# Shear Modulus (GPa) = 16.56326 22.56223 19.56274
#
# Velocity S-wave (km/s) = 2.88335 3.36524 3.13357
# Velocity P-wave (km/s) = 5.89342 6.41733 6.16095
#
# Compressibility (1/GPa) = 0.02122581
#
# Stress axis : x y z
#
# Youngs Moduli (GPa) = 94.82884 91.18501 46.56111
#
# Poissons Ratio (x) = 0.18317 0.19610
# Poissons Ratio (y) = 0.19049 0.21703
# Poissons Ratio (z) = 0.39939 0.42503
#
# Static dielectric constant tensor:
#      x y z
#    x 3.782150 0.000000 0.000000 
#    y 0.000000 3.697970 0.000000 
#    z 0.000000 0.000000 3.459020 
# 
# 
# High freq. dielectric constant tensor:
#      x y z
#    x 1.787900 0.000000 0.000000 
#    y 0.000000 1.771080 0.000000 
#    z 0.000000 0.000000 1.756590 
# 
# From -- ./inp_files/21728.got.cif
#   From: 2010.03.12/outbox.cif.g09.slc.cpg/sg24_11_cif.got.tgz:21728.got - 2010.04.14 03:06:53.
