data_PCOD8165533
_publ_section_title
;
Structure prediction by ZEFSAII (Michael W. Deem and Ramdas Pophale) SiO2 
 PCOD8165533
Probable space group: I 21 21 21
;
_chemical_formula_sum "Si O2"
_cell_formula_units_Z 64
_cell_length_a 9.226074
_cell_length_b 14.019514
_cell_length_c 22.434536
_cell_angle_alpha 90.000000
_cell_angle_beta 90.000000
_cell_angle_gamma 90.000000
_cell_volume 2901.796710
_symmetry_space_group_name_H-M "I 21 21 21"
_symmetry_group_IT_number 24
_symmetry_cell_setting 'orthorhombic'
loop_
_space_group_symop_operation_xyz
x,y,z
-x,1/2-y,z
x,-y,1/2-z
1/2-x,y,-z
1/2+x,1/2+y,1/2+z
1/2-x,-y,1/2+z
1/2+x,1/2-y,-z
-x,1/2+y,1/2-z
loop_
_atom_site_type_symbol
_atom_site_label
_atom_site_fract_x
_atom_site_fract_y
_atom_site_fract_z
Si Si1 0.972760 0.961824 0.062719
Si Si2 0.762333 0.616195 0.126950
Si Si3 0.506722 0.037935 0.428584
Si Si4 0.247584 0.672210 0.896100
Si Si5 0.340814 0.112080 0.754587
Si Si6 0.827192 0.243508 0.826222
Si Si7 0.171348 0.389443 0.263032
Si Si8 0.745239 0.118197 0.068907
O O1 0.090253 0.940396 0.113122
O O2 0.857258 0.876118 0.057154
O O3 0.891245 0.058730 0.082722
O O4 0.043177 0.968221 0.997401
O O5 0.636479 0.540504 0.111876
O O6 0.750180 0.714931 0.090762
O O7 0.763622 0.651386 0.195044
O O8 0.587656 0.135432 0.410887
O O9 0.605569 0.946303 0.414595
O O10 0.300394 0.637231 0.831221
O O11 0.251819 0.156341 0.810083
O O12 0.509246 0.142272 0.756167
O O13 0.322054 0.000000 0.750000
O O14 0.786841 0.165781 0.776927
O O15 0.764007 0.212206 0.890645
O O16 0.000000 0.250000 0.828710
O O17 0.196673 0.500000 0.250000
O O18 0.750000 0.149612 0.000000
#
# Coordination Sequence:
#
# PCOD8165533 Si02
#       8
#     8   8   8   8   8   8   8   8
#     4  10  21  40  64  97 130 190 232 280 343 420
#     4  12  23  36  62  95 142 176 236 292 341 402
#     4  10  23  38  63  96 139 180 232 287 353 404
#     4  11  21  36  59  92 133 184 230 284 349 413
#     4  11  27  45  66  96 139 179 230 287 343 413
#     4  12  27  44  73 107 136 174 232 287 355 409
#     4  11  23  44  69  95 132 189 233 277 342 418
#     4   9  22  49  75  97 136 179 230 281 347 426
#
# _framework density 22.055299999999999
#
# number of rings (size 3 to 8) (size 9 to 14) (size 15 to 20)
#    0.000    1.250    2.500    4.125    5.250    3.500 
#    0.000    1.250    0.000    0.000    0.000    0.000 
#    0.000    0.000    0.000    0.000    0.000    0.000 
#
# Total GULP energy -396811.009072 kJ/mol
# GULP energy per Si atom -12400.344034 kJ/mol
# Density = 2.200510 g / cm^3
# Si number density = 22.055300 Si / 1000 Ang^3
#
#
#
# Elastic Constant Matrix: (Units=GPa)
#
#
# Indices 1 2 3 4 5 6 
#
# 1 119.2894 39.4818 41.0504 0.0000 0.0000 0.0000
# 2 39.4818 103.2252 43.7441 0.0000 0.0000 0.0000
# 3 41.0504 43.7441 92.6319 0.0000 0.0000 0.0000
# 4 0.0000 0.0000 0.0000 31.4488 0.0000 0.0000
# 5 0.0000 0.0000 0.0000 0.0000 18.4651 0.0000
# 6 0.0000 0.0000 0.0000 0.0000 0.0000 25.0420
#
#
#
# Elastic Compliance Matrix: (Units=1/GPa)
#
#
# Indices 1 2 3 4 5 6 
#
# 1 0.010394 -0.002530 -0.003412 0.000000 0.000000 0.000000
# 2 -0.002530 0.012727 -0.004889 0.000000 0.000000 0.000000
# 3 -0.003412 -0.004889 0.014616 0.000000 0.000000 0.000000
# 4 0.000000 0.000000 0.000000 0.031798 0.000000 0.000000
# 5 0.000000 0.000000 0.000000 0.000000 0.054156 0.000000
# 6 0.000000 0.000000 0.000000 0.000000 0.000000 0.039933
#
#
# Mechanical properties :
#
#
# Convention : Reuss Voigt Hill
#
# Bulk Modulus (GPa) = 62.20307 62.63324 62.41815
# Shear Modulus (GPa) = 26.22688 27.71586 26.97137
#
# Velocity S-wave (km/s) = 3.45213 3.54878 3.50079
# Velocity P-wave (km/s) = 6.64486 6.72694 6.68602
#
# Compressibility (1/GPa) = 0.01607638
#
# Stress axis : x y z
#
# Youngs Moduli (GPa) = 96.20639 78.57286 68.41789
#
# Poissons Ratio (x) = 0.19878 0.23341
# Poissons Ratio (y) = 0.24339 0.33450
# Poissons Ratio (z) = 0.32822 0.38414
#
# Static dielectric constant tensor:
#      x y z
#    x 3.967990 0.000000 0.000000 
#    y 0.000000 3.916260 0.000000 
#    z 0.000000 0.000000 4.065890 
# 
# 
# High freq. dielectric constant tensor:
#      x y z
#    x 1.867050 0.000000 0.000000 
#    y 0.000000 1.860240 0.000000 
#    z 0.000000 0.000000 1.870220 
# 
# From -- ./inp_files/35303.got.cif
#   From: 2010.03.12/outbox.cif.g09.slc.cpg/sg24_18_cif.got.tgz:35303.got - 2010.04.14 03:06:53.
