data_PCOD8165065
_publ_section_title
;
Structure prediction by ZEFSAII (Michael W. Deem and Ramdas Pophale) SiO2 
 PCOD8165065
Probable space group: I 21 21 21
;
_chemical_formula_sum "Si O2"
_cell_formula_units_Z 48
_cell_length_a 17.693591
_cell_length_b 7.549074
_cell_length_c 20.633530
_cell_angle_alpha 90.000000
_cell_angle_beta 90.000000
_cell_angle_gamma 90.000000
_cell_volume 2756.025302
_symmetry_space_group_name_H-M "I 21 21 21"
_symmetry_group_IT_number 24
_symmetry_cell_setting 'orthorhombic'
loop_
_space_group_symop_operation_xyz
x,y,z
-x,1/2-y,z
x,-y,1/2-z
1/2-x,y,-z
1/2+x,1/2+y,1/2+z
1/2-x,-y,1/2+z
1/2+x,1/2-y,-z
-x,1/2+y,1/2-z
loop_
_atom_site_type_symbol
_atom_site_label
_atom_site_fract_x
_atom_site_fract_y
_atom_site_fract_z
Si Si1 0.583228 0.804332 0.129411
Si Si2 0.413497 0.727543 0.977510
Si Si3 0.184630 0.990065 0.822899
Si Si4 0.087873 0.293089 0.883930
Si Si5 0.199529 0.015579 0.064016
Si Si6 0.834358 0.873294 0.484282
O O1 0.500000 0.750000 0.151247
O O2 0.641095 0.695207 0.172376
O O3 0.597221 0.989789 0.355403
O O4 0.597129 0.753617 0.054499
O O5 0.500000 0.750000 0.957101
O O6 0.368470 0.877052 0.939042
O O7 0.383654 0.534188 0.956120
O O8 0.127480 0.152171 0.837076
O O9 0.255117 0.982473 0.870648
O O10 0.215783 0.000000 0.750000
O O11 0.128069 0.282498 0.953158
O O12 0.000000 0.250000 0.893250
O O13 0.250000 0.993831 0.000000
O O14 0.168303 0.216546 0.068561
O O15 0.750000 0.944862 0.500000
#
# Coordination Sequence:
#
# PCOD8165065 Si02
#       6
#     8   8   8   8   8   8
#     4  10  20  35  55  79 116 155 184 227 271 331
#     4  10  21  33  58  90 112 139 185 238 294 335
#     4  12  25  39  54  81 115 158 195 230 277 333
#     4  11  21  36  56  82 119 154 191 227 272 337
#     4  11  20  37  59  81 111 148 188 240 281 330
#     4  10  20  32  57  85 115 148 186 232 281 325
#
# _framework density 17.416384999999998
#
# number of rings (size 3 to 8) (size 9 to 14) (size 15 to 20)
#    0.000    1.333    6.667    0.500    7.000    1.333 
#    0.000    0.000    0.000    0.000    4.333    0.000 
#    0.000    0.000    0.000    0.000    0.000    0.000 
#
# Total GULP energy -297650.277691 kJ/mol
# GULP energy per Si atom -12402.094904 kJ/mol
# Density = 1.737674 g / cm^3
# Si number density = 17.416385 Si / 1000 Ang^3
#
#
#
# Elastic Constant Matrix: (Units=GPa)
#
#
# Indices 1 2 3 4 5 6 
#
# 1 118.2529 66.2029 57.1457 0.0000 0.0000 0.0000
# 2 66.2029 131.5848 29.5699 0.0000 0.0000 0.0000
# 3 57.1457 29.5699 72.7773 0.0000 0.0000 0.0000
# 4 0.0000 0.0000 0.0000 11.0439 0.0000 0.0000
# 5 0.0000 0.0000 0.0000 0.0000 16.3920 0.0000
# 6 0.0000 0.0000 0.0000 0.0000 0.0000 33.7435
#
#
#
# Elastic Compliance Matrix: (Units=1/GPa)
#
#
# Indices 1 2 3 4 5 6 
#
# 1 0.017263 -0.006206 -0.011033 0.000000 0.000000 0.000000
# 2 -0.006206 0.010594 0.000568 0.000000 0.000000 0.000000
# 3 -0.011033 0.000568 0.022173 0.000000 0.000000 0.000000
# 4 0.000000 0.000000 0.000000 0.090548 0.000000 0.000000
# 5 0.000000 0.000000 0.000000 0.000000 0.061005 0.000000
# 6 0.000000 0.000000 0.000000 0.000000 0.000000 0.029635
#
#
# Mechanical properties :
#
#
# Convention : Reuss Voigt Hill
#
# Bulk Modulus (GPa) = 59.92189 69.82800 64.87495
# Shear Modulus (GPa) = 18.51013 23.54898 21.02955
#
# Velocity S-wave (km/s) = 3.26360 3.68110 3.47862
# Velocity P-wave (km/s) = 6.97722 7.63202 7.31195
#
# Compressibility (1/GPa) = 0.01668839
#
# Stress axis : x y z
#
# Youngs Moduli (GPa) = 57.92900 94.39174 45.09957
#
# Poissons Ratio (x) = 0.58576 0.49760
# Poissons Ratio (y) = 0.35949 -0.02563
# Poissons Ratio (z) = 0.63915 -0.05364
#
# Static dielectric constant tensor:
#      x y z
#    x 3.323190 0.000000 0.000000 
#    y 0.000000 3.528120 0.000000 
#    z 0.000000 0.000000 2.838030 
# 
# 
# High freq. dielectric constant tensor:
#      x y z
#    x 1.674090 0.000000 0.000000 
#    y 0.000000 1.697510 0.000000 
#    z 0.000000 0.000000 1.621550 
# 
# From -- ./inp_files/29482.got.cif
#   From: 2010.03.12/outbox.cif.g09.slc.cpg/sg24_15_cif.got.tgz:29482.got - 2010.04.14 03:06:53.
