data_PCOD8165180
_publ_section_title
;
Structure prediction by ZEFSAII (Michael W. Deem and Ramdas Pophale) SiO2 
 PCOD8165180
Probable space group: I 21 21 21
;
_chemical_formula_sum "Si O2"
_cell_formula_units_Z 36
_cell_length_a 5.426032
_cell_length_b 16.663292
_cell_length_c 17.941534
_cell_angle_alpha 90.000000
_cell_angle_beta 90.000000
_cell_angle_gamma 90.000000
_cell_volume 1622.193765
_symmetry_space_group_name_H-M "I 21 21 21"
_symmetry_group_IT_number 24
_symmetry_cell_setting 'orthorhombic'
loop_
_space_group_symop_operation_xyz
x,y,z
-x,1/2-y,z
x,-y,1/2-z
1/2-x,y,-z
1/2+x,1/2+y,1/2+z
1/2-x,-y,1/2+z
1/2+x,1/2-y,-z
-x,1/2+y,1/2-z
loop_
_atom_site_type_symbol
_atom_site_label
_atom_site_fract_x
_atom_site_fract_y
_atom_site_fract_z
Si Si1 0.752242 0.792557 0.411768
Si Si2 0.271554 0.000000 0.750000
Si Si3 0.429791 0.548401 0.374413
Si Si4 0.500000 0.250000 0.548752
Si Si5 0.549580 0.916805 0.877912
Si Si6 0.250000 0.009262 0.000000
O O1 0.500000 0.750000 0.383536
O O2 0.750000 0.799285 0.500000
O O3 0.770939 0.880705 0.372607
O O4 0.000000 0.750000 0.382870
O O5 0.434501 0.937278 0.797354
O O6 0.105306 0.945064 0.696707
O O7 0.317883 0.458644 0.378941
O O8 0.576534 0.566765 0.451275
O O9 0.750000 0.265193 0.500000
O O10 0.564573 0.177403 0.605279
O O11 0.393713 0.952541 0.944502
#
# Coordination Sequence:
#
# PCOD8165180 Si02
#       6
#     8   4   8   4   8   4
#     4  10  23  39  65 103 137 172 226 298 357 416
#     4  10  26  44  68  96 140 200 244 288 364 448
#     4  11  23  42  69  97 140 189 240 297 362 437
#     4  12  26  46  78 120 150 186 250 330 386 436
#     4  11  23  44  70 103 145 188 243 306 373 453
#     4  10  20  36  70 104 128 182 232 292 368 436
#
# _framework density 22.192170999999998
#
# number of rings (size 3 to 8) (size 9 to 14) (size 15 to 20)
#    0.000    1.333    1.111    4.000   14.000    0.000 
#    0.000    4.444    0.000    0.000    0.000    0.000 
#    0.000    0.000    0.000    0.000    0.000    0.000 
#
# Total GULP energy -223143.195434 kJ/mol
# GULP energy per Si atom -12396.844191 kJ/mol
# Density = 2.214166 g / cm^3
# Si number density = 22.192171 Si / 1000 Ang^3
#
#
#
# Elastic Constant Matrix: (Units=GPa)
#
#
# Indices 1 2 3 4 5 6 
#
# 1 130.4752 34.0671 59.2280 0.0000 0.0000 0.0000
# 2 34.0671 113.3357 64.9213 0.0000 0.0000 0.0000
# 3 59.2280 64.9213 117.7736 0.0000 0.0000 0.0000
# 4 0.0000 0.0000 0.0000 17.9743 0.0000 0.0000
# 5 0.0000 0.0000 0.0000 0.0000 142.8205 0.0000
# 6 0.0000 0.0000 0.0000 0.0000 0.0000 32.5204
#
#
#
# Elastic Compliance Matrix: (Units=1/GPa)
#
#
# Indices 1 2 3 4 5 6 
#
# 1 0.009934 -0.000182 -0.004896 0.000000 0.000000 0.000000
# 2 -0.000182 0.012898 -0.007019 0.000000 0.000000 0.000000
# 3 -0.004896 -0.007019 0.014822 0.000000 0.000000 0.000000
# 4 0.000000 0.000000 0.000000 0.055635 0.000000 0.000000
# 5 0.000000 0.000000 0.000000 0.000000 0.007002 0.000000
# 6 0.000000 0.000000 0.000000 0.000000 0.000000 0.030750
#
#
# Mechanical properties :
#
#
# Convention : Reuss Voigt Hill
#
# Bulk Modulus (GPa) = 74.28202 75.33526 74.80864
# Shear Modulus (GPa) = 31.30465 52.22091 41.76278
#
# Velocity S-wave (km/s) = 3.75989 4.85616 4.34276
# Velocity P-wave (km/s) = 7.23836 8.09096 7.67650
#
# Compressibility (1/GPa) = 0.01346221
#
# Stress axis : x y z
#
# Youngs Moduli (GPa) = 100.66362 77.52863 67.46779
#
# Poissons Ratio (x) = 0.01409 0.33030
# Poissons Ratio (y) = 0.01829 0.47354
# Poissons Ratio (z) = 0.49282 0.54415
#
# Static dielectric constant tensor:
#      x y z
#    x 4.393910 0.000000 0.000000 
#    y 0.000000 3.696890 0.000000 
#    z 0.000000 0.000000 4.111440 
# 
# 
# High freq. dielectric constant tensor:
#      x y z
#    x 1.888800 0.000000 0.000000 
#    y 0.000000 1.864530 0.000000 
#    z 0.000000 0.000000 1.863670 
# 
# From -- ./inp_files/5481.got.cif
#   From: 2010.03.12/outbox.cif.g09.slc.cpg/sg24_3_cif.got.tgz:5481.got - 2010.04.14 03:06:53.
