data_PCOD8165162
_publ_section_title
;
Structure prediction by ZEFSAII (Michael W. Deem and Ramdas Pophale) SiO2 
 PCOD8165162
Probable space group: I 21 21 21
;
_chemical_formula_sum "Si O2"
_cell_formula_units_Z 64
_cell_length_a 18.879717
_cell_length_b 11.819582
_cell_length_c 15.042204
_cell_angle_alpha 90.000000
_cell_angle_beta 90.000000
_cell_angle_gamma 90.000000
_cell_volume 3356.673286
_symmetry_space_group_name_H-M "I 21 21 21"
_symmetry_group_IT_number 24
_symmetry_cell_setting 'orthorhombic'
loop_
_space_group_symop_operation_xyz
x,y,z
-x,1/2-y,z
x,-y,1/2-z
1/2-x,y,-z
1/2+x,1/2+y,1/2+z
1/2-x,-y,1/2+z
1/2+x,1/2-y,-z
-x,1/2+y,1/2-z
loop_
_atom_site_type_symbol
_atom_site_label
_atom_site_fract_x
_atom_site_fract_y
_atom_site_fract_z
Si Si1 0.675852 0.256162 0.346794
Si Si2 0.082866 0.237503 0.017944
Si Si3 0.319069 0.631573 0.853132
Si Si4 0.782173 0.500000 0.627326
Si Si5 0.819068 0.868427 0.353132
Si Si6 0.582866 0.737502 0.982055
Si Si7 0.175851 0.243839 0.846793
Si Si8 0.859260 0.500000 0.055038
O O1 0.748031 0.198059 0.381768
O O2 0.688141 0.388140 0.326772
O O3 0.616100 0.238138 0.420910
O O4 0.653315 0.203719 0.250001
O O5 0.116099 0.261864 0.920909
O O6 0.000000 0.250000 0.007817
O O7 0.115221 0.325155 0.088443
O O8 0.093114 0.111284 0.055051
O O9 0.306659 0.500000 0.872788
O O10 0.337136 0.653312 0.750000
O O11 0.384780 0.674845 0.911556
O O12 0.811860 0.611861 0.673226
O O13 0.807151 0.499998 0.527162
O O14 0.696159 0.500001 0.637046
O O15 0.748031 0.801942 0.381767
O O16 0.500000 0.750000 0.992185
O O17 0.593114 0.611284 0.944947
#
# Coordination Sequence:
#
# PCOD8165162 Si02
#       8
#     8   8   8   8   8   8   8   8
#     4  10  20  36  60  88 114 147 191 234 278 331
#     4  11  23  37  58  84 119 155 183 228 284 340
#     4  10  22  40  61  84 110 145 194 241 280 331
#     4   9  15  32  60  82 111 141 181 244 280 309
#     4  10  22  40  61  84 110 145 194 241 280 331
#     4  11  23  37  58  84 119 155 183 228 284 340
#     4  10  20  36  60  88 114 147 191 234 278 331
#     4   9  18  34  54  86 110 138 195 231 268 338
#
# _framework density 19.066496000000001
#
# number of rings (size 3 to 8) (size 9 to 14) (size 15 to 20)
#    0.000    2.000    2.500    1.125    1.750    3.000 
#    0.000    0.625    0.000    0.000    0.000    0.000 
#    0.000    0.000    0.000    0.000    0.000    0.000 
#
# Total GULP energy -396630.581036 kJ/mol
# GULP energy per Si atom -12394.705657 kJ/mol
# Density = 1.902310 g / cm^3
# Si number density = 19.066496 Si / 1000 Ang^3
#
#
#
# Elastic Constant Matrix: (Units=GPa)
#
#
# Indices 1 2 3 4 5 6 
#
# 1 148.0475 43.3301 59.6509 0.0000 0.0000 0.0000
# 2 43.3301 104.3992 35.0924 0.0000 0.0000 0.0000
# 3 59.6509 35.0924 87.3208 0.0000 0.0000 0.0000
# 4 0.0000 0.0000 0.0000 21.6157 0.0000 0.0000
# 5 0.0000 0.0000 0.0000 0.0000 19.1737 0.0000
# 6 0.0000 0.0000 0.0000 0.0000 0.0000 24.9785
#
#
#
# Elastic Compliance Matrix: (Units=1/GPa)
#
#
# Indices 1 2 3 4 5 6 
#
# 1 0.009695 -0.002078 -0.005787 0.000000 0.000000 0.000000
# 2 -0.002078 0.011520 -0.003210 0.000000 0.000000 0.000000
# 3 -0.005787 -0.003210 0.016696 0.000000 0.000000 0.000000
# 4 0.000000 0.000000 0.000000 0.046263 0.000000 0.000000
# 5 0.000000 0.000000 0.000000 0.000000 0.052155 0.000000
# 6 0.000000 0.000000 0.000000 0.000000 0.000000 0.040034
#
#
# Mechanical properties :
#
#
# Convention : Reuss Voigt Hill
#
# Bulk Modulus (GPa) = 63.45579 68.43491 65.94535
# Shear Modulus (GPa) = 24.53784 26.59985 25.56884
#
# Velocity S-wave (km/s) = 3.59132 3.73917 3.66599
# Velocity P-wave (km/s) = 7.10987 7.39003 7.25130
#
# Compressibility (1/GPa) = 0.01575900
#
# Stress axis : x y z
#
# Youngs Moduli (GPa) = 103.14866 86.80403 59.89603
#
# Poissons Ratio (x) = 0.18041 0.34665
# Poissons Ratio (y) = 0.21438 0.19226
# Poissons Ratio (z) = 0.59697 0.27864
#
# Static dielectric constant tensor:
#      x y z
#    x 3.195850 0.000000 0.000000 
#    y 0.000000 3.739870 0.000000 
#    z 0.000000 0.000000 3.605600 
# 
# 
# High freq. dielectric constant tensor:
#      x y z
#    x 1.716720 0.000000 0.000000 
#    y 0.000000 1.747740 0.000000 
#    z 0.000000 0.000000 1.750200 
# 
# From -- ./inp_files/27215.got.cif
#   From: 2010.03.12/outbox.cif.g09.slc.cpg/sg24_14_cif.got.tgz:27215.got - 2010.04.14 03:06:53.
