data_PCOD8165727
_publ_section_title
;
Structure prediction by ZEFSAII (Michael W. Deem and Ramdas Pophale) SiO2 
 PCOD8165727
Probable space group: I 21 21 21
;
_chemical_formula_sum "Si O2"
_cell_formula_units_Z 48
_cell_length_a 9.642463
_cell_length_b 14.305622
_cell_length_c 17.502758
_cell_angle_alpha 90.000000
_cell_angle_beta 90.000000
_cell_angle_gamma 90.000000
_cell_volume 2414.355482
_symmetry_space_group_name_H-M "I 21 21 21"
_symmetry_group_IT_number 24
_symmetry_cell_setting 'orthorhombic'
loop_
_space_group_symop_operation_xyz
x,y,z
-x,1/2-y,z
x,-y,1/2-z
1/2-x,y,-z
1/2+x,1/2+y,1/2+z
1/2-x,-y,1/2+z
1/2+x,1/2-y,-z
-x,1/2+y,1/2-z
loop_
_atom_site_type_symbol
_atom_site_label
_atom_site_fract_x
_atom_site_fract_y
_atom_site_fract_z
Si Si1 0.750000 0.370488 0.500000
Si Si2 0.900233 0.173199 0.683495
Si Si3 0.156332 0.220724 0.071139
Si Si4 0.224887 0.982591 0.370849
Si Si5 0.451138 0.000000 0.250000
Si Si6 0.995494 0.500000 0.250000
Si Si7 0.000000 0.250000 0.536909
Si Si8 0.365794 0.309905 0.772111
O O1 0.725738 0.435697 0.426950
O O2 0.612169 0.307168 0.513089
O O3 0.743911 0.200990 0.704539
O O4 0.000000 0.250000 0.722325
O O5 0.943291 0.073757 0.715158
O O6 0.914175 0.177810 0.591316
O O7 0.171851 0.109526 0.084969
O O8 0.200898 0.276048 0.147697
O O9 0.000000 0.250000 0.050470
O O10 0.250000 0.252509 0.000000
O O11 0.101075 0.027753 0.321448
O O12 0.354613 0.956204 0.316521
O O13 0.092264 0.417127 0.221375
O O14 0.500000 0.250000 0.750661
#
# Coordination Sequence:
#
# PCOD8165727 Si02
#       8
#     4   8   8   8   4   4   4   8
#     4  12  24  46  70 100 138 188 230 280 354 436
#     4  10  22  41  63  99 130 171 227 280 341 399
#     4  11  23  42  65 100 139 178 232 278 356 420
#     4  11  22  41  69 100 131 185 227 284 347 418
#     4  11  21  40  72  98 138 168 238 290 334 410
#     4  11  23  40  68  98 132 170 238 282 344 412
#     4  10  26  44  64 102 136 176 230 272 358 410
#     4  11  23  41  67 100 133 179 226 292 350 406
#
# _framework density 19.881084000000001
#
# number of rings (size 3 to 8) (size 9 to 14) (size 15 to 20)
#    0.500    0.667    5.833    1.500    4.667    3.333 
#    0.000    0.000    1.833    0.000    0.000    0.000 
#    0.000    0.000    0.000    0.000    0.000    0.000 
#
# Total GULP energy -297524.139725 kJ/mol
# GULP energy per Si atom -12396.839155 kJ/mol
# Density = 1.983583 g / cm^3
# Si number density = 19.881084 Si / 1000 Ang^3
#
#
#
# Elastic Constant Matrix: (Units=GPa)
#
#
# Indices 1 2 3 4 5 6 
#
# 1 102.8452 29.8114 31.0694 0.0000 0.0000 0.0000
# 2 29.8114 109.5080 17.5519 0.0000 0.0000 0.0000
# 3 31.0694 17.5519 62.9931 0.0000 0.0000 0.0000
# 4 0.0000 0.0000 0.0000 30.1084 0.0000 0.0000
# 5 0.0000 0.0000 0.0000 0.0000 7.3707 0.0000
# 6 0.0000 0.0000 0.0000 0.0000 0.0000 33.5028
#
#
#
# Elastic Compliance Matrix: (Units=1/GPa)
#
#
# Indices 1 2 3 4 5 6 
#
# 1 0.012013 -0.002429 -0.005248 0.000000 0.000000 0.000000
# 2 -0.002429 0.010050 -0.001602 0.000000 0.000000 0.000000
# 3 -0.005248 -0.001602 0.018910 0.000000 0.000000 0.000000
# 4 0.000000 0.000000 0.000000 0.033213 0.000000 0.000000
# 5 0.000000 0.000000 0.000000 0.000000 0.135673 0.000000
# 6 0.000000 0.000000 0.000000 0.000000 0.000000 0.029848
#
#
# Mechanical properties :
#
#
# Convention : Reuss Voigt Hill
#
# Bulk Modulus (GPa) = 44.61577 48.02351 46.31964
# Shear Modulus (GPa) = 18.81562 27.32397 23.06979
#
# Velocity S-wave (km/s) = 3.07971 3.71127 3.41014
# Velocity P-wave (km/s) = 5.92758 6.52476 6.23333
#
# Compressibility (1/GPa) = 0.02241360
#
# Stress axis : x y z
#
# Youngs Moduli (GPa) = 83.24358 99.50435 52.88303
#
# Poissons Ratio (x) = 0.24171 0.27754
# Poissons Ratio (y) = 0.20221 0.08472
# Poissons Ratio (z) = 0.43688 0.15942
#
# Static dielectric constant tensor:
#      x y z
#    x 3.606280 0.000000 0.000000 
#    y 0.000000 3.973250 0.000000 
#    z 0.000000 0.000000 3.561530 
# 
# 
# High freq. dielectric constant tensor:
#      x y z
#    x 1.777220 0.000000 0.000000 
#    y 0.000000 1.775560 0.000000 
#    z 0.000000 0.000000 1.767130 
# 
# From -- ./inp_files/29550.got.cif
#   From: 2010.03.12/outbox.cif.g09.slc.cpg/sg24_15_cif.got.tgz:29550.got - 2010.04.14 03:06:53.
