data_PCOD8165158
_publ_section_title
;
Structure prediction by ZEFSAII (Michael W. Deem and Ramdas Pophale) SiO2 
 PCOD8165158
Probable space group: I 21 21 21
;
_chemical_formula_sum "Si O2"
_cell_formula_units_Z 48
_cell_length_a 18.021157
_cell_length_b 7.473236
_cell_length_c 20.209092
_cell_angle_alpha 90.000000
_cell_angle_beta 90.000000
_cell_angle_gamma 90.000000
_cell_volume 2721.686934
_symmetry_space_group_name_H-M "I 21 21 21"
_symmetry_group_IT_number 24
_symmetry_cell_setting 'orthorhombic'
loop_
_space_group_symop_operation_xyz
x,y,z
-x,1/2-y,z
x,-y,1/2-z
1/2-x,y,-z
1/2+x,1/2+y,1/2+z
1/2-x,-y,1/2+z
1/2+x,1/2-y,-z
-x,1/2+y,1/2-z
loop_
_atom_site_type_symbol
_atom_site_label
_atom_site_fract_x
_atom_site_fract_y
_atom_site_fract_z
Si Si1 0.807151 0.955557 0.676348
Si Si2 0.915132 0.750000 0.871637
Si Si3 0.584998 0.750000 0.971747
Si Si4 0.303031 0.543490 0.560385
Si Si5 0.307151 0.955557 0.323652
Si Si6 0.803031 0.456510 0.060385
O O1 0.738681 0.000439 0.628535
O O2 0.831552 0.750000 0.668756
O O3 0.779630 0.000000 0.750000
O O4 0.878349 0.072627 0.658106
O O5 0.878349 0.572627 0.841894
O O6 0.000000 0.750000 0.848757
O O7 0.907102 0.750000 0.949867
O O8 0.500000 0.750000 0.948828
O O9 0.622702 0.572861 0.942005
O O10 0.622702 0.927139 0.942004
O O11 0.250000 0.487654 0.500000
O O12 0.326542 0.750000 0.554942
O O13 0.238681 0.000439 0.371465
O O14 0.279630 0.000000 0.250000
O O15 0.750000 0.512346 0.000000
#
# Coordination Sequence:
#
# PCOD8165158 Si02
#       6
#     8   8   8   8   8   8
#     4  11  22  37  57  83 109 147 194 233 275 326
#     4  11  23  37  53  81 121 154 182 222 276 339
#     4  11  22  36  60  86 114 150 183 228 285 337
#     4  10  20  36  59  83 111 144 188 241 277 319
#     4  11  22  37  57  83 109 147 194 233 275 326
#     4  10  20  36  59  83 111 144 188 241 277 319
#
# _framework density 17.636119999999998
#
# number of rings (size 3 to 8) (size 9 to 14) (size 15 to 20)
#    0.000    1.333    5.000    1.500    0.000    2.000 
#    0.000    3.333    0.000    1.000    0.000    0.000 
#    0.000    0.000    0.000    0.000    0.000    0.000 
#
# Total GULP energy -297725.271836 kJ/mol
# GULP energy per Si atom -12405.219660 kJ/mol
# Density = 1.759598 g / cm^3
# Si number density = 17.636120 Si / 1000 Ang^3
#
#
#
# Elastic Constant Matrix: (Units=GPa)
#
#
# Indices 1 2 3 4 5 6 
#
# 1 142.6044 82.6934 68.8715 0.0000 0.0000 0.0000
# 2 82.6934 126.4661 47.9184 0.0000 0.0000 0.0000
# 3 68.8715 47.9184 121.7220 0.0000 0.0000 0.0000
# 4 0.0000 0.0000 0.0000 19.8111 0.0000 0.0000
# 5 0.0000 0.0000 0.0000 0.0000 20.3199 0.0000
# 6 0.0000 0.0000 0.0000 0.0000 0.0000 18.5857
#
#
#
# Elastic Compliance Matrix: (Units=1/GPa)
#
#
# Indices 1 2 3 4 5 6 
#
# 1 0.013346 -0.006894 -0.004838 0.000000 0.000000 0.000000
# 2 -0.006894 0.012855 -0.001160 0.000000 0.000000 0.000000
# 3 -0.004838 -0.001160 0.011409 0.000000 0.000000 0.000000
# 4 0.000000 0.000000 0.000000 0.050477 0.000000 0.000000
# 5 0.000000 0.000000 0.000000 0.000000 0.049213 0.000000
# 6 0.000000 0.000000 0.000000 0.000000 0.000000 0.053805
#
#
# Mechanical properties :
#
#
# Convention : Reuss Voigt Hill
#
# Bulk Modulus (GPa) = 84.54905 87.75103 86.15004
# Shear Modulus (GPa) = 22.64189 24.49728 23.56959
#
# Velocity S-wave (km/s) = 3.58695 3.73103 3.65970
# Velocity P-wave (km/s) = 8.07465 8.27195 8.17389
#
# Compressibility (1/GPa) = 0.01182745
#
# Stress axis : x y z
#
# Youngs Moduli (GPa) = 74.92662 77.79375 87.64886
#
# Poissons Ratio (x) = 0.53631 0.42401
# Poissons Ratio (y) = 0.51654 0.10165
# Poissons Ratio (z) = 0.36246 0.09022
#
# Static dielectric constant tensor:
#      x y z
#    x 3.111490 0.000000 0.000000 
#    y 0.000000 3.474990 0.000000 
#    z 0.000000 0.000000 3.437320 
# 
# 
# High freq. dielectric constant tensor:
#      x y z
#    x 1.658810 0.000000 0.000000 
#    y 0.000000 1.702520 0.000000 
#    z 0.000000 0.000000 1.686380 
# 
# From -- ./inp_files/33658.got.cif
#   From: 2010.03.12/outbox.cif.g09.slc.cpg/sg24_17_cif.got.tgz:33658.got - 2010.04.14 03:06:53.
