data_PCOD8165290
_publ_section_title
;
Structure prediction by ZEFSAII (Michael W. Deem and Ramdas Pophale) SiO2 
 PCOD8165290
Probable space group: I 21 21 21
;
_chemical_formula_sum "Si O2"
_cell_formula_units_Z 60
_cell_length_a 9.031380
_cell_length_b 11.860095
_cell_length_c 28.267978
_cell_angle_alpha 90.000000
_cell_angle_beta 90.000000
_cell_angle_gamma 90.000000
_cell_volume 3027.868628
_symmetry_space_group_name_H-M "I 21 21 21"
_symmetry_group_IT_number 24
_symmetry_cell_setting 'orthorhombic'
loop_
_space_group_symop_operation_xyz
x,y,z
-x,1/2-y,z
x,-y,1/2-z
1/2-x,y,-z
1/2+x,1/2+y,1/2+z
1/2-x,-y,1/2+z
1/2+x,1/2-y,-z
-x,1/2+y,1/2-z
loop_
_atom_site_type_symbol
_atom_site_label
_atom_site_fract_x
_atom_site_fract_y
_atom_site_fract_z
Si Si1 0.837554 0.110028 0.452879
Si Si2 0.000000 0.250000 0.274151
Si Si3 0.645559 0.533672 0.803092
Si Si4 0.328764 0.235056 0.048646
Si Si5 0.825190 0.624285 0.047423
Si Si6 0.088454 0.355355 0.183195
Si Si7 0.346333 0.971806 0.384699
Si Si8 0.692449 0.059153 0.110721
O O1 0.750000 0.069164 0.500000
O O2 0.822839 0.242567 0.447337
O O3 0.009283 0.074487 0.454624
O O4 0.771616 0.055465 0.405338
O O5 0.896900 0.332427 0.306113
O O6 0.893334 0.174323 0.239421
O O7 0.683141 0.500000 0.750000
O O8 0.505203 0.468370 0.823796
O O9 0.787869 0.489172 0.831582
O O10 0.500000 0.250000 0.037382
O O11 0.294422 0.141580 0.088746
O O12 0.272435 0.353937 0.068445
O O13 0.250000 0.201339 0.000000
O O14 0.724164 0.578806 0.089380
O O15 0.750000 0.581459 0.000000
O O16 0.245163 0.383541 0.158830
O O17 0.000000 0.250000 0.158785
O O18 0.522466 0.971313 0.381540
#
# Coordination Sequence:
#
# PCOD8165290 Si02
#       8
#     8   4   8   8   8   8   8   8
#     4  10  21  36  56  83 116 155 199 244 286 347
#     4   8  20  38  64  88 112 144 200 248 302 356
#     4  10  20  39  62  87 115 151 195 247 302 362
#     4  10  23  38  54  84 122 159 197 238 283 346
#     4  10  21  38  58  83 116 156 196 241 299 350
#     4   9  19  36  62  85 110 150 194 241 296 349
#     4  11  23  37  59  85 121 158 194 242 301 359
#     4  11  22  37  57  88 120 156 198 241 292 359
#
# _framework density 19.815918
#
# number of rings (size 3 to 8) (size 9 to 14) (size 15 to 20)
#    0.400    1.600    0.000    3.200    0.000    8.533 
#    0.000    2.000    0.000    1.600    0.000    0.000 
#    0.000    0.000    0.000    0.000    0.000    0.000 
#
# Total GULP energy -371817.588822 kJ/mol
# GULP energy per Si atom -12393.919627 kJ/mol
# Density = 1.977082 g / cm^3
# Si number density = 19.815918 Si / 1000 Ang^3
#
#
#
# Elastic Constant Matrix: (Units=GPa)
#
#
# Indices 1 2 3 4 5 6 
#
# 1 133.4193 55.3729 63.5837 0.0000 0.0000 0.0000
# 2 55.3729 76.0282 36.2681 0.0000 0.0000 0.0000
# 3 63.5837 36.2681 96.0965 0.0000 0.0000 0.0000
# 4 0.0000 0.0000 0.0000 13.9898 0.0000 0.0000
# 5 0.0000 0.0000 0.0000 0.0000 23.6172 0.0000
# 6 0.0000 0.0000 0.0000 0.0000 0.0000 22.6246
#
#
#
# Elastic Compliance Matrix: (Units=1/GPa)
#
#
# Indices 1 2 3 4 5 6 
#
# 1 0.013235 -0.006661 -0.006243 0.000000 0.000000 0.000000
# 2 -0.006661 0.019394 -0.002912 0.000000 0.000000 0.000000
# 3 -0.006243 -0.002912 0.015636 0.000000 0.000000 0.000000
# 4 0.000000 0.000000 0.000000 0.071481 0.000000 0.000000
# 5 0.000000 0.000000 0.000000 0.000000 0.042342 0.000000
# 6 0.000000 0.000000 0.000000 0.000000 0.000000 0.044200
#
#
# Mechanical properties :
#
#
# Convention : Reuss Voigt Hill
#
# Bulk Modulus (GPa) = 60.12434 68.44372 64.28403
# Shear Modulus (GPa) = 20.53693 22.06759 21.30226
#
# Velocity S-wave (km/s) = 3.22279 3.34073 3.28229
# Velocity P-wave (km/s) = 6.65250 7.03530 6.84657
#
# Compressibility (1/GPa) = 0.01663220
#
# Stress axis : x y z
#
# Youngs Moduli (GPa) = 75.55691 51.56350 63.95464
#
# Poissons Ratio (x) = 0.34347 0.39928
# Poissons Ratio (y) = 0.50330 0.18623
# Poissons Ratio (z) = 0.47171 0.15015
#
# Static dielectric constant tensor:
#      x y z
#    x 3.841440 0.000000 0.000000 
#    y 0.000000 3.767150 0.000000 
#    z 0.000000 0.000000 3.652090 
# 
# 
# High freq. dielectric constant tensor:
#      x y z
#    x 1.759400 0.000000 0.000000 
#    y 0.000000 1.785320 0.000000 
#    z 0.000000 0.000000 1.763810 
# 
# From -- ./inp_files/38382.got.cif
#   From: 2010.03.12/outbox.cif.g09.slc.cpg/sg24_20_cif.got.tgz:38382.got - 2010.04.14 03:06:53.
