data_PCOD8165308
_publ_section_title
;
Structure prediction by ZEFSAII (Michael W. Deem and Ramdas Pophale) SiO2 
 PCOD8165308
Probable space group: I 21 21 21
;
_chemical_formula_sum "Si O2"
_cell_formula_units_Z 40
_cell_length_a 27.800965
_cell_length_b 13.789799
_cell_length_c 5.264817
_cell_angle_alpha 90.000000
_cell_angle_beta 90.000000
_cell_angle_gamma 90.000000
_cell_volume 2018.371416
_symmetry_space_group_name_H-M "I 21 21 21"
_symmetry_group_IT_number 24
_symmetry_cell_setting 'orthorhombic'
loop_
_space_group_symop_operation_xyz
x,y,z
-x,1/2-y,z
x,-y,1/2-z
1/2-x,y,-z
1/2+x,1/2+y,1/2+z
1/2-x,-y,1/2+z
1/2+x,1/2-y,-z
-x,1/2+y,1/2-z
loop_
_atom_site_type_symbol
_atom_site_label
_atom_site_fract_x
_atom_site_fract_y
_atom_site_fract_z
Si Si1 0.622581 0.771317 0.438242
Si Si2 0.530698 0.903232 0.383504
Si Si3 0.405114 0.823941 0.918905
Si Si4 0.958163 0.500000 0.250000
Si Si5 0.500000 0.750000 0.017951
Si Si6 0.806625 0.058482 0.997278
O O1 0.576266 0.840435 0.466383
O O2 0.626829 0.694034 0.668521
O O3 0.669750 0.836326 0.470522
O O4 0.622001 0.709943 0.175558
O O5 0.493770 0.924925 0.610852
O O6 0.497026 0.846564 0.187724
O O7 0.550616 0.000000 0.250000
O O8 0.422919 0.936027 0.930473
O O9 0.450793 0.752592 0.861318
O O10 0.823138 0.000000 0.750000
O O11 0.750000 0.075920 0.000000
O O12 0.823414 0.000000 0.250000
#
# Coordination Sequence:
#
# PCOD8165308 Si02
#       6
#     8   8   8   4   4   8
#     4  11  24  37  56  85 114 150 189 243 291 345
#     4  11  22  33  53  74 110 154 198 238 285 332
#     4  11  23  37  55  76 115 150 198 244 281 337
#     4  12  22  36  54  78 110 162 204 238 288 326
#     4  10  20  40  46  76 110 150 198 246 282 332
#     4  10  21  39  64  90 119 148 183 231 294 365
#
# _framework density 19.817958999999998
#
# number of rings (size 3 to 8) (size 9 to 14) (size 15 to 20)
#    0.000    1.200    2.000    5.400    4.200    0.800 
#    0.000    0.000    0.000    0.000    0.000    2.800 
#    0.000    0.000    0.000    0.000    0.000    0.000 
#
# Total GULP energy -247878.945817 kJ/mol
# GULP energy per Si atom -12393.947291 kJ/mol
# Density = 1.977285 g / cm^3
# Si number density = 19.817959 Si / 1000 Ang^3
#
#
#
# Elastic Constant Matrix: (Units=GPa)
#
#
# Indices 1 2 3 4 5 6 
#
# 1 40.1484 20.1874 22.5958 0.0000 0.0000 0.0000
# 2 20.1874 84.9962 35.4083 0.0000 0.0000 0.0000
# 3 22.5958 35.4083 134.1763 -0.0001 -0.0001 -0.0002
# 4 0.0000 0.0000 -0.0001 40.7849 0.0000 0.0000
# 5 0.0000 0.0000 -0.0001 0.0000 14.7365 0.0000
# 6 0.0000 0.0000 -0.0002 0.0000 0.0000 29.1335
#
#
#
# Elastic Compliance Matrix: (Units=1/GPa)
#
#
# Indices 1 2 3 4 5 6 
#
# 1 0.029701 -0.005585 -0.003528 0.000000 0.000000 0.000000
# 2 -0.005585 0.014268 -0.002825 0.000000 0.000000 0.000000
# 3 -0.003528 -0.002825 0.008792 0.000000 0.000000 0.000000
# 4 0.000000 0.000000 0.000000 0.024519 0.000000 0.000000
# 5 0.000000 0.000000 0.000000 0.000000 0.067859 0.000000
# 6 0.000000 0.000000 0.000000 0.000000 0.000000 0.034325
#
#
# Mechanical properties :
#
#
# Convention : Reuss Voigt Hill
#
# Bulk Modulus (GPa) = 34.61749 46.18932 40.40340
# Shear Modulus (GPa) = 23.47765 29.00627 26.24196
#
# Velocity S-wave (km/s) = 3.44563 3.82990 3.64284
# Velocity P-wave (km/s) = 5.77369 6.55095 6.17456
#
# Compressibility (1/GPa) = 0.02888713
#
# Stress axis : x y z
#
# Youngs Moduli (GPa) = 33.66858 70.08484 113.73338
#
# Poissons Ratio (x) = 0.39139 0.40126
# Poissons Ratio (y) = 0.18802 0.32128
# Poissons Ratio (z) = 0.11879 0.19798
#
# Static dielectric constant tensor:
#      x y z
#    x 3.235120 0.000000 0.000000 
#    y 0.000000 3.654670 0.000000 
#    z 0.000000 0.000000 3.806870 
# 
# 
# High freq. dielectric constant tensor:
#      x y z
#    x 1.724990 0.000000 0.000000 
#    y 0.000000 1.775070 0.000000 
#    z 0.000000 0.000000 1.790900 
# 
# From -- ./inp_files/2514.got.cif
#   From: 2010.03.12/outbox.cif.g09.slc.cpg/sg24_2_cif.got.tgz:2514.got - 2010.04.14 03:06:53.
