data_PCOD8165383
_publ_section_title
;
Structure prediction by ZEFSAII (Michael W. Deem and Ramdas Pophale) SiO2 
 PCOD8165383
Probable space group: I 21 21 21
;
_chemical_formula_sum "Si O2"
_cell_formula_units_Z 64
_cell_length_a 16.290646
_cell_length_b 13.093426
_cell_length_c 16.900203
_cell_angle_alpha 90.000000
_cell_angle_beta 90.000000
_cell_angle_gamma 90.000000
_cell_volume 3604.819517
_symmetry_space_group_name_H-M "I 21 21 21"
_symmetry_group_IT_number 24
_symmetry_cell_setting 'orthorhombic'
loop_
_space_group_symop_operation_xyz
x,y,z
-x,1/2-y,z
x,-y,1/2-z
1/2-x,y,-z
1/2+x,1/2+y,1/2+z
1/2-x,-y,1/2+z
1/2+x,1/2-y,-z
-x,1/2+y,1/2-z
loop_
_atom_site_type_symbol
_atom_site_label
_atom_site_fract_x
_atom_site_fract_y
_atom_site_fract_z
Si Si1 0.326683 0.196481 0.680706
Si Si2 0.430464 0.057439 0.580572
Si Si3 0.323333 0.656268 0.950693
Si Si4 0.816537 0.549525 0.826046
Si Si5 0.087177 0.513011 0.345127
Si Si6 0.792624 0.403657 0.076217
Si Si7 0.901490 0.236124 0.162809
Si Si8 0.424871 0.809392 0.060709
O O1 0.405468 0.141636 0.644168
O O2 0.284380 0.268163 0.614747
O O3 0.258979 0.115718 0.709677
O O4 0.366512 0.263718 0.748945
O O5 0.492456 0.985060 0.628019
O O6 0.466257 0.112792 0.502691
O O7 0.351053 0.996362 0.550125
O O8 0.372393 0.572373 0.900665
O O9 0.250000 0.602714 0.000000
O O10 0.372726 0.725084 0.013455
O O11 0.863326 0.500000 0.750000
O O12 0.781012 0.452520 0.873195
O O13 0.875280 0.624085 0.875476
O O14 0.095901 0.500000 0.250000
O O15 0.121722 0.623811 0.369671
O O16 0.849949 0.319570 0.115852
O O17 0.750000 0.352945 0.000000
O O18 0.000000 0.250000 0.159834
O O19 0.500000 0.750000 0.103913
#
# Coordination Sequence:
#
# PCOD8165383 Si02
#       8
#     8   8   8   8   8   8   8   8
#     4  10  21  33  55  89 123 152 190 243 303 367
#     4  10  21  33  55  89 123 152 190 243 303 367
#     4  11  22  37  57  86 121 153 200 248 297 371
#     4  11  21  37  63  90 118 155 200 257 312 355
#     4  12  23  36  56  85 124 166 196 241 309 372
#     4  11  22  37  57  86 121 153 200 248 297 371
#     4  12  23  36  56  85 124 166 196 241 309 372
#     4  11  21  37  63  90 118 155 200 257 312 355
#
# _framework density 17.754010000000001
#
# number of rings (size 3 to 8) (size 9 to 14) (size 15 to 20)
#    0.000    1.000    7.500    0.750    0.000    0.500 
#    0.000    0.000    0.000    4.500    0.000    0.000 
#    0.000    0.000    0.000    0.000    0.000    0.000 
#
# Total GULP energy -396430.917728 kJ/mol
# GULP energy per Si atom -12388.466179 kJ/mol
# Density = 1.771360 g / cm^3
# Si number density = 17.754010 Si / 1000 Ang^3
#
#
#
# Elastic Constant Matrix: (Units=GPa)
#
#
# Indices 1 2 3 4 5 6 
#
# 1 65.5403 33.6491 66.9670 0.0000 0.0000 0.0000
# 2 33.6491 94.2157 58.6835 0.0000 0.0000 0.0000
# 3 66.9670 58.6835 105.8777 0.0000 0.0000 0.0000
# 4 0.0000 0.0000 0.0000 36.0522 0.0000 0.0000
# 5 0.0000 0.0000 0.0000 0.0000 30.8610 0.0000
# 6 0.0000 0.0000 0.0000 0.0000 0.0000 34.0945
#
#
#
# Elastic Compliance Matrix: (Units=1/GPa)
#
#
# Indices 1 2 3 4 5 6 
#
# 1 0.043499 0.002445 -0.028868 0.000000 0.000000 0.000000
# 2 0.002445 0.016348 -0.010607 0.000000 0.000000 0.000000
# 3 -0.028868 -0.010607 0.033583 0.000000 0.000000 0.000000
# 4 0.000000 0.000000 0.000000 0.027738 0.000000 0.000000
# 5 0.000000 0.000000 0.000000 0.000000 0.032403 0.000000
# 6 0.000000 0.000000 0.000000 0.000000 0.000000 0.029330
#
#
# Mechanical properties :
#
#
# Convention : Reuss Voigt Hill
#
# Bulk Modulus (GPa) = 51.62889 64.91475 58.27182
# Shear Modulus (GPa) = 18.98134 27.29049 23.13591
#
# Velocity S-wave (km/s) = 3.27330 3.92490 3.61382
# Velocity P-wave (km/s) = 6.59009 7.56192 7.09267
#
# Compressibility (1/GPa) = 0.01936900
#
# Stress axis : x y z
#
# Youngs Moduli (GPa) = 22.98920 61.17126 29.77710
#
# Poissons Ratio (x) = -0.14958 0.85960
# Poissons Ratio (y) = -0.05621 0.31586
# Poissons Ratio (z) = 0.66365 0.64886
#
# Static dielectric constant tensor:
#      x y z
#    x 3.102490 0.000000 0.000000 
#    y 0.000000 3.382970 0.000000 
#    z 0.000000 0.000000 3.251290 
# 
# 
# High freq. dielectric constant tensor:
#      x y z
#    x 1.668280 0.000000 0.000000 
#    y 0.000000 1.691150 0.000000 
#    z 0.000000 0.000000 1.679900 
# 
# From -- ./inp_files/31251.got.cif
#   From: 2010.03.12/outbox.cif.g09.slc.cpg/sg24_16_cif.got.tgz:31251.got - 2010.04.14 03:06:53.
