data_PCOD8165435
_publ_section_title
;
Structure prediction by ZEFSAII (Michael W. Deem and Ramdas Pophale) SiO2 
 PCOD8165435
Probable space group: I 21 21 21
;
_chemical_formula_sum "Si O2"
_cell_formula_units_Z 56
_cell_length_a 10.418336
_cell_length_b 17.925617
_cell_length_c 14.667479
_cell_angle_alpha 90.000000
_cell_angle_beta 90.000000
_cell_angle_gamma 90.000000
_cell_volume 2739.226521
_symmetry_space_group_name_H-M "I 21 21 21"
_symmetry_group_IT_number 24
_symmetry_cell_setting 'orthorhombic'
loop_
_space_group_symop_operation_xyz
x,y,z
-x,1/2-y,z
x,-y,1/2-z
1/2-x,y,-z
1/2+x,1/2+y,1/2+z
1/2-x,-y,1/2+z
1/2+x,1/2-y,-z
-x,1/2+y,1/2-z
loop_
_atom_site_type_symbol
_atom_site_label
_atom_site_fract_x
_atom_site_fract_y
_atom_site_fract_z
Si Si1 0.356047 0.983574 0.348428
Si Si2 0.750000 0.584953 0.000000
Si Si3 1.000000 0.338656 0.421916
Si Si4 0.245308 0.833149 0.608138
Si Si5 0.856047 0.983574 0.651572
Si Si6 0.500000 0.337716 0.786972
Si Si7 0.750000 0.915047 0.000000
Si Si8 0.754692 0.833149 0.608138
O O1 0.268913 0.029548 0.416448
O O2 0.500000 0.014265 0.356013
O O3 0.297321 0.000000 0.250000
O O4 0.359798 0.894451 0.365561
O O5 0.873434 0.635106 0.023530
O O6 0.126566 0.364894 0.476470
O O7 0.000000 0.250000 0.422231
O O8 0.000000 0.369498 0.316993
O O9 0.250000 0.829449 0.500000
O O10 0.376936 0.862867 0.654080
O O11 0.209188 0.750000 0.645125
O O12 0.768913 0.029548 0.583552
O O13 0.797321 0.000000 0.750000
O O14 0.859798 0.894451 0.634439
O O15 0.500000 0.250000 0.779875
O O16 0.376936 0.362867 0.845920
O O17 0.750000 0.829449 0.500000
#
# Coordination Sequence:
#
# PCOD8165435 Si02
#       8
#     8   4   8   8   8   8   4   8
#     4  11  24  41  61  91 133 170 209 268 328 388
#     4  12  23  44  67  98 124 176 220 266 341 394
#     4  11  24  43  70  95 130 172 224 280 322 390
#     4  10  21  37  63  93 125 167 214 268 324 388
#     4  11  24  41  61  91 133 170 209 268 328 388
#     4   9  20  39  61  93 126 162 219 274 323 386
#     4  12  23  44  67  98 124 176 220 266 341 394
#     4  10  21  37  63  93 125 167 214 268 324 388
#
# _framework density 20.443728
#
# number of rings (size 3 to 8) (size 9 to 14) (size 15 to 20)
#    0.000    1.429    2.857    2.143    2.000    1.714 
#    0.000    4.286    0.000    0.000    0.000    0.000 
#    0.000    0.000    0.000    0.000    0.000    0.000 
#
# Total GULP energy -347080.051711 kJ/mol
# GULP energy per Si atom -12395.716133 kJ/mol
# Density = 2.039720 g / cm^3
# Si number density = 20.443728 Si / 1000 Ang^3
#
#
#
# Elastic Constant Matrix: (Units=GPa)
#
#
# Indices 1 2 3 4 5 6 
#
# 1 103.1689 32.3631 53.8751 0.0000 0.0000 0.0000
# 2 32.3631 117.2870 49.1609 0.0000 0.0000 0.0000
# 3 53.8751 49.1609 139.5735 0.0000 0.0000 0.0000
# 4 0.0000 0.0000 0.0000 74.3659 0.0000 0.0000
# 5 0.0000 0.0000 0.0000 0.0000 37.7634 0.0000
# 6 0.0000 0.0000 0.0000 0.0000 0.0000 33.3781
#
#
#
# Elastic Compliance Matrix: (Units=1/GPa)
#
#
# Indices 1 2 3 4 5 6 
#
# 1 0.012410 -0.001662 -0.004205 0.000000 0.000000 0.000000
# 2 -0.001662 0.010225 -0.002960 0.000000 0.000000 0.000000
# 3 -0.004205 -0.002960 0.009830 0.000000 0.000000 0.000000
# 4 0.000000 0.000000 0.000000 0.013447 0.000000 0.000000
# 5 0.000000 0.000000 0.000000 0.000000 0.026481 0.000000
# 6 0.000000 0.000000 0.000000 0.000000 0.000000 0.029960
#
#
# Mechanical properties :
#
#
# Convention : Reuss Voigt Hill
#
# Bulk Modulus (GPa) = 67.51269 70.09195 68.80232
# Shear Modulus (GPa) = 40.01787 44.07685 42.04736
#
# Velocity S-wave (km/s) = 4.42912 4.64832 4.54005
# Velocity P-wave (km/s) = 7.69750 7.94789 7.82370
#
# Compressibility (1/GPa) = 0.01481203
#
# Stress axis : x y z
#
# Youngs Moduli (GPa) = 80.58055 97.79579 101.72529
#
# Poissons Ratio (x) = 0.16252 0.42774
# Poissons Ratio (y) = 0.13391 0.30112
# Poissons Ratio (z) = 0.33883 0.28949
#
# Static dielectric constant tensor:
#      x y z
#    x 3.662330 0.000000 0.000000 
#    y 0.000000 3.809450 0.000000 
#    z 0.000000 0.000000 3.897840 
# 
# 
# High freq. dielectric constant tensor:
#      x y z
#    x 1.793070 0.000000 0.000000 
#    y 0.000000 1.800640 0.000000 
#    z 0.000000 0.000000 1.810390 
# 
# From -- ./inp_files/25851.got.cif
#   From: 2010.03.12/outbox.cif.g09.slc.cpg/sg24_13_cif.got.tgz:25851.got - 2010.04.14 03:06:53.
