data_PCOD8165334
_publ_section_title
;
Structure prediction by ZEFSAII (Michael W. Deem and Ramdas Pophale) SiO2 
 PCOD8165334
Probable space group: I 21 21 21
;
_chemical_formula_sum "Si O2"
_cell_formula_units_Z 40
_cell_length_a 10.019128
_cell_length_b 8.921964
_cell_length_c 20.093988
_cell_angle_alpha 90.000000
_cell_angle_beta 90.000000
_cell_angle_gamma 90.000000
_cell_volume 1796.207602
_symmetry_space_group_name_H-M "I 21 21 21"
_symmetry_group_IT_number 24
_symmetry_cell_setting 'orthorhombic'
loop_
_space_group_symop_operation_xyz
x,y,z
-x,1/2-y,z
x,-y,1/2-z
1/2-x,y,-z
1/2+x,1/2+y,1/2+z
1/2-x,-y,1/2+z
1/2+x,1/2-y,-z
-x,1/2+y,1/2-z
loop_
_atom_site_type_symbol
_atom_site_label
_atom_site_fract_x
_atom_site_fract_y
_atom_site_fract_z
Si Si1 0.642966 0.705588 0.946518
Si Si2 0.425638 0.028908 0.327856
Si Si3 0.600715 0.000000 0.750000
Si Si4 0.000000 0.250000 0.156327
Si Si5 0.201538 0.351294 0.657247
Si Si6 0.720058 0.604829 0.578208
O O1 0.500000 0.750000 0.977077
O O2 0.701205 0.848334 0.906880
O O3 0.632205 0.546986 0.908027
O O4 0.750000 0.658225 0.000000
O O5 0.365664 0.190725 0.339672
O O6 0.583954 0.024948 0.346259
O O7 0.405146 0.000000 0.250000
O O8 0.355709 0.908977 0.377217
O O9 0.509790 0.901527 0.700617
O O10 0.698085 0.878059 0.782723
O O11 0.131202 0.238398 0.109407
O O12 0.750000 0.639579 0.500000
#
# Coordination Sequence:
#
# PCOD8165334 Si02
#       6
#     8   8   4   4   8   8
#     4  10  22  38  68  98 135 181 228 289 342 427
#     4  10  20  40  68  96 133 178 229 294 344 423
#     4  12  26  44  66 102 136 184 236 298 356 424
#     4  12  28  46  70 102 142 190 240 296 362 424
#     4  10  22  38  63  98 132 168 230 281 353 409
#     4  10  24  45  67  97 142 189 237 289 366 423
#
# _framework density 22.269141999999999
#
# number of rings (size 3 to 8) (size 9 to 14) (size 15 to 20)
#    0.000    1.600    1.000    2.400   16.800    0.000 
#    3.600    1.000    0.000    0.000    0.000    0.000 
#    0.000    0.000    0.000    0.000    0.000    0.000 
#
# Total GULP energy -247802.568622 kJ/mol
# GULP energy per Si atom -12390.128431 kJ/mol
# Density = 2.221846 g / cm^3
# Si number density = 22.269142 Si / 1000 Ang^3
#
#
#
# Elastic Constant Matrix: (Units=GPa)
#
#
# Indices 1 2 3 4 5 6 
#
# 1 134.5653 28.4399 55.8282 0.0000 0.0000 0.0000
# 2 28.4399 44.2804 34.6352 0.0000 0.0000 0.0000
# 3 55.8282 34.6352 134.4930 0.0000 0.0000 0.0000
# 4 0.0000 0.0000 0.0000 30.4436 0.0000 0.0000
# 5 0.0000 0.0000 0.0000 0.0000 34.8190 0.0000
# 6 0.0000 0.0000 0.0000 0.0000 0.0000 14.2122
#
#
#
# Elastic Compliance Matrix: (Units=1/GPa)
#
#
# Indices 1 2 3 4 5 6 
#
# 1 0.009452 -0.003759 -0.002955 0.000000 0.000000 0.000000
# 2 -0.003759 0.029775 -0.006107 0.000000 0.000000 0.000000
# 3 -0.002955 -0.006107 0.010235 0.000000 0.000000 0.000000
# 4 0.000000 0.000000 0.000000 0.032848 0.000000 0.000000
# 5 0.000000 0.000000 0.000000 0.000000 0.028720 0.000000
# 6 0.000000 0.000000 0.000000 0.000000 0.000000 0.070362
#
#
# Mechanical properties :
#
#
# Convention : Reuss Voigt Hill
#
# Bulk Modulus (GPa) = 41.98511 61.23839 51.61175
# Shear Modulus (GPa) = 23.25858 28.85731 26.05795
#
# Velocity S-wave (km/s) = 3.23527 3.60369 3.42444
# Velocity P-wave (km/s) = 5.73153 6.69883 6.23397
#
# Compressibility (1/GPa) = 0.02381797
#
# Stress axis : x y z
#
# Youngs Moduli (GPa) = 105.79830 33.58555 97.70445
#
# Poissons Ratio (x) = 0.12625 0.28876
# Poissons Ratio (y) = 0.39769 0.59672
# Poissons Ratio (z) = 0.31269 0.20512
#
# Static dielectric constant tensor:
#      x y z
#    x 4.448030 0.000000 0.000000 
#    y 0.000000 3.975720 0.000000 
#    z 0.000000 0.000000 8.172940 
# 
# 
# High freq. dielectric constant tensor:
#      x y z
#    x 1.889110 0.000000 0.000000 
#    y 0.000000 1.854620 0.000000 
#    z 0.000000 0.000000 1.876520 
# 
# From -- ./inp_files/9333.got.cif
#   From: 2010.03.12/outbox.cif.g09.slc.cpg/sg24_5_cif.got.tgz:9333.got - 2010.04.14 03:06:53.
