data_PCOD8165327
_publ_section_title
;
Structure prediction by ZEFSAII (Michael W. Deem and Ramdas Pophale) SiO2 
 PCOD8165327
Probable space group: I 21 21 21
;
_chemical_formula_sum "Si O2"
_cell_formula_units_Z 40
_cell_length_a 12.518565
_cell_length_b 7.544028
_cell_length_c 20.642739
_cell_angle_alpha 90.000000
_cell_angle_beta 90.000000
_cell_angle_gamma 90.000000
_cell_volume 1949.508629
_symmetry_space_group_name_H-M "I 21 21 21"
_symmetry_group_IT_number 24
_symmetry_cell_setting 'orthorhombic'
loop_
_space_group_symop_operation_xyz
x,y,z
-x,1/2-y,z
x,-y,1/2-z
1/2-x,y,-z
1/2+x,1/2+y,1/2+z
1/2-x,-y,1/2+z
1/2+x,1/2-y,-z
-x,1/2+y,1/2-z
loop_
_atom_site_type_symbol
_atom_site_label
_atom_site_fract_x
_atom_site_fract_y
_atom_site_fract_z
Si Si1 0.750000 0.949352 0.500000
Si Si2 0.728379 0.209061 0.860460
Si Si3 0.500000 0.750000 0.615323
Si Si4 0.500000 0.250000 0.301153
Si Si5 0.332015 0.500000 0.250000
Si Si6 0.520535 0.949545 0.988080
Si Si7 0.572958 0.580065 0.383494
O O1 0.726739 0.837119 0.563763
O O2 0.642070 0.057540 0.484346
O O3 0.607288 0.263913 0.840730
O O4 0.807607 0.377481 0.858964
O O5 0.761705 0.044973 0.813713
O O6 0.493176 0.571089 0.574052
O O7 0.401876 0.320895 0.258312
O O8 0.534359 0.414205 0.343540
O O9 0.500000 0.750000 0.966683
O O10 0.437519 0.025863 0.041257
O O11 0.500000 0.750000 0.369144
#
# Coordination Sequence:
#
# PCOD8165327 Si02
#       7
#     4   8   4   4   4   8   8
#     4  10  20  40  66  92 132 168 210 280 326 390
#     4  11  23  43  69  92 134 174 221 273 332 392
#     4  10  24  46  61  90 135 184 218 276 322 386
#     4  12  24  40  67 100 135 164 214 266 348 396
#     4  12  24  42  66 100 132 176 216 278 326 410
#     4  11  21  36  65 100 132 172 218 268 332 393
#     4  12  20  40  66 101 130 171 211 264 333 395
#
# _framework density 20.517990999999999
#
# number of rings (size 3 to 8) (size 9 to 14) (size 15 to 20)
#    0.000    0.800    6.000    2.400    0.000    1.600 
#    3.600    2.000    2.200    0.000    0.000    0.000 
#    0.000    0.000    0.000    0.000    0.000    0.000 
#
# Total GULP energy -247878.215512 kJ/mol
# GULP energy per Si atom -12393.910776 kJ/mol
# Density = 2.047129 g / cm^3
# Si number density = 20.517991 Si / 1000 Ang^3
#
#
#
# Elastic Constant Matrix: (Units=GPa)
#
#
# Indices 1 2 3 4 5 6 
#
# 1 148.4839 55.3556 26.6631 0.0000 0.0000 0.0000
# 2 55.3556 141.8584 26.9745 0.0000 0.0000 0.0000
# 3 26.6631 26.9745 79.7076 0.0000 0.0000 0.0000
# 4 0.0000 0.0000 0.0000 18.8851 0.0000 0.0000
# 5 0.0000 0.0000 0.0000 0.0000 28.9366 0.0000
# 6 0.0000 0.0000 0.0000 0.0000 0.0000 25.2048
#
#
#
# Elastic Compliance Matrix: (Units=1/GPa)
#
#
# Indices 1 2 3 4 5 6 
#
# 1 0.008104 -0.002829 -0.001754 0.000000 0.000000 0.000000
# 2 -0.002829 0.008522 -0.001938 0.000000 0.000000 0.000000
# 3 -0.001754 -0.001938 0.013788 0.000000 0.000000 0.000000
# 4 0.000000 0.000000 0.000000 0.052952 0.000000 0.000000
# 5 0.000000 0.000000 0.000000 0.000000 0.034558 0.000000
# 6 0.000000 0.000000 0.000000 0.000000 0.000000 0.039675
#
#
# Mechanical properties :
#
#
# Convention : Reuss Voigt Hill
#
# Bulk Modulus (GPa) = 57.55789 65.33737 61.44763
# Shear Modulus (GPa) = 28.33974 32.00907 30.17441
#
# Velocity S-wave (km/s) = 3.72050 3.95403 3.83904
# Velocity P-wave (km/s) = 6.82418 7.26353 7.04728
#
# Compressibility (1/GPa) = 0.01737381
#
# Stress axis : x y z
#
# Youngs Moduli (GPa) = 123.39139 117.34844 72.52601
#
# Poissons Ratio (x) = 0.33198 0.12718
# Poissons Ratio (y) = 0.34907 0.14052
# Poissons Ratio (z) = 0.21638 0.22737
#
# Static dielectric constant tensor:
#      x y z
#    x 4.766030 0.000000 0.000000 
#    y 0.000000 3.449510 0.000000 
#    z 0.000000 0.000000 3.651330 
# 
# 
# High freq. dielectric constant tensor:
#      x y z
#    x 1.810130 0.000000 0.000000 
#    y 0.000000 1.794520 0.000000 
#    z 0.000000 0.000000 1.790800 
# 
# From -- ./inp_files/11096.got.cif
#   From: 2010.03.12/outbox.cif.g09.slc.cpg/sg24_6_cif.got.tgz:11096.got - 2010.04.14 03:06:53.
