data_PCOD8165836
_publ_section_title
;
Structure prediction by ZEFSAII (Michael W. Deem and Ramdas Pophale) SiO2 
 PCOD8165836
Probable space group: I 21 21 21
;
_chemical_formula_sum "Si O2"
_cell_formula_units_Z 60
_cell_length_a 22.098024
_cell_length_b 11.947161
_cell_length_c 11.544454
_cell_angle_alpha 90.000000
_cell_angle_beta 90.000000
_cell_angle_gamma 90.000000
_cell_volume 3047.835721
_symmetry_space_group_name_H-M "I 21 21 21"
_symmetry_group_IT_number 24
_symmetry_cell_setting 'orthorhombic'
loop_
_space_group_symop_operation_xyz
x,y,z
-x,1/2-y,z
x,-y,1/2-z
1/2-x,y,-z
1/2+x,1/2+y,1/2+z
1/2-x,-y,1/2+z
1/2+x,1/2-y,-z
-x,1/2+y,1/2-z
loop_
_atom_site_type_symbol
_atom_site_label
_atom_site_fract_x
_atom_site_fract_y
_atom_site_fract_z
Si Si1 0.683426 0.327644 0.028963
Si Si2 0.516941 0.877189 0.064441
Si Si3 0.834481 0.124260 0.141645
Si Si4 0.117945 0.609579 0.109284
Si Si5 0.188723 0.230088 0.550917
Si Si6 0.399730 0.500000 0.250000
Si Si7 0.201526 0.658634 0.716312
Si Si8 0.392245 0.026148 0.384710
O O1 0.690146 0.276729 0.156077
O O2 0.635542 0.427284 0.037270
O O3 0.750000 0.375502 0.000000
O O4 0.659643 0.234486 0.937746
O O5 0.500000 0.750000 0.097464
O O6 0.560781 0.924787 0.163930
O O7 0.457240 0.952231 0.058321
O O8 0.549194 0.884701 0.938935
O O9 0.878548 0.134231 0.253294
O O10 0.764727 0.104619 0.176564
O O11 0.854452 0.011629 0.075119
O O12 0.153720 0.710794 0.051993
O O13 0.250000 0.176995 0.500000
O O14 0.203945 0.323727 0.646309
O O15 0.149476 0.133855 0.607786
O O16 0.354403 0.580190 0.321824
O O17 0.400367 0.000000 0.250000
#
# Coordination Sequence:
#
# PCOD8165836 Si02
#       8
#     8   8   8   8   8   4   8   8
#     4  10  23  42  65  97 133 170 214 269 326 395
#     4  12  25  42  62  92 128 176 221 272 324 391
#     4  10  23  43  65  98 135 171 210 273 335 397
#     4  11  22  42  64  93 136 168 218 265 329 394
#     4  12  23  38  68 101 127 173 212 269 341 402
#     4  12  22  34  62 100 128 162 214 272 334 390
#     4  11  21  37  65 101 134 164 209 277 344 389
#     4  12  24  45  66  95 133 175 224 275 327 386
#
# _framework density 19.686102000000002
#
# number of rings (size 3 to 8) (size 9 to 14) (size 15 to 20)
#    0.000    0.800    6.000    2.000    0.000    0.533 
#    0.000    5.333    0.000    0.000    0.000    0.000 
#    0.000    0.000    0.000    0.000    0.000    0.000 
#
# Total GULP energy -371974.327761 kJ/mol
# GULP energy per Si atom -12399.144259 kJ/mol
# Density = 1.964130 g / cm^3
# Si number density = 19.686102 Si / 1000 Ang^3
#
#
#
# Elastic Constant Matrix: (Units=GPa)
#
#
# Indices 1 2 3 4 5 6 
#
# 1 152.9896 58.2117 43.0178 0.0000 0.0000 0.0000
# 2 58.2117 99.7991 25.9097 0.0000 0.0000 0.0000
# 3 43.0178 25.9097 76.1694 0.0000 0.0000 0.0000
# 4 0.0000 0.0000 0.0000 23.4232 0.0000 0.0000
# 5 0.0000 0.0000 0.0000 0.0000 25.6324 0.0000
# 6 0.0000 0.0000 0.0000 0.0000 0.0000 21.3764
#
#
#
# Elastic Compliance Matrix: (Units=1/GPa)
#
#
# Indices 1 2 3 4 5 6 
#
# 1 0.009275 -0.004442 -0.003727 0.000000 0.000000 0.000000
# 2 -0.004442 0.013118 -0.001954 0.000000 0.000000 0.000000
# 3 -0.003727 -0.001954 0.015898 0.000000 0.000000 0.000000
# 4 0.000000 0.000000 0.000000 0.042693 0.000000 0.000000
# 5 0.000000 0.000000 0.000000 0.000000 0.039013 0.000000
# 6 0.000000 0.000000 0.000000 0.000000 0.000000 0.046781
#
#
# Mechanical properties :
#
#
# Convention : Reuss Voigt Hill
#
# Bulk Modulus (GPa) = 55.41497 64.80405 60.10951
# Shear Modulus (GPa) = 25.90166 27.54099 26.72133
#
# Velocity S-wave (km/s) = 3.63124 3.74439 3.68825
# Velocity P-wave (km/s) = 6.76695 7.18916 6.98125
#
# Compressibility (1/GPa) = 0.01804567
#
# Stress axis : x y z
#
# Youngs Moduli (GPa) = 107.82201 76.22889 62.90116
#
# Poissons Ratio (x) = 0.33862 0.23443
# Poissons Ratio (y) = 0.47896 0.12288
# Poissons Ratio (z) = 0.40184 0.14892
#
# Static dielectric constant tensor:
#      x y z
#    x 3.734940 0.000000 0.000000 
#    y 0.000000 3.664780 0.000000 
#    z 0.000000 0.000000 3.747340 
# 
# 
# High freq. dielectric constant tensor:
#      x y z
#    x 1.768530 0.000000 0.000000 
#    y 0.000000 1.771550 0.000000 
#    z 0.000000 0.000000 1.765460 
# 
# From -- ./inp_files/22241.got.cif
#   From: 2010.03.12/outbox.cif.g09.slc.cpg/sg24_12_cif.got.tgz:22241.got - 2010.04.14 03:06:53.
