data_PCOD8165303
_publ_section_title
;
Structure prediction by ZEFSAII (Michael W. Deem and Ramdas Pophale) SiO2 
 PCOD8165303
Probable space group: I 21 21 21
;
_chemical_formula_sum "Si O2"
_cell_formula_units_Z 52
_cell_length_a 17.453532
_cell_length_b 17.027540
_cell_length_c 8.015663
_cell_angle_alpha 90.000000
_cell_angle_beta 90.000000
_cell_angle_gamma 90.000000
_cell_volume 2382.180612
_symmetry_space_group_name_H-M "I 21 21 21"
_symmetry_group_IT_number 24
_symmetry_cell_setting 'orthorhombic'
loop_
_space_group_symop_operation_xyz
x,y,z
-x,1/2-y,z
x,-y,1/2-z
1/2-x,y,-z
1/2+x,1/2+y,1/2+z
1/2-x,-y,1/2+z
1/2+x,1/2-y,-z
-x,1/2+y,1/2-z
loop_
_atom_site_type_symbol
_atom_site_label
_atom_site_fract_x
_atom_site_fract_y
_atom_site_fract_z
Si Si1 0.382687 0.901977 0.897368
Si Si2 0.045321 0.411993 0.270465
Si Si3 0.168233 0.070589 0.055882
Si Si4 0.408457 0.500000 0.250000
Si Si5 0.339179 0.626841 0.033910
Si Si6 0.077837 0.227912 0.638529
Si Si7 0.519740 0.378665 0.081561
O O1 0.472586 0.924867 0.893886
O O2 0.356550 0.874555 0.712918
O O3 0.327671 0.976927 0.919866
O O4 0.371409 0.836800 0.039807
O O5 0.077943 0.500000 0.250000
O O6 0.112663 0.363066 0.361458
O O7 0.018864 0.366535 0.101768
O O8 0.250000 0.103309 0.000000
O O9 0.101699 0.078494 0.920055
O O10 0.354289 0.459494 0.388642
O O11 0.460748 0.430675 0.183129
O O12 0.250000 0.637557 0.000000
O O13 0.367561 0.696088 0.159769
O O14 0.042296 0.200005 0.816758
O O15 0.000000 0.250000 0.533017
#
# Coordination Sequence:
#
# PCOD8165303 Si02
#       7
#     8   8   8   4   8   8   8
#     4  10  20  39  66  94 134 185 229 282 346 431
#     4  11  19  43  71 102 128 177 241 297 354 427
#     4  10  21  37  62 105 137 174 228 283 353 418
#     4  12  22  42  70 100 130 182 254 306 354 438
#     4  12  28  45  70 105 148 191 242 314 384 434
#     4  12  24  44  66  99 135 183 236 289 370 441
#     4  11  22  39  73  97 134 177 242 297 352 446
#
# _framework density 21.828738999999999
#
# number of rings (size 3 to 8) (size 9 to 14) (size 15 to 20)
#    0.000    0.923    7.692    0.923    1.077    5.538 
#    5.538    0.000    0.000    0.000    0.000    0.000 
#    0.000    0.000    0.000    0.000    0.000    0.000 
#
# Total GULP energy -322098.362733 kJ/mol
# GULP energy per Si atom -12388.398567 kJ/mol
# Density = 2.177906 g / cm^3
# Si number density = 21.828739 Si / 1000 Ang^3
#
#
#
# Elastic Constant Matrix: (Units=GPa)
#
#
# Indices 1 2 3 4 5 6 
#
# 1 152.5902 32.9994 51.2199 0.0000 0.0000 0.0000
# 2 32.9994 82.0174 51.6727 0.0000 0.0000 0.0000
# 3 51.2199 51.6727 102.3009 0.0000 0.0000 0.0000
# 4 0.0000 0.0000 0.0000 32.9283 0.0000 0.0000
# 5 0.0000 0.0000 0.0000 0.0000 23.6581 0.0000
# 6 0.0000 0.0000 0.0000 0.0000 0.0000 25.5369
#
#
#
# Elastic Compliance Matrix: (Units=1/GPa)
#
#
# Indices 1 2 3 4 5 6 
#
# 1 0.007934 -0.001011 -0.003462 0.000000 0.000000 0.000000
# 2 -0.001011 0.018012 -0.008592 0.000000 0.000000 0.000000
# 3 -0.003462 -0.008592 0.015848 0.000000 0.000000 0.000000
# 4 0.000000 0.000000 0.000000 0.030369 0.000000 0.000000
# 5 0.000000 0.000000 0.000000 0.000000 0.042269 0.000000
# 6 0.000000 0.000000 0.000000 0.000000 0.000000 0.039159
#
#
# Mechanical properties :
#
#
# Convention : Reuss Voigt Hill
#
# Bulk Modulus (GPa) = 63.83645 67.63250 65.73447
# Shear Modulus (GPa) = 27.03539 29.82578 28.43058
#
# Velocity S-wave (km/s) = 3.52308 3.70043 3.61285
# Velocity P-wave (km/s) = 6.77179 7.02197 6.89802
#
# Compressibility (1/GPa) = 0.01566503
#
# Stress axis : x y z
#
# Youngs Moduli (GPa) = 126.03687 55.51701 63.09937
#
# Poissons Ratio (x) = 0.05615 0.21843
# Poissons Ratio (y) = 0.12747 0.54214
# Poissons Ratio (z) = 0.43629 0.47699
#
# Static dielectric constant tensor:
#      x y z
#    x 3.752230 0.000000 0.000000 
#    y 0.000000 3.868530 0.000000 
#    z 0.000000 0.000000 4.086380 
# 
# 
# High freq. dielectric constant tensor:
#      x y z
#    x 1.847260 0.000000 0.000000 
#    y 0.000000 1.842380 0.000000 
#    z 0.000000 0.000000 1.850120 
# 
# From -- ./inp_files/14420.got.cif
#   From: 2010.03.12/outbox.cif.g09.slc.cpg/sg24_8_cif.got.tgz:14420.got - 2010.04.14 03:06:53.
