data_PCOD8165125
_publ_section_title
;
Structure prediction by ZEFSAII (Michael W. Deem and Ramdas Pophale) SiO2 
 PCOD8165125
Probable space group: I 21 21 21
;
_chemical_formula_sum "Si O2"
_cell_formula_units_Z 48
_cell_length_a 28.019770
_cell_length_b 9.835948
_cell_length_c 8.795403
_cell_angle_alpha 90.000000
_cell_angle_beta 90.000000
_cell_angle_gamma 90.000000
_cell_volume 2424.021868
_symmetry_space_group_name_H-M "I 21 21 21"
_symmetry_group_IT_number 24
_symmetry_cell_setting 'orthorhombic'
loop_
_space_group_symop_operation_xyz
x,y,z
-x,1/2-y,z
x,-y,1/2-z
1/2-x,y,-z
1/2+x,1/2+y,1/2+z
1/2-x,-y,1/2+z
1/2+x,1/2-y,-z
-x,1/2+y,1/2-z
loop_
_atom_site_type_symbol
_atom_site_label
_atom_site_fract_x
_atom_site_fract_y
_atom_site_fract_z
Si Si1 0.574744 0.983248 0.071905
Si Si2 0.977702 0.392377 0.620558
Si Si3 0.727557 0.135609 0.833935
Si Si4 0.712973 0.384267 0.627592
Si Si5 0.383717 0.634817 0.665625
Si Si6 0.888854 0.285877 0.447351
O O1 0.520718 0.950674 0.016809
O O2 0.575217 0.000000 0.250000
O O3 0.611468 0.862564 0.026809
O O4 0.590454 0.127884 0.998377
O O5 0.963980 0.500000 0.750000
O O6 0.930117 0.377926 0.519654
O O7 0.000000 0.250000 0.686813
O O8 0.737194 0.258538 0.716942
O O9 0.671909 0.127112 0.864376
O O10 0.747105 0.000000 0.750000
O O11 0.750000 0.158244 0.000000
O O12 0.701901 0.500000 0.750000
O O13 0.750000 0.435733 0.500000
O O14 0.663850 0.349435 0.537688
O O15 0.402449 0.500000 0.750000
O O16 0.398391 0.766047 0.765353
#
# Coordination Sequence:
#
# PCOD8165125 Si02
#       6
#     8   8   8   8   8   8
#     4   9  17  32  58  89 117 146 182 231 286 334
#     4   9  18  35  58  85 114 145 187 235 279 332
#     4  10  20  35  58  87 115 146 190 237 279 334
#     4  11  24  42  58  79 113 152 192 237 287 337
#     4   8  16  31  51  78 113 144 176 224 277 326
#     4   9  19  37  57  78 111 151 188 230 279 339
#
# _framework density 19.801801000000001
#
# number of rings (size 3 to 8) (size 9 to 14) (size 15 to 20)
#    0.000    2.667    0.000    2.000    0.000    2.667 
#    0.000   15.833    0.000   29.000    0.000    0.000 
#    0.000    0.000    0.000    0.000    0.000    0.000 
#
# Total GULP energy -297339.295323 kJ/mol
# GULP energy per Si atom -12389.137305 kJ/mol
# Density = 1.975673 g / cm^3
# Si number density = 19.801801 Si / 1000 Ang^3
#
#
#
# Elastic Constant Matrix: (Units=GPa)
#
#
# Indices 1 2 3 4 5 6 
#
# 1 118.8907 41.5997 71.5529 0.0000 0.0000 0.0000
# 2 41.5997 70.6140 31.5140 0.0000 0.0000 0.0000
# 3 71.5529 31.5140 99.7536 0.0000 0.0000 0.0000
# 4 0.0000 0.0000 0.0000 40.9205 0.0000 0.0000
# 5 0.0000 0.0000 0.0000 0.0000 35.1822 0.0000
# 6 0.0000 0.0000 0.0000 0.0000 0.0000 25.0177
#
#
#
# Elastic Compliance Matrix: (Units=1/GPa)
#
#
# Indices 1 2 3 4 5 6 
#
# 1 0.016229 -0.005082 -0.010036 0.000000 0.000000 0.000000
# 2 -0.005082 0.018077 -0.002066 0.000000 0.000000 0.000000
# 3 -0.010036 -0.002066 0.017876 0.000000 0.000000 0.000000
# 4 0.000000 0.000000 0.000000 0.024438 0.000000 0.000000
# 5 0.000000 0.000000 0.000000 0.000000 0.028423 0.000000
# 6 0.000000 0.000000 0.000000 0.000000 0.000000 0.039972
#
#
# Mechanical properties :
#
#
# Convention : Reuss Voigt Hill
#
# Bulk Modulus (GPa) = 56.13038 64.28792 60.20915
# Shear Modulus (GPa) = 26.98041 29.86353 28.42197
#
# Velocity S-wave (km/s) = 3.69524 3.88767 3.79268
# Velocity P-wave (km/s) = 6.82745 7.25866 7.04635
#
# Compressibility (1/GPa) = 0.01781566
#
# Stress axis : x y z
#
# Youngs Moduli (GPa) = 61.61792 55.31814 55.94184
#
# Poissons Ratio (x) = 0.28113 0.56141
# Poissons Ratio (y) = 0.31315 0.11555
# Poissons Ratio (z) = 0.61837 0.11427
#
# Static dielectric constant tensor:
#      x y z
#    x 3.631400 0.000000 0.000000 
#    y 0.000000 3.651020 0.000000 
#    z 0.000000 0.000000 3.735920 
# 
# 
# High freq. dielectric constant tensor:
#      x y z
#    x 1.768920 0.000000 0.000000 
#    y 0.000000 1.758980 0.000000 
#    z 0.000000 0.000000 1.767540 
# 
# From -- ./inp_files/16825.got.cif
#   From: 2010.03.12/outbox.cif.g09.slc.cpg/sg24_9_cif.got.tgz:16825.got - 2010.04.14 03:06:53.
