data_PCOD8165217
_publ_section_title
;
Structure prediction by ZEFSAII (Michael W. Deem and Ramdas Pophale) SiO2 
 PCOD8165217
Probable space group: I 21 21 21
;
_chemical_formula_sum "Si O2"
_cell_formula_units_Z 48
_cell_length_a 19.254509
_cell_length_b 9.208446
_cell_length_c 14.229860
_cell_angle_alpha 90.000000
_cell_angle_beta 90.000000
_cell_angle_gamma 90.000000
_cell_volume 2523.012611
_symmetry_space_group_name_H-M "I 21 21 21"
_symmetry_group_IT_number 24
_symmetry_cell_setting 'orthorhombic'
loop_
_space_group_symop_operation_xyz
x,y,z
-x,1/2-y,z
x,-y,1/2-z
1/2-x,y,-z
1/2+x,1/2+y,1/2+z
1/2-x,-y,1/2+z
1/2+x,1/2-y,-z
-x,1/2+y,1/2-z
loop_
_atom_site_type_symbol
_atom_site_label
_atom_site_fract_x
_atom_site_fract_y
_atom_site_fract_z
Si Si1 0.080731 0.222159 0.500000
Si Si2 0.932046 0.348525 0.703424
Si Si3 0.830296 0.856823 0.696397
Si Si4 0.329804 0.486621 0.000000
Si Si5 0.330296 0.356823 0.803603
Si Si6 0.567954 0.348525 0.703425
O O1 0.097712 0.134173 0.596330
O O2 0.121886 0.373190 0.500002
O O3 0.097713 0.134175 0.403669
O O4 0.000000 0.250000 0.499998
O O5 0.952773 0.500000 0.750000
O O6 0.872576 0.280908 0.768297
O O7 0.000000 0.250000 0.703201
O O8 0.750000 0.824755 0.717251
O O9 0.855698 0.000000 0.750000
O O10 0.845621 0.882768 0.587316
O O11 0.250000 0.541645 0.000000
O O12 0.345622 0.382770 0.912684
O O13 0.355698 0.500000 0.750000
O O14 0.372577 0.219092 0.768298
O O15 0.500000 0.250000 0.703202
O O16 0.547227 0.500000 0.750000
#
# Coordination Sequence:
#
# PCOD8165217 Si02
#       6
#     8   8   8   8   8   8
#     4  10  22  37  59  86 121 159 201 248 302 361
#     4  11  24  40  60  87 124 162 204 251 300 359
#     4  10  20  37  62  89 117 155 201 249 300 358
#     4  10  20  37  65  93 120 157 204 251 300 364
#     4  10  20  37  62  89 117 155 201 249 300 358
#     4  11  24  40  60  87 124 162 204 251 300 359
#
# _framework density 19.024874000000001
#
# number of rings (size 3 to 8) (size 9 to 14) (size 15 to 20)
#    0.000    1.667    3.333    1.000    4.667    2.000 
#    0.000    1.667    0.000    0.000    0.000    0.000 
#    0.000    0.000    0.000    0.000    0.000    0.000 
#
# Total GULP energy -297588.637193 kJ/mol
# GULP energy per Si atom -12399.526550 kJ/mol
# Density = 1.898157 g / cm^3
# Si number density = 19.024874 Si / 1000 Ang^3
#
#
#
# Elastic Constant Matrix: (Units=GPa)
#
#
# Indices 1 2 3 4 5 6 
#
# 1 76.4291 40.5687 44.7344 0.0000 0.0000 0.0000
# 2 40.5687 103.8881 63.6375 0.0000 0.0000 0.0000
# 3 44.7344 63.6375 176.1430 0.0000 0.0000 0.0000
# 4 0.0000 0.0000 0.0000 11.8842 0.0000 0.0000
# 5 0.0000 0.0000 0.0000 0.0000 17.3712 0.0000
# 6 0.0000 0.0000 0.0000 0.0000 0.0000 39.3479
#
#
#
# Elastic Compliance Matrix: (Units=1/GPa)
#
#
# Indices 1 2 3 4 5 6 
#
# 1 0.017330 -0.005228 -0.002512 0.000000 0.000000 0.000000
# 2 -0.005228 0.013939 -0.003708 0.000000 0.000000 0.000000
# 3 -0.002512 -0.003708 0.007655 0.000000 0.000000 0.000000
# 4 0.000000 0.000000 0.000000 0.084145 0.000000 0.000000
# 5 0.000000 0.000000 0.000000 0.000000 0.057567 0.000000
# 6 0.000000 0.000000 0.000000 0.000000 0.000000 0.025414
#
#
# Mechanical properties :
#
#
# Convention : Reuss Voigt Hill
#
# Bulk Modulus (GPa) = 62.39832 72.70460 67.55146
# Shear Modulus (GPa) = 21.34114 27.55528 24.44821
#
# Velocity S-wave (km/s) = 3.35289 3.80989 3.58867
# Velocity P-wave (km/s) = 6.91799 7.59290 7.26329
#
# Compressibility (1/GPa) = 0.01602607
#
# Stress axis : x y z
#
# Youngs Moduli (GPa) = 57.70442 71.74193 130.63573
#
# Poissons Ratio (x) = 0.37510 0.32819
# Poissons Ratio (y) = 0.30170 0.48440
# Poissons Ratio (z) = 0.14497 0.26602
#
# Static dielectric constant tensor:
#      x y z
#    x 3.484180 0.000000 0.000000 
#    y 0.000000 3.572650 0.000000 
#    z 0.000000 0.000000 4.230650 
# 
# 
# High freq. dielectric constant tensor:
#      x y z
#    x 1.741770 0.000000 0.000000 
#    y 0.000000 1.709350 0.000000 
#    z 0.000000 0.000000 1.767380 
# 
# From -- ./inp_files/27027.got.cif
#   From: 2010.03.12/outbox.cif.g09.slc.cpg/sg24_14_cif.got.tgz:27027.got - 2010.04.14 03:06:53.
