data_PCOD8165629
_publ_section_title
;
Structure prediction by ZEFSAII (Michael W. Deem and Ramdas Pophale) SiO2 
 PCOD8165629
Probable space group: I 21 21 21
;
_chemical_formula_sum "Si O2"
_cell_formula_units_Z 36
_cell_length_a 28.981276
_cell_length_b 12.829509
_cell_length_c 5.194356
_cell_angle_alpha 90.000000
_cell_angle_beta 90.000000
_cell_angle_gamma 90.000000
_cell_volume 1931.342288
_symmetry_space_group_name_H-M "I 21 21 21"
_symmetry_group_IT_number 24
_symmetry_cell_setting 'orthorhombic'
loop_
_space_group_symop_operation_xyz
x,y,z
-x,1/2-y,z
x,-y,1/2-z
1/2-x,y,-z
1/2+x,1/2+y,1/2+z
1/2-x,-y,1/2+z
1/2+x,1/2-y,-z
-x,1/2+y,1/2-z
loop_
_atom_site_type_symbol
_atom_site_label
_atom_site_fract_x
_atom_site_fract_y
_atom_site_fract_z
Si Si1 0.066670 0.324186 0.833058
Si Si2 0.568511 0.500000 0.750000
Si Si3 0.348594 0.611782 0.611892
Si Si4 0.908794 0.723936 0.175225
Si Si5 0.494007 0.000000 0.250000
Si Si6 0.250000 0.568950 0.500000
O O1 0.070571 0.237717 0.609112
O O2 0.025849 0.398626 0.748716
O O3 0.115183 0.387483 0.872322
O O4 0.055518 0.265288 0.103121
O O5 0.601075 0.601991 0.769522
O O6 0.536376 0.501440 0.502646
O O7 0.351592 0.500000 0.750000
O O8 0.362082 0.706784 0.804566
O O9 0.296537 0.637350 0.520779
O O10 0.256637 0.500000 0.250000
#
# Coordination Sequence:
#
# PCOD8165629 Si02
#       6
#     8   4   8   8   4   4
#     4  10  22  37  58  83 110 159 182 237 290 343
#     4  12  26  40  54  86 112 156 206 244 272 324
#     4   9  21  37  60  88 116 150 182 227 298 344
#     4  10  23  39  59  80 115 158 192 237 287 337
#     4  12  24  36  60  84 116 148 198 246 284 342
#     4  10  22  32  58  92 122 140 178 230 282 362
#
# _framework density 18.639887000000002
#
# number of rings (size 3 to 8) (size 9 to 14) (size 15 to 20)
#    1.333    0.444    0.000    4.000    9.333    5.333 
#    0.000    0.000    0.000    0.000    5.778    0.000 
#    0.000    0.000    0.000    0.000    0.000    0.000 
#
# Total GULP energy -223003.671520 kJ/mol
# GULP energy per Si atom -12389.092862 kJ/mol
# Density = 1.859746 g / cm^3
# Si number density = 18.639887 Si / 1000 Ang^3
#
#
#
# Elastic Constant Matrix: (Units=GPa)
#
#
# Indices 1 2 3 4 5 6 
#
# 1 89.7874 44.3463 23.1320 0.0001 0.0000 0.0000
# 2 44.3463 133.2493 28.2890 0.0001 0.0000 0.0001
# 3 23.1320 28.2890 128.5214 0.0007 0.0006 -0.0008
# 4 0.0001 0.0001 0.0007 23.5315 0.0001 0.0001
# 5 0.0000 0.0000 0.0006 0.0001 18.7540 -0.0001
# 6 0.0000 0.0001 -0.0008 0.0001 -0.0001 1.4695
#
#
#
# Elastic Compliance Matrix: (Units=1/GPa)
#
#
# Indices 1 2 3 4 5 6 
#
# 1 0.013607 -0.004205 -0.001523 0.000000 0.000000 0.000000
# 2 -0.004205 0.009172 -0.001262 0.000000 0.000000 -0.000001
# 3 -0.001523 -0.001262 0.008333 0.000000 0.000000 0.000004
# 4 0.000000 0.000000 0.000000 0.042496 0.000000 -0.000003
# 5 0.000000 0.000000 0.000000 0.000000 0.053322 0.000005
# 6 0.000000 -0.000001 0.000004 -0.000003 0.000005 0.680511
#
#
# Mechanical properties :
#
#
# Convention : Reuss Voigt Hill
#
# Bulk Modulus (GPa) = 58.37478 60.34362 59.35920
# Shear Modulus (GPa) = 6.04499 25.80373 15.92436
#
# Velocity S-wave (km/s) = 1.80280 3.72469 2.92604
# Velocity P-wave (km/s) = 5.97650 7.13733 6.58255
#
# Compressibility (1/GPa) = 0.01713069
#
# Stress axis : x y z
#
# Youngs Moduli (GPa) = 73.49284 109.02605 120.00777
#
# Poissons Ratio (x) = 0.45845 0.18283
# Poissons Ratio (y) = 0.30904 0.15146
# Poissons Ratio (z) = 0.11196 0.13760
#
# Static dielectric constant tensor:
#      x y z
#    x 3.445850 0.000000 0.000000 
#    y 0.000000 3.407050 0.000000 
#    z 0.000000 0.000000 3.519780 
# 
# 
# High freq. dielectric constant tensor:
#      x y z
#    x 1.693570 0.000000 0.000000 
#    y 0.000000 1.711840 0.000000 
#    z 0.000000 0.000000 1.743010 
# 
# From -- ./inp_files/7610.got.cif
#   From: 2010.03.12/outbox.cif.g09.slc.cpg/sg24_4_cif.got.tgz:7610.got - 2010.04.14 03:06:53.
