data_PCOD8165146
_publ_section_title
;
Structure prediction by ZEFSAII (Michael W. Deem and Ramdas Pophale) SiO2 
 PCOD8165146
Probable space group: I 21 21 21
;
_chemical_formula_sum "Si O2"
_cell_formula_units_Z 48
_cell_length_a 8.631962
_cell_length_b 15.376944
_cell_length_c 18.680776
_cell_angle_alpha 90.000000
_cell_angle_beta 90.000000
_cell_angle_gamma 90.000000
_cell_volume 2479.559108
_symmetry_space_group_name_H-M "I 21 21 21"
_symmetry_group_IT_number 24
_symmetry_cell_setting 'orthorhombic'
loop_
_space_group_symop_operation_xyz
x,y,z
-x,1/2-y,z
x,-y,1/2-z
1/2-x,y,-z
1/2+x,1/2+y,1/2+z
1/2-x,-y,1/2+z
1/2+x,1/2-y,-z
-x,1/2+y,1/2-z
loop_
_atom_site_type_symbol
_atom_site_label
_atom_site_fract_x
_atom_site_fract_y
_atom_site_fract_z
Si Si1 0.673616 0.455320 0.931948
Si Si2 0.829933 0.259209 0.730612
Si Si3 0.664769 0.713394 0.397545
Si Si4 0.168864 0.408783 0.229183
Si Si5 0.662784 0.571478 0.797805
Si Si6 0.651280 0.871398 0.565248
O O1 0.810950 0.388249 0.912047
O O2 0.627108 0.528484 0.874574
O O3 0.525962 0.394942 0.949643
O O4 0.750000 0.504751 0.000000
O O5 0.836076 0.282501 0.812893
O O6 0.741263 0.167959 0.722909
O O7 0.748958 0.338036 0.688149
O O8 0.000000 0.250000 0.696942
O O9 0.500000 0.750000 0.427936
O O10 0.807251 0.768141 0.432423
O O11 0.248115 0.500000 0.250000
O O12 0.199831 0.402896 0.144509
O O13 0.987806 0.408753 0.249225
O O14 0.758450 0.500000 0.750000
O O15 0.750000 0.914832 0.500000
#
# Coordination Sequence:
#
# PCOD8165146 Si02
#       6
#     8   8   8   8   8   8
#     4  12  23  37  58  86 125 162 202 253 302 354
#     4  10  21  36  60  92 122 151 198 258 304 341
#     4  10  20  36  56  87 125 166 195 236 303 375
#     4  10  20  40  65  89 114 160 208 241 294 366
#     4  11  20  40  63  86 117 165 211 237 285 367
#     4  11  21  36  57  86 126 155 198 244 306 365
#
# _framework density 19.358280000000001
#
# number of rings (size 3 to 8) (size 9 to 14) (size 15 to 20)
#    0.000    1.333    5.000    2.500    0.000    3.333 
#    6.000    0.000    0.000    3.000    0.000    0.000 
#    0.000    0.000    0.000    0.000    0.000    0.000 
#
# Total GULP energy -297343.951196 kJ/mol
# GULP energy per Si atom -12389.331300 kJ/mol
# Density = 1.931422 g / cm^3
# Si number density = 19.358280 Si / 1000 Ang^3
#
#
#
# Elastic Constant Matrix: (Units=GPa)
#
#
# Indices 1 2 3 4 5 6 
#
# 1 85.1987 49.6744 26.8283 0.0000 0.0000 0.0000
# 2 49.6744 137.1548 33.4969 0.0000 0.0000 0.0000
# 3 26.8283 33.4969 85.1415 0.0000 0.0000 0.0000
# 4 0.0000 0.0000 0.0000 15.7911 0.0000 0.0000
# 5 0.0000 0.0000 0.0000 0.0000 28.2617 0.0000
# 6 0.0000 0.0000 0.0000 0.0000 0.0000 19.1878
#
#
#
# Elastic Compliance Matrix: (Units=1/GPa)
#
#
# Indices 1 2 3 4 5 6 
#
# 1 0.015528 -0.004900 -0.002965 0.000000 0.000000 0.000000
# 2 -0.004900 0.009612 -0.002238 0.000000 0.000000 0.000000
# 3 -0.002965 -0.002238 0.013560 0.000000 0.000000 0.000000
# 4 0.000000 0.000000 0.000000 0.063327 0.000000 0.000000
# 5 0.000000 0.000000 0.000000 0.000000 0.035384 0.000000
# 6 0.000000 0.000000 0.000000 0.000000 0.000000 0.052116
#
#
# Mechanical properties :
#
#
# Convention : Reuss Voigt Hill
#
# Bulk Modulus (GPa) = 54.07001 58.61047 56.34024
# Shear Modulus (GPa) = 23.15926 25.81448 24.48687
#
# Velocity S-wave (km/s) = 3.46258 3.65569 3.56044
# Velocity P-wave (km/s) = 6.63158 6.93982 6.78745
#
# Compressibility (1/GPa) = 0.01849454
#
# Stress axis : x y z
#
# Youngs Moduli (GPa) = 64.40130 104.03582 73.74688
#
# Poissons Ratio (x) = 0.50973 0.21867
# Poissons Ratio (y) = 0.31554 0.16503
# Poissons Ratio (z) = 0.19096 0.23281
#
# Static dielectric constant tensor:
#      x y z
#    x 3.594920 0.000000 0.000000 
#    y 0.000000 3.696130 0.000000 
#    z 0.000000 0.000000 3.498310 
# 
# 
# High freq. dielectric constant tensor:
#      x y z
#    x 1.747330 0.000000 0.000000 
#    y 0.000000 1.740460 0.000000 
#    z 0.000000 0.000000 1.741460 
# 
# From -- ./inp_files/14168.got.cif
#   From: 2010.03.12/outbox.cif.g09.slc.cpg/sg24_8_cif.got.tgz:14168.got - 2010.04.14 03:06:53.
