data_PCOD8165886
_publ_section_title
;
Structure prediction by ZEFSAII (Michael W. Deem and Ramdas Pophale) SiO2 
 PCOD8165886
Probable space group: I 21 21 21
;
_chemical_formula_sum "Si O2"
_cell_formula_units_Z 24
_cell_length_a 5.367101
_cell_length_b 14.410283
_cell_length_c 12.015025
_cell_angle_alpha 90.000000
_cell_angle_beta 90.000000
_cell_angle_gamma 90.000000
_cell_volume 929.259387
_symmetry_space_group_name_H-M "I 21 21 21"
_symmetry_group_IT_number 24
_symmetry_cell_setting 'orthorhombic'
loop_
_space_group_symop_operation_xyz
x,y,z
-x,1/2-y,z
x,-y,1/2-z
1/2-x,y,-z
1/2+x,1/2+y,1/2+z
1/2-x,-y,1/2+z
1/2+x,1/2-y,-z
-x,1/2+y,1/2-z
loop_
_atom_site_type_symbol
_atom_site_label
_atom_site_fract_x
_atom_site_fract_y
_atom_site_fract_z
Si Si1 0.000000 0.750000 0.429832
Si Si2 0.385149 0.052482 0.866620
Si Si3 0.381842 0.524188 0.120855
Si Si4 0.750000 0.196545 0.500000
O O1 0.750000 0.772630 0.500000
O O2 0.932223 0.662287 0.351642
O O3 0.350550 0.000000 0.750000
O O4 0.618262 0.008960 0.934507
O O5 0.121339 0.032147 0.928473
O O6 0.350916 0.500000 0.250000
O O7 0.376305 0.634898 0.099396
O O8 0.500000 0.250000 0.544171
#
# Coordination Sequence:
#
# PCOD8165886 Si02
#       4
#     4   8   8   4
#     4  12  26  42  74 110 140 180 248 298 350 426
#     4  10  23  46  69 101 143 193 231 291 361 431
#     4  10  23  46  71 100 148 190 229 298 373 424
#     4  12  26  46  76 110 138 188 252 304 358 438
#
# _framework density 25.827020999999998
#
# number of rings (size 3 to 8) (size 9 to 14) (size 15 to 20)
#    0.000    1.333    0.000    4.000    7.000    0.000 
#   36.000    0.000    0.000    0.000    0.000    0.000 
#    0.000    0.000    0.000    0.000    0.000    0.000 
#
# Total GULP energy -148691.791573 kJ/mol
# GULP energy per Si atom -12390.982631 kJ/mol
# Density = 2.576824 g / cm^3
# Si number density = 25.827021 Si / 1000 Ang^3
#
#
#
# Elastic Constant Matrix: (Units=GPa)
#
#
# Indices 1 2 3 4 5 6 
#
# 1 272.7861 80.8322 53.6163 0.0000 0.0000 0.0000
# 2 80.8322 214.9392 44.4548 0.0000 0.0000 0.0000
# 3 53.6163 44.4548 102.0723 0.0000 0.0000 0.0000
# 4 0.0000 0.0000 0.0000 36.5972 0.0000 0.0000
# 5 0.0000 0.0000 0.0000 0.0000 33.9224 0.0000
# 6 0.0000 0.0000 0.0000 0.0000 0.0000 62.0645
#
#
#
# Elastic Compliance Matrix: (Units=1/GPa)
#
#
# Indices 1 2 3 4 5 6 
#
# 1 0.004391 -0.001291 -0.001745 0.000000 0.000000 0.000000
# 2 -0.001291 0.005492 -0.001714 0.000000 0.000000 0.000000
# 3 -0.001745 -0.001714 0.011460 0.000000 0.000000 0.000000
# 4 0.000000 0.000000 0.000000 0.027325 0.000000 0.000000
# 5 0.000000 0.000000 0.000000 0.000000 0.029479 0.000000
# 6 0.000000 0.000000 0.000000 0.000000 0.000000 0.016112
#
#
# Mechanical properties :
#
#
# Convention : Reuss Voigt Hill
#
# Bulk Modulus (GPa) = 84.42409 105.28935 94.85672
# Shear Modulus (GPa) = 46.42264 53.90975 50.16620
#
# Velocity S-wave (km/s) = 4.24423 4.57370 4.41204
# Velocity P-wave (km/s) = 7.53506 8.29140 7.92226
#
# Compressibility (1/GPa) = 0.01184496
#
# Stress axis : x y z
#
# Youngs Moduli (GPa) = 227.72874 182.07129 87.26100
#
# Poissons Ratio (x) = 0.23498 0.15223
# Poissons Ratio (y) = 0.29390 0.14958
# Poissons Ratio (z) = 0.39728 0.31209
#
# Static dielectric constant tensor:
#      x y z
#    x 6.988620 0.000000 0.000000 
#    y 0.000000 4.594840 0.000000 
#    z 0.000000 0.000000 5.972640 
# 
# 
# High freq. dielectric constant tensor:
#      x y z
#    x 2.101760 0.000000 0.000000 
#    y 0.000000 2.016570 0.000000 
#    z 0.000000 0.000000 2.066230 
# 
# From -- ./inp_files/2945.got.cif
#   From: 2010.03.12/outbox.cif.g09.slc.cpg/sg24_2_cif.got.tgz:2945.got - 2010.04.14 03:06:53.
