data_PCOD8165387
_publ_section_title
;
Structure prediction by ZEFSAII (Michael W. Deem and Ramdas Pophale) SiO2 
 PCOD8165387
Probable space group: I 21 21 21
;
_chemical_formula_sum "Si O2"
_cell_formula_units_Z 64
_cell_length_a 18.036782
_cell_length_b 20.495359
_cell_length_c 9.351328
_cell_angle_alpha 90.000000
_cell_angle_beta 90.000000
_cell_angle_gamma 90.000000
_cell_volume 3456.908436
_symmetry_space_group_name_H-M "I 21 21 21"
_symmetry_group_IT_number 24
_symmetry_cell_setting 'orthorhombic'
loop_
_space_group_symop_operation_xyz
x,y,z
-x,1/2-y,z
x,-y,1/2-z
1/2-x,y,-z
1/2+x,1/2+y,1/2+z
1/2-x,-y,1/2+z
1/2+x,1/2-y,-z
-x,1/2+y,1/2-z
loop_
_atom_site_type_symbol
_atom_site_label
_atom_site_fract_x
_atom_site_fract_y
_atom_site_fract_z
Si Si1 0.823952 0.240712 0.417169
Si Si2 0.605352 0.500000 0.088158
Si Si3 0.602888 0.624736 0.916268
Si Si4 0.431071 0.624164 0.915315
Si Si5 0.602888 0.375264 0.916268
Si Si6 0.931071 0.875834 0.415316
Si Si7 0.676048 0.240712 0.917169
Si Si8 0.428918 0.500000 0.411637
O O1 0.750000 0.221991 0.500000
O O2 0.852088 0.311737 0.464896
O O3 0.886865 0.188808 0.458413
O O4 0.806833 0.239017 0.250000
O O5 0.635678 0.500000 0.250000
O O6 0.517173 0.500002 0.083637
O O7 0.634778 0.564319 0.007439
O O8 0.634776 0.435681 0.007440
O O9 0.516812 0.637963 0.949492
O O10 0.614494 0.608541 0.750000
O O11 0.419955 0.605690 0.749999
O O12 0.399297 0.564271 0.008225
O O13 0.516812 0.362035 0.949492
O O14 0.647914 0.311738 0.964897
O O15 0.886865 0.811191 0.458413
O O16 0.899299 0.935728 0.508228
O O17 0.750000 0.221991 0.000000
O O18 0.398592 0.500000 0.250000
#
# Coordination Sequence:
#
# PCOD8165387 Si02
#       8
#     8   8   8   8   8   8   8   8
#     4  10  21  35  51  73 101 132 166 204 246 292
#     4   9  17  29  48  77 106 127 155 201 252 295
#     4   9  17  32  54  76  98 128 166 204 242 289
#     4   9  17  32  54  76  98 128 166 204 242 289
#     4   9  17  32  54  76  98 128 166 204 242 289
#     4   9  17  32  54  76  98 128 166 204 242 289
#     4  10  21  35  51  73 101 132 166 204 246 292
#     4   9  17  29  48  77 106 127 155 201 252 295
#
# _framework density 18.513653000000001
#
# number of rings (size 3 to 8) (size 9 to 14) (size 15 to 20)
#    0.000    2.750    0.000    1.500    0.000    8.000 
#    0.000    1.250    0.000    7.500    0.000    0.000 
#    0.000    0.000    0.000    0.000    0.000    0.000 
#
# Total GULP energy -396857.826255 kJ/mol
# GULP energy per Si atom -12401.807070 kJ/mol
# Density = 1.847151 g / cm^3
# Si number density = 18.513653 Si / 1000 Ang^3
#
#
#
# Elastic Constant Matrix: (Units=GPa)
#
#
# Indices 1 2 3 4 5 6 
#
# 1 31.9671 6.7114 16.5089 0.0000 0.0000 0.0000
# 2 6.7114 104.5881 47.4838 0.0000 0.0000 0.0000
# 3 16.5089 47.4838 73.3914 0.0000 0.0000 0.0000
# 4 0.0000 0.0000 0.0000 25.0685 0.0000 0.0000
# 5 0.0000 0.0000 0.0000 0.0000 23.6656 0.0000
# 6 0.0000 0.0000 0.0000 0.0000 0.0000 4.0416
#
#
#
# Elastic Compliance Matrix: (Units=1/GPa)
#
#
# Indices 1 2 3 4 5 6 
#
# 1 0.035663 0.001917 -0.009262 0.000000 0.000000 0.000000
# 2 0.001917 0.013641 -0.009257 0.000000 0.000000 0.000000
# 3 -0.009262 -0.009257 0.021698 0.000000 0.000000 0.000000
# 4 0.000000 0.000000 0.000000 0.039891 0.000000 0.000000
# 5 0.000000 0.000000 0.000000 0.000000 0.042255 0.000000
# 6 0.000000 0.000000 0.000000 0.000000 0.000000 0.247428
#
#
# Mechanical properties :
#
#
# Convention : Reuss Voigt Hill
#
# Bulk Modulus (GPa) = 26.45678 39.03944 32.74811
# Shear Modulus (GPa) = 11.20122 19.83797 15.51960
#
# Velocity S-wave (km/s) = 2.46239 3.27698 2.89844
# Velocity P-wave (km/s) = 4.73349 5.95405 5.37851
#
# Compressibility (1/GPa) = 0.03779750
#
# Stress axis : x y z
#
# Youngs Moduli (GPa) = 28.04013 73.30852 46.08686
#
# Poissons Ratio (x) = -0.14051 0.42687
# Poissons Ratio (y) = -0.05374 0.42662
# Poissons Ratio (z) = 0.25972 0.67860
#
# Static dielectric constant tensor:
#      x y z
#    x 3.045420 0.000000 0.000000 
#    y 0.000000 3.579060 0.000000 
#    z 0.000000 0.000000 3.407610 
# 
# 
# High freq. dielectric constant tensor:
#      x y z
#    x 1.685040 0.000000 0.000000 
#    y 0.000000 1.732120 0.000000 
#    z 0.000000 0.000000 1.713750 
# 
# From -- ./inp_files/14571.got.cif
#   From: 2010.03.12/outbox.cif.g09.slc.cpg/sg24_8_cif.got.tgz:14571.got - 2010.04.14 03:06:53.
