data_PCOD8165469
_publ_section_title
;
Structure prediction by ZEFSAII (Michael W. Deem and Ramdas Pophale) SiO2 
 PCOD8165469
Probable space group: I 21 21 21
;
_chemical_formula_sum "Si O2"
_cell_formula_units_Z 56
_cell_length_a 13.360782
_cell_length_b 8.849154
_cell_length_c 22.642206
_cell_angle_alpha 90.000000
_cell_angle_beta 90.000000
_cell_angle_gamma 90.000000
_cell_volume 2677.024639
_symmetry_space_group_name_H-M "I 21 21 21"
_symmetry_group_IT_number 24
_symmetry_cell_setting 'orthorhombic'
loop_
_space_group_symop_operation_xyz
x,y,z
-x,1/2-y,z
x,-y,1/2-z
1/2-x,y,-z
1/2+x,1/2+y,1/2+z
1/2-x,-y,1/2+z
1/2+x,1/2-y,-z
-x,1/2+y,1/2-z
loop_
_atom_site_type_symbol
_atom_site_label
_atom_site_fract_x
_atom_site_fract_y
_atom_site_fract_z
Si Si1 0.706099 0.550841 0.685983
Si Si2 0.941600 0.589938 0.691641
Si Si3 0.249455 0.450459 0.431326
Si Si4 0.395562 0.789699 0.882056
Si Si5 0.468753 0.418531 0.416871
Si Si6 0.531648 0.466452 0.961568
Si Si7 0.636374 0.775045 0.592873
O O1 0.666358 0.500000 0.750000
O O2 0.821481 0.604761 0.688987
O O3 0.684480 0.399231 0.648847
O O4 0.645101 0.691744 0.657118
O O5 0.975196 0.500000 0.750000
O O6 0.000000 0.750000 0.690052
O O7 0.969544 0.487597 0.636304
O O8 0.250000 0.406207 0.500000
O O9 0.160457 0.363194 0.398759
O O10 0.352754 0.410442 0.399889
O O11 0.235666 0.629531 0.421000
O O12 0.500000 0.750000 0.846398
O O13 0.434398 0.867780 0.942366
O O14 0.500000 0.250000 0.431433
O O15 0.483234 0.526217 0.473903
O O16 0.626448 0.352094 0.958942
O O17 0.456500 0.392805 0.912447
#
# Coordination Sequence:
#
# PCOD8165469 Si02
#       7
#     8   8   8   8   8   8   8
#     4  10  24  46  66  93 130 175 231 280 334 410
#     4  11  25  46  71  96 135 180 232 292 345 406
#     4  12  22  37  63  97 133 168 221 273 339 414
#     4  11  21  41  62  92 131 175 211 278 341 406
#     4  12  24  40  64 100 134 180 227 276 347 422
#     4  10  21  39  62  89 137 168 211 268 349 405
#     4  10  21  38  63  91 128 170 206 281 330 398
#
# _framework density 20.918747
#
# number of rings (size 3 to 8) (size 9 to 14) (size 15 to 20)
#    0.000    1.143    2.857    3.429    2.000    2.286 
#    5.143    3.571    0.000    0.000    0.000    0.000 
#    0.000    0.000    0.000    0.000    0.000    0.000 
#
# Total GULP energy -346928.215236 kJ/mol
# GULP energy per Si atom -12390.293401 kJ/mol
# Density = 2.087114 g / cm^3
# Si number density = 20.918747 Si / 1000 Ang^3
#
#
#
# Elastic Constant Matrix: (Units=GPa)
#
#
# Indices 1 2 3 4 5 6 
#
# 1 104.2511 52.7789 39.5163 0.0000 0.0000 0.0000
# 2 52.7789 128.4660 45.5932 0.0000 0.0000 0.0000
# 3 39.5163 45.5932 115.0230 0.0000 0.0000 0.0000
# 4 0.0000 0.0000 0.0000 28.9373 0.0000 0.0000
# 5 0.0000 0.0000 0.0000 0.0000 27.8734 0.0000
# 6 0.0000 0.0000 0.0000 0.0000 0.0000 45.7470
#
#
#
# Elastic Compliance Matrix: (Units=1/GPa)
#
#
# Indices 1 2 3 4 5 6 
#
# 1 0.012788 -0.004300 -0.002689 0.000000 0.000000 0.000000
# 2 -0.004300 0.010504 -0.002687 0.000000 0.000000 0.000000
# 3 -0.002689 -0.002687 0.010683 0.000000 0.000000 0.000000
# 4 0.000000 0.000000 0.000000 0.034557 0.000000 0.000000
# 5 0.000000 0.000000 0.000000 0.000000 0.035877 0.000000
# 6 0.000000 0.000000 0.000000 0.000000 0.000000 0.021859
#
#
# Mechanical properties :
#
#
# Convention : Reuss Voigt Hill
#
# Bulk Modulus (GPa) = 68.37817 69.27967 68.82892
# Shear Modulus (GPa) = 33.22401 34.50165 33.86283
#
# Velocity S-wave (km/s) = 3.98960 4.06558 4.02777
# Velocity P-wave (km/s) = 7.34718 7.43162 7.38952
#
# Compressibility (1/GPa) = 0.01462455
#
# Stress axis : x y z
#
# Youngs Moduli (GPa) = 78.19668 95.20150 93.60949
#
# Poissons Ratio (x) = 0.40932 0.25173
# Poissons Ratio (y) = 0.33621 0.25148
# Poissons Ratio (z) = 0.21028 0.25576
#
# Static dielectric constant tensor:
#      x y z
#    x 4.024930 0.000000 0.000000 
#    y 0.000000 4.087940 0.000000 
#    z 0.000000 0.000000 3.624860 
# 
# 
# High freq. dielectric constant tensor:
#      x y z
#    x 1.829190 0.000000 0.000000 
#    y 0.000000 1.840450 0.000000 
#    z 0.000000 0.000000 1.790200 
# 
# From -- ./inp_files/33760.got.cif
#   From: 2010.03.12/outbox.cif.g09.slc.cpg/sg24_17_cif.got.tgz:33760.got - 2010.04.14 03:06:53.
