data_PCOD8165027
_publ_section_title
;
Structure prediction by ZEFSAII (Michael W. Deem and Ramdas Pophale) SiO2 
 PCOD8165027
Probable space group: I 21 21 21
;
_chemical_formula_sum "Si O2"
_cell_formula_units_Z 36
_cell_length_a 7.203242
_cell_length_b 14.257359
_cell_length_c 15.126882
_cell_angle_alpha 90.000000
_cell_angle_beta 90.000000
_cell_angle_gamma 90.000000
_cell_volume 1553.518788
_symmetry_space_group_name_H-M "I 21 21 21"
_symmetry_group_IT_number 24
_symmetry_cell_setting 'orthorhombic'
loop_
_space_group_symop_operation_xyz
x,y,z
-x,1/2-y,z
x,-y,1/2-z
1/2-x,y,-z
1/2+x,1/2+y,1/2+z
1/2-x,-y,1/2+z
1/2+x,1/2-y,-z
-x,1/2+y,1/2-z
loop_
_atom_site_type_symbol
_atom_site_label
_atom_site_fract_x
_atom_site_fract_y
_atom_site_fract_z
Si Si1 0.172296 0.816094 0.904844
Si Si2 0.500000 0.750000 0.784455
Si Si3 0.905841 0.519604 0.656505
Si Si4 0.989646 0.076710 0.182004
Si Si5 0.967138 0.361400 0.996085
O O1 0.340287 0.799104 0.839306
O O2 0.000000 0.750000 0.880608
O O3 0.116205 0.924609 0.899831
O O4 0.250000 0.789693 0.000000
O O5 0.412005 0.672788 0.721126
O O6 0.011045 0.500000 0.750000
O O7 0.712495 0.568686 0.683463
O O8 0.030924 0.591076 0.596966
O O9 0.902768 0.000000 0.250000
O O10 0.931234 0.082792 0.077457
O O11 0.000000 0.250000 0.997882
O O12 0.750000 0.383331 0.000000
#
# Coordination Sequence:
#
# PCOD8165027 Si02
#       5
#     8   4   8   8   8
#     4  12  25  43  71 102 138 184 234 287 355 428
#     4  12  22  42  72 100 138 180 238 290 350 426
#     4  10  21  41  65  91 137 186 218 289 366 403
#     4  10  19  38  68  92 128 181 223 280 362 408
#     4  10  21  38  64  91 124 178 230 278 347 426
#
# _framework density 23.173200000000001
#
# number of rings (size 3 to 8) (size 9 to 14) (size 15 to 20)
#    0.000    1.333    6.667    2.000    0.000    0.889 
#    0.000    4.444    0.000    0.000    0.000    0.000 
#    0.000    0.000    0.000    0.000    0.000    0.000 
#
# Total GULP energy -222994.535564 kJ/mol
# GULP energy per Si atom -12388.585309 kJ/mol
# Density = 2.312046 g / cm^3
# Si number density = 23.173200 Si / 1000 Ang^3
#
#
#
# Elastic Constant Matrix: (Units=GPa)
#
#
# Indices 1 2 3 4 5 6 
#
# 1 34.4556 -4.7102 -9.5899 0.0000 0.0000 0.0000
# 2 -4.7102 144.5276 64.3571 0.0000 0.0000 0.0000
# 3 -9.5899 64.3571 195.8952 0.0000 0.0000 0.0000
# 4 0.0000 0.0000 0.0000 172.1280 0.0000 0.0000
# 5 0.0000 0.0000 0.0000 0.0000 9.6533 0.0000
# 6 0.0000 0.0000 0.0000 0.0000 0.0000 23.0849
#
#
#
# Elastic Compliance Matrix: (Units=1/GPa)
#
#
# Indices 1 2 3 4 5 6 
#
# 1 0.029441 0.000372 0.001319 0.000000 0.000000 0.000000
# 2 0.000372 0.008109 -0.002646 0.000000 0.000000 0.000000
# 3 0.001319 -0.002646 0.006039 0.000000 0.000000 0.000000
# 4 0.000000 0.000000 0.000000 0.005810 0.000000 0.000000
# 5 0.000000 0.000000 0.000000 0.000000 0.103591 0.000000
# 6 0.000000 0.000000 0.000000 0.000000 0.000000 0.043318
#
#
# Mechanical properties :
#
#
# Convention : Reuss Voigt Hill
#
# Bulk Modulus (GPa) = 23.99275 52.77691 38.38483
# Shear Modulus (GPa) = 23.57255 62.62801 43.10028
#
# Velocity S-wave (km/s) = 3.19287 5.20430 4.31736
# Velocity P-wave (km/s) = 4.89578 7.67707 6.43840
#
# Compressibility (1/GPa) = 0.04167926
#
# Stress axis : x y z
#
# Youngs Moduli (GPa) = 33.96644 123.31291 165.60091
#
# Poissons Ratio (x) = -0.04589 -0.21843
# Poissons Ratio (y) = -0.01264 0.43817
# Poissons Ratio (z) = -0.04480 0.32628
#
# Static dielectric constant tensor:
#      x y z
#    x 3.524210 0.000000 0.000000 
#    y 0.000000 4.040630 0.000000 
#    z 0.000000 0.000000 5.070280 
# 
# 
# High freq. dielectric constant tensor:
#      x y z
#    x 1.872750 0.000000 0.000000 
#    y 0.000000 1.922870 0.000000 
#    z 0.000000 0.000000 1.946400 
# 
# From -- ./inp_files/12175.got.cif
#   From: 2010.03.12/outbox.cif.g09.slc.cpg/sg24_7_cif.got.tgz:12175.got - 2010.04.14 03:06:53.
