data_PCOD8165775
_publ_section_title
;
Structure prediction by ZEFSAII (Michael W. Deem and Ramdas Pophale) SiO2 
 PCOD8165775
Probable space group: I 21 21 21
;
_chemical_formula_sum "Si O2"
_cell_formula_units_Z 40
_cell_length_a 8.333391
_cell_length_b 15.698329
_cell_length_c 14.097600
_cell_angle_alpha 90.000000
_cell_angle_beta 90.000000
_cell_angle_gamma 90.000000
_cell_volume 1844.252453
_symmetry_space_group_name_H-M "I 21 21 21"
_symmetry_group_IT_number 24
_symmetry_cell_setting 'orthorhombic'
loop_
_space_group_symop_operation_xyz
x,y,z
-x,1/2-y,z
x,-y,1/2-z
1/2-x,y,-z
1/2+x,1/2+y,1/2+z
1/2-x,-y,1/2+z
1/2+x,1/2-y,-z
-x,1/2+y,1/2-z
loop_
_atom_site_type_symbol
_atom_site_label
_atom_site_fract_x
_atom_site_fract_y
_atom_site_fract_z
Si Si1 0.379246 0.923457 0.416636
Si Si2 0.414079 0.412072 0.452006
Si Si3 0.760743 0.210124 0.695188
Si Si4 0.000000 0.750000 0.642619
Si Si5 0.936272 0.638937 0.138267
Si Si6 0.785700 0.500000 0.250000
O O1 0.250000 0.932940 0.500000
O O2 0.462416 0.830898 0.424966
O O3 0.310351 0.928574 0.309215
O O4 0.502726 0.001560 0.418999
O O5 0.250000 0.441702 0.500000
O O6 0.383930 0.347031 0.365655
O O7 0.519502 0.360362 0.527827
O O8 0.586816 0.165192 0.704925
O O9 0.720074 0.300806 0.646521
O O10 0.843433 0.225354 0.796064
O O11 0.891991 0.544451 0.169686
#
# Coordination Sequence:
#
# PCOD8165775 Si02
#       6
#     8   8   8   4   8   4
#     4  12  26  47  70 100 135 184 231 280 339 406
#     4  10  23  42  69 104 138 174 222 285 344 406
#     4  10  23  42  66 105 137 175 221 285 345 407
#     4  12  26  46  68  98 136 184 228 278 336 406
#     4  10  22  43  69 101 139 178 224 277 349 403
#     4  12  22  46  74  94 136 182 228 286 334 412
#
# _framework density 21.689005000000002
#
# number of rings (size 3 to 8) (size 9 to 14) (size 15 to 20)
#    0.000    1.200    4.000    1.200    0.000    8.800 
#    7.200    0.000    0.000    0.000    0.000    0.000 
#    0.000    0.000    0.000    0.000    0.000    0.000 
#
# Total GULP energy -247950.410301 kJ/mol
# GULP energy per Si atom -12397.520515 kJ/mol
# Density = 2.163964 g / cm^3
# Si number density = 21.689005 Si / 1000 Ang^3
#
#
#
# Elastic Constant Matrix: (Units=GPa)
#
#
# Indices 1 2 3 4 5 6 
#
# 1 77.6241 45.4311 32.4384 0.0000 0.0000 0.0000
# 2 45.4311 146.9833 35.5842 0.0000 0.0000 0.0000
# 3 32.4384 35.5842 74.8906 0.0000 0.0000 0.0000
# 4 0.0000 0.0000 0.0000 23.3023 0.0000 0.0000
# 5 0.0000 0.0000 0.0000 0.0000 24.5404 0.0000
# 6 0.0000 0.0000 0.0000 0.0000 0.0000 40.8331
#
#
#
# Elastic Compliance Matrix: (Units=1/GPa)
#
#
# Indices 1 2 3 4 5 6 
#
# 1 0.017653 -0.004074 -0.005711 0.000000 0.000000 0.000000
# 2 -0.004074 0.008628 -0.002335 0.000000 0.000000 0.000000
# 3 -0.005711 -0.002335 0.016936 0.000000 0.000000 0.000000
# 4 0.000000 0.000000 0.000000 0.042914 0.000000 0.000000
# 5 0.000000 0.000000 0.000000 0.000000 0.040749 0.000000
# 6 0.000000 0.000000 0.000000 0.000000 0.000000 0.024490
#
#
# Mechanical properties :
#
#
# Convention : Reuss Voigt Hill
#
# Bulk Modulus (GPa) = 52.69277 58.48950 55.59113
# Shear Modulus (GPa) = 27.48220 30.13810 28.81015
#
# Velocity S-wave (km/s) = 3.56350 3.73172 3.64858
# Velocity P-wave (km/s) = 6.42486 6.75230 6.59061
#
# Compressibility (1/GPa) = 0.01897794
#
# Stress axis : x y z
#
# Youngs Moduli (GPa) = 56.64620 115.90168 59.04630
#
# Poissons Ratio (x) = 0.47218 0.33720
# Poissons Ratio (y) = 0.23077 0.13787
# Poissons Ratio (z) = 0.32349 0.27063
#
# Static dielectric constant tensor:
#      x y z
#    x 4.084720 0.000000 0.000000 
#    y 0.000000 3.980200 0.000000 
#    z 0.000000 0.000000 3.712870 
# 
# 
# High freq. dielectric constant tensor:
#      x y z
#    x 1.859020 0.000000 0.000000 
#    y 0.000000 1.865940 0.000000 
#    z 0.000000 0.000000 1.834980 
# 
# From -- ./inp_files/12356.got.cif
#   From: 2010.03.12/outbox.cif.g09.slc.cpg/sg24_7_cif.got.tgz:12356.got - 2010.04.14 03:06:53.
