data_PCOD8165555
_publ_section_title
;
Structure prediction by ZEFSAII (Michael W. Deem and Ramdas Pophale) SiO2 
 PCOD8165555
Probable space group: I 21 21 21
;
_chemical_formula_sum "Si O2"
_cell_formula_units_Z 48
_cell_length_a 15.386652
_cell_length_b 20.857203
_cell_length_c 7.306962
_cell_angle_alpha 90.000000
_cell_angle_beta 90.000000
_cell_angle_gamma 90.000000
_cell_volume 2344.968690
_symmetry_space_group_name_H-M "I 21 21 21"
_symmetry_group_IT_number 24
_symmetry_cell_setting 'orthorhombic'
loop_
_space_group_symop_operation_xyz
x,y,z
-x,1/2-y,z
x,-y,1/2-z
1/2-x,y,-z
1/2+x,1/2+y,1/2+z
1/2-x,-y,1/2+z
1/2+x,1/2-y,-z
-x,1/2+y,1/2-z
loop_
_atom_site_type_symbol
_atom_site_label
_atom_site_fract_x
_atom_site_fract_y
_atom_site_fract_z
Si Si1 0.100300 0.763858 0.478042
Si Si2 0.250000 0.663346 0.500000
Si Si3 0.638395 0.347753 0.660933
Si Si4 0.805414 0.927951 0.177560
Si Si5 0.926545 0.500000 0.750000
Si Si6 0.492295 0.554723 0.890477
Si Si7 0.830408 0.368953 0.751938
O O1 0.163130 0.705426 0.531969
O O2 0.110314 0.781916 0.262351
O O3 0.130087 0.825285 0.591647
O O4 0.000000 0.750000 0.524987
O O5 0.234256 0.619912 0.325180
O O6 0.567695 0.402231 0.693332
O O7 0.726496 0.372896 0.755194
O O8 0.643551 0.337470 0.443020
O O9 0.901955 0.906148 0.112328
O O10 0.800346 0.000000 0.250000
O O11 0.750000 0.919891 0.000000
O O12 0.864638 0.440092 0.793441
O O13 0.988501 0.477875 0.585501
O O14 0.474891 0.500000 0.750000
#
# Coordination Sequence:
#
# PCOD8165555 Si02
#       7
#     8   4   8   8   4   8   8
#     4  12  25  43  69  95 135 179 230 282 336 407
#     4  12  26  44  68 102 126 182 234 276 352 400
#     4  10  21  41  62  92 137 172 218 277 333 405
#     4  11  25  44  68  92 133 177 222 286 338 402
#     4  10  22  38  68 104 138 174 222 272 346 418
#     4  10  22  37  63  98 131 177 225 274 338 401
#     4  10  22  41  66  99 139 177 220 277 341 410
#
# _framework density 20.469356999999999
#
# number of rings (size 3 to 8) (size 9 to 14) (size 15 to 20)
#    0.000    1.333    2.500    2.000    2.333    6.000 
#    3.000    0.000    0.000    0.000    0.000    0.000 
#    0.000    0.000    0.000    0.000    0.000    0.000 
#
# Total GULP energy -297539.948862 kJ/mol
# GULP energy per Si atom -12397.497869 kJ/mol
# Density = 2.042277 g / cm^3
# Si number density = 20.469357 Si / 1000 Ang^3
#
#
#
# Elastic Constant Matrix: (Units=GPa)
#
#
# Indices 1 2 3 4 5 6 
#
# 1 184.2196 63.5962 70.0007 0.0000 0.0000 0.0000
# 2 63.5962 121.2930 59.8505 0.0000 0.0000 0.0000
# 3 70.0007 59.8505 104.5124 0.0000 0.0000 0.0000
# 4 0.0000 0.0000 0.0000 36.1690 0.0000 0.0000
# 5 0.0000 0.0000 0.0000 0.0000 33.6232 0.0000
# 6 0.0000 0.0000 0.0000 0.0000 0.0000 34.0772
#
#
#
# Elastic Compliance Matrix: (Units=1/GPa)
#
#
# Indices 1 2 3 4 5 6 
#
# 1 0.007635 -0.002063 -0.003932 0.000000 0.000000 0.000000
# 2 -0.002063 0.012049 -0.005519 0.000000 0.000000 0.000000
# 3 -0.003932 -0.005519 0.015362 0.000000 0.000000 0.000000
# 4 0.000000 0.000000 0.000000 0.027648 0.000000 0.000000
# 5 0.000000 0.000000 0.000000 0.000000 0.029741 0.000000
# 6 0.000000 0.000000 0.000000 0.000000 0.000000 0.029345
#
#
# Mechanical properties :
#
#
# Convention : Reuss Voigt Hill
#
# Bulk Modulus (GPa) = 83.20186 88.54664 85.87425
# Shear Modulus (GPa) = 33.59906 35.21239 34.40572
#
# Velocity S-wave (km/s) = 4.05585 4.15209 4.10425
# Velocity P-wave (km/s) = 7.91635 8.14485 8.03141
#
# Compressibility (1/GPa) = 0.01201896
#
# Stress axis : x y z
#
# Youngs Moduli (GPa) = 130.98293 82.99432 65.09426
#
# Poissons Ratio (x) = 0.17118 0.25597
# Poissons Ratio (y) = 0.27016 0.35923
# Poissons Ratio (z) = 0.51507 0.45801
#
# Static dielectric constant tensor:
#      x y z
#    x 4.470050 0.000000 0.000000 
#    y 0.000000 3.629250 0.000000 
#    z 0.000000 0.000000 3.769110 
# 
# 
# High freq. dielectric constant tensor:
#      x y z
#    x 1.819940 0.000000 0.000000 
#    y 0.000000 1.793180 0.000000 
#    z 0.000000 0.000000 1.811980 
# 
# From -- ./inp_files/12866.got.cif
#   From: 2010.03.12/outbox.cif.g09.slc.cpg/sg24_7_cif.got.tgz:12866.got - 2010.04.14 03:06:53.
