data_PCOD8165498
_publ_section_title
;
Structure prediction by ZEFSAII (Michael W. Deem and Ramdas Pophale) SiO2 
 PCOD8165498
Probable space group: I 21 21 21
;
_chemical_formula_sum "Si O2"
_cell_formula_units_Z 28
_cell_length_a 5.026979
_cell_length_b 13.909576
_cell_length_c 17.640638
_cell_angle_alpha 90.000000
_cell_angle_beta 90.000000
_cell_angle_gamma 90.000000
_cell_volume 1233.488914
_symmetry_space_group_name_H-M "I 21 21 21"
_symmetry_group_IT_number 24
_symmetry_cell_setting 'orthorhombic'
loop_
_space_group_symop_operation_xyz
x,y,z
-x,1/2-y,z
x,-y,1/2-z
1/2-x,y,-z
1/2+x,1/2+y,1/2+z
1/2-x,-y,1/2+z
1/2+x,1/2-y,-z
-x,1/2+y,1/2-z
loop_
_atom_site_type_symbol
_atom_site_label
_atom_site_fract_x
_atom_site_fract_y
_atom_site_fract_z
Si Si1 0.757070 0.691441 0.609525
Si Si2 0.227145 0.428699 0.321890
Si Si3 0.771963 0.475268 0.584178
Si Si4 0.000000 0.750000 0.754079
O O1 0.500000 0.750000 0.590144
O O2 0.705305 0.587183 0.576178
O O3 0.808935 0.684366 0.700581
O O4 0.000000 0.750000 0.570240
O O5 0.225353 0.500000 0.250000
O O6 0.429644 0.467893 0.384777
O O7 0.314901 0.320161 0.303013
O O8 0.933814 0.423429 0.358692
O O9 0.750000 0.429115 0.500000
#
# Coordination Sequence:
#
# PCOD8165498 Si02
#       4
#     8   8   8   4
#     4  10  21  39  64 102 135 172 232 286 360 406
#     4  12  24  44  73 101 138 182 243 289 345 418
#     4  12  26  44  66 102 146 185 224 290 365 422
#     4  10  24  40  72 102 130 174 242 296 332 400
#
# _framework density 22.699836999999999
#
# number of rings (size 3 to 8) (size 9 to 14) (size 15 to 20)
#    0.857    0.000    2.857    5.143    4.000    1.143 
#    0.000    2.857    0.000    0.000    0.000    0.000 
#    0.000    0.000    0.000    0.000    0.000    0.000 
#
# Total GULP energy -173583.478918 kJ/mol
# GULP energy per Si atom -12398.819923 kJ/mol
# Density = 2.264817 g / cm^3
# Si number density = 22.699837 Si / 1000 Ang^3
#
#
#
# Elastic Constant Matrix: (Units=GPa)
#
#
# Indices 1 2 3 4 5 6 
#
# 1 107.3030 1.3937 14.5661 0.0000 0.0000 0.0000
# 2 1.3937 80.3853 14.1640 0.0000 0.0000 0.0000
# 3 14.5661 14.1640 131.2691 0.0000 0.0000 0.0000
# 4 0.0000 0.0000 0.0000 14.3396 0.0000 0.0000
# 5 0.0000 0.0000 0.0000 0.0000 19.8286 0.0000
# 6 0.0000 0.0000 0.0000 0.0000 0.0000 37.0612
#
#
#
# Elastic Compliance Matrix: (Units=1/GPa)
#
#
# Indices 1 2 3 4 5 6 
#
# 1 0.009462 0.000021 -0.001052 0.000000 0.000000 0.000000
# 2 0.000021 0.012681 -0.001371 0.000000 0.000000 0.000000
# 3 -0.001052 -0.001371 0.007883 0.000000 0.000000 0.000000
# 4 0.000000 0.000000 0.000000 0.069737 0.000000 0.000000
# 5 0.000000 0.000000 0.000000 0.000000 0.050432 0.000000
# 6 0.000000 0.000000 0.000000 0.000000 0.000000 0.026982
#
#
# Mechanical properties :
#
#
# Convention : Reuss Voigt Hill
#
# Bulk Modulus (GPa) = 39.64688 42.13390 40.89039
# Shear Modulus (GPa) = 26.26217 33.50146 29.88181
#
# Velocity S-wave (km/s) = 3.40506 3.84584 3.63214
# Velocity P-wave (km/s) = 5.74133 6.19050 5.97014
#
# Compressibility (1/GPa) = 0.02522267
#
# Stress axis : x y z
#
# Youngs Moduli (GPa) = 105.68626 78.85669 126.86176
#
# Poissons Ratio (x) = -0.00168 0.13349
# Poissons Ratio (y) = -0.00226 0.17389
# Poissons Ratio (z) = 0.11121 0.10809
#
# Static dielectric constant tensor:
#      x y z
#    x 4.128150 0.000000 0.000000 
#    y 0.000000 3.639910 0.000000 
#    z 0.000000 0.000000 4.013350 
# 
# 
# High freq. dielectric constant tensor:
#      x y z
#    x 1.908000 0.000000 0.000000 
#    y 0.000000 1.878580 0.000000 
#    z 0.000000 0.000000 1.894520 
# 
# From -- ./inp_files/31849.got.cif
#   From: 2010.03.12/outbox.cif.g09.slc.cpg/sg24_16_cif.got.tgz:31849.got - 2010.04.14 03:06:53.
