data_PCOD8165434
_publ_section_title
;
Structure prediction by ZEFSAII (Michael W. Deem and Ramdas Pophale) SiO2 
 PCOD8165434
Probable space group: I 21 21 21
;
_chemical_formula_sum "Si O2"
_cell_formula_units_Z 64
_cell_length_a 30.968134
_cell_length_b 11.941481
_cell_length_c 8.727716
_cell_angle_alpha 90.000000
_cell_angle_beta 90.000000
_cell_angle_gamma 90.000000
_cell_volume 3227.556365
_symmetry_space_group_name_H-M "I 21 21 21"
_symmetry_group_IT_number 24
_symmetry_cell_setting 'orthorhombic'
loop_
_space_group_symop_operation_xyz
x,y,z
-x,1/2-y,z
x,-y,1/2-z
1/2-x,y,-z
1/2+x,1/2+y,1/2+z
1/2-x,-y,1/2+z
1/2+x,1/2-y,-z
-x,1/2+y,1/2-z
loop_
_atom_site_type_symbol
_atom_site_label
_atom_site_fract_x
_atom_site_fract_y
_atom_site_fract_z
Si Si1 0.125230 0.630218 0.429421
Si Si2 0.450846 0.233563 0.431317
Si Si3 0.950846 0.733563 0.568683
Si Si4 0.085102 0.000000 0.568081
Si Si5 0.180985 0.000000 0.931638
Si Si6 0.293885 0.757917 0.068703
Si Si7 0.293885 0.757917 0.431297
Si Si8 0.125230 0.369782 0.429421
O O1 0.079380 0.675416 0.487981
O O2 0.164453 0.691960 0.512467
O O3 0.127810 0.500000 0.470981
O O4 0.129354 0.651812 0.250000
O O5 0.500000 0.250000 0.481831
O O6 0.444597 0.246592 0.250000
O O7 0.420620 0.324585 0.512019
O O8 0.438914 0.110224 0.491377
O O9 0.938914 0.610224 0.508623
O O10 0.000000 0.750000 0.518169
O O11 0.132990 1.000000 0.498597
O O12 0.086186 0.000000 0.750000
O O13 0.204400 0.112737 0.988811
O O14 0.177987 0.000000 0.750000
O O15 0.204400 0.887263 0.988811
O O16 0.292548 0.749085 0.250000
O O17 0.250000 0.704729 0.000000
O O18 0.335547 0.691960 0.012467
O O19 0.250000 0.704729 0.500000
#
# Coordination Sequence:
#
# PCOD8165434 Si02
#       8
#     8   8   8   8   8   8   8   8
#     4  11  25  43  60  83 120 161 202 248 295 348
#     4  10  21  37  63  93 121 156 198 245 296 352
#     4  10  21  37  63  93 121 156 198 245 296 352
#     4   9  16  33  57  89 124 151 190 244 294 345
#     4   9  17  33  59  89 122 154 188 239 295 347
#     4  11  22  39  63  90 120 154 196 244 298 358
#     4  11  22  39  63  90 120 154 196 244 298 358
#     4  11  25  43  60  83 120 161 202 248 295 348
#
# _framework density 19.829242000000001
#
# number of rings (size 3 to 8) (size 9 to 14) (size 15 to 20)
#    0.000    1.750    2.500    1.875    1.750    3.000 
#    0.000    3.750    0.000    0.000    0.000    0.000 
#    0.000    0.000    0.000    0.000    0.000    0.000 
#
# Total GULP energy -396824.655815 kJ/mol
# GULP energy per Si atom -12400.770494 kJ/mol
# Density = 1.978411 g / cm^3
# Si number density = 19.829242 Si / 1000 Ang^3
#
#
#
# Elastic Constant Matrix: (Units=GPa)
#
#
# Indices 1 2 3 4 5 6 
#
# 1 169.1081 61.4648 49.4160 0.0000 0.0000 0.0000
# 2 61.4648 122.6280 51.0742 0.0000 0.0000 0.0000
# 3 49.4160 51.0742 69.5430 0.0000 0.0000 0.0000
# 4 0.0000 0.0000 0.0000 25.3339 0.0000 0.0000
# 5 0.0000 0.0000 0.0000 0.0000 30.6078 0.0000
# 6 0.0000 0.0000 0.0000 0.0000 0.0000 21.2073
#
#
#
# Elastic Compliance Matrix: (Units=1/GPa)
#
#
# Indices 1 2 3 4 5 6 
#
# 1 0.007902 -0.002337 -0.003899 0.000000 0.000000 0.000000
# 2 -0.002337 0.012440 -0.007475 0.000000 0.000000 0.000000
# 3 -0.003899 -0.007475 0.022640 0.000000 0.000000 0.000000
# 4 0.000000 0.000000 0.000000 0.039473 0.000000 0.000000
# 5 0.000000 0.000000 0.000000 0.000000 0.032671 0.000000
# 6 0.000000 0.000000 0.000000 0.000000 0.000000 0.047154
#
#
# Mechanical properties :
#
#
# Convention : Reuss Voigt Hill
#
# Bulk Modulus (GPa) = 64.26900 76.13213 70.20057
# Shear Modulus (GPa) = 25.65577 28.71808 27.18693
#
# Velocity S-wave (km/s) = 3.60089 3.80974 3.70679
# Velocity P-wave (km/s) = 7.05480 7.60456 7.33483
#
# Compressibility (1/GPa) = 0.01555960
#
# Stress axis : x y z
#
# Youngs Moduli (GPa) = 126.54951 80.38885 44.16949
#
# Poissons Ratio (x) = 0.18786 0.17221
# Poissons Ratio (y) = 0.29574 0.33018
# Poissons Ratio (z) = 0.49339 0.60093
#
# Static dielectric constant tensor:
#      x y z
#    x 3.714030 0.000000 0.000000 
#    y 0.000000 3.819180 0.000000 
#    z 0.000000 0.000000 3.330170 
# 
# 
# High freq. dielectric constant tensor:
#      x y z
#    x 1.790620 0.000000 0.000000 
#    y 0.000000 1.779980 0.000000 
#    z 0.000000 0.000000 1.750400 
# 
# From -- ./inp_files/16993.got.cif
#   From: 2010.03.12/outbox.cif.g09.slc.cpg/sg24_9_cif.got.tgz:16993.got - 2010.04.14 03:06:53.
