data_PCOD8165521
_publ_section_title
;
Structure prediction by ZEFSAII (Michael W. Deem and Ramdas Pophale) SiO2 
 PCOD8165521
Probable space group: I 21 21 21
;
_chemical_formula_sum "Si O2"
_cell_formula_units_Z 40
_cell_length_a 11.088891
_cell_length_b 9.704091
_cell_length_c 16.085963
_cell_angle_alpha 90.000000
_cell_angle_beta 90.000000
_cell_angle_gamma 90.000000
_cell_volume 1730.971990
_symmetry_space_group_name_H-M "I 21 21 21"
_symmetry_group_IT_number 24
_symmetry_cell_setting 'orthorhombic'
loop_
_space_group_symop_operation_xyz
x,y,z
-x,1/2-y,z
x,-y,1/2-z
1/2-x,y,-z
1/2+x,1/2+y,1/2+z
1/2-x,-y,1/2+z
1/2+x,1/2-y,-z
-x,1/2+y,1/2-z
loop_
_atom_site_type_symbol
_atom_site_label
_atom_site_fract_x
_atom_site_fract_y
_atom_site_fract_z
Si Si1 0.136966 0.268964 0.166468
Si Si2 0.243780 0.463527 0.598004
Si Si3 0.516631 0.404486 0.410713
Si Si4 0.137893 0.028175 0.054238
Si Si5 0.260977 0.827956 0.831338
O O1 0.175296 0.426355 0.148735
O O2 0.146908 0.187935 0.079027
O O3 0.226968 0.200997 0.233379
O O4 0.000000 0.250000 0.198989
O O5 0.250000 0.491393 0.500000
O O6 0.290856 0.311027 0.618057
O O7 0.104587 0.465277 0.631912
O O8 0.500000 0.250000 0.444448
O O9 0.526388 0.500415 0.493252
O O10 0.629290 0.398862 0.346672
O O11 0.136896 0.935955 0.138049
O O12 0.250000 0.976906 0.000000
#
# Coordination Sequence:
#
# PCOD8165521 Si02
#       5
#     8   8   8   8   8
#     4  12  26  40  60  96 137 170 206 263 331 391
#     4  11  22  41  68  96 126 169 219 267 323 384
#     4   9  19  40  69  94 122 167 224 274 314 381
#     4  10  21  40  63  89 122 164 215 266 320 380
#     4  10  22  41  63  93 127 168 217 264 321 382
#
# _framework density 23.108404
#
# number of rings (size 3 to 8) (size 9 to 14) (size 15 to 20)
#    0.000    1.600    0.000    6.000    0.000    5.600 
#    0.000   25.000    0.000    0.000    0.000    0.000 
#    0.000    0.000    0.000    0.000    0.000    0.000 
#
# Total GULP energy -247859.979348 kJ/mol
# GULP energy per Si atom -12392.998967 kJ/mol
# Density = 2.305581 g / cm^3
# Si number density = 23.108404 Si / 1000 Ang^3
#
#
#
# Elastic Constant Matrix: (Units=GPa)
#
#
# Indices 1 2 3 4 5 6 
#
# 1 113.4651 42.4622 29.1322 0.0000 0.0000 0.0000
# 2 42.4622 101.4364 18.5952 0.0000 0.0000 0.0000
# 3 29.1322 18.5952 82.2067 0.0000 0.0000 0.0000
# 4 0.0000 0.0000 0.0000 35.8147 0.0000 0.0000
# 5 0.0000 0.0000 0.0000 0.0000 22.8958 0.0000
# 6 0.0000 0.0000 0.0000 0.0000 0.0000 39.0449
#
#
#
# Elastic Compliance Matrix: (Units=1/GPa)
#
#
# Indices 1 2 3 4 5 6 
#
# 1 0.011123 -0.004104 -0.003013 0.000000 0.000000 0.000000
# 2 -0.004104 0.011799 -0.001215 0.000000 0.000000 0.000000
# 3 -0.003013 -0.001215 0.013507 0.000000 0.000000 0.000000
# 4 0.000000 0.000000 0.000000 0.027921 0.000000 0.000000
# 5 0.000000 0.000000 0.000000 0.000000 0.043676 0.000000
# 6 0.000000 0.000000 0.000000 0.000000 0.000000 0.025612
#
#
# Mechanical properties :
#
#
# Convention : Reuss Voigt Hill
#
# Bulk Modulus (GPa) = 50.59383 53.05417 51.82400
# Shear Modulus (GPa) = 31.86952 33.34565 32.60758
#
# Velocity S-wave (km/s) = 3.71769 3.80282 3.76050
# Velocity P-wave (km/s) = 6.35374 6.50312 6.42886
#
# Compressibility (1/GPa) = 0.01976526
#
# Stress axis : x y z
#
# Youngs Moduli (GPa) = 89.90640 84.75378 74.03515
#
# Poissons Ratio (x) = 0.34780 0.22310
# Poissons Ratio (y) = 0.36894 0.08993
# Poissons Ratio (z) = 0.27092 0.10295
#
# Static dielectric constant tensor:
#      x y z
#    x 4.398640 0.000000 0.000000 
#    y 0.000000 4.058790 0.000000 
#    z 0.000000 0.000000 3.970720 
# 
# 
# High freq. dielectric constant tensor:
#      x y z
#    x 1.912030 0.000000 0.000000 
#    y 0.000000 1.914120 0.000000 
#    z 0.000000 0.000000 1.898250 
# 
# From -- ./inp_files/10672.got.cif
#   From: 2010.03.12/outbox.cif.g09.slc.cpg/sg24_6_cif.got.tgz:10672.got - 2010.04.14 03:06:53.
