data_PCOD8165577
_publ_section_title
;
Structure prediction by ZEFSAII (Michael W. Deem and Ramdas Pophale) SiO2 
 PCOD8165577
Probable space group: I 21 21 21
;
_chemical_formula_sum "Si O2"
_cell_formula_units_Z 48
_cell_length_a 11.097835
_cell_length_b 12.419756
_cell_length_c 16.608099
_cell_angle_alpha 90.000000
_cell_angle_beta 90.000000
_cell_angle_gamma 90.000000
_cell_volume 2289.134192
_symmetry_space_group_name_H-M "I 21 21 21"
_symmetry_group_IT_number 24
_symmetry_cell_setting 'orthorhombic'
loop_
_space_group_symop_operation_xyz
x,y,z
-x,1/2-y,z
x,-y,1/2-z
1/2-x,y,-z
1/2+x,1/2+y,1/2+z
1/2-x,-y,1/2+z
1/2+x,1/2-y,-z
-x,1/2+y,1/2-z
loop_
_atom_site_type_symbol
_atom_site_label
_atom_site_fract_x
_atom_site_fract_y
_atom_site_fract_z
Si Si1 0.500000 0.750000 0.947460
Si Si2 0.923335 0.100634 0.582111
Si Si3 0.500000 0.250000 0.937412
Si Si4 0.755332 0.282003 0.157397
Si Si5 0.857804 0.876591 0.551129
Si Si6 0.153729 0.992224 0.843631
Si Si7 0.239491 0.226184 0.348397
O O1 0.616404 0.758822 0.891161
O O2 0.495645 0.645382 0.004856
O O3 0.849388 0.195541 0.625393
O O4 0.014660 0.035814 0.640013
O O5 0.834088 0.004207 0.558071
O O6 0.612156 0.273045 0.879883
O O7 0.478130 0.350554 0.999189
O O8 0.659491 0.187070 0.135540
O O9 0.696450 0.392527 0.122967
O O10 0.772916 0.272921 0.252875
O O11 0.750000 0.824646 0.500000
O O12 0.232510 0.894204 0.879371
O O13 0.174613 0.000000 0.750000
#
# Coordination Sequence:
#
# PCOD8165577 Si02
#       7
#     4   8   4   8   8   8   8
#     4  12  25  42  67  96 134 178 220 282 333 398
#     4  12  24  42  65  94 133 171 222 273 329 394
#     4  10  21  42  65 102 128 176 216 276 335 404
#     4  10  23  43  68  96 135 170 225 273 335 400
#     4  10  22  39  61  94 127 165 209 263 327 393
#     4  10  23  41  65  94 128 170 222 271 324 391
#     4  11  24  44  65  99 129 178 224 275 336 390
#
# _framework density 20.968626
#
# number of rings (size 3 to 8) (size 9 to 14) (size 15 to 20)
#    0.000    1.333    1.667    3.000    4.667    0.000 
#    0.000    0.000    0.000    0.000    0.000    0.000 
#    0.000    0.000    0.000    0.000    0.000    0.000 
#
# Total GULP energy -297372.145477 kJ/mol
# GULP energy per Si atom -12390.506062 kJ/mol
# Density = 2.092090 g / cm^3
# Si number density = 20.968626 Si / 1000 Ang^3
#
#
#
# Elastic Constant Matrix: (Units=GPa)
#
#
# Indices 1 2 3 4 5 6 
#
# 1 103.4030 39.3979 42.1021 0.0000 0.0000 0.0000
# 2 39.3979 160.5981 50.2694 0.0000 0.0000 0.0000
# 3 42.1021 50.2694 82.2254 0.0000 0.0000 0.0000
# 4 0.0000 0.0000 0.0000 25.5257 0.0000 0.0000
# 5 0.0000 0.0000 0.0000 0.0000 42.7748 0.0000
# 6 0.0000 0.0000 0.0000 0.0000 0.0000 33.1485
#
#
#
# Elastic Compliance Matrix: (Units=1/GPa)
#
#
# Indices 1 2 3 4 5 6 
#
# 1 0.012436 -0.001308 -0.005568 0.000000 0.000000 0.000000
# 2 -0.001308 0.007838 -0.004122 0.000000 0.000000 0.000000
# 3 -0.005568 -0.004122 0.017533 0.000000 0.000000 0.000000
# 4 0.000000 0.000000 0.000000 0.039176 0.000000 0.000000
# 5 0.000000 0.000000 0.000000 0.000000 0.023378 0.000000
# 6 0.000000 0.000000 0.000000 0.000000 0.000000 0.030167
#
#
# Mechanical properties :
#
#
# Convention : Reuss Voigt Hill
#
# Bulk Modulus (GPa) = 63.24836 67.75172 65.50004
# Shear Modulus (GPa) = 31.68656 34.58693 33.13674
#
# Velocity S-wave (km/s) = 3.89156 4.06576 3.97961
# Velocity P-wave (km/s) = 7.10078 7.37711 7.24026
#
# Compressibility (1/GPa) = 0.01581069
#
# Stress axis : x y z
#
# Youngs Moduli (GPa) = 80.40885 127.58601 57.03577
#
# Poissons Ratio (x) = 0.16688 0.31759
# Poissons Ratio (y) = 0.10517 0.23510
# Poissons Ratio (z) = 0.44773 0.52591
#
# Static dielectric constant tensor:
#      x y z
#    x 3.744780 0.000000 0.000000 
#    y 0.000000 4.130540 0.000000 
#    z 0.000000 0.000000 3.806130 
# 
# 
# High freq. dielectric constant tensor:
#      x y z
#    x 1.824850 0.000000 0.000000 
#    y 0.000000 1.831710 0.000000 
#    z 0.000000 0.000000 1.825000 
# 
# From -- ./inp_files/30242.got.cif
#   From: 2010.03.12/outbox.cif.g09.slc.cpg/sg24_16_cif.got.tgz:30242.got - 2010.04.14 03:06:53.
