data_PCOD8165133
_publ_section_title
;
Structure prediction by ZEFSAII (Michael W. Deem and Ramdas Pophale) SiO2 
 PCOD8165133
Probable space group: I 21 21 21
;
_chemical_formula_sum "Si O2"
_cell_formula_units_Z 60
_cell_length_a 12.780898
_cell_length_b 18.011091
_cell_length_c 12.427144
_cell_angle_alpha 90.000000
_cell_angle_beta 90.000000
_cell_angle_gamma 90.000000
_cell_volume 2860.702662
_symmetry_space_group_name_H-M "I 21 21 21"
_symmetry_group_IT_number 24
_symmetry_cell_setting 'orthorhombic'
loop_
_space_group_symop_operation_xyz
x,y,z
-x,1/2-y,z
x,-y,1/2-z
1/2-x,y,-z
1/2+x,1/2+y,1/2+z
1/2-x,-y,1/2+z
1/2+x,1/2-y,-z
-x,1/2+y,1/2-z
loop_
_atom_site_type_symbol
_atom_site_label
_atom_site_fract_x
_atom_site_fract_y
_atom_site_fract_z
Si Si1 0.549591 0.932349 0.824183
Si Si2 0.633217 0.974735 0.489039
Si Si3 0.179363 0.758008 0.602696
Si Si4 0.750000 0.267236 0.500000
Si Si5 0.282851 0.318159 0.713893
Si Si6 0.038785 0.828879 0.014081
Si Si7 0.999991 0.636975 0.613035
Si Si8 0.082522 0.594404 0.825906
O O1 0.614952 0.869053 0.759481
O O2 0.457509 0.889763 0.889102
O O3 0.506147 0.000000 0.750000
O O4 0.625735 0.968518 0.912649
O O5 0.750000 0.939632 0.500000
O O6 0.541677 0.912554 0.488249
O O7 0.613714 0.014985 0.374393
O O8 0.250000 0.742954 0.500000
O O9 0.262195 0.748649 0.701291
O O10 0.081857 0.703883 0.618276
O O11 0.121130 0.838296 0.595438
O O12 0.707383 0.215412 0.595207
O O13 0.654924 0.320674 0.464947
O O14 0.186970 0.373197 0.724315
O O15 0.000000 0.750000 0.061072
O O16 0.961621 0.851867 0.918630
O O17 0.000935 0.591602 0.726474
#
# Coordination Sequence:
#
# PCOD8165133 Si02
#       8
#     8   8   8   4   8   8   8   8
#     4  11  25  39  58  97 135 169 202 264 349 402
#     4  11  21  35  60  92 126 163 200 266 337 398
#     4  10  23  40  57  89 122 174 225 257 317 389
#     4  12  20  38  66  98 122 166 226 284 334 386
#     4  11  20  35  66  95 127 162 212 277 336 387
#     4  11  21  38  64  95 132 161 219 276 331 395
#     4  10  22  37  60  90 124 167 214 270 318 390
#     4  10  20  35  61  94 124 155 209 273 332 389
#
# _framework density 20.973868
#
# number of rings (size 3 to 8) (size 9 to 14) (size 15 to 20)
#    0.000    1.333    4.000    2.400    7.467    0.000 
#    2.400    0.000    5.867    0.000    0.000    0.000 
#    0.000    0.000    0.000    0.000    0.000    0.000 
#
# Total GULP energy -371705.676333 kJ/mol
# GULP energy per Si atom -12390.189211 kJ/mol
# Density = 2.092613 g / cm^3
# Si number density = 20.973868 Si / 1000 Ang^3
#
#
#
# Elastic Constant Matrix: (Units=GPa)
#
#
# Indices 1 2 3 4 5 6 
#
# 1 54.3959 34.6959 14.3984 0.0000 0.0000 0.0000
# 2 34.6959 81.9144 27.3051 -0.0002 -0.0001 0.0000
# 3 14.3984 27.3051 85.8087 -0.0005 -0.0002 0.0000
# 4 0.0000 -0.0002 -0.0005 32.9498 -0.0001 0.0000
# 5 0.0000 -0.0001 -0.0002 -0.0001 16.7147 0.0000
# 6 0.0000 0.0000 0.0000 0.0000 0.0000 33.1754
#
#
#
# Elastic Compliance Matrix: (Units=1/GPa)
#
#
# Indices 1 2 3 4 5 6 
#
# 1 0.025255 -0.010386 -0.000933 0.000000 0.000000 0.000000
# 2 -0.010386 0.017928 -0.003962 0.000000 0.000000 0.000000
# 3 -0.000933 -0.003962 0.013071 0.000000 0.000000 0.000000
# 4 0.000000 0.000000 0.000000 0.030349 0.000000 0.000000
# 5 0.000000 0.000000 0.000000 0.000000 0.059828 0.000000
# 6 0.000000 0.000000 0.000000 0.000000 0.000000 0.030143
#
#
# Mechanical properties :
#
#
# Convention : Reuss Voigt Hill
#
# Bulk Modulus (GPa) = 38.92238 41.65754 40.28996
# Shear Modulus (GPa) = 23.18032 26.28262 24.73147
#
# Velocity S-wave (km/s) = 3.32806 3.54377 3.43761
# Velocity P-wave (km/s) = 5.77632 6.05386 5.91672
#
# Compressibility (1/GPa) = 0.02569216
#
# Stress axis : x y z
#
# Youngs Moduli (GPa) = 39.59543 55.77930 76.50475
#
# Poissons Ratio (x) = 0.57934 0.07136
# Poissons Ratio (y) = 0.41125 0.30311
# Poissons Ratio (z) = 0.03693 0.22100
#
# Static dielectric constant tensor:
#      x y z
#    x 3.798570 0.000000 0.000000 
#    y 0.000000 3.945220 0.000000 
#    z 0.000000 0.000000 3.777910 
# 
# 
# High freq. dielectric constant tensor:
#      x y z
#    x 1.792890 0.000000 0.000000 
#    y 0.000000 1.812410 0.000000 
#    z 0.000000 0.000000 1.818840 
# 
# From -- ./inp_files/21029.got.cif
#   From: 2010.03.12/outbox.cif.g09.slc.cpg/sg24_11_cif.got.tgz:21029.got - 2010.04.14 03:06:53.
