data_PCOD8165902
_publ_section_title
;
Structure prediction by ZEFSAII (Michael W. Deem and Ramdas Pophale) SiO2 
 PCOD8165902
Probable space group: I 21 21 21
;
_chemical_formula_sum "Si O2"
_cell_formula_units_Z 40
_cell_length_a 24.517374
_cell_length_b 14.243592
_cell_length_c 5.301366
_cell_angle_alpha 90.000000
_cell_angle_beta 90.000000
_cell_angle_gamma 90.000000
_cell_volume 1851.319031
_symmetry_space_group_name_H-M "I 21 21 21"
_symmetry_group_IT_number 24
_symmetry_cell_setting 'orthorhombic'
loop_
_space_group_symop_operation_xyz
x,y,z
-x,1/2-y,z
x,-y,1/2-z
1/2-x,y,-z
1/2+x,1/2+y,1/2+z
1/2-x,-y,1/2+z
1/2+x,1/2-y,-z
-x,1/2+y,1/2-z
loop_
_atom_site_type_symbol
_atom_site_label
_atom_site_fract_x
_atom_site_fract_y
_atom_site_fract_z
Si Si1 0.038632 0.406952 0.867529
Si Si2 0.785724 0.295051 0.248547
Si Si3 0.100391 0.747105 0.352274
Si Si4 0.000000 0.250000 0.506281
Si Si5 0.423594 0.944634 0.504664
Si Si6 0.283648 0.000000 0.750000
O O1 0.066680 0.500000 0.750000
O O2 0.007976 0.343778 0.663250
O O3 0.085666 0.348650 0.003756
O O4 0.989195 0.439859 0.047903
O O5 0.750000 0.279391 0.500000
O O6 0.839239 0.228747 0.262041
O O7 0.813486 0.399622 0.220915
O O8 0.750000 0.272124 0.000000
O O9 0.100631 0.839180 0.530988
O O10 0.054501 0.769427 0.148363
O O11 0.398894 0.000000 0.750000
O O12 0.406948 0.000000 0.250000
O O13 0.250000 0.016815 0.500000
#
# Coordination Sequence:
#
# PCOD8165902 Si02
#       6
#     8   8   8   4   8   4
#     4  11  24  40  62  97 142 180 222 281 344 419
#     4  10  24  42  63  93 129 178 226 278 335 403
#     4  12  24  40  67  99 137 183 232 283 342 422
#     4  12  22  44  66 102 138 174 230 274 360 416
#     4  11  23  39  62  98 141 179 217 271 336 410
#     4   8  16  38  58  84 126 166 216 262 316 384
#
# _framework density 21.606214999999999
#
# number of rings (size 3 to 8) (size 9 to 14) (size 15 to 20)
#    0.000    1.200    4.000    2.400    4.200    0.000 
#    7.200    0.000    2.200    0.000    5.200    0.000 
#    0.000    0.000    0.000    0.000    0.000    0.000 
#
# Total GULP energy -247801.070575 kJ/mol
# GULP energy per Si atom -12390.053529 kJ/mol
# Density = 2.155704 g / cm^3
# Si number density = 21.606215 Si / 1000 Ang^3
#
#
#
# Elastic Constant Matrix: (Units=GPa)
#
#
# Indices 1 2 3 4 5 6 
#
# 1 118.4861 26.8102 38.7188 0.0000 0.0000 0.0000
# 2 26.8102 126.1392 41.4779 0.0000 0.0000 0.0000
# 3 38.7188 41.4779 125.7610 0.0000 0.0000 0.0000
# 4 0.0000 0.0000 0.0000 23.7162 0.0000 0.0000
# 5 0.0000 0.0000 0.0000 0.0000 14.5425 0.0000
# 6 0.0000 0.0000 0.0000 0.0000 0.0000 26.3494
#
#
#
# Elastic Compliance Matrix: (Units=1/GPa)
#
#
# Indices 1 2 3 4 5 6 
#
# 1 0.009541 -0.001191 -0.002545 0.000000 0.000000 0.000000
# 2 -0.001191 0.009041 -0.002615 0.000000 0.000000 0.000000
# 3 -0.002545 -0.002615 0.009597 0.000000 0.000000 0.000000
# 4 0.000000 0.000000 0.000000 0.042165 0.000000 0.000000
# 5 0.000000 0.000000 0.000000 0.000000 0.068764 0.000000
# 6 0.000000 0.000000 0.000000 0.000000 0.000000 0.037951
#
#
# Mechanical properties :
#
#
# Convention : Reuss Voigt Hill
#
# Bulk Modulus (GPa) = 64.60934 64.93332 64.77133
# Shear Modulus (GPa) = 25.65151 30.48028 28.06589
#
# Velocity S-wave (km/s) = 3.44936 3.76003 3.60804
# Velocity P-wave (km/s) = 6.76994 6.99777 6.88480
#
# Compressibility (1/GPa) = 0.01547764
#
# Stress axis : x y z
#
# Youngs Moduli (GPa) = 104.81265 110.60940 104.19402
#
# Poissons Ratio (x) = 0.13175 0.26513
# Poissons Ratio (y) = 0.12485 0.27248
# Poissons Ratio (z) = 0.26670 0.28925
#
# Static dielectric constant tensor:
#      x y z
#    x 3.734770 0.000000 0.000000 
#    y 0.000000 3.978870 0.000000 
#    z 0.000000 0.000000 3.999680 
# 
# 
# High freq. dielectric constant tensor:
#      x y z
#    x 1.831180 0.000000 0.000000 
#    y 0.000000 1.838460 0.000000 
#    z 0.000000 0.000000 1.853390 
# 
# From -- ./inp_files/6310.got.cif
#   From: 2010.03.12/outbox.cif.g09.slc.cpg/sg24_4_cif.got.tgz:6310.got - 2010.04.14 03:06:53.
