data_PCOD8165333
_publ_section_title
;
Structure prediction by ZEFSAII (Michael W. Deem and Ramdas Pophale) SiO2 
 PCOD8165333
Probable space group: I 21 21 21
;
_chemical_formula_sum "Si O2"
_cell_formula_units_Z 48
_cell_length_a 40.795743
_cell_length_b 8.156025
_cell_length_c 7.427701
_cell_angle_alpha 90.000000
_cell_angle_beta 90.000000
_cell_angle_gamma 90.000000
_cell_volume 2471.427123
_symmetry_space_group_name_H-M "I 21 21 21"
_symmetry_group_IT_number 24
_symmetry_cell_setting 'orthorhombic'
loop_
_space_group_symop_operation_xyz
x,y,z
-x,1/2-y,z
x,-y,1/2-z
1/2-x,y,-z
1/2+x,1/2+y,1/2+z
1/2-x,-y,1/2+z
1/2+x,1/2-y,-z
-x,1/2+y,1/2-z
loop_
_atom_site_type_symbol
_atom_site_label
_atom_site_fract_x
_atom_site_fract_y
_atom_site_fract_z
Si Si1 0.034617 0.808610 0.447119
Si Si2 0.725873 0.657776 0.842209
Si Si3 0.686396 0.051860 0.552172
Si Si4 0.534780 0.693056 0.951587
Si Si5 0.750000 0.151903 0.000000
Si Si6 0.414237 0.803475 0.253089
Si Si7 0.865771 0.000000 0.750000
O O1 0.040100 0.730466 0.248110
O O2 0.064346 0.756704 0.573622
O O3 0.000000 0.750000 0.528967
O O4 0.033439 0.000987 0.436271
O O5 0.709411 0.500000 0.750000
O O6 0.696254 0.757605 0.932364
O O7 0.746413 0.750147 0.686411
O O8 0.750000 0.600317 0.000000
O O9 0.655910 0.017116 0.426825
O O10 0.675517 0.000000 0.750000
O O11 0.718037 0.958867 0.475128
O O12 0.500000 0.750000 0.033882
O O13 0.564800 0.744949 0.077605
O O14 0.384735 0.673670 0.262084
O O15 0.404004 0.000000 0.250000
#
# Coordination Sequence:
#
# PCOD8165333 Si02
#       7
#     8   8   8   8   4   8   4
#     4   9  18  33  57  89 119 152 201 255 310 361
#     4  11  20  35  61  97 127 152 192 245 315 377
#     4  10  23  42  63  91 121 157 205 253 306 377
#     4   9  18  33  57  89 119 152 200 257 310 359
#     4  10  20  40  68  90 122 160 192 260 314 358
#     4  10  23  41  58  84 121 164 206 254 303 366
#     4  12  26  44  64  88 122 174 214 246 318 382
#
# _framework density 19.421976999999998
#
# number of rings (size 3 to 8) (size 9 to 14) (size 15 to 20)
#    0.000    2.000    1.667    1.500    3.500    1.333 
#    6.000    0.000    0.000    0.000    0.000    0.000 
#    0.000    0.000    0.000    0.000    0.000    0.000 
#
# Total GULP energy -297419.983210 kJ/mol
# GULP energy per Si atom -12392.499300 kJ/mol
# Density = 1.937777 g / cm^3
# Si number density = 19.421977 Si / 1000 Ang^3
#
#
#
# Elastic Constant Matrix: (Units=GPa)
#
#
# Indices 1 2 3 4 5 6 
#
# 1 131.6480 62.6047 68.0380 0.0002 0.0000 0.0000
# 2 62.6047 99.1715 43.7037 0.0003 0.0000 0.0000
# 3 68.0380 43.7037 111.2690 0.0006 0.0000 0.0000
# 4 0.0002 0.0003 0.0006 44.6133 0.0001 0.0001
# 5 0.0000 0.0000 0.0000 0.0001 25.7609 0.0000
# 6 0.0000 0.0000 0.0000 0.0001 0.0000 22.8210
#
#
#
# Elastic Compliance Matrix: (Units=1/GPa)
#
#
# Indices 1 2 3 4 5 6 
#
# 1 0.013451 -0.005885 -0.005913 0.000000 0.000000 0.000000
# 2 -0.005885 0.014769 -0.002202 0.000000 0.000000 0.000000
# 3 -0.005913 -0.002202 0.013468 0.000000 0.000000 0.000000
# 4 0.000000 0.000000 0.000000 0.022415 0.000000 0.000000
# 5 0.000000 0.000000 0.000000 0.000000 0.038819 0.000000
# 6 0.000000 0.000000 0.000000 0.000000 0.000000 0.043819
#
#
# Mechanical properties :
#
#
# Convention : Reuss Voigt Hill
#
# Bulk Modulus (GPa) = 73.06477 76.75349 74.90913
# Shear Modulus (GPa) = 27.88550 29.82184 28.85367
#
# Velocity S-wave (km/s) = 3.79327 3.92276 3.85856
# Velocity P-wave (km/s) = 7.54231 7.75384 7.64881
#
# Compressibility (1/GPa) = 0.01368649
#
# Stress axis : x y z
#
# Youngs Moduli (GPa) = 74.34513 67.70785 74.25002
#
# Poissons Ratio (x) = 0.39848 0.43905
# Poissons Ratio (y) = 0.43754 0.16352
# Poissons Ratio (z) = 0.43962 0.14912
#
# Static dielectric constant tensor:
#      x y z
#    x 2.528610 0.000000 0.000010 
#    y 0.000000 3.652230 0.000000 
#    z 0.000010 0.000000 4.598530 
# 
# 
# High freq. dielectric constant tensor:
#      x y z
#    x 1.728550 0.000000 0.000000 
#    y 0.000000 1.758870 0.000000 
#    z 0.000000 0.000000 1.778180 
# 
# From -- ./inp_files/16884.got.cif
#   From: 2010.03.12/outbox.cif.g09.slc.cpg/sg24_9_cif.got.tgz:16884.got - 2010.04.14 03:06:53.
