data_PCOD8165926
_publ_section_title
;
Structure prediction by ZEFSAII (Michael W. Deem and Ramdas Pophale) SiO2 
 PCOD8165926
Probable space group: I 21 21 21
;
_chemical_formula_sum "Si O2"
_cell_formula_units_Z 56
_cell_length_a 8.361948
_cell_length_b 15.145142
_cell_length_c 20.204599
_cell_angle_alpha 90.000000
_cell_angle_beta 90.000000
_cell_angle_gamma 90.000000
_cell_volume 2558.768806
_symmetry_space_group_name_H-M "I 21 21 21"
_symmetry_group_IT_number 24
_symmetry_cell_setting 'orthorhombic'
loop_
_space_group_symop_operation_xyz
x,y,z
-x,1/2-y,z
x,-y,1/2-z
1/2-x,y,-z
1/2+x,1/2+y,1/2+z
1/2-x,-y,1/2+z
1/2+x,1/2-y,-z
-x,1/2+y,1/2-z
loop_
_atom_site_type_symbol
_atom_site_label
_atom_site_fract_x
_atom_site_fract_y
_atom_site_fract_z
Si Si1 0.638238 0.920319 0.643869
Si Si2 0.750000 0.861746 0.000000
Si Si3 0.322672 0.723698 0.866212
Si Si4 0.560211 0.995545 0.076884
Si Si5 0.178092 0.605272 0.759068
Si Si6 0.643603 0.610177 0.181044
Si Si7 0.563885 0.845733 0.511056
Si Si8 0.404019 0.000000 0.750000
O O1 0.768641 0.985573 0.611021
O O2 0.740175 0.854015 0.692475
O O3 0.536053 0.868234 0.588383
O O4 0.509351 0.971124 0.687930
O O5 0.680840 0.800012 0.942868
O O6 0.901931 0.919712 0.976467
O O7 0.500000 0.750000 0.844196
O O8 0.271801 0.638580 0.823654
O O9 0.194255 0.801565 0.856450
O O10 0.429103 0.962288 0.129952
O O11 0.487362 0.080816 0.038256
O O12 0.200219 0.500000 0.750000
O O13 0.992972 0.632309 0.764672
O O14 0.794273 0.577896 0.222398
O O15 0.500000 0.750000 0.492086
O O16 0.750000 0.847038 0.500000
#
# Coordination Sequence:
#
# PCOD8165926 Si02
#       8
#     8   4   8   8   8   8   8   4
#     4  11  21  41  71  99 134 194 228 291 352 413
#     4  12  24  46  74  98 138 188 232 282 372 424
#     4  12  30  44  69 108 143 179 239 303 352 428
#     4  11  22  45  76  99 134 193 237 285 366 433
#     4  12  22  45  72  95 142 189 229 284 351 425
#     4  12  25  45  68 107 139 183 234 292 355 423
#     4  10  24  44  69 103 138 179 236 293 349 419
#     4  12  24  40  70 102 144 180 236 288 352 434
#
# _framework density 21.885525999999999
#
# number of rings (size 3 to 8) (size 9 to 14) (size 15 to 20)
#    0.000    0.571    6.429    1.286    4.000    2.857 
#    0.000    7.143    0.000    0.000    0.000    0.000 
#    0.000    0.000    0.000    0.000    0.000    0.000 
#
# Total GULP energy -347091.386717 kJ/mol
# GULP energy per Si atom -12396.120954 kJ/mol
# Density = 2.183571 g / cm^3
# Si number density = 21.885526 Si / 1000 Ang^3
#
#
#
# Elastic Constant Matrix: (Units=GPa)
#
#
# Indices 1 2 3 4 5 6 
#
# 1 110.9078 41.3352 44.8591 0.0000 0.0000 0.0000
# 2 41.3352 114.8032 49.3651 0.0000 0.0000 0.0000
# 3 44.8591 49.3651 130.4970 0.0000 0.0000 0.0000
# 4 0.0000 0.0000 0.0000 39.2785 0.0000 0.0000
# 5 0.0000 0.0000 0.0000 0.0000 40.2640 0.0000
# 6 0.0000 0.0000 0.0000 0.0000 0.0000 37.6050
#
#
#
# Elastic Compliance Matrix: (Units=1/GPa)
#
#
# Indices 1 2 3 4 5 6 
#
# 1 0.011197 -0.002838 -0.002775 0.000000 0.000000 0.000000
# 2 -0.002838 0.011122 -0.003232 0.000000 0.000000 0.000000
# 3 -0.002775 -0.003232 0.009840 0.000000 0.000000 0.000000
# 4 0.000000 0.000000 0.000000 0.025459 0.000000 0.000000
# 5 0.000000 0.000000 0.000000 0.000000 0.024836 0.000000
# 6 0.000000 0.000000 0.000000 0.000000 0.000000 0.026592
#
#
# Mechanical properties :
#
#
# Convention : Reuss Voigt Hill
#
# Bulk Modulus (GPa) = 69.11730 69.70297 69.41013
# Shear Modulus (GPa) = 38.00582 38.13942 38.07262
#
# Velocity S-wave (km/s) = 4.17174 4.17907 4.17541
# Velocity P-wave (km/s) = 7.40638 7.42995 7.41817
#
# Compressibility (1/GPa) = 0.01446816
#
# Stress axis : x y z
#
# Youngs Moduli (GPa) = 89.31130 89.91169 101.63047
#
# Poissons Ratio (x) = 0.25517 0.28206
# Poissons Ratio (y) = 0.25347 0.32844
# Poissons Ratio (z) = 0.24787 0.29057
#
# Static dielectric constant tensor:
#      x y z
#    x 3.992550 0.000000 0.000000 
#    y 0.000000 2.379070 0.000000 
#    z 0.000000 0.000000 4.801220 
# 
# 
# High freq. dielectric constant tensor:
#      x y z
#    x 1.854520 0.000000 0.000000 
#    y 0.000000 1.849210 0.000000 
#    z 0.000000 0.000000 1.879440 
# 
# From -- ./inp_files/32860.got.cif
#   From: 2010.03.12/outbox.cif.g09.slc.cpg/sg24_17_cif.got.tgz:32860.got - 2010.04.14 03:06:53.
