data_PCOD8165863
_publ_section_title
;
Structure prediction by ZEFSAII (Michael W. Deem and Ramdas Pophale) SiO2 
 PCOD8165863
Probable space group: I 21 21 21
;
_chemical_formula_sum "Si O2"
_cell_formula_units_Z 32
_cell_length_a 12.991800
_cell_length_b 12.047216
_cell_length_c 8.956875
_cell_angle_alpha 90.000000
_cell_angle_beta 90.000000
_cell_angle_gamma 90.000000
_cell_volume 1401.885477
_symmetry_space_group_name_H-M "I 21 21 21"
_symmetry_group_IT_number 24
_symmetry_cell_setting 'orthorhombic'
loop_
_space_group_symop_operation_xyz
x,y,z
-x,1/2-y,z
x,-y,1/2-z
1/2-x,y,-z
1/2+x,1/2+y,1/2+z
1/2-x,-y,1/2+z
1/2+x,1/2-y,-z
-x,1/2+y,1/2-z
loop_
_atom_site_type_symbol
_atom_site_label
_atom_site_fract_x
_atom_site_fract_y
_atom_site_fract_z
Si Si1 0.392070 0.630447 0.871882
Si Si2 0.722106 0.000000 0.250000
Si Si3 0.389223 0.715335 0.198909
Si Si4 0.794509 0.302884 0.160595
Si Si5 0.574247 0.500000 0.750000
O O1 0.300970 0.538106 0.882559
O O2 0.371136 0.708589 0.727466
O O3 0.503161 0.572369 0.860187
O O4 0.393255 0.701014 0.021681
O O5 0.647918 0.895996 0.287083
O O6 0.500000 0.750000 0.263415
O O7 0.305428 0.811317 0.230785
O O8 0.853268 0.419832 0.151850
O O9 0.750000 0.268110 0.000000
#
# Coordination Sequence:
#
# PCOD8165863 Si02
#       5
#     8   4   8   8   4
#     4  10  23  44  68  91 127 176 217 255 319 395
#     4   9  20  37  62  92 124 163 208 253 312 378
#     4  11  24  42  68  96 128 170 219 265 314 380
#     4  11  25  42  65  99 134 165 210 270 323 377
#     4  11  24  41  68  98 128 167 214 269 324 372
#
# _framework density 22.826401000000001
#
# number of rings (size 3 to 8) (size 9 to 14) (size 15 to 20)
#    0.000    1.500    0.000    5.250    0.000   21.000 
#    0.000    0.000    0.000    3.000    0.000    0.000 
#    0.000    0.000    0.000    0.000    0.000    0.000 
#
# Total GULP energy -198268.897296 kJ/mol
# GULP energy per Si atom -12391.806081 kJ/mol
# Density = 2.277445 g / cm^3
# Si number density = 22.826401 Si / 1000 Ang^3
#
#
#
# Elastic Constant Matrix: (Units=GPa)
#
#
# Indices 1 2 3 4 5 6 
#
# 1 189.5209 88.4584 37.3746 0.0000 0.0000 0.0000
# 2 88.4584 114.0632 50.5384 0.0000 0.0000 0.0000
# 3 37.3746 50.5384 109.9611 0.0000 0.0000 0.0000
# 4 0.0000 0.0000 0.0000 23.5318 0.0000 0.0000
# 5 0.0000 0.0000 0.0000 0.0000 26.2493 0.0000
# 6 0.0000 0.0000 0.0000 0.0000 0.0000 72.7542
#
#
#
# Elastic Compliance Matrix: (Units=1/GPa)
#
#
# Indices 1 2 3 4 5 6 
#
# 1 0.008273 -0.006492 0.000172 0.000000 0.000000 0.000000
# 2 -0.006492 0.016103 -0.005195 0.000000 0.000000 0.000000
# 3 0.000172 -0.005195 0.011423 0.000000 0.000000 0.000000
# 4 0.000000 0.000000 0.000000 0.042496 0.000000 0.000000
# 5 0.000000 0.000000 0.000000 0.000000 0.038096 0.000000
# 6 0.000000 0.000000 0.000000 0.000000 0.000000 0.013745
#
#
# Mechanical properties :
#
#
# Convention : Reuss Voigt Hill
#
# Bulk Modulus (GPa) = 78.30866 85.14311 81.72589
# Shear Modulus (GPa) = 31.76198 40.31867 36.04033
#
# Velocity S-wave (km/s) = 3.73427 4.20732 3.97783
# Velocity P-wave (km/s) = 7.27830 7.80918 7.54841
#
# Compressibility (1/GPa) = 0.01276998
#
# Stress axis : x y z
#
# Youngs Moduli (GPa) = 120.88191 62.10003 87.54152
#
# Poissons Ratio (x) = 0.40313 -0.01504
# Poissons Ratio (y) = 0.78472 0.45474
# Poissons Ratio (z) = -0.02077 0.32258
#
# Static dielectric constant tensor:
#      x y z
#    x 4.601370 0.000000 0.000000 
#    y 0.000000 4.209390 0.000000 
#    z 0.000000 0.000000 3.761150 
# 
# 
# High freq. dielectric constant tensor:
#      x y z
#    x 1.923440 0.000000 0.000000 
#    y 0.000000 1.893810 0.000000 
#    z 0.000000 0.000000 1.873380 
# 
# From -- ./inp_files/11937.got.cif
#   From: 2010.03.12/outbox.cif.g09.slc.cpg/sg24_6_cif.got.tgz:11937.got - 2010.04.14 03:06:53.
