data_PCOD8165288
_publ_section_title
;
Structure prediction by ZEFSAII (Michael W. Deem and Ramdas Pophale) SiO2 
 PCOD8165288
Probable space group: I 21 21 21
;
_chemical_formula_sum "Si O2"
_cell_formula_units_Z 40
_cell_length_a 8.303600
_cell_length_b 14.403126
_cell_length_c 15.713175
_cell_angle_alpha 90.000000
_cell_angle_beta 90.000000
_cell_angle_gamma 90.000000
_cell_volume 1879.261115
_symmetry_space_group_name_H-M "I 21 21 21"
_symmetry_group_IT_number 24
_symmetry_cell_setting 'orthorhombic'
loop_
_space_group_symop_operation_xyz
x,y,z
-x,1/2-y,z
x,-y,1/2-z
1/2-x,y,-z
1/2+x,1/2+y,1/2+z
1/2-x,-y,1/2+z
1/2+x,1/2-y,-z
-x,1/2+y,1/2-z
loop_
_atom_site_type_symbol
_atom_site_label
_atom_site_fract_x
_atom_site_fract_y
_atom_site_fract_z
Si Si1 0.716607 0.414581 0.692810
Si Si2 0.824777 0.779592 0.796946
Si Si3 0.113952 0.427653 0.389744
Si Si4 0.867658 0.936474 0.671036
Si Si5 0.906341 0.484194 0.545065
O O1 0.779113 0.500000 0.750000
O O2 0.731832 0.312858 0.733571
O O3 0.529270 0.428583 0.677010
O O4 0.828042 0.408238 0.608269
O O5 0.729597 0.838455 0.870606
O O6 0.838102 0.834854 0.708010
O O7 0.000000 0.750000 0.832255
O O8 0.208357 0.522976 0.373464
O O9 0.037301 0.431132 0.484921
O O10 0.923041 0.000000 0.750000
O O11 0.006754 0.935245 0.599309
O O12 0.750000 0.530891 0.500000
#
# Coordination Sequence:
#
# PCOD8165288 Si02
#       5
#     8   8   8   8   8
#     4  11  21  39  65  92 125 163 206 251 299 361
#     4  11  22  37  61  91 121 161 205 247 299 362
#     4  10  22  39  62  93 126 158 199 254 311 360
#     4  10  20  39  61  86 122 162 202 245 301 365
#     4  10  21  38  63  92 124 162 199 249 310 362
#
# _framework density 21.284960000000002
#
# number of rings (size 3 to 8) (size 9 to 14) (size 15 to 20)
#    0.000    1.600    0.000    7.200    0.000    0.000 
#    0.000   28.000    0.000   26.400    0.000    0.000 
#    0.000    0.000    0.000    0.000    0.000    0.000 
#
# Total GULP energy -247794.970600 kJ/mol
# GULP energy per Si atom -12389.748530 kJ/mol
# Density = 2.123651 g / cm^3
# Si number density = 21.284960 Si / 1000 Ang^3
#
#
#
# Elastic Constant Matrix: (Units=GPa)
#
#
# Indices 1 2 3 4 5 6 
#
# 1 156.9561 52.0186 73.0893 0.0000 0.0000 0.0000
# 2 52.0186 123.3652 70.9431 0.0000 0.0000 0.0000
# 3 73.0893 70.9431 110.1766 0.0000 0.0000 0.0000
# 4 0.0000 0.0000 0.0000 19.3798 0.0000 0.0000
# 5 0.0000 0.0000 0.0000 0.0000 44.7303 0.0000
# 6 0.0000 0.0000 0.0000 0.0000 0.0000 28.2901
#
#
#
# Elastic Compliance Matrix: (Units=1/GPa)
#
#
# Indices 1 2 3 4 5 6 
#
# 1 0.009246 -0.000590 -0.005754 0.000000 0.000000 0.000000
# 2 -0.000590 0.012910 -0.007922 0.000000 0.000000 0.000000
# 3 -0.005754 -0.007922 0.017994 0.000000 0.000000 0.000000
# 4 0.000000 0.000000 0.000000 0.051600 0.000000 0.000000
# 5 0.000000 0.000000 0.000000 0.000000 0.022356 0.000000
# 6 0.000000 0.000000 0.000000 0.000000 0.000000 0.035348
#
#
# Mechanical properties :
#
#
# Convention : Reuss Voigt Hill
#
# Bulk Modulus (GPa) = 86.06090 86.95553 86.50822
# Shear Modulus (GPa) = 27.49386 31.44316 29.46851
#
# Velocity S-wave (km/s) = 3.59793 3.84767 3.72489
# Velocity P-wave (km/s) = 7.60136 7.78981 7.69616
#
# Compressibility (1/GPa) = 0.01161968
#
# Stress axis : x y z
#
# Youngs Moduli (GPa) = 108.15373 77.45826 55.57378
#
# Poissons Ratio (x) = 0.04569 0.31976
# Poissons Ratio (y) = 0.06380 0.44023
# Poissons Ratio (z) = 0.62230 0.61359
#
# Static dielectric constant tensor:
#      x y z
#    x 4.249680 0.000000 0.000000 
#    y 0.000000 3.693140 0.000000 
#    z 0.000000 0.000000 3.930290 
# 
# 
# High freq. dielectric constant tensor:
#      x y z
#    x 1.870600 0.000000 0.000000 
#    y 0.000000 1.798180 0.000000 
#    z 0.000000 0.000000 1.822550 
# 
# From -- ./inp_files/24536.got.cif
#   From: 2010.03.12/outbox.cif.g09.slc.cpg/sg24_13_cif.got.tgz:24536.got - 2010.04.14 03:06:53.
