data_PCOD8165291
_publ_section_title
;
Structure prediction by ZEFSAII (Michael W. Deem and Ramdas Pophale) SiO2 
 PCOD8165291
Probable space group: I 21 21 21
;
_chemical_formula_sum "Si O2"
_cell_formula_units_Z 64
_cell_length_a 14.840527
_cell_length_b 9.109687
_cell_length_c 22.506037
_cell_angle_alpha 90.000000
_cell_angle_beta 90.000000
_cell_angle_gamma 90.000000
_cell_volume 3042.648665
_symmetry_space_group_name_H-M "I 21 21 21"
_symmetry_group_IT_number 24
_symmetry_cell_setting 'orthorhombic'
loop_
_space_group_symop_operation_xyz
x,y,z
-x,1/2-y,z
x,-y,1/2-z
1/2-x,y,-z
1/2+x,1/2+y,1/2+z
1/2-x,-y,1/2+z
1/2+x,1/2-y,-z
-x,1/2+y,1/2-z
loop_
_atom_site_type_symbol
_atom_site_label
_atom_site_fract_x
_atom_site_fract_y
_atom_site_fract_z
Si Si1 0.268071 0.301654 0.712632
Si Si2 0.105122 0.251928 0.625769
Si Si3 0.617853 0.621275 0.612193
Si Si4 0.706653 0.896971 0.660597
Si Si5 0.789682 0.505714 0.937956
Si Si6 0.062727 0.108347 0.301899
Si Si7 0.904959 0.737840 0.513592
Si Si8 0.312931 0.491485 0.450886
O O1 0.171526 0.273914 0.681546
O O2 0.322242 0.437202 0.680201
O O3 0.241481 0.334481 0.781104
O O4 0.334112 0.161824 0.708079
O O5 0.116938 0.381540 0.578417
O O6 0.000000 0.250000 0.645782
O O7 0.134568 0.106819 0.591079
O O8 0.627486 0.776652 0.648201
O O9 0.711623 0.532459 0.608329
O O10 0.552657 0.501054 0.641943
O O11 0.576456 0.657367 0.548615
O O12 0.765504 0.913305 0.601133
O O13 0.750000 0.571485 0.000000
O O14 0.834588 0.349714 0.947794
O O15 0.000000 0.250000 0.308541
O O16 0.030872 0.000000 0.250000
O O17 0.000000 0.750000 0.547599
O O18 0.865306 0.899234 0.505200
O O19 0.250000 0.408868 0.500000
#
# Coordination Sequence:
#
# PCOD8165291 Si02
#       8
#     8   8   8   8   8   8   8   8
#     4  10  23  42  67  94 134 176 224 273 344 402
#     4  11  23  40  66  96 138 179 227 287 339 411
#     4  11  21  42  65  89 130 176 218 272 343 410
#     4  10  20  39  70  91 125 174 221 274 333 407
#     4  10  20  39  62  90 131 179 216 272 348 412
#     4  12  27  43  68 100 130 175 226 274 340 413
#     4  11  22  36  59  95 128 163 221 278 334 405
#     4  11  20  39  66  96 125 174 228 273 346 405
#
# _framework density 21.034305
#
# number of rings (size 3 to 8) (size 9 to 14) (size 15 to 20)
#    0.000    1.250    5.000    1.500    1.750    1.500 
#    0.000    3.125   13.750    0.000    0.000    0.000 
#    0.000    0.000    0.000    0.000    0.000    0.000 
#
# Total GULP energy -396422.245450 kJ/mol
# GULP energy per Si atom -12388.195170 kJ/mol
# Density = 2.098643 g / cm^3
# Si number density = 21.034305 Si / 1000 Ang^3
#
#
#
# Elastic Constant Matrix: (Units=GPa)
#
#
# Indices 1 2 3 4 5 6 
#
# 1 73.0171 27.4856 14.9030 0.0000 0.0000 0.0000
# 2 27.4856 104.6468 26.3694 0.0000 0.0000 0.0000
# 3 14.9030 26.3694 90.8322 0.0000 0.0000 0.0000
# 4 0.0000 0.0000 0.0000 6.0588 0.0000 0.0000
# 5 0.0000 0.0000 0.0000 0.0000 12.9553 0.0000
# 6 0.0000 0.0000 0.0000 0.0000 0.0000 17.8934
#
#
#
# Elastic Compliance Matrix: (Units=1/GPa)
#
#
# Indices 1 2 3 4 5 6 
#
# 1 0.015375 -0.003671 -0.001457 0.000000 0.000000 0.000000
# 2 -0.003671 0.011187 -0.002645 0.000000 0.000000 0.000000
# 3 -0.001457 -0.002645 0.012016 0.000000 0.000000 0.000000
# 4 0.000000 0.000000 0.000000 0.165050 0.000000 0.000000
# 5 0.000000 0.000000 0.000000 0.000000 0.077189 0.000000
# 6 0.000000 0.000000 0.000000 0.000000 0.000000 0.055887
#
#
# Mechanical properties :
#
#
# Convention : Reuss Voigt Hill
#
# Bulk Modulus (GPa) = 43.41912 45.11247 44.26580
# Shear Modulus (GPa) = 13.89175 20.69737 17.29456
#
# Velocity S-wave (km/s) = 2.57268 3.14025 2.87053
# Velocity P-wave (km/s) = 5.43247 5.88574 5.66364
#
# Compressibility (1/GPa) = 0.02303133
#
# Stress axis : x y z
#
# Youngs Moduli (GPa) = 65.04215 89.39156 83.22044
#
# Poissons Ratio (x) = 0.32816 0.12124
# Poissons Ratio (y) = 0.23877 0.22014
# Poissons Ratio (z) = 0.09475 0.23647
#
# Static dielectric constant tensor:
#      x y z
#    x 3.721480 0.000000 0.000000 
#    y 0.000000 4.029510 0.000000 
#    z 0.000000 0.000000 3.845920 
# 
# 
# High freq. dielectric constant tensor:
#      x y z
#    x 1.800160 0.000000 0.000000 
#    y 0.000000 1.840090 0.000000 
#    z 0.000000 0.000000 1.824830 
# 
# From -- ./inp_files/27888.got.cif
#   From: 2010.03.12/outbox.cif.g09.slc.cpg/sg24_14_cif.got.tgz:27888.got - 2010.04.14 03:06:53.
