data_PCOD8165540
_publ_section_title
;
Structure prediction by ZEFSAII (Michael W. Deem and Ramdas Pophale) SiO2 
 PCOD8165540
Probable space group: I 21 21 21
;
_chemical_formula_sum "Si O2"
_cell_formula_units_Z 48
_cell_length_a 20.513484
_cell_length_b 14.776393
_cell_length_c 8.230714
_cell_angle_alpha 90.000000
_cell_angle_beta 90.000000
_cell_angle_gamma 90.000000
_cell_volume 2494.855355
_symmetry_space_group_name_H-M "I 21 21 21"
_symmetry_group_IT_number 24
_symmetry_cell_setting 'orthorhombic'
loop_
_space_group_symop_operation_xyz
x,y,z
-x,1/2-y,z
x,-y,1/2-z
1/2-x,y,-z
1/2+x,1/2+y,1/2+z
1/2-x,-y,1/2+z
1/2+x,1/2-y,-z
-x,1/2+y,1/2-z
loop_
_atom_site_type_symbol
_atom_site_label
_atom_site_fract_x
_atom_site_fract_y
_atom_site_fract_z
Si Si1 0.364952 0.399450 0.209079
Si Si2 0.628773 0.213305 0.900185
Si Si3 0.753169 0.232465 0.689799
Si Si4 0.590863 0.500000 0.250000
Si Si5 0.000000 0.250000 0.301235
Si Si6 0.494332 0.349818 0.383989
Si Si7 0.189267 0.124352 0.903598
O O1 0.341961 0.500000 0.250000
O O2 0.304353 0.340532 0.255999
O O3 0.424796 0.386158 0.331645
O O4 0.381866 0.374708 0.019191
O O5 0.684617 0.198913 0.765425
O O6 0.562175 0.240216 0.812752
O O7 0.650491 0.297177 0.007027
O O8 0.750000 0.235585 0.500000
O O9 0.778248 0.331769 0.742959
O O10 0.548976 0.420045 0.327988
O O11 0.638372 0.543745 0.382041
O O12 0.002223 0.161527 0.420139
O O13 0.500000 0.250000 0.300221
O O14 0.250000 0.082483 0.000000
#
# Coordination Sequence:
#
# PCOD8165540 Si02
#       7
#     8   8   8   4   4   8   8
#     4  11  22  39  64  94 129 170 221 270 324 389
#     4  10  22  41  65  92 128 175 214 266 332 391
#     4  10  21  40  66  90 127 174 218 265 327 390
#     4  12  22  40  68  94 130 164 220 270 324 396
#     4  10  24  40  66  94 124 168 222 264 326 402
#     4  10  23  41  64  93 127 171 216 260 333 391
#     4   9  22  41  61  92 125 168 215 263 328 388
#
# _framework density 19.239592999999999
#
# number of rings (size 3 to 8) (size 9 to 14) (size 15 to 20)
#    0.500    1.333    0.833    4.500    5.833    2.000 
#    3.000    4.167    0.000    0.000    0.000    0.000 
#    0.000    0.000    0.000    0.000    0.000    0.000 
#
# Total GULP energy -297363.680089 kJ/mol
# GULP energy per Si atom -12390.153337 kJ/mol
# Density = 1.919580 g / cm^3
# Si number density = 19.239593 Si / 1000 Ang^3
#
#
#
# Elastic Constant Matrix: (Units=GPa)
#
#
# Indices 1 2 3 4 5 6 
#
# 1 145.8772 32.0987 52.0601 0.0000 0.0000 0.0000
# 2 32.0987 72.7382 21.6918 0.0000 0.0000 0.0000
# 3 52.0601 21.6918 125.7752 0.0000 0.0000 0.0000
# 4 0.0000 0.0000 0.0000 16.8777 0.0000 0.0000
# 5 0.0000 0.0000 0.0000 0.0000 28.8405 0.0000
# 6 0.0000 0.0000 0.0000 0.0000 0.0000 -20.9288
#
#
#
# Elastic Compliance Matrix: (Units=1/GPa)
#
#
# Indices 1 2 3 4 5 6 
#
# 1 0.008578 -0.002874 -0.003055 0.000000 0.000000 0.000000
# 2 -0.002874 0.015456 -0.001476 0.000000 0.000000 0.000000
# 3 -0.003055 -0.001476 0.009470 0.000000 0.000000 0.000000
# 4 0.000000 0.000000 0.000000 0.059250 0.000000 0.000000
# 5 0.000000 0.000000 0.000000 0.000000 0.034673 0.000000
# 6 0.000000 0.000000 0.000000 0.000000 0.000000 -0.047781
#
#
# Mechanical properties :
#
#
# Convention : Reuss Voigt Hill
#
# Bulk Modulus (GPa) = 53.49358 61.78798 57.64078
# Shear Modulus (GPa) = 49.65868 20.86055 35.25961
#
# Velocity S-wave (km/s) = 5.08593 3.29637 4.28560
# Velocity P-wave (km/s) = 7.89640 6.83175 7.38329
#
# Compressibility (1/GPa) = 0.01869383
#
# Stress axis : x y z
#
# Youngs Moduli (GPa) = 116.58145 64.69774 105.60063
#
# Poissons Ratio (x) = 0.18596 0.32258
# Poissons Ratio (y) = 0.33509 0.15587
# Poissons Ratio (z) = 0.35612 0.09549
#
# Static dielectric constant tensor:
#      x y z
#    x 4.974510 0.000000 0.000000 
#    y 0.000000 3.540750 0.000000 
#    z 0.000000 0.000000 4.496180 
# 
# 
# High freq. dielectric constant tensor:
#      x y z
#    x 1.769220 0.000000 0.000000 
#    y 0.000000 1.737840 0.000000 
#    z 0.000000 0.000000 1.746420 
# 
# From -- ./inp_files/15147.got.cif
#   From: 2010.03.12/outbox.cif.g09.slc.cpg/sg24_8_cif.got.tgz:15147.got - 2010.04.14 03:06:53.
