data_PCOD8165739
_publ_section_title
;
Structure prediction by ZEFSAII (Michael W. Deem and Ramdas Pophale) SiO2 
 PCOD8165739
Probable space group: I 21 21 21
;
_chemical_formula_sum "Si O2"
_cell_formula_units_Z 28
_cell_length_a 18.452892
_cell_length_b 5.075926
_cell_length_c 14.985307
_cell_angle_alpha 90.000000
_cell_angle_beta 90.000000
_cell_angle_gamma 90.000000
_cell_volume 1403.606487
_symmetry_space_group_name_H-M "I 21 21 21"
_symmetry_group_IT_number 24
_symmetry_cell_setting 'orthorhombic'
loop_
_space_group_symop_operation_xyz
x,y,z
-x,1/2-y,z
x,-y,1/2-z
1/2-x,y,-z
1/2+x,1/2+y,1/2+z
1/2-x,-y,1/2+z
1/2+x,1/2-y,-z
-x,1/2+y,1/2-z
loop_
_atom_site_type_symbol
_atom_site_label
_atom_site_fract_x
_atom_site_fract_y
_atom_site_fract_z
Si Si1 0.545716 0.500000 0.250000
Si Si2 0.750000 0.886150 0.500000
Si Si3 0.000000 0.750000 0.192144
Si Si4 0.883659 0.354955 0.930913
Si Si5 0.107440 0.627045 0.039767
O O1 0.500000 0.250000 0.284786
O O2 0.595411 0.390776 0.171086
O O3 0.796742 0.701263 0.566881
O O4 0.693358 0.068032 0.556194
O O5 0.973479 0.500000 0.250000
O O6 0.932838 0.855729 0.133807
O O7 0.905528 0.603936 0.988679
O O8 0.925200 0.105590 0.976357
#
# Coordination Sequence:
#
# PCOD8165739 Si02
#       5
#     4   4   4   8   8
#     4  12  26  40  64 110 136 170 226 284 332 392
#     4   8  22  42  70  94 122 192 218 264 336 406
#     4  12  26  44  68 106 132 170 228 286 338 396
#     4  10  22  41  68  98 131 179 219 274 329 406
#     4  10  22  42  72  93 133 178 221 268 345 399
#
# _framework density 19.948613000000002
#
# number of rings (size 3 to 8) (size 9 to 14) (size 15 to 20)
#    1.714    0.000    0.000    4.286    6.000    0.000 
#    0.000    5.714    0.000    0.000    0.000    0.000 
#    0.000    0.000    0.000    0.000    0.000    0.000 
#
# Total GULP energy -173478.725336 kJ/mol
# GULP energy per Si atom -12391.337524 kJ/mol
# Density = 1.990321 g / cm^3
# Si number density = 19.948613 Si / 1000 Ang^3
#
#
#
# Elastic Constant Matrix: (Units=GPa)
#
#
# Indices 1 2 3 4 5 6 
#
# 1 104.3910 46.0816 69.4118 0.0000 0.0000 0.0000
# 2 46.0816 158.7031 60.8623 0.0000 0.0000 0.0000
# 3 69.4118 60.8623 138.0366 0.0000 0.0000 0.0000
# 4 0.0000 0.0000 0.0000 43.2845 0.0000 0.0000
# 5 0.0000 0.0000 0.0000 0.0000 16.6522 0.0000
# 6 0.0000 0.0000 0.0000 0.0000 0.0000 13.5839
#
#
#
# Elastic Compliance Matrix: (Units=1/GPa)
#
#
# Indices 1 2 3 4 5 6 
#
# 1 0.014777 -0.001734 -0.006666 0.000000 0.000000 0.000000
# 2 -0.001734 0.007787 -0.002561 0.000000 0.000000 0.000000
# 3 -0.006666 -0.002561 0.011726 0.000000 0.000000 0.000000
# 4 0.000000 0.000000 0.000000 0.023103 0.000000 0.000000
# 5 0.000000 0.000000 0.000000 0.000000 0.060052 0.000000
# 6 0.000000 0.000000 0.000000 0.000000 0.000000 0.073616
#
#
# Mechanical properties :
#
#
# Convention : Reuss Voigt Hill
#
# Bulk Modulus (GPa) = 80.86248 83.76022 82.31135
# Shear Modulus (GPa) = 23.03007 29.68911 26.35959
#
# Velocity S-wave (km/s) = 3.40144 3.86201 3.63902
# Velocity P-wave (km/s) = 7.48664 7.87185 7.68166
#
# Compressibility (1/GPa) = 0.01236667
#
# Stress axis : x y z
#
# Youngs Moduli (GPa) = 67.67075 128.42084 85.28206
#
# Poissons Ratio (x) = 0.22273 0.56850
# Poissons Ratio (y) = 0.11737 0.21843
# Poissons Ratio (z) = 0.45110 0.32891
#
# Static dielectric constant tensor:
#      x y z
#    x 3.533560 0.000000 0.000000 
#    y 0.000000 3.893480 0.000000 
#    z 0.000000 0.000000 3.384030 
# 
# 
# High freq. dielectric constant tensor:
#      x y z
#    x 1.773140 0.000000 0.000000 
#    y 0.000000 1.803980 0.000000 
#    z 0.000000 0.000000 1.753700 
# 
# From -- ./inp_files/2127.got.cif
#   From: 2010.03.12/outbox.cif.g09.slc.cpg/sg24_2_cif.got.tgz:2127.got - 2010.04.14 03:06:53.
