data_PCOD8165149
_publ_section_title
;
Structure prediction by ZEFSAII (Michael W. Deem and Ramdas Pophale) SiO2 
 PCOD8165149
Probable space group: I 21 21 21
;
_chemical_formula_sum "Si O2"
_cell_formula_units_Z 56
_cell_length_a 8.203012
_cell_length_b 24.731029
_cell_length_c 13.606737
_cell_angle_alpha 90.000000
_cell_angle_beta 90.000000
_cell_angle_gamma 90.000000
_cell_volume 2760.384144
_symmetry_space_group_name_H-M "I 21 21 21"
_symmetry_group_IT_number 24
_symmetry_cell_setting 'orthorhombic'
loop_
_space_group_symop_operation_xyz
x,y,z
-x,1/2-y,z
x,-y,1/2-z
1/2-x,y,-z
1/2+x,1/2+y,1/2+z
1/2-x,-y,1/2+z
1/2+x,1/2-y,-z
-x,1/2+y,1/2-z
loop_
_atom_site_type_symbol
_atom_site_label
_atom_site_fract_x
_atom_site_fract_y
_atom_site_fract_z
Si Si1 0.069410 0.525064 0.964686
Si Si2 0.368244 0.107160 0.581058
Si Si3 0.920866 0.804693 0.547259
Si Si4 0.084927 0.083584 0.941855
Si Si5 0.574003 0.589619 0.209757
Si Si6 0.117703 0.700423 0.085031
Si Si7 0.397425 0.299483 0.276388
O O1 0.049061 0.460462 0.974489
O O2 0.027138 0.544835 0.852926
O O3 0.250000 0.541070 0.000000
O O4 0.940638 0.551696 0.038711
O O5 0.250000 0.134431 0.500000
O O6 0.262269 0.093875 0.676915
O O7 0.513556 0.147270 0.604523
O O8 0.750000 0.817784 0.500000
O O9 0.888708 0.795732 0.660717
O O10 0.000000 0.750000 0.501972
O O11 0.036151 0.855891 0.527072
O O12 0.092457 0.076689 0.824238
O O13 0.250000 0.070000 0.000000
O O14 0.478795 0.645140 0.187608
O O15 0.213636 0.708641 0.186348
O O16 0.000000 0.750000 0.059828
O O17 0.250000 0.690968 0.000000
O O18 0.500000 0.250000 0.321095
#
# Coordination Sequence:
#
# PCOD8165149 Si02
#       7
#     8   8   8   8   8   8   8
#     4  11  22  39  60  85 117 152 191 235 286 343
#     4  10  20  36  57  81 112 152 195 236 282 339
#     4  10  22  40  62  85 111 145 185 234 287 339
#     4  11  23  40  62  87 117 150 189 239 290 344
#     4  10  21  39  60  83 115 153 192 237 291 342
#     4  12  22  33  53  83 119 155 193 233 279 340
#     4  10  21  37  55  80 114 149 188 234 284 335
#
# _framework density 20.287032
#
# number of rings (size 3 to 8) (size 9 to 14) (size 15 to 20)
#    0.000    1.429    0.000    7.286    0.000    1.714 
#    0.000    2.857    0.000    0.000    0.000    0.000 
#    0.000    0.000    0.000    0.000    0.000    0.000 
#
# Total GULP energy -347174.273630 kJ/mol
# GULP energy per Si atom -12399.081201 kJ/mol
# Density = 2.024086 g / cm^3
# Si number density = 20.287032 Si / 1000 Ang^3
#
#
#
# Elastic Constant Matrix: (Units=GPa)
#
#
# Indices 1 2 3 4 5 6 
#
# 1 134.3686 41.3151 50.3824 0.0008 0.0000 0.0001
# 2 41.3151 123.7744 35.6945 0.0011 -0.0001 0.0001
# 3 50.3824 35.6945 54.8318 0.0015 -0.0003 -0.0002
# 4 0.0008 0.0011 0.0015 -16.5625 -0.0004 0.0038
# 5 0.0000 -0.0001 -0.0003 -0.0004 32.2330 0.0000
# 6 0.0001 0.0001 -0.0002 0.0038 0.0000 17.7828
#
#
#
# Elastic Compliance Matrix: (Units=1/GPa)
#
#
# Indices 1 2 3 4 5 6 
#
# 1 0.011448 -0.000970 -0.009888 0.000000 0.000000 0.000000
# 2 -0.000970 0.010029 -0.005637 0.000000 0.000000 0.000000
# 3 -0.009888 -0.005637 0.030993 0.000002 0.000000 0.000001
# 4 0.000000 0.000000 0.000002 -0.060377 -0.000001 0.000013
# 5 0.000000 0.000000 0.000000 -0.000001 0.031024 0.000000
# 6 0.000000 0.000000 0.000001 0.000013 0.000000 0.056234
#
#
# Mechanical properties :
#
#
# Convention : Reuss Voigt Hill
#
# Bulk Modulus (GPa) = 51.33559 63.08430 57.20995
# Shear Modulus (GPa) = 42.07610 19.06286 30.56948
#
# Velocity S-wave (km/s) = 4.55910 3.06871 3.88603
# Velocity P-wave (km/s) = 7.28515 6.61206 6.95675
#
# Compressibility (1/GPa) = 0.01947966
#
# Stress axis : x y z
#
# Youngs Moduli (GPa) = 87.35309 99.71438 32.26583
#
# Poissons Ratio (x) = 0.09670 0.31903
# Poissons Ratio (y) = 0.08472 0.18189
# Poissons Ratio (z) = 0.86370 0.56212
#
# Static dielectric constant tensor:
#      x y z
#    x 4.111490 0.000000 0.000020 
#    y 0.000000 3.848530 0.000000 
#    z 0.000020 0.000000 3.767400 
# 
# 
# High freq. dielectric constant tensor:
#      x y z
#    x 1.798740 0.000000 0.000000 
#    y 0.000000 1.805580 0.000000 
#    z 0.000000 0.000000 1.785100 
# 
# From -- ./inp_files/25063.got.cif
#   From: 2010.03.12/outbox.cif.g09.slc.cpg/sg24_13_cif.got.tgz:25063.got - 2010.04.14 03:06:53.
