data_PCOD8165294
_publ_section_title
;
Structure prediction by ZEFSAII (Michael W. Deem and Ramdas Pophale) SiO2 
 PCOD8165294
Probable space group: I 21 21 21
;
_chemical_formula_sum "Si O2"
_cell_formula_units_Z 56
_cell_length_a 8.899296
_cell_length_b 14.314535
_cell_length_c 20.730655
_cell_angle_alpha 90.000000
_cell_angle_beta 90.000000
_cell_angle_gamma 90.000000
_cell_volume 2640.863299
_symmetry_space_group_name_H-M "I 21 21 21"
_symmetry_group_IT_number 24
_symmetry_cell_setting 'orthorhombic'
loop_
_space_group_symop_operation_xyz
x,y,z
-x,1/2-y,z
x,-y,1/2-z
1/2-x,y,-z
1/2+x,1/2+y,1/2+z
1/2-x,-y,1/2+z
1/2+x,1/2-y,-z
-x,1/2+y,1/2-z
loop_
_atom_site_type_symbol
_atom_site_label
_atom_site_fract_x
_atom_site_fract_y
_atom_site_fract_z
Si Si1 0.396820 0.166194 0.150830
Si Si2 0.359950 0.902523 0.215627
Si Si3 0.915817 0.522289 0.022354
Si Si4 0.947733 0.014995 0.609367
Si Si5 0.052746 0.149350 0.113768
Si Si6 0.649031 0.011676 0.820488
Si Si7 0.066815 0.147412 0.358519
O O1 0.500000 0.250000 0.123827
O O2 0.424463 0.162468 0.227746
O O3 0.451434 0.076488 0.112877
O O4 0.220041 0.170405 0.137916
O O5 0.220861 0.853169 0.181049
O O6 0.311340 0.000000 0.250000
O O7 0.490831 0.912060 0.162261
O O8 0.967633 0.427509 0.057900
O O9 0.909384 0.611731 0.068757
O O10 0.750000 0.500500 0.000000
O O11 0.029790 0.549625 0.964160
O O12 0.774499 0.992170 0.623658
O O13 0.000000 0.250000 0.088315
O O14 0.948522 0.107693 0.171922
O O15 0.725781 0.000000 0.750000
O O16 0.545225 0.921758 0.823377
O O17 0.000000 0.250000 0.360213
#
# Coordination Sequence:
#
# PCOD8165294 Si02
#       7
#     8   8   8   8   8   8   8
#     4  11  22  37  61  95 129 166 212 263 324 390
#     4  10  20  39  63  88 123 170 211 261 329 388
#     4  11  21  47  68  87 127 174 213 269 322 380
#     4  11  22  40  65  89 124 167 216 263 322 389
#     4  11  24  41  65  97 129 171 215 265 330 390
#     4  11  23  42  66  97 134 169 212 272 334 397
#     4  11  24  41  65  93 123 172 221 264 325 390
#
# _framework density 21.205186999999999
#
# number of rings (size 3 to 8) (size 9 to 14) (size 15 to 20)
#    0.000    1.143    2.857    6.000    0.000    7.429 
#    5.143    0.714    0.000    0.000    0.000    0.000 
#    0.000    0.000    0.000    0.000    0.000    0.000 
#
# Total GULP energy -347111.343683 kJ/mol
# GULP energy per Si atom -12396.833703 kJ/mol
# Density = 2.115692 g / cm^3
# Si number density = 21.205187 Si / 1000 Ang^3
#
#
#
# Elastic Constant Matrix: (Units=GPa)
#
#
# Indices 1 2 3 4 5 6 
#
# 1 86.3943 14.4794 -1.4874 0.0000 0.0000 0.0000
# 2 14.4794 81.4765 -6.5865 0.0000 0.0000 0.0000
# 3 -1.4874 -6.5865 87.7734 0.0000 0.0000 0.0000
# 4 0.0000 0.0000 0.0000 4.6503 0.0000 0.0000
# 5 0.0000 0.0000 0.0000 0.0000 33.9181 0.0000
# 6 0.0000 0.0000 0.0000 0.0000 0.0000 -259.3473
#
#
#
# Elastic Compliance Matrix: (Units=1/GPa)
#
#
# Indices 1 2 3 4 5 6 
#
# 1 0.011930 -0.002117 0.000043 0.000000 0.000000 0.000000
# 2 -0.002117 0.012724 0.000919 0.000000 0.000000 0.000000
# 3 0.000043 0.000919 0.011463 0.000000 0.000000 0.000000
# 4 0.000000 0.000000 0.000000 0.215039 0.000000 0.000000
# 5 0.000000 0.000000 0.000000 0.000000 0.029483 0.000000
# 6 0.000000 0.000000 0.000000 0.000000 0.000000 -0.003856
#
#
# Mechanical properties :
#
#
# Convention : Reuss Voigt Hill
#
# Bulk Modulus (GPa) = 29.57872 29.82838 29.70355
# Shear Modulus (GPa) = 17.21995 -27.53987 -5.15996
#
# Velocity S-wave (km/s) = 2.85276 -3.60770 -1.56161
# Velocity P-wave (km/s) = 4.98298 1.80470 3.28429
#
# Compressibility (1/GPa) = 0.03380809
#
# Stress axis : x y z
#
# Youngs Moduli (GPa) = 83.82003 78.59217 87.23979
#
# Poissons Ratio (x) = 0.16635 -0.00378
# Poissons Ratio (y) = 0.17742 -0.08017
# Poissons Ratio (z) = -0.00363 -0.07222
#
# Static dielectric constant tensor:
#      x y z
#    x 4.326160 0.000000 0.000000 
#    y 0.000000 3.708090 0.000000 
#    z 0.000000 0.000000 6.057570 
# 
# 
# High freq. dielectric constant tensor:
#      x y z
#    x 1.840260 0.000000 0.000000 
#    y 0.000000 1.813850 0.000000 
#    z 0.000000 0.000000 1.837360 
# 
# From -- ./inp_files/32818.got.cif
#   From: 2010.03.12/outbox.cif.g09.slc.cpg/sg24_17_cif.got.tgz:32818.got - 2010.04.14 03:06:53.
