data_PCOD8165104
_publ_section_title
;
Structure prediction by ZEFSAII (Michael W. Deem and Ramdas Pophale) SiO2 
 PCOD8165104
Probable space group: I 21 21 21
;
_chemical_formula_sum "Si O2"
_cell_formula_units_Z 48
_cell_length_a 8.233444
_cell_length_b 8.928194
_cell_length_c 29.488805
_cell_angle_alpha 90.000000
_cell_angle_beta 90.000000
_cell_angle_gamma 90.000000
_cell_volume 2167.715725
_symmetry_space_group_name_H-M "I 21 21 21"
_symmetry_group_IT_number 24
_symmetry_cell_setting 'orthorhombic'
loop_
_space_group_symop_operation_xyz
x,y,z
-x,1/2-y,z
x,-y,1/2-z
1/2-x,y,-z
1/2+x,1/2+y,1/2+z
1/2-x,-y,1/2+z
1/2+x,1/2-y,-z
-x,1/2+y,1/2-z
loop_
_atom_site_type_symbol
_atom_site_label
_atom_site_fract_x
_atom_site_fract_y
_atom_site_fract_z
Si Si1 0.684712 0.915363 0.294479
Si Si2 0.388396 0.617240 0.469000
Si Si3 0.664526 0.064987 0.385832
Si Si4 0.217640 0.090658 0.615957
Si Si5 0.202661 0.922026 0.705089
Si Si6 0.399906 0.104849 0.529459
O O1 0.491066 0.921558 0.293818
O O2 0.760221 0.749585 0.295499
O O3 0.753237 0.000000 0.250000
O O4 0.741003 0.994330 0.340622
O O5 0.500000 0.750000 0.448312
O O6 0.250000 0.692995 0.500000
O O7 0.285666 0.529200 0.430203
O O8 0.496228 0.507882 0.499492
O O9 0.470536 0.053030 0.389549
O O10 0.736532 0.230583 0.385494
O O11 0.328198 0.025510 0.575123
O O12 0.275793 0.014892 0.662800
O O13 0.272628 0.000000 0.750000
O O14 0.500000 0.250000 0.544130
O O15 0.250000 0.165393 0.500000
#
# Coordination Sequence:
#
# PCOD8165104 Si02
#       6
#     8   8   8   8   8   8
#     4   9  17  28  49  80 121 159 192 245 305 363
#     4  12  27  42  61  88 123 163 206 257 310 371
#     4  10  20  35  55  83 120 156 201 249 305 361
#     4  10  20  34  57  84 115 158 201 251 301 364
#     4   9  17  29  49  80 119 157 199 242 301 363
#     4  12  23  40  63  88 121 160 210 255 310 369
#
# _framework density 22.143124
#
# number of rings (size 3 to 8) (size 9 to 14) (size 15 to 20)
#    0.000    1.667    1.667    4.000    4.667    4.000 
#    0.000    0.000    0.000    0.000    0.000   10.500 
#    0.000    0.000    0.000    0.000    0.000    0.000 
#
# Total GULP energy -297524.773129 kJ/mol
# GULP energy per Si atom -12396.865547 kJ/mol
# Density = 2.209273 g / cm^3
# Si number density = 22.143124 Si / 1000 Ang^3
#
#
#
# Elastic Constant Matrix: (Units=GPa)
#
#
# Indices 1 2 3 4 5 6 
#
# 1 33.6514 5.0688 21.8195 0.0000 0.0000 0.0000
# 2 5.0688 127.2625 66.8339 0.0000 0.0000 0.0000
# 3 21.8195 66.8339 200.3280 0.0000 0.0000 0.0000
# 4 0.0000 0.0000 0.0000 44.3588 0.0000 0.0000
# 5 0.0000 0.0000 0.0000 0.0000 8.9345 0.0000
# 6 0.0000 0.0000 0.0000 0.0000 0.0000 8.0077
#
#
#
# Elastic Compliance Matrix: (Units=1/GPa)
#
#
# Indices 1 2 3 4 5 6 
#
# 1 0.032022 0.000674 -0.003713 0.000000 0.000000 0.000000
# 2 0.000674 0.009541 -0.003257 0.000000 0.000000 0.000000
# 3 -0.003713 -0.003257 0.006483 0.000000 0.000000 0.000000
# 4 0.000000 0.000000 0.000000 0.022543 0.000000 0.000000
# 5 0.000000 0.000000 0.000000 0.000000 0.111925 0.000000
# 6 0.000000 0.000000 0.000000 0.000000 0.000000 0.124879
#
#
# Mechanical properties :
#
#
# Convention : Reuss Voigt Hill
#
# Bulk Modulus (GPa) = 28.20392 60.96515 44.58454
# Shear Modulus (GPa) = 15.06921 30.09486 22.58203
#
# Velocity S-wave (km/s) = 2.61154 3.69061 3.19693
# Velocity P-wave (km/s) = 4.67528 6.76408 5.81425
#
# Compressibility (1/GPa) = 0.03545606
#
# Stress axis : x y z
#
# Youngs Moduli (GPa) = 31.22831 104.80891 154.25694
#
# Poissons Ratio (x) = -0.07069 0.57273
# Poissons Ratio (y) = -0.02106 0.50235
# Poissons Ratio (z) = 0.11595 0.34132
#
# Static dielectric constant tensor:
#      x y z
#    x 3.598910 0.000000 0.000000 
#    y 0.000000 4.046550 0.000000 
#    z 0.000000 0.000000 4.325440 
# 
# 
# High freq. dielectric constant tensor:
#      x y z
#    x 1.826150 0.000000 0.000000 
#    y 0.000000 1.871500 0.000000 
#    z 0.000000 0.000000 1.888090 
# 
# From -- ./inp_files/38299.got.cif
#   From: 2010.03.12/outbox.cif.g09.slc.cpg/sg24_20_cif.got.tgz:38299.got - 2010.04.14 03:06:53.
