data_PCOD8165461
_publ_section_title
;
Structure prediction by ZEFSAII (Michael W. Deem and Ramdas Pophale) SiO2 
 PCOD8165461
Probable space group: I 21 21 21
;
_chemical_formula_sum "Si O2"
_cell_formula_units_Z 40
_cell_length_a 14.452106
_cell_length_b 5.168382
_cell_length_c 23.952213
_cell_angle_alpha 90.000000
_cell_angle_beta 90.000000
_cell_angle_gamma 90.000000
_cell_volume 1789.086706
_symmetry_space_group_name_H-M "I 21 21 21"
_symmetry_group_IT_number 24
_symmetry_cell_setting 'orthorhombic'
loop_
_space_group_symop_operation_xyz
x,y,z
-x,1/2-y,z
x,-y,1/2-z
1/2-x,y,-z
1/2+x,1/2+y,1/2+z
1/2-x,-y,1/2+z
1/2+x,1/2-y,-z
-x,1/2+y,1/2-z
loop_
_atom_site_type_symbol
_atom_site_label
_atom_site_fract_x
_atom_site_fract_y
_atom_site_fract_z
Si Si1 0.500000 0.250000 0.283119
Si Si2 0.365387 0.395974 0.056723
Si Si3 0.854459 0.100941 0.068766
Si Si4 0.940702 0.500000 0.250000
Si Si5 0.871021 0.605609 0.878360
Si Si6 0.847679 0.598064 0.134270
O O1 0.460261 0.500000 0.250000
O O2 0.416902 0.124060 0.318084
O O3 0.255219 0.397829 0.061345
O O4 0.405444 0.648203 0.086601
O O5 0.406042 0.144746 0.087750
O O6 0.399273 0.400993 0.992696
O O7 0.889284 0.356030 0.100550
O O8 0.887750 0.855866 0.105174
O O9 0.877057 0.586413 0.198471
O O10 0.000000 0.750000 0.267723
O O11 0.762273 0.596752 0.868665
#
# Coordination Sequence:
#
# PCOD8165461 Si02
#       6
#     4   8   8   4   8   8
#     4  12  26  42  60  88 132 168 206 258 298 342
#     4   9  17  33  61  91 123 155 195 252 300 357
#     4   9  17  33  61  95 119 151 201 249 298 362
#     4  12  26  44  64  86 124 162 200 266 318 350
#     4  10  21  38  61  91 124 160 206 244 301 363
#     4  10  21  38  63  91 117 160 207 247 300 378
#
# _framework density 22.357779000000001
#
# number of rings (size 3 to 8) (size 9 to 14) (size 15 to 20)
#    0.000    2.000    0.000    3.600    1.400    4.800 
#    1.800    0.000   22.000    0.000    0.000    0.000 
#    0.000    0.000    0.000    0.000    0.000    0.000 
#
# Total GULP energy -248054.348624 kJ/mol
# GULP energy per Si atom -12402.717431 kJ/mol
# Density = 2.230689 g / cm^3
# Si number density = 22.357779 Si / 1000 Ang^3
#
#
#
# Elastic Constant Matrix: (Units=GPa)
#
#
# Indices 1 2 3 4 5 6 
#
# 1 15.7979 32.6415 26.5733 0.0000 0.0000 0.0000
# 2 32.6415 225.5912 99.3776 0.0000 0.0000 0.0000
# 3 26.5733 99.3776 191.8483 0.0000 0.0000 0.0000
# 4 0.0000 0.0000 0.0000 53.7096 0.0000 0.0000
# 5 0.0000 0.0000 0.0000 0.0000 14.0110 0.0000
# 6 0.0000 0.0000 0.0000 0.0000 0.0000 23.2490
#
#
#
# Elastic Compliance Matrix: (Units=1/GPa)
#
#
# Indices 1 2 3 4 5 6 
#
# 1 0.099298 -0.010765 -0.008177 0.000000 0.000000 0.000000
# 2 -0.010765 0.006911 -0.002089 0.000000 0.000000 0.000000
# 3 -0.008177 -0.002089 0.007427 0.000000 0.000000 0.000000
# 4 0.000000 0.000000 0.000000 0.018619 0.000000 0.000000
# 5 0.000000 0.000000 0.000000 0.000000 0.071372 0.000000
# 6 0.000000 0.000000 0.000000 0.000000 0.000000 0.043013
#
#
# Mechanical properties :
#
#
# Convention : Reuss Voigt Hill
#
# Bulk Modulus (GPa) = 13.97180 83.38023 48.67601
# Shear Modulus (GPa) = 15.99696 36.50360 26.25028
#
# Velocity S-wave (km/s) = 2.67778 4.04505 3.43023
# Velocity P-wave (km/s) = 3.97787 7.69358 6.12432
#
# Compressibility (1/GPa) = 0.07157274
#
# Stress axis : x y z
#
# Youngs Moduli (GPa) = 10.07069 144.70715 134.64415
#
# Poissons Ratio (x) = 1.55783 1.10105
# Poissons Ratio (y) = 0.10841 0.28121
# Poissons Ratio (z) = 0.08235 0.30222
#
# Static dielectric constant tensor:
#      x y z
#    x 3.637410 0.000000 0.000000 
#    y 0.000000 4.385960 0.000000 
#    z 0.000000 0.000000 4.076000 
# 
# 
# High freq. dielectric constant tensor:
#      x y z
#    x 1.864560 0.000000 0.000000 
#    y 0.000000 1.900870 0.000000 
#    z 0.000000 0.000000 1.888300 
# 
# From -- ./inp_files/31027.got.cif
#   From: 2010.03.12/outbox.cif.g09.slc.cpg/sg24_16_cif.got.tgz:31027.got - 2010.04.14 03:06:53.
