data_PCOD8165981
_publ_section_title
;
Structure prediction by ZEFSAII (Michael W. Deem and Ramdas Pophale) SiO2 
 PCOD8165981
Probable space group: I 21 21 21
;
_chemical_formula_sum "Si O2"
_cell_formula_units_Z 32
_cell_length_a 5.712762
_cell_length_b 19.365972
_cell_length_c 12.404548
_cell_angle_alpha 90.000000
_cell_angle_beta 90.000000
_cell_angle_gamma 90.000000
_cell_volume 1372.354703
_symmetry_space_group_name_H-M "I 21 21 21"
_symmetry_group_IT_number 24
_symmetry_cell_setting 'orthorhombic'
loop_
_space_group_symop_operation_xyz
x,y,z
-x,1/2-y,z
x,-y,1/2-z
1/2-x,y,-z
1/2+x,1/2+y,1/2+z
1/2-x,-y,1/2+z
1/2+x,1/2-y,-z
-x,1/2+y,1/2-z
loop_
_atom_site_type_symbol
_atom_site_label
_atom_site_fract_x
_atom_site_fract_y
_atom_site_fract_z
Si Si1 0.479127 0.633977 0.264153
Si Si2 0.500000 0.750000 0.437434
Si Si3 0.394587 0.576275 0.895829
Si Si4 0.811701 0.296462 0.389934
Si Si5 0.210214 0.000000 0.250000
O O1 0.444245 0.678850 0.371959
O O2 0.244897 0.606901 0.207112
O O3 0.591723 0.689594 0.183797
O O4 0.639316 0.566775 0.282982
O O5 0.250000 0.762201 0.500000
O O6 0.573726 0.633666 0.935307
O O7 0.545961 0.511904 0.853938
O O8 0.250000 0.550854 0.000000
O O9 0.750000 0.254424 0.500000
O O10 0.000000 0.250000 0.323755
#
# Coordination Sequence:
#
# PCOD8165981 Si02
#       5
#     8   4   8   8   4
#     4  11  25  50  71 107 151 201 258 326 387 474
#     4  12  32  56  80 112 158 224 278 332 398 484
#     4  11  22  44  69 104 146 191 245 316 399 464
#     4  11  22  35  67 108 140 179 223 296 385 468
#     4  10  26  44  74 108 150 198 262 328 386 484
#
# _framework density 23.317587
#
# number of rings (size 3 to 8) (size 9 to 14) (size 15 to 20)
#    0.000    1.000    2.500    3.000   10.500    0.000 
#    9.000    0.000    0.000    0.000    0.000    0.000 
#    0.000    0.000    0.000    0.000    0.000    0.000 
#
# Total GULP energy -198224.362387 kJ/mol
# GULP energy per Si atom -12389.022649 kJ/mol
# Density = 2.326452 g / cm^3
# Si number density = 23.317587 Si / 1000 Ang^3
#
#
#
# Elastic Constant Matrix: (Units=GPa)
#
#
# Indices 1 2 3 4 5 6 
#
# 1 99.4808 22.4281 37.2526 0.0000 0.0000 0.0000
# 2 22.4281 103.2642 42.9123 0.0000 0.0000 0.0000
# 3 37.2526 42.9123 104.5430 0.0001 0.0000 0.0000
# 4 0.0000 0.0000 0.0001 30.8691 0.0000 0.0000
# 5 0.0000 0.0000 0.0000 0.0000 42.7399 0.0000
# 6 0.0000 0.0000 0.0000 0.0000 0.0000 44.1360
#
#
#
# Elastic Compliance Matrix: (Units=1/GPa)
#
#
# Indices 1 2 3 4 5 6 
#
# 1 0.011681 -0.000973 -0.003763 0.000000 0.000000 0.000000
# 2 -0.000973 0.011757 -0.004479 0.000000 0.000000 0.000000
# 3 -0.003763 -0.004479 0.012745 0.000000 0.000000 0.000000
# 4 0.000000 0.000000 0.000000 0.032395 0.000000 0.000000
# 5 0.000000 0.000000 0.000000 0.000000 0.023397 0.000000
# 6 0.000000 0.000000 0.000000 0.000000 0.000000 0.022657
#
#
# Mechanical properties :
#
#
# Convention : Reuss Voigt Hill
#
# Bulk Modulus (GPa) = 56.33177 56.94156 56.63666
# Shear Modulus (GPa) = 35.97671 37.19531 36.58601
#
# Velocity S-wave (km/s) = 3.93224 3.99828 3.96540
# Velocity P-wave (km/s) = 6.69534 6.76668 6.73111
#
# Compressibility (1/GPa) = 0.01775197
#
# Stress axis : x y z
#
# Youngs Moduli (GPa) = 85.61163 85.05889 78.46371
#
# Poissons Ratio (x) = 0.08279 0.29524
# Poissons Ratio (y) = 0.08333 0.35143
# Poissons Ratio (z) = 0.32213 0.38097
#
# Static dielectric constant tensor:
#      x y z
#    x 4.530910 0.000000 0.000000 
#    y 0.000000 4.271770 0.000000 
#    z 0.000000 0.000000 4.125680 
# 
# 
# High freq. dielectric constant tensor:
#      x y z
#    x 1.947080 0.000000 0.000000 
#    y 0.000000 1.929380 0.000000 
#    z 0.000000 0.000000 1.903900 
# 
# From -- ./inp_files/1984.got.cif
#   From: 2010.03.12/outbox.cif.g09.slc.cpg/sg24_1_cif.got.tgz:1984.got - 2010.04.14 03:06:53.
