data_PCOD8165777
_publ_section_title
;
Structure prediction by ZEFSAII (Michael W. Deem and Ramdas Pophale) SiO2 
 PCOD8165777
Probable space group: I 21 21 21
;
_chemical_formula_sum "Si O2"
_cell_formula_units_Z 40
_cell_length_a 15.015787
_cell_length_b 13.754824
_cell_length_c 9.271833
_cell_angle_alpha 90.000000
_cell_angle_beta 90.000000
_cell_angle_gamma 90.000000
_cell_volume 1914.999821
_symmetry_space_group_name_H-M "I 21 21 21"
_symmetry_group_IT_number 24
_symmetry_cell_setting 'orthorhombic'
loop_
_space_group_symop_operation_xyz
x,y,z
-x,1/2-y,z
x,-y,1/2-z
1/2-x,y,-z
1/2+x,1/2+y,1/2+z
1/2-x,-y,1/2+z
1/2+x,1/2-y,-z
-x,1/2+y,1/2-z
loop_
_atom_site_type_symbol
_atom_site_label
_atom_site_fract_x
_atom_site_fract_y
_atom_site_fract_z
Si Si1 0.937142 0.890308 0.246705
Si Si2 0.108088 0.000000 0.750000
Si Si3 0.707026 0.757206 0.867377
Si Si4 0.677471 0.321513 0.119339
Si Si5 0.500000 0.750000 0.517921
Si Si6 0.947881 0.654618 0.976671
O O1 0.850366 0.823442 0.237143
O O2 0.991167 0.847774 0.383910
O O3 0.996101 0.889623 0.105724
O O4 0.903402 0.000000 0.250000
O O5 0.164586 0.937830 0.634180
O O6 0.052170 0.078533 0.656313
O O7 0.787895 0.712809 0.775120
O O8 0.648348 0.675097 0.950184
O O9 0.750000 0.818814 0.000000
O O10 0.750000 0.298261 0.000000
O O11 0.586334 0.265259 0.081721
O O12 0.000000 0.750000 0.919758
#
# Coordination Sequence:
#
# PCOD8165777 Si02
#       6
#     8   4   8   8   4   8
#     4  11  22  45  71  96 135 185 230 271 361 420
#     4  12  26  38  72 106 136 184 238 290 352 424
#     4  11  22  45  67  94 143 182 218 290 353 408
#     4  12  26  43  70 103 139 179 239 290 350 416
#     4  12  24  46  72 102 144 184 228 306 352 416
#     4  10  22  43  69  99 142 181 224 286 358 415
#
# _framework density 20.887730000000001
#
# number of rings (size 3 to 8) (size 9 to 14) (size 15 to 20)
#    0.000    0.800    7.000    1.200    4.200    0.000 
#    5.400    0.000    2.200    0.000    0.000    0.000 
#    0.000    0.000    0.000    0.000    0.000    0.000 
#
# Total GULP energy -247857.880627 kJ/mol
# GULP energy per Si atom -12392.894031 kJ/mol
# Density = 2.084019 g / cm^3
# Si number density = 20.887730 Si / 1000 Ang^3
#
#
#
# Elastic Constant Matrix: (Units=GPa)
#
#
# Indices 1 2 3 4 5 6 
#
# 1 121.3201 45.7867 60.7444 0.0000 0.0000 0.0000
# 2 45.7867 111.6991 61.9292 0.0000 0.0000 0.0000
# 3 60.7444 61.9292 121.4101 0.0000 0.0000 0.0000
# 4 0.0000 0.0000 0.0000 38.3303 0.0000 0.0000
# 5 0.0000 0.0000 0.0000 0.0000 30.9104 0.0000
# 6 0.0000 0.0000 0.0000 0.0000 0.0000 13.4657
#
#
#
# Elastic Compliance Matrix: (Units=1/GPa)
#
#
# Indices 1 2 3 4 5 6 
#
# 1 0.011339 -0.002095 -0.004604 0.000000 0.000000 0.000000
# 2 -0.002095 0.012870 -0.005517 0.000000 0.000000 0.000000
# 3 -0.004604 -0.005517 0.013354 0.000000 0.000000 0.000000
# 4 0.000000 0.000000 0.000000 0.026089 0.000000 0.000000
# 5 0.000000 0.000000 0.000000 0.000000 0.032352 0.000000
# 6 0.000000 0.000000 0.000000 0.000000 0.000000 0.074263
#
#
# Mechanical properties :
#
#
# Convention : Reuss Voigt Hill
#
# Bulk Modulus (GPa) = 76.15660 76.81667 76.48663
# Shear Modulus (GPa) = 25.11617 28.93922 27.02770
#
# Velocity S-wave (km/s) = 3.47138 3.72622 3.60106
# Velocity P-wave (km/s) = 7.25303 7.44102 7.34763
#
# Compressibility (1/GPa) = 0.01313084
#
# Stress axis : x y z
#
# Youngs Moduli (GPa) = 88.19319 77.70051 74.88325
#
# Poissons Ratio (x) = 0.16279 0.34479
# Poissons Ratio (y) = 0.18477 0.41310
# Poissons Ratio (z) = 0.40608 0.42864
#
# Static dielectric constant tensor:
#      x y z
#    x 4.149920 0.000000 0.000000 
#    y 0.000000 3.803290 0.000000 
#    z 0.000000 0.000000 3.944350 
# 
# 
# High freq. dielectric constant tensor:
#      x y z
#    x 1.821560 0.000000 0.000000 
#    y 0.000000 1.797120 0.000000 
#    z 0.000000 0.000000 1.841830 
# 
# From -- ./inp_files/12368.got.cif
#   From: 2010.03.12/outbox.cif.g09.slc.cpg/sg24_7_cif.got.tgz:12368.got - 2010.04.14 03:06:53.
