data_PCOD8165795
_publ_section_title
;
Structure prediction by ZEFSAII (Michael W. Deem and Ramdas Pophale) SiO2 
 PCOD8165795
Probable space group: I 21 21 21
;
_chemical_formula_sum "Si O2"
_cell_formula_units_Z 60
_cell_length_a 9.450916
_cell_length_b 16.216598
_cell_length_c 17.976812
_cell_angle_alpha 90.000000
_cell_angle_beta 90.000000
_cell_angle_gamma 90.000000
_cell_volume 2755.156867
_symmetry_space_group_name_H-M "I 21 21 21"
_symmetry_group_IT_number 24
_symmetry_cell_setting 'orthorhombic'
loop_
_space_group_symop_operation_xyz
x,y,z
-x,1/2-y,z
x,-y,1/2-z
1/2-x,y,-z
1/2+x,1/2+y,1/2+z
1/2-x,-y,1/2+z
1/2+x,1/2-y,-z
-x,1/2+y,1/2-z
loop_
_atom_site_type_symbol
_atom_site_label
_atom_site_fract_x
_atom_site_fract_y
_atom_site_fract_z
Si Si1 0.916823 0.603921 0.505438
Si Si2 0.648040 0.706676 0.872457
Si Si3 0.516238 0.932146 0.949419
Si Si4 0.573071 0.146281 0.151502
Si Si5 0.184519 0.529989 0.328803
Si Si6 0.250000 0.681035 0.000000
Si Si7 0.465889 0.840892 0.650439
Si Si8 0.808630 0.688191 0.718842
O O1 0.750000 0.616848 0.500000
O O2 0.953325 0.506470 0.498480
O O3 0.992857 0.649768 0.437029
O O4 0.979391 0.651020 0.576588
O O5 0.500000 0.750000 0.850338
O O6 0.612159 0.618536 0.910796
O O7 0.741185 0.761932 0.927574
O O8 0.749777 0.698120 0.801676
O O9 0.607368 0.874106 0.004566
O O10 0.623779 0.961707 0.884486
O O11 0.676319 0.070526 0.135669
O O12 0.456464 0.136827 0.218259
O O13 0.665154 0.226612 0.172757
O O14 0.239660 0.500000 0.250000
O O15 0.065919 0.596304 0.306477
O O16 0.500000 0.750000 0.679658
O O17 0.305545 0.863815 0.671842
#
# Coordination Sequence:
#
# PCOD8165795 Si02
#       8
#     8   8   8   8   8   4   8   8
#     4  11  24  43  64  95 144 186 233 289 352 434
#     4  10  23  44  75 101 135 184 240 298 354 429
#     4  10  23  44  70  98 140 186 239 292 349 441
#     4  11  25  43  63 102 141 180 231 294 368 412
#     4  11  24  43  68 102 138 186 231 287 359 425
#     4  10  22  44  72 106 126 178 244 296 352 402
#     4  11  22  40  72  96 131 188 238 285 337 427
#     4  11  23  44  66 101 140 179 238 302 350 426
#
# _framework density 21.777342999999998
#
# number of rings (size 3 to 8) (size 9 to 14) (size 15 to 20)
#    0.000    1.333    2.667    2.000    6.533    1.600 
#    9.600    0.667    0.000    0.000    0.000    0.000 
#    0.000    0.000    0.000    0.000    0.000    0.000 
#
# Total GULP energy -371836.909035 kJ/mol
# GULP energy per Si atom -12394.563634 kJ/mol
# Density = 2.172778 g / cm^3
# Si number density = 21.777343 Si / 1000 Ang^3
#
#
#
# Elastic Constant Matrix: (Units=GPa)
#
#
# Indices 1 2 3 4 5 6 
#
# 1 116.5537 32.7260 44.3070 0.0000 0.0000 0.0000
# 2 32.7260 86.3129 26.4290 0.0000 0.0000 0.0000
# 3 44.3070 26.4290 105.1026 0.0000 0.0000 0.0000
# 4 0.0000 0.0000 0.0000 26.3794 0.0000 0.0000
# 5 0.0000 0.0000 0.0000 0.0000 46.7660 0.0000
# 6 0.0000 0.0000 0.0000 0.0000 0.0000 37.9015
#
#
#
# Elastic Compliance Matrix: (Units=1/GPa)
#
#
# Indices 1 2 3 4 5 6 
#
# 1 0.010866 -0.002944 -0.003840 0.000000 0.000000 0.000000
# 2 -0.002944 0.013350 -0.002116 0.000000 0.000000 0.000000
# 3 -0.003840 -0.002116 0.011666 0.000000 0.000000 0.000000
# 4 0.000000 0.000000 0.000000 0.037908 0.000000 0.000000
# 5 0.000000 0.000000 0.000000 0.000000 0.021383 0.000000
# 6 0.000000 0.000000 0.000000 0.000000 0.000000 0.026384
#
#
# Mechanical properties :
#
#
# Convention : Reuss Voigt Hill
#
# Bulk Modulus (GPa) = 55.30683 57.21036 56.25860
# Shear Modulus (GPa) = 34.39140 35.84318 35.11729
#
# Velocity S-wave (km/s) = 3.97826 4.06136 4.02003
# Velocity P-wave (km/s) = 6.82303 6.95130 6.88746
#
# Compressibility (1/GPa) = 0.01808095
#
# Stress axis : x y z
#
# Youngs Moduli (GPa) = 92.02758 74.90697 85.72248
#
# Poissons Ratio (x) = 0.22053 0.32922
# Poissons Ratio (y) = 0.27094 0.18138
# Poissons Ratio (z) = 0.35343 0.15849
#
# Static dielectric constant tensor:
#      x y z
#    x 4.165900 0.000000 0.000000 
#    y 0.000000 3.993020 0.000000 
#    z 0.000000 0.000000 3.789440 
# 
# 
# High freq. dielectric constant tensor:
#      x y z
#    x 1.869210 0.000000 0.000000 
#    y 0.000000 1.849890 0.000000 
#    z 0.000000 0.000000 1.849690 
# 
# From -- ./inp_files/29704.got.cif
#   From: 2010.03.12/outbox.cif.g09.slc.cpg/sg24_15_cif.got.tgz:29704.got - 2010.04.14 03:06:53.
