data_PCOD8165617
_publ_section_title
;
Structure prediction by ZEFSAII (Michael W. Deem and Ramdas Pophale) SiO2 
 PCOD8165617
Probable space group: I 21 21 21
;
_chemical_formula_sum "Si O2"
_cell_formula_units_Z 52
_cell_length_a 8.329710
_cell_length_b 14.509144
_cell_length_c 20.077566
_cell_angle_alpha 90.000000
_cell_angle_beta 90.000000
_cell_angle_gamma 90.000000
_cell_volume 2426.513628
_symmetry_space_group_name_H-M "I 21 21 21"
_symmetry_group_IT_number 24
_symmetry_cell_setting 'orthorhombic'
loop_
_space_group_symop_operation_xyz
x,y,z
-x,1/2-y,z
x,-y,1/2-z
1/2-x,y,-z
1/2+x,1/2+y,1/2+z
1/2-x,-y,1/2+z
1/2+x,1/2-y,-z
-x,1/2+y,1/2-z
loop_
_atom_site_type_symbol
_atom_site_label
_atom_site_fract_x
_atom_site_fract_y
_atom_site_fract_z
Si Si1 0.832810 0.705760 0.818029
Si Si2 0.268680 0.877818 0.320697
Si Si3 0.015610 0.000000 0.250000
Si Si4 0.310867 0.388813 0.647519
Si Si5 0.964013 0.537646 0.880896
Si Si6 0.422786 0.507711 0.975622
Si Si7 0.886628 0.667658 0.447090
O O1 0.827746 0.685894 0.739354
O O2 0.696500 0.777773 0.841902
O O3 0.823845 0.609523 0.858589
O O4 0.000000 0.750000 0.837493
O O5 0.198994 0.809462 0.377039
O O6 0.415313 0.937728 0.351738
O O7 0.125395 0.943938 0.300032
O O8 0.908581 0.071413 0.290868
O O9 0.397607 0.408726 0.576790
O O10 0.135201 0.435473 0.650410
O O11 0.971680 0.539675 0.961124
O O12 0.509755 0.424685 0.938121
O O13 0.250000 0.471115 0.000000
O O14 0.750000 0.649505 0.500000
O O15 0.000000 0.750000 0.470596
#
# Coordination Sequence:
#
# PCOD8165617 Si02
#       7
#     8   8   4   8   8   8   8
#     4  10  23  41  67 101 132 169 230 272 333 413
#     4  12  24  42  68  95 137 175 218 277 342 404
#     4  12  24  38  66  96 132 172 212 272 338 396
#     4  10  24  40  70  99 134 176 221 281 338 402
#     4  10  21  44  73  92 132 182 228 271 337 419
#     4  10  21  44  71  93 132 178 225 274 343 404
#     4  12  26  44  65  99 133 173 225 278 336 410
#
# _framework density 21.429922999999999
#
# number of rings (size 3 to 8) (size 9 to 14) (size 15 to 20)
#    0.000    1.231    4.615    0.462    6.462    0.615 
#    2.769    0.000   54.154    0.000    0.000    0.000 
#    0.000    0.000    0.000    0.000    0.000    0.000 
#
# Total GULP energy -322408.455211 kJ/mol
# GULP energy per Si atom -12400.325200 kJ/mol
# Density = 2.138115 g / cm^3
# Si number density = 21.429923 Si / 1000 Ang^3
#
#
#
# Elastic Constant Matrix: (Units=GPa)
#
#
# Indices 1 2 3 4 5 6 
#
# 1 61.1358 24.6077 30.6326 0.0000 0.0000 0.0000
# 2 24.6077 80.9574 36.2426 0.0000 0.0000 0.0000
# 3 30.6326 36.2426 132.0942 0.0000 0.0000 0.0000
# 4 0.0000 0.0000 0.0000 32.2080 0.0000 0.0000
# 5 0.0000 0.0000 0.0000 0.0000 37.8919 0.0000
# 6 0.0000 0.0000 0.0000 0.0000 0.0000 33.7780
#
#
#
# Elastic Compliance Matrix: (Units=1/GPa)
#
#
# Indices 1 2 3 4 5 6 
#
# 1 0.019867 -0.004533 -0.003363 0.000000 0.000000 0.000000
# 2 -0.004533 0.015116 -0.003096 0.000000 0.000000 0.000000
# 3 -0.003363 -0.003096 0.009200 0.000000 0.000000 0.000000
# 4 0.000000 0.000000 0.000000 0.031048 0.000000 0.000000
# 5 0.000000 0.000000 0.000000 0.000000 0.026391 0.000000
# 6 0.000000 0.000000 0.000000 0.000000 0.000000 0.029605
#
#
# Mechanical properties :
#
#
# Convention : Reuss Voigt Hill
#
# Bulk Modulus (GPa) = 45.04991 50.79480 47.92236
# Shear Modulus (GPa) = 31.13105 32.95587 32.04346
#
# Velocity S-wave (km/s) = 3.81555 3.92579 3.87106
# Velocity P-wave (km/s) = 6.36230 6.65607 6.51084
#
# Compressibility (1/GPa) = 0.02219760
#
# Stress axis : x y z
#
# Youngs Moduli (GPa) = 50.33511 66.15463 108.69769
#
# Poissons Ratio (x) = 0.29988 0.36559
# Poissons Ratio (y) = 0.22817 0.33655
# Poissons Ratio (z) = 0.16930 0.20483
#
# Static dielectric constant tensor:
#      x y z
#    x 3.966460 0.000000 0.000000 
#    y 0.000000 3.898890 0.000000 
#    z 0.000000 0.000000 3.988420 
# 
# 
# High freq. dielectric constant tensor:
#      x y z
#    x 1.846540 0.000000 0.000000 
#    y 0.000000 1.830120 0.000000 
#    z 0.000000 0.000000 1.850690 
# 
# From -- ./inp_files/32795.got.cif
#   From: 2010.03.12/outbox.cif.g09.slc.cpg/sg24_17_cif.got.tgz:32795.got - 2010.04.14 03:06:53.
