data_PCOD8165912
_publ_section_title
;
Structure prediction by ZEFSAII (Michael W. Deem and Ramdas Pophale) SiO2 
 PCOD8165912
Probable space group: I 21 21 21
;
_chemical_formula_sum "Si O2"
_cell_formula_units_Z 40
_cell_length_a 5.233862
_cell_length_b 28.627904
_cell_length_c 12.180793
_cell_angle_alpha 90.000000
_cell_angle_beta 90.000000
_cell_angle_gamma 90.000000
_cell_volume 1825.103015
_symmetry_space_group_name_H-M "I 21 21 21"
_symmetry_group_IT_number 24
_symmetry_cell_setting 'orthorhombic'
loop_
_space_group_symop_operation_xyz
x,y,z
-x,1/2-y,z
x,-y,1/2-z
1/2-x,y,-z
1/2+x,1/2+y,1/2+z
1/2-x,-y,1/2+z
1/2+x,1/2-y,-z
-x,1/2+y,1/2-z
loop_
_atom_site_type_symbol
_atom_site_label
_atom_site_fract_x
_atom_site_fract_y
_atom_site_fract_z
Si Si1 0.234545 0.892815 0.209381
Si Si2 0.883161 0.667465 0.397351
Si Si3 0.500000 0.250000 0.391097
Si Si4 0.750000 0.330376 0.500000
Si Si5 0.283646 0.445796 0.229444
Si Si6 0.500000 0.250000 0.755483
Si Si7 0.250000 0.593136 0.500000
O O1 0.304082 0.856510 0.307667
O O2 0.175153 0.863622 0.100257
O O3 0.480038 0.926402 0.197402
O O4 0.977591 0.921085 0.234886
O O5 0.750000 0.693699 0.500000
O O6 0.050567 0.705247 0.332645
O O7 0.031564 0.625494 0.453001
O O8 0.510114 0.296236 0.468478
O O9 0.749882 0.253397 0.317241
O O10 0.251291 0.500000 0.250000
O O11 0.347851 0.439088 0.100225
#
# Coordination Sequence:
#
# PCOD8165912 Si02
#       7
#     8   8   4   4   8   4   4
#     4  11  26  45  72 103 137 187 235 288 359 434
#     4  11  24  45  67 105 140 188 228 292 348 424
#     4  12  29  49  68 108 146 205 235 312 342 428
#     4  12  28  48  74  99 154 193 248 298 358 422
#     4  11  25  47  73 107 138 178 237 296 366 438
#     4  12  29  43  74 104 148 185 263 280 356 428
#     4  10  24  42  72  97 144 183 214 296 364 412
#
# _framework density 21.916568999999999
#
# number of rings (size 3 to 8) (size 9 to 14) (size 15 to 20)
#    0.000    0.800    4.000    1.200    9.800    4.000 
#    0.000    0.000    0.000    0.000    0.000    0.000 
#    0.000    0.000    0.000    0.000    0.000    0.000 
#
# Total GULP energy -247895.775489 kJ/mol
# GULP energy per Si atom -12394.788774 kJ/mol
# Density = 2.186669 g / cm^3
# Si number density = 21.916569 Si / 1000 Ang^3
#
#
#
# Elastic Constant Matrix: (Units=GPa)
#
#
# Indices 1 2 3 4 5 6 
#
# 1 125.9242 45.2915 52.4269 0.0000 0.0000 0.0000
# 2 45.2915 146.7510 84.0540 0.0000 0.0000 0.0000
# 3 52.4269 84.0540 165.3628 -0.0002 0.0001 0.0000
# 4 0.0000 0.0000 -0.0002 40.7032 0.0000 0.0001
# 5 0.0000 0.0000 0.0001 0.0000 10.2648 0.0001
# 6 0.0000 0.0000 0.0000 0.0001 0.0001 -8.7934
#
#
#
# Elastic Compliance Matrix: (Units=1/GPa)
#
#
# Indices 1 2 3 4 5 6 
#
# 1 0.009437 -0.001691 -0.002132 0.000000 0.000000 0.000000
# 2 -0.001691 0.009916 -0.004504 0.000000 0.000000 0.000000
# 3 -0.002132 -0.004504 0.009013 0.000000 0.000000 0.000000
# 4 0.000000 0.000000 0.000000 0.024568 0.000000 0.000000
# 5 0.000000 0.000000 0.000000 0.000000 0.097420 0.000001
# 6 0.000000 0.000000 0.000000 0.000000 0.000001 -0.113721
#
#
# Mechanical properties :
#
#
# Convention : Reuss Voigt Hill
#
# Bulk Modulus (GPa) = 85.39215 89.06477 87.22846
# Shear Modulus (GPa) = 87.42408 25.51928 56.47168
#
# Velocity S-wave (km/s) = 6.32266 3.41601 5.08159
# Velocity P-wave (km/s) = 9.60981 7.50234 8.62072
#
# Compressibility (1/GPa) = 0.01171068
#
# Stress axis : x y z
#
# Youngs Moduli (GPa) = 105.96167 100.84655 110.95332
#
# Poissons Ratio (x) = 0.17056 0.23659
# Poissons Ratio (y) = 0.17921 0.49975
# Poissons Ratio (z) = 0.22595 0.45423
#
# Static dielectric constant tensor:
#      x y z
#    x 4.548910 0.000000 0.000000 
#    y 0.000000 4.214050 0.000000 
#    z 0.000000 0.000000 4.974470 
# 
# 
# High freq. dielectric constant tensor:
#      x y z
#    x 1.850880 0.000000 0.000000 
#    y 0.000000 1.862270 0.000000 
#    z 0.000000 0.000000 1.886210 
# 
# From -- ./inp_files/2560.got.cif
#   From: 2010.03.12/outbox.cif.g09.slc.cpg/sg24_2_cif.got.tgz:2560.got - 2010.04.14 03:06:53.
