data_PCOD8165439
_publ_section_title
;
Structure prediction by ZEFSAII (Michael W. Deem and Ramdas Pophale) SiO2 
 PCOD8165439
Probable space group: I 21 21 21
;
_chemical_formula_sum "Si O2"
_cell_formula_units_Z 48
_cell_length_a 17.561945
_cell_length_b 9.385683
_cell_length_c 13.687005
_cell_angle_alpha 90.000000
_cell_angle_beta 90.000000
_cell_angle_gamma 90.000000
_cell_volume 2256.040649
_symmetry_space_group_name_H-M "I 21 21 21"
_symmetry_group_IT_number 24
_symmetry_cell_setting 'orthorhombic'
loop_
_space_group_symop_operation_xyz
x,y,z
-x,1/2-y,z
x,-y,1/2-z
1/2-x,y,-z
1/2+x,1/2+y,1/2+z
1/2-x,-y,1/2+z
1/2+x,1/2-y,-z
-x,1/2+y,1/2-z
loop_
_atom_site_type_symbol
_atom_site_label
_atom_site_fract_x
_atom_site_fract_y
_atom_site_fract_z
Si Si1 0.931512 0.579342 0.157410
Si Si2 0.783461 0.268187 0.772648
Si Si3 0.061193 0.624355 0.679398
Si Si4 0.038796 0.605959 0.466331
Si Si5 0.119490 0.343884 0.227211
Si Si6 0.740952 0.475441 0.610958
O O1 0.966804 0.500000 0.250000
O O2 0.925128 0.746049 0.190890
O O3 0.847439 0.518375 0.139330
O O4 0.986084 0.529567 0.067977
O O5 0.857615 0.173747 0.779713
O O6 0.709608 0.169201 0.763970
O O7 0.787587 0.362049 0.674510
O O8 0.775900 0.369079 0.868086
O O9 0.030779 0.500000 0.750000
O O10 0.075601 0.558614 0.569943
O O11 0.000000 0.750000 0.685773
O O12 0.095420 0.673832 0.385484
O O13 0.000000 0.750000 0.501650
O O14 0.092365 0.500000 0.250000
O O15 0.750000 0.429971 0.500000
#
# Coordination Sequence:
#
# PCOD8165439 Si02
#       6
#     8   8   8   8   8   8
#     4  11  20  41  64 102 138 162 226 285 341 422
#     4  10  22  43  66  97 136 174 230 291 339 419
#     4  11  28  48  67  94 135 187 239 291 343 417
#     4  11  23  39  68  99 131 180 226 271 349 422
#     4  11  23  40  66 101 136 174 210 283 361 411
#     4  10  21  37  72 101 129 178 226 285 351 418
#
# _framework density 21.276212999999998
#
# number of rings (size 3 to 8) (size 9 to 14) (size 15 to 20)
#    0.000    1.333    5.000    1.000    9.333    0.000 
#    9.000    0.000    0.000    0.000    0.000    0.000 
#    0.000    0.000    0.000    0.000    0.000    0.000 
#
# Total GULP energy -297328.933272 kJ/mol
# GULP energy per Si atom -12388.705553 kJ/mol
# Density = 2.122779 g / cm^3
# Si number density = 21.276213 Si / 1000 Ang^3
#
#
#
# Elastic Constant Matrix: (Units=GPa)
#
#
# Indices 1 2 3 4 5 6 
#
# 1 102.4101 32.7195 32.6734 0.0000 0.0000 0.0000
# 2 32.7195 123.4492 42.9879 0.0000 0.0000 0.0000
# 3 32.6734 42.9879 144.2740 0.0000 0.0000 0.0000
# 4 0.0000 0.0000 0.0000 26.1647 0.0000 0.0000
# 5 0.0000 0.0000 0.0000 0.0000 21.3089 0.0000
# 6 0.0000 0.0000 0.0000 0.0000 0.0000 58.9407
#
#
#
# Elastic Compliance Matrix: (Units=1/GPa)
#
#
# Indices 1 2 3 4 5 6 
#
# 1 0.011082 -0.002302 -0.001824 0.000000 0.000000 0.000000
# 2 -0.002302 0.009517 -0.002314 0.000000 0.000000 0.000000
# 3 -0.001824 -0.002314 0.008034 0.000000 0.000000 0.000000
# 4 0.000000 0.000000 0.000000 0.038219 0.000000 0.000000
# 5 0.000000 0.000000 0.000000 0.000000 0.046929 0.000000
# 6 0.000000 0.000000 0.000000 0.000000 0.000000 0.016966
#
#
# Mechanical properties :
#
#
# Convention : Reuss Voigt Hill
#
# Bulk Modulus (GPa) = 63.48332 65.21054 64.34693
# Shear Modulus (GPa) = 33.58459 38.73303 36.15881
#
# Velocity S-wave (km/s) = 3.97735 4.27134 4.12697
# Velocity P-wave (km/s) = 7.14107 7.41902 7.28137
#
# Compressibility (1/GPa) = 0.01575217
#
# Stress axis : x y z
#
# Youngs Moduli (GPa) = 90.23598 105.08042 124.47382
#
# Poissons Ratio (x) = 0.24191 0.22701
# Poissons Ratio (y) = 0.20774 0.28805
# Poissons Ratio (z) = 0.16457 0.24317
#
# Static dielectric constant tensor:
#      x y z
#    x 3.737530 0.000000 0.000000 
#    y 0.000000 3.832970 0.000000 
#    z 0.000000 0.000000 3.447740 
# 
# 
# High freq. dielectric constant tensor:
#      x y z
#    x 1.836420 0.000000 0.000000 
#    y 0.000000 1.832300 0.000000 
#    z 0.000000 0.000000 1.832310 
# 
# From -- ./inp_files/27055.got.cif
#   From: 2010.03.12/outbox.cif.g09.slc.cpg/sg24_14_cif.got.tgz:27055.got - 2010.04.14 03:06:53.
