data_PCOD8165741
_publ_section_title
;
Structure prediction by ZEFSAII (Michael W. Deem and Ramdas Pophale) SiO2 
 PCOD8165741
Probable space group: I 21 21 21
;
_chemical_formula_sum "Si O2"
_cell_formula_units_Z 40
_cell_length_a 10.059383
_cell_length_b 18.337362
_cell_length_c 10.402218
_cell_angle_alpha 90.000000
_cell_angle_beta 90.000000
_cell_angle_gamma 90.000000
_cell_volume 1918.819633
_symmetry_space_group_name_H-M "I 21 21 21"
_symmetry_group_IT_number 24
_symmetry_cell_setting 'orthorhombic'
loop_
_space_group_symop_operation_xyz
x,y,z
-x,1/2-y,z
x,-y,1/2-z
1/2-x,y,-z
1/2+x,1/2+y,1/2+z
1/2-x,-y,1/2+z
1/2+x,1/2-y,-z
-x,1/2+y,1/2-z
loop_
_atom_site_type_symbol
_atom_site_label
_atom_site_fract_x
_atom_site_fract_y
_atom_site_fract_z
Si Si1 0.717535 0.916151 0.746062
Si Si2 0.232436 0.054955 0.144541
Si Si3 0.007063 0.832035 0.398279
Si Si4 0.504982 0.629643 0.315908
Si Si5 0.750000 0.825068 0.000000
Si Si6 0.500000 0.250000 0.389901
O O1 0.621378 0.875730 0.647241
O O2 0.709118 0.877856 0.884011
O O3 0.866421 0.912372 0.693701
O O4 0.672004 0.000000 0.750000
O O5 0.142113 0.127724 0.145657
O O6 0.380059 0.070450 0.192473
O O7 0.168786 0.000000 0.250000
O O8 0.250000 0.021973 0.000000
O O9 0.007842 0.825904 0.551760
O O10 0.000000 0.750000 0.341454
O O11 0.536617 0.682218 0.198372
O O12 0.873863 0.771520 0.975910
#
# Coordination Sequence:
#
# PCOD8165741 Si02
#       6
#     8   8   8   8   4   4
#     4  11  25  43  66  96 133 172 219 264 331 387
#     4  10  23  44  64  97 132 173 217 267 332 393
#     4  11  24  40  70  97 127 164 222 272 321 380
#     4  10  22  41  70  92 129 168 218 268 325 388
#     4  10  26  42  66  96 136 174 212 266 336 386
#     4  10  22  44  62 100 130 168 218 268 330 386
#
# _framework density 20.846149
#
# number of rings (size 3 to 8) (size 9 to 14) (size 15 to 20)
#    0.000    1.600    1.000    1.800    9.800    1.600 
#   12.600    0.000    0.000    0.000    0.000    0.000 
#    0.000    0.000    0.000    0.000    0.000    0.000 
#
# Total GULP energy -248013.918308 kJ/mol
# GULP energy per Si atom -12400.695915 kJ/mol
# Density = 2.079870 g / cm^3
# Si number density = 20.846149 Si / 1000 Ang^3
#
#
#
# Elastic Constant Matrix: (Units=GPa)
#
#
# Indices 1 2 3 4 5 6 
#
# 1 143.5639 61.6640 62.5754 0.0003 0.0000 0.0001
# 2 61.6640 141.3709 55.0413 -0.0005 0.0000 0.0004
# 3 62.5754 55.0413 93.6899 -0.0009 0.0001 0.0004
# 4 0.0003 -0.0005 -0.0009 24.5679 -0.0001 0.0005
# 5 0.0000 0.0000 0.0001 -0.0001 36.7632 -0.0001
# 6 0.0001 0.0004 0.0004 0.0005 -0.0001 22.7136
#
#
#
# Elastic Compliance Matrix: (Units=1/GPa)
#
#
# Indices 1 2 3 4 5 6 
#
# 1 0.010408 -0.002377 -0.005555 0.000000 0.000000 0.000000
# 2 -0.002377 0.009714 -0.004119 0.000000 0.000000 0.000000
# 3 -0.005555 -0.004119 0.016804 0.000001 0.000000 0.000000
# 4 0.000000 0.000000 0.000001 0.040703 0.000000 -0.000001
# 5 0.000000 0.000000 0.000000 0.000000 0.027201 0.000000
# 6 0.000000 0.000000 0.000000 -0.000001 0.000000 0.044027
#
#
# Mechanical properties :
#
#
# Convention : Reuss Voigt Hill
#
# Bulk Modulus (GPa) = 77.98381 81.90958 79.94670
# Shear Modulus (GPa) = 28.21136 30.09854 29.15495
#
# Velocity S-wave (km/s) = 3.68273 3.80391 3.74381
# Velocity P-wave (km/s) = 7.45478 7.65968 7.55793
#
# Compressibility (1/GPa) = 0.01282317
#
# Stress axis : x y z
#
# Youngs Moduli (GPa) = 96.08260 102.94174 59.51084
#
# Poissons Ratio (x) = 0.24469 0.33057
# Poissons Ratio (y) = 0.22839 0.24515
# Poissons Ratio (z) = 0.53373 0.42406
#
# Static dielectric constant tensor:
#      x y z
#    x 3.873220 0.000000 0.000000 
#    y 0.000000 3.677280 0.000000 
#    z 0.000000 0.000000 3.953730 
# 
# 
# High freq. dielectric constant tensor:
#      x y z
#    x 1.829650 0.000000 0.000000 
#    y 0.000000 1.812670 0.000000 
#    z 0.000000 0.000000 1.822860 
# 
# From -- ./inp_files/10723.got.cif
#   From: 2010.03.12/outbox.cif.g09.slc.cpg/sg24_6_cif.got.tgz:10723.got - 2010.04.14 03:06:53.
