data_PCOD8165389
_publ_section_title
;
Structure prediction by ZEFSAII (Michael W. Deem and Ramdas Pophale) SiO2 
 PCOD8165389
Probable space group: I 21 21 21
;
_chemical_formula_sum "Si O2"
_cell_formula_units_Z 44
_cell_length_a 19.686085
_cell_length_b 22.825612
_cell_length_c 5.514386
_cell_angle_alpha 90.000000
_cell_angle_beta 90.000000
_cell_angle_gamma 90.000000
_cell_volume 2477.872464
_symmetry_space_group_name_H-M "I 21 21 21"
_symmetry_group_IT_number 24
_symmetry_cell_setting 'orthorhombic'
loop_
_space_group_symop_operation_xyz
x,y,z
-x,1/2-y,z
x,-y,1/2-z
1/2-x,y,-z
1/2+x,1/2+y,1/2+z
1/2-x,-y,1/2+z
1/2+x,1/2-y,-z
-x,1/2+y,1/2-z
loop_
_atom_site_type_symbol
_atom_site_label
_atom_site_fract_x
_atom_site_fract_y
_atom_site_fract_z
Si Si1 0.123010 0.065499 0.237384
Si Si2 0.250000 0.893114 0.500000
Si Si3 0.900895 0.790782 0.484604
Si Si4 0.955082 0.664109 0.506413
Si Si5 0.156526 0.150442 0.619665
Si Si6 0.672351 0.222650 0.502421
O O1 0.185134 0.065579 0.047667
O O2 0.063288 0.111200 0.175499
O O3 0.158060 0.088673 0.481162
O O4 0.092844 0.000000 0.250000
O O5 0.223360 0.849093 0.708622
O O6 0.927734 0.726423 0.415427
O O7 0.858471 0.792965 0.735998
O O8 0.963678 0.834829 0.531207
O O9 0.860984 0.809872 0.237924
O O10 0.917784 0.651895 0.758826
O O11 0.164530 0.207618 0.452001
O O12 0.750000 0.202221 0.500000
#
# Coordination Sequence:
#
# PCOD8165389 Si02
#       6
#     8   4   8   8   8   8
#     4  11  22  34  52  72 105 145 189 232 263 307
#     4  10  22  32  48  74 102 150 188 232 262 300
#     4  10  21  35  56  78 107 146 177 223 269 328
#     4   9  21  35  51  75 101 142 190 216 271 312
#     4  10  21  35  52  72 107 145 187 229 262 318
#     4  11  21  33  56  82 111 139 178 218 273 330
#
# _framework density 17.757169000000001
#
# number of rings (size 3 to 8) (size 9 to 14) (size 15 to 20)
#    0.000    1.818    1.818    2.182   10.182    3.636 
#    0.000    0.000    0.000    0.000    0.000    0.000 
#    0.000    2.909    0.000    0.000    0.000    0.000 
#
# Total GULP energy -272547.815147 kJ/mol
# GULP energy per Si atom -12388.537052 kJ/mol
# Density = 1.771675 g / cm^3
# Si number density = 17.757169 Si / 1000 Ang^3
#
#
#
# Elastic Constant Matrix: (Units=GPa)
#
#
# Indices 1 2 3 4 5 6 
#
# 1 130.7839 40.0995 47.1029 0.0000 0.0000 0.0000
# 2 40.0995 61.9443 17.3649 0.0000 0.0000 0.0000
# 3 47.1029 17.3649 96.0499 0.0000 0.0000 0.0000
# 4 0.0000 0.0000 0.0000 14.8072 0.0000 0.0000
# 5 0.0000 0.0000 0.0000 0.0000 20.7018 0.0000
# 6 0.0000 0.0000 0.0000 0.0000 0.0000 20.9268
#
#
#
# Elastic Compliance Matrix: (Units=1/GPa)
#
#
# Indices 1 2 3 4 5 6 
#
# 1 0.011023 -0.005920 -0.004335 0.000000 0.000000 0.000000
# 2 -0.005920 0.020185 -0.000746 0.000000 0.000000 0.000000
# 3 -0.004335 -0.000746 0.012672 0.000000 0.000000 0.000000
# 4 0.000000 0.000000 0.000000 0.067535 0.000000 0.000000
# 5 0.000000 0.000000 0.000000 0.000000 0.048305 0.000000
# 6 0.000000 0.000000 0.000000 0.000000 0.000000 0.047786
#
#
# Mechanical properties :
#
#
# Convention : Reuss Voigt Hill
#
# Bulk Modulus (GPa) = 45.71003 55.32364 50.51683
# Shear Modulus (GPa) = 21.11482 23.56789 22.34135
#
# Velocity S-wave (km/s) = 3.45206 3.64707 3.55090
# Velocity P-wave (km/s) = 6.45651 6.99701 6.73219
#
# Compressibility (1/GPa) = 0.02187704
#
# Stress axis : x y z
#
# Youngs Moduli (GPa) = 90.72122 49.54145 78.91338
#
# Poissons Ratio (x) = 0.29330 0.34211
# Poissons Ratio (y) = 0.53709 0.05887
# Poissons Ratio (z) = 0.39330 0.03696
#
# Static dielectric constant tensor:
#      x y z
#    x 3.359550 0.000000 0.000000 
#    y 0.000000 2.869560 0.000000 
#    z 0.000000 0.000000 3.464190 
# 
# 
# High freq. dielectric constant tensor:
#      x y z
#    x 1.682840 0.000000 0.000000 
#    y 0.000000 1.625730 0.000000 
#    z 0.000000 0.000000 1.702220 
# 
# From -- ./inp_files/4772.got.cif
#   From: 2010.03.12/outbox.cif.g09.slc.cpg/sg24_3_cif.got.tgz:4772.got - 2010.04.14 03:06:53.
