data_PCOD8165744
_publ_section_title
;
Structure prediction by ZEFSAII (Michael W. Deem and Ramdas Pophale) SiO2 
 PCOD8165744
Probable space group: I 21 21 21
;
_chemical_formula_sum "Si O2"
_cell_formula_units_Z 60
_cell_length_a 9.990858
_cell_length_b 11.047319
_cell_length_c 25.130853
_cell_angle_alpha 90.000000
_cell_angle_beta 90.000000
_cell_angle_gamma 90.000000
_cell_volume 2773.747418
_symmetry_space_group_name_H-M "I 21 21 21"
_symmetry_group_IT_number 24
_symmetry_cell_setting 'orthorhombic'
loop_
_space_group_symop_operation_xyz
x,y,z
-x,1/2-y,z
x,-y,1/2-z
1/2-x,y,-z
1/2+x,1/2+y,1/2+z
1/2-x,-y,1/2+z
1/2+x,1/2-y,-z
-x,1/2+y,1/2-z
loop_
_atom_site_type_symbol
_atom_site_label
_atom_site_fract_x
_atom_site_fract_y
_atom_site_fract_z
Si Si1 0.847853 0.209085 0.950992
Si Si2 0.597713 0.500000 0.750000
Si Si3 0.426617 0.083750 0.352184
Si Si4 0.200051 0.449225 0.597343
Si Si5 0.865568 0.689020 0.652275
Si Si6 0.353955 0.784320 0.041201
Si Si7 0.419079 0.370414 0.670716
Si Si8 0.277002 0.778790 0.238162
O O1 0.778986 0.282447 0.900786
O O2 0.000000 0.250000 0.966925
O O3 0.842200 0.067698 0.934674
O O4 0.750000 0.234185 0.000000
O O5 0.514088 0.469548 0.697235
O O6 0.684933 0.383701 0.762869
O O7 0.586889 0.082141 0.357956
O O8 0.364233 0.127927 0.407844
O O9 0.385542 0.173559 0.304479
O O10 0.370073 0.953295 0.336398
O O11 0.214502 0.341214 0.556024
O O12 0.345384 0.448249 0.625279
O O13 0.841471 0.766537 0.706405
O O14 0.000000 0.750000 0.629640
O O15 0.500000 0.750000 0.017251
O O16 0.250000 0.847334 0.000000
O O17 0.500000 0.250000 0.650074
O O18 0.310950 0.327585 0.714085
#
# Coordination Sequence:
#
# PCOD8165744 Si02
#       8
#     8   4   8   8   8   8   8   8
#     4  11  25  50  69  99 138 185 243 305 348 419
#     4  10  22  42  58  88 146 176 214 268 320 418
#     4  11  21  42  68  97 137 173 219 295 349 406
#     4  11  22  44  70  97 138 169 232 289 349 420
#     4  11  23  40  66  96 133 170 234 281 333 424
#     4  10  23  41  65  98 128 169 221 281 346 410
#     4  10  24  40  63  97 141 181 221 273 347 424
#     4  11  22  42  65 100 137 173 221 284 348 412
#
# _framework density 21.631385000000002
#
# number of rings (size 3 to 8) (size 9 to 14) (size 15 to 20)
#    0.000    1.333    5.333    0.400    3.733    1.067 
#    2.400    0.000    0.000    0.000    0.000    0.000 
#    0.000    0.000    0.000    0.000    0.000    0.000 
#
# Total GULP energy -371692.182809 kJ/mol
# GULP energy per Si atom -12389.739427 kJ/mol
# Density = 2.158215 g / cm^3
# Si number density = 21.631385 Si / 1000 Ang^3
#
#
#
# Elastic Constant Matrix: (Units=GPa)
#
#
# Indices 1 2 3 4 5 6 
#
# 1 92.7264 9.1267 55.5881 0.0000 0.0000 0.0000
# 2 9.1267 62.7410 2.6207 0.0000 0.0000 0.0000
# 3 55.5881 2.6207 121.5440 0.0000 0.0000 0.0000
# 4 0.0000 0.0000 0.0000 26.5107 0.0000 0.0000
# 5 0.0000 0.0000 0.0000 0.0000 42.0338 0.0000
# 6 0.0000 0.0000 0.0000 0.0000 0.0000 19.8512
#
#
#
# Elastic Compliance Matrix: (Units=1/GPa)
#
#
# Indices 1 2 3 4 5 6 
#
# 1 0.015083 -0.001908 -0.006857 0.000000 0.000000 0.000000
# 2 -0.001908 0.016194 0.000523 0.000000 0.000000 0.000000
# 3 -0.006857 0.000523 0.011352 0.000000 0.000000 0.000000
# 4 0.000000 0.000000 0.000000 0.037721 0.000000 0.000000
# 5 0.000000 0.000000 0.000000 0.000000 0.023790 0.000000
# 6 0.000000 0.000000 0.000000 0.000000 0.000000 0.050375
#
#
# Mechanical properties :
#
#
# Convention : Reuss Voigt Hill
#
# Bulk Modulus (GPa) = 38.24595 45.74249 41.99422
# Shear Modulus (GPa) = 27.82208 31.65752 29.73980
#
# Velocity S-wave (km/s) = 3.59024 3.82972 3.71191
# Velocity P-wave (km/s) = 5.90810 6.38341 6.15035
#
# Compressibility (1/GPa) = 0.02614656
#
# Stress axis : x y z
#
# Youngs Moduli (GPa) = 66.30042 61.75055 88.08827
#
# Poissons Ratio (x) = 0.11780 0.60402
# Poissons Ratio (y) = 0.12648 -0.04610
# Poissons Ratio (z) = 0.45462 -0.03231
#
# Static dielectric constant tensor:
#      x y z
#    x 4.034970 0.000000 0.000000 
#    y 0.000000 3.868390 0.000000 
#    z 0.000000 0.000000 3.984130 
# 
# 
# High freq. dielectric constant tensor:
#      x y z
#    x 1.845170 0.000000 0.000000 
#    y 0.000000 1.843790 0.000000 
#    z 0.000000 0.000000 1.850600 
# 
# From -- ./inp_files/36928.got.cif
#   From: 2010.03.12/outbox.cif.g09.slc.cpg/sg24_19_cif.got.tgz:36928.got - 2010.04.14 03:06:53.
