data_PCOD8165330
_publ_section_title
;
Structure prediction by ZEFSAII (Michael W. Deem and Ramdas Pophale) SiO2 
 PCOD8165330
Probable space group: I 21 21 21
;
_chemical_formula_sum "Si O2"
_cell_formula_units_Z 40
_cell_length_a 5.208028
_cell_length_b 25.453237
_cell_length_c 13.582612
_cell_angle_alpha 90.000000
_cell_angle_beta 90.000000
_cell_angle_gamma 90.000000
_cell_volume 1800.526952
_symmetry_space_group_name_H-M "I 21 21 21"
_symmetry_group_IT_number 24
_symmetry_cell_setting 'orthorhombic'
loop_
_space_group_symop_operation_xyz
x,y,z
-x,1/2-y,z
x,-y,1/2-z
1/2-x,y,-z
1/2+x,1/2+y,1/2+z
1/2-x,-y,1/2+z
1/2+x,1/2-y,-z
-x,1/2+y,1/2-z
loop_
_atom_site_type_symbol
_atom_site_label
_atom_site_fract_x
_atom_site_fract_y
_atom_site_fract_z
Si Si1 0.054629 0.369243 0.745086
Si Si2 0.250000 0.217290 0.000000
Si Si3 0.925926 0.309668 0.206637
Si Si4 0.024377 0.000000 0.250000
Si Si5 0.124995 0.053708 0.598656
Si Si6 0.150289 0.447294 0.899207
O O1 0.331382 0.344416 0.763831
O O2 0.978079 0.405145 0.840476
O O3 0.825792 0.326844 0.731516
O O4 0.073387 0.403897 0.644479
O O5 0.500000 0.250000 0.038409
O O6 0.145571 0.183058 0.091247
O O7 0.000000 0.250000 0.230923
O O8 0.867409 0.036935 0.177815
O O9 0.182597 0.042080 0.312401
O O10 0.250000 0.077896 0.500000
O O11 0.997032 0.999286 0.566120
O O12 0.250000 0.420747 0.000000
#
# Coordination Sequence:
#
# PCOD8165330 Si02
#       6
#     8   4   8   4   8   8
#     4  12  25  43  69 102 135 183 246 278 347 433
#     4  10  20  40  66  94 134 184 228 276 364 426
#     4  11  25  44  68  97 140 182 231 301 353 411
#     4  12  20  44  60  94 138 186 230 268 346 404
#     4  12  25  42  68  97 143 190 231 292 344 415
#     4  12  25  38  65  98 142 186 222 284 339 420
#
# _framework density 22.215720999999998
#
# number of rings (size 3 to 8) (size 9 to 14) (size 15 to 20)
#    0.000    0.400    6.000    4.200    2.800    0.000 
#    0.000    0.000    0.000    2.400    0.000    0.000 
#    0.000    0.000    0.000    0.000    0.000    0.000 
#
# Total GULP energy -247932.601502 kJ/mol
# GULP energy per Si atom -12396.630075 kJ/mol
# Density = 2.216516 g / cm^3
# Si number density = 22.215721 Si / 1000 Ang^3
#
#
#
# Elastic Constant Matrix: (Units=GPa)
#
#
# Indices 1 2 3 4 5 6 
#
# 1 132.3367 33.5584 40.7187 0.0000 0.0000 0.0000
# 2 33.5584 87.9870 32.0634 0.0000 0.0000 0.0000
# 3 40.7187 32.0634 134.6935 0.0002 0.0000 -0.0001
# 4 0.0000 0.0000 0.0002 -22.2501 0.0000 0.0000
# 5 0.0000 0.0000 0.0000 0.0000 46.2151 0.0000
# 6 0.0000 0.0000 -0.0001 0.0000 0.0000 26.3250
#
#
#
# Elastic Compliance Matrix: (Units=1/GPa)
#
#
# Indices 1 2 3 4 5 6 
#
# 1 0.008854 -0.002630 -0.002051 0.000000 0.000000 0.000000
# 2 -0.002630 0.013226 -0.002353 0.000000 0.000000 0.000000
# 3 -0.002051 -0.002353 0.008604 0.000000 0.000000 0.000000
# 4 0.000000 0.000000 0.000000 -0.044944 0.000000 0.000000
# 5 0.000000 0.000000 0.000000 0.000000 0.021638 0.000000
# 6 0.000000 0.000000 0.000000 0.000000 0.000000 0.037987
#
#
# Mechanical properties :
#
#
# Convention : Reuss Voigt Hill
#
# Bulk Modulus (GPa) = 60.17958 63.07759 61.62859
# Shear Modulus (GPa) = 76.95562 26.63644 51.79603
#
# Velocity S-wave (km/s) = 5.89197 3.46640 4.83380
# Velocity P-wave (km/s) = 8.56940 6.66904 7.67824
#
# Compressibility (1/GPa) = 0.01661693
#
# Stress axis : x y z
#
# Youngs Moduli (GPa) = 112.93910 75.60910 116.21926
#
# Poissons Ratio (x) = 0.19883 0.23833
# Poissons Ratio (y) = 0.29700 0.27351
# Poissons Ratio (z) = 0.23161 0.17794
#
# Static dielectric constant tensor:
#      x y z
#    x 4.287810 0.000000 0.000000 
#    y 0.000000 4.208530 0.000000 
#    z 0.000000 0.000000 3.869930 
# 
# 
# High freq. dielectric constant tensor:
#      x y z
#    x 1.887540 0.000000 0.000000 
#    y 0.000000 1.861880 0.000000 
#    z 0.000000 0.000000 1.861660 
# 
# From -- ./inp_files/23732.got.cif
#   From: 2010.03.12/outbox.cif.g09.slc.cpg/sg24_12_cif.got.tgz:23732.got - 2010.04.14 03:06:53.
