data_PCOD8165135
_publ_section_title
;
Structure prediction by ZEFSAII (Michael W. Deem and Ramdas Pophale) SiO2 
 PCOD8165135
Probable space group: I 21 21 21
;
_chemical_formula_sum "Si O2"
_cell_formula_units_Z 48
_cell_length_a 18.396136
_cell_length_b 13.221922
_cell_length_c 9.674024
_cell_angle_alpha 90.000000
_cell_angle_beta 90.000000
_cell_angle_gamma 90.000000
_cell_volume 2353.034869
_symmetry_space_group_name_H-M "I 21 21 21"
_symmetry_group_IT_number 24
_symmetry_cell_setting 'orthorhombic'
loop_
_space_group_symop_operation_xyz
x,y,z
-x,1/2-y,z
x,-y,1/2-z
1/2-x,y,-z
1/2+x,1/2+y,1/2+z
1/2-x,-y,1/2+z
1/2+x,1/2-y,-z
-x,1/2+y,1/2-z
loop_
_atom_site_type_symbol
_atom_site_label
_atom_site_fract_x
_atom_site_fract_y
_atom_site_fract_z
Si Si1 0.829477 0.902809 0.527233
Si Si2 0.918150 0.215215 0.183377
Si Si3 0.186288 0.306058 0.701926
Si Si4 0.842789 0.415069 0.148613
Si Si5 0.159694 0.628882 0.082258
Si Si6 0.673217 0.410081 0.158326
O O1 0.750000 0.851576 0.500000
O O2 0.893373 0.839762 0.456061
O O3 0.841026 0.894124 0.692672
O O4 0.827432 0.014129 0.463823
O O5 0.866106 0.309734 0.215968
O O6 0.908761 0.139745 0.314685
O O7 0.000000 0.250000 0.164700
O O8 0.142364 0.309507 0.557830
O O9 0.270480 0.327804 0.664306
O O10 0.167339 0.198722 0.769573
O O11 0.877533 0.500000 0.250000
O O12 0.757594 0.432348 0.139435
O O13 0.869847 0.415637 0.988361
O O14 0.638439 0.500000 0.250000
#
# Coordination Sequence:
#
# PCOD8165135 Si02
#       6
#     8   8   8   8   8   8
#     4  12  21  40  68 103 137 167 232 285 346 400
#     4  12  26  43  62  93 137 180 215 270 345 423
#     4  11  21  37  65 104 134 158 216 294 347 383
#     4  10  21  37  59  87 121 162 209 260 313 378
#     4  11  24  35  67 104 134 170 216 286 347 409
#     4  10  20  35  62  96 123 157 211 273 318 378
#
# _framework density 20.399189
#
# number of rings (size 3 to 8) (size 9 to 14) (size 15 to 20)
#    0.000    1.000    6.667    1.000    2.333    2.667 
#    0.000    0.833    0.000    0.000    0.000    0.000 
#    0.000    0.000    0.000    0.000    0.000    0.000 
#
# Total GULP energy -297410.470828 kJ/mol
# GULP energy per Si atom -12392.102951 kJ/mol
# Density = 2.035276 g / cm^3
# Si number density = 20.399189 Si / 1000 Ang^3
#
#
#
# Elastic Constant Matrix: (Units=GPa)
#
#
# Indices 1 2 3 4 5 6 
#
# 1 60.2236 21.3643 49.3421 0.0000 0.0000 0.0000
# 2 21.3643 117.8385 62.1205 0.0000 0.0000 0.0000
# 3 49.3421 62.1205 180.7735 0.0000 0.0000 0.0000
# 4 0.0000 0.0000 0.0000 23.5661 0.0000 0.0000
# 5 0.0000 0.0000 0.0000 0.0000 19.0036 0.0000
# 6 0.0000 0.0000 0.0000 0.0000 0.0000 15.5455
#
#
#
# Elastic Compliance Matrix: (Units=1/GPa)
#
#
# Indices 1 2 3 4 5 6 
#
# 1 0.021480 -0.000981 -0.005526 0.000000 0.000000 0.000000
# 2 -0.000981 0.010408 -0.003309 0.000000 0.000000 0.000000
# 3 -0.005526 -0.003309 0.008177 0.000000 0.000000 0.000000
# 4 0.000000 0.000000 0.000000 0.042434 0.000000 0.000000
# 5 0.000000 0.000000 0.000000 0.000000 0.052621 0.000000
# 6 0.000000 0.000000 0.000000 0.000000 0.000000 0.064327
#
#
# Mechanical properties :
#
#
# Convention : Reuss Voigt Hill
#
# Bulk Modulus (GPa) = 48.93867 69.38771 59.16319
# Shear Modulus (GPa) = 22.13451 26.69031 24.41241
#
# Velocity S-wave (km/s) = 3.29761 3.62111 3.46314
# Velocity P-wave (km/s) = 6.20819 7.18136 6.71243
#
# Compressibility (1/GPa) = 0.02043374
#
# Stress axis : x y z
#
# Youngs Moduli (GPa) = 46.55425 96.07590 122.29280
#
# Poissons Ratio (x) = 0.09429 0.67577
# Poissons Ratio (y) = 0.04569 0.40465
# Poissons Ratio (z) = 0.25725 0.31790
#
# Static dielectric constant tensor:
#      x y z
#    x 3.115140 0.000000 0.000000 
#    y 0.000000 3.817660 0.000000 
#    z 0.000000 0.000000 4.355880 
# 
# 
# High freq. dielectric constant tensor:
#      x y z
#    x 1.725250 0.000000 0.000000 
#    y 0.000000 1.807230 0.000000 
#    z 0.000000 0.000000 1.824740 
# 
# From -- ./inp_files/14141.got.cif
#   From: 2010.03.12/outbox.cif.g09.slc.cpg/sg24_8_cif.got.tgz:14141.got - 2010.04.14 03:06:53.
