data_PCOD8165707
_publ_section_title
;
Structure prediction by ZEFSAII (Michael W. Deem and Ramdas Pophale) SiO2 
 PCOD8165707
Probable space group: I 21 21 21
;
_chemical_formula_sum "Si O2"
_cell_formula_units_Z 48
_cell_length_a 10.062833
_cell_length_b 13.574491
_cell_length_c 17.718993
_cell_angle_alpha 90.000000
_cell_angle_beta 90.000000
_cell_angle_gamma 90.000000
_cell_volume 2420.376100
_symmetry_space_group_name_H-M "I 21 21 21"
_symmetry_group_IT_number 24
_symmetry_cell_setting 'orthorhombic'
loop_
_space_group_symop_operation_xyz
x,y,z
-x,1/2-y,z
x,-y,1/2-z
1/2-x,y,-z
1/2+x,1/2+y,1/2+z
1/2-x,-y,1/2+z
1/2+x,1/2-y,-z
-x,1/2+y,1/2-z
loop_
_atom_site_type_symbol
_atom_site_label
_atom_site_fract_x
_atom_site_fract_y
_atom_site_fract_z
Si Si1 0.179095 0.508422 0.575456
Si Si2 0.168158 0.000000 0.750000
Si Si3 0.209773 0.604573 0.286437
Si Si4 0.500000 0.250000 0.803825
Si Si5 0.948446 0.855725 0.812015
Si Si6 0.290948 0.120941 0.880229
Si Si7 0.948172 0.355985 0.980561
O O1 0.250000 0.469021 0.500000
O O2 0.276745 0.579842 0.624126
O O3 0.123748 0.413870 0.620359
O O4 0.058622 0.575851 0.552797
O O5 0.264001 0.962491 0.682586
O O6 0.076158 0.913124 0.780961
O O7 0.199481 0.500000 0.250000
O O8 0.341608 0.659871 0.255391
O O9 0.072211 0.659715 0.260886
O O10 0.370311 0.213633 0.847952
O O11 0.000000 0.750000 0.841223
O O12 0.154165 0.164059 0.912531
O O13 0.380761 0.082776 0.950333
O O14 0.000000 0.250000 0.009363
#
# Coordination Sequence:
#
# PCOD8165707 Si02
#       7
#     8   4   8   4   8   8   8
#     4  11  22  41  66  93 132 175 215 278 337 401
#     4  12  22  46  66  98 132 174 226 280 328 404
#     4  10  22  40  64  93 125 171 219 266 334 392
#     4  12  22  38  56  96 138 168 202 272 328 404
#     4  11  22  45  71  94 124 175 235 274 324 402
#     4  11  24  36  62  96 133 174 212 265 342 397
#     4  11  22  39  62  99 134 169 216 277 346 408
#
# _framework density 19.831627000000001
#
# number of rings (size 3 to 8) (size 9 to 14) (size 15 to 20)
#    0.000    1.000    5.000    3.000    3.500    1.333 
#    0.000    1.667    7.333    0.000    0.000    0.000 
#    0.000    0.000    0.000    0.000    0.000    0.000 
#
# Total GULP energy -297399.914396 kJ/mol
# GULP energy per Si atom -12391.663100 kJ/mol
# Density = 1.978649 g / cm^3
# Si number density = 19.831627 Si / 1000 Ang^3
#
#
#
# Elastic Constant Matrix: (Units=GPa)
#
#
# Indices 1 2 3 4 5 6 
#
# 1 110.8728 52.6259 47.7880 0.0000 0.0000 0.0000
# 2 52.6259 88.6618 27.7384 0.0000 0.0000 0.0000
# 3 47.7880 27.7384 107.3950 0.0000 0.0000 0.0000
# 4 0.0000 0.0000 0.0000 12.4701 0.0000 0.0000
# 5 0.0000 0.0000 0.0000 0.0000 192.5137 0.0000
# 6 0.0000 0.0000 0.0000 0.0000 0.0000 46.1296
#
#
#
# Elastic Compliance Matrix: (Units=1/GPa)
#
#
# Indices 1 2 3 4 5 6 
#
# 1 0.014348 -0.007092 -0.004553 0.000000 0.000000 0.000000
# 2 -0.007092 0.015776 -0.000919 0.000000 0.000000 0.000000
# 3 -0.004553 -0.000919 0.011575 0.000000 0.000000 0.000000
# 4 0.000000 0.000000 0.000000 0.080192 0.000000 0.000000
# 5 0.000000 0.000000 0.000000 0.000000 0.005194 0.000000
# 6 0.000000 0.000000 0.000000 0.000000 0.000000 0.021678
#
#
# Mechanical properties :
#
#
# Convention : Reuss Voigt Hill
#
# Bulk Modulus (GPa) = 60.34583 62.58157 61.46370
# Shear Modulus (GPa) = 27.86859 62.14114 45.00487
#
# Velocity S-wave (km/s) = 3.75275 5.60378 4.76894
# Velocity P-wave (km/s) = 7.01945 8.57291 7.83478
#
# Compressibility (1/GPa) = 0.01657115
#
# Stress axis : x y z
#
# Youngs Moduli (GPa) = 69.69702 63.38839 86.39617
#
# Poissons Ratio (x) = 0.44955 0.39333
# Poissons Ratio (y) = 0.49429 0.07939
# Poissons Ratio (z) = 0.31731 0.05825
#
# Static dielectric constant tensor:
#      x y z
#    x 3.270930 0.000000 0.000000 
#    y 0.000000 3.145960 0.000000 
#    z 0.000000 0.000000 4.027900 
# 
# 
# High freq. dielectric constant tensor:
#      x y z
#    x 1.790680 0.000000 0.000000 
#    y 0.000000 1.757470 0.000000 
#    z 0.000000 0.000000 1.769120 
# 
# From -- ./inp_files/27080.got.cif
#   From: 2010.03.12/outbox.cif.g09.slc.cpg/sg24_14_cif.got.tgz:27080.got - 2010.04.14 03:06:53.
