data_PCOD8165831
_publ_section_title
;
Structure prediction by ZEFSAII (Michael W. Deem and Ramdas Pophale) SiO2 
 PCOD8165831
Probable space group: I 21 21 21
;
_chemical_formula_sum "Si O2"
_cell_formula_units_Z 28
_cell_length_a 26.966987
_cell_length_b 5.141497
_cell_length_c 9.684506
_cell_angle_alpha 90.000000
_cell_angle_beta 90.000000
_cell_angle_gamma 90.000000
_cell_volume 1342.763369
_symmetry_space_group_name_H-M "I 21 21 21"
_symmetry_group_IT_number 24
_symmetry_cell_setting 'orthorhombic'
loop_
_space_group_symop_operation_xyz
x,y,z
-x,1/2-y,z
x,-y,1/2-z
1/2-x,y,-z
1/2+x,1/2+y,1/2+z
1/2-x,-y,1/2+z
1/2+x,1/2-y,-z
-x,1/2+y,1/2-z
loop_
_atom_site_type_symbol
_atom_site_label
_atom_site_fract_x
_atom_site_fract_y
_atom_site_fract_z
Si Si1 0.297355 0.500000 0.750000
Si Si2 0.852075 0.578236 0.906687
Si Si3 0.466432 0.500000 0.750000
Si Si4 0.750000 0.304444 0.500000
Si Si5 0.380209 0.396899 0.948344
O O1 0.262296 0.355154 0.640280
O O2 0.336445 0.328778 0.838794
O O3 0.856487 0.500000 0.750000
O O4 0.796267 0.515473 0.959265
O O5 0.889872 0.379406 0.979526
O O6 0.864127 0.878247 0.942557
O O7 0.500000 0.250000 0.731705
O O8 0.432016 0.481777 0.884060
#
# Coordination Sequence:
#
# PCOD8165831 Si02
#       5
#     4   8   4   4   8
#     4   9  22  38  58  86 128 166 212 274 302 363
#     4  11  24  38  62  86 131 178 211 257 308 374
#     4  11  22  42  76  98 118 154 208 270 338 397
#     4  10  24  34  62  86 128 174 240 254 304 360
#     4  10  23  42  60  94 127 158 206 271 325 366
#
# _framework density 20.852516999999999
#
# number of rings (size 3 to 8) (size 9 to 14) (size 15 to 20)
#    0.000    1.714    0.000    2.571   12.000    9.143 
#    0.000    0.000    0.000   17.143    0.000    0.000 
#    0.000    0.000    0.000    0.000    0.000    0.000 
#
# Total GULP energy -173451.905540 kJ/mol
# GULP energy per Si atom -12389.421824 kJ/mol
# Density = 2.080506 g / cm^3
# Si number density = 20.852517 Si / 1000 Ang^3
#
#
#
# Elastic Constant Matrix: (Units=GPa)
#
#
# Indices 1 2 3 4 5 6 
#
# 1 107.4528 33.8320 41.7362 0.0000 0.0000 0.0000
# 2 33.8320 104.0188 45.4847 0.0000 0.0000 0.0000
# 3 41.7362 45.4847 145.9838 0.0000 0.0000 0.0000
# 4 0.0000 0.0000 0.0000 16.0358 0.0000 0.0000
# 5 0.0000 0.0000 0.0000 0.0000 19.6355 0.0000
# 6 0.0000 0.0000 0.0000 0.0000 0.0000 30.6967
#
#
#
# Elastic Compliance Matrix: (Units=1/GPa)
#
#
# Indices 1 2 3 4 5 6 
#
# 1 0.011026 -0.002556 -0.002356 0.000000 0.000000 0.000000
# 2 -0.002556 0.011723 -0.002922 0.000000 0.000000 0.000000
# 3 -0.002356 -0.002922 0.008434 0.000000 0.000000 0.000000
# 4 0.000000 0.000000 0.000000 0.062361 0.000000 0.000000
# 5 0.000000 0.000000 0.000000 0.000000 0.050928 0.000000
# 6 0.000000 0.000000 0.000000 0.000000 0.000000 0.032577
#
#
# Mechanical properties :
#
#
# Convention : Reuss Voigt Hill
#
# Bulk Modulus (GPa) = 64.45216 66.61789 65.53503
# Shear Modulus (GPa) = 25.26689 29.03377 27.15033
#
# Velocity S-wave (km/s) = 3.48472 3.73545 3.61226
# Velocity P-wave (km/s) = 6.86780 7.11487 6.99243
#
# Compressibility (1/GPa) = 0.01551538
#
# Stress axis : x y z
#
# Youngs Moduli (GPa) = 90.69229 85.30540 118.56834
#
# Poissons Ratio (x) = 0.21805 0.27934
# Poissons Ratio (y) = 0.23182 0.34642
# Poissons Ratio (z) = 0.21367 0.24923
#
# Static dielectric constant tensor:
#      x y z
#    x 3.740100 0.000000 0.000000 
#    y 0.000000 3.590780 0.000000 
#    z 0.000000 0.000000 4.069670 
# 
# 
# High freq. dielectric constant tensor:
#      x y z
#    x 1.800740 0.000000 0.000000 
#    y 0.000000 1.811850 0.000000 
#    z 0.000000 0.000000 1.830010 
# 
# From -- ./inp_files/1042.got.cif
#   From: 2010.03.12/outbox.cif.g09.slc.cpg/sg24_1_cif.got.tgz:1042.got - 2010.04.14 03:06:53.
