data_PCOD8165007
_publ_section_title
;
Structure prediction by ZEFSAII (Michael W. Deem and Ramdas Pophale) SiO2 
 PCOD8165007
Probable space group: I 21 21 21
;
_chemical_formula_sum "Si O2"
_cell_formula_units_Z 48
_cell_length_a 10.750997
_cell_length_b 14.111875
_cell_length_c 15.795624
_cell_angle_alpha 90.000000
_cell_angle_beta 90.000000
_cell_angle_gamma 90.000000
_cell_volume 2396.460355
_symmetry_space_group_name_H-M "I 21 21 21"
_symmetry_group_IT_number 24
_symmetry_cell_setting 'orthorhombic'
loop_
_space_group_symop_operation_xyz
x,y,z
-x,1/2-y,z
x,-y,1/2-z
1/2-x,y,-z
1/2+x,1/2+y,1/2+z
1/2-x,-y,1/2+z
1/2+x,1/2-y,-z
-x,1/2+y,1/2-z
loop_
_atom_site_type_symbol
_atom_site_label
_atom_site_fract_x
_atom_site_fract_y
_atom_site_fract_z
Si Si1 0.056272 0.354426 0.776795
Si Si2 0.042018 0.471707 0.433799
Si Si3 0.621680 0.201067 0.650037
Si Si4 0.221142 0.115593 0.404156
Si Si5 0.673205 0.906854 0.695224
Si Si6 0.024010 0.026795 0.627373
O O1 0.192692 0.358174 0.820114
O O2 0.000000 0.250000 0.778261
O O3 0.058794 0.397265 0.680701
O O4 0.970765 0.422709 0.832719
O O5 0.143238 0.389995 0.410776
O O6 0.094776 0.568792 0.390108
O O7 0.907546 0.443441 0.393676
O O8 0.033751 0.482309 0.534050
O O9 0.500000 0.250000 0.612141
O O10 0.726588 0.282573 0.644401
O O11 0.598156 0.167951 0.746754
O O12 0.250000 0.140984 0.500000
O O13 0.332080 0.054038 0.367466
O O14 0.696927 0.000000 0.750000
#
# Coordination Sequence:
#
# PCOD8165007 Si02
#       6
#     8   8   8   8   8   8
#     4  11  23  40  59  86 121 158 208 255 305 380
#     4   9  20  36  62  84 124 159 197 254 306 360
#     4   9  18  33  55  92 119 149 194 243 302 364
#     4   9  18  36  59  91 122 151 200 253 315 369
#     4  10  19  38  55  85 121 152 197 250 298 367
#     4  10  21  40  61  88 120 161 204 252 319 363
#
# _framework density 20.029540999999998
#
# number of rings (size 3 to 8) (size 9 to 14) (size 15 to 20)
#    0.000    2.333    1.667    1.000    0.000    5.333 
#   18.000    0.833    7.333    0.000    0.000    0.000 
#    0.000    0.000    0.000    0.000    0.000    0.000 
#
# Total GULP energy -297352.159653 kJ/mol
# GULP energy per Si atom -12389.673319 kJ/mol
# Density = 1.998395 g / cm^3
# Si number density = 20.029541 Si / 1000 Ang^3
#
#
#
# Elastic Constant Matrix: (Units=GPa)
#
#
# Indices 1 2 3 4 5 6 
#
# 1 85.4208 38.6162 45.4628 0.0000 0.0000 0.0000
# 2 38.6162 120.8486 67.7561 0.0000 0.0000 0.0000
# 3 45.4628 67.7561 129.7722 0.0000 0.0000 0.0000
# 4 0.0000 0.0000 0.0000 26.8832 0.0000 0.0000
# 5 0.0000 0.0000 0.0000 0.0000 29.6887 0.0000
# 6 0.0000 0.0000 0.0000 0.0000 0.0000 29.8219
#
#
#
# Elastic Compliance Matrix: (Units=1/GPa)
#
#
# Indices 1 2 3 4 5 6 
#
# 1 0.014947 -0.002602 -0.003878 0.000000 0.000000 0.000000
# 2 -0.002602 0.012153 -0.005434 0.000000 0.000000 0.000000
# 3 -0.003878 -0.005434 0.011901 0.000000 0.000000 0.000000
# 4 0.000000 0.000000 0.000000 0.037198 0.000000 0.000000
# 5 0.000000 0.000000 0.000000 0.000000 0.033683 0.000000
# 6 0.000000 0.000000 0.000000 0.000000 0.000000 0.033532
#
#
# Mechanical properties :
#
#
# Convention : Reuss Voigt Hill
#
# Bulk Modulus (GPa) = 65.90152 71.07909 68.49030
# Shear Modulus (GPa) = 29.01936 29.55918 29.28927
#
# Velocity S-wave (km/s) = 3.81048 3.84575 3.82816
# Velocity P-wave (km/s) = 7.23417 7.43532 7.33543
#
# Compressibility (1/GPa) = 0.01517416
#
# Stress axis : x y z
#
# Youngs Moduli (GPa) = 66.90370 82.28618 84.02489
#
# Poissons Ratio (x) = 0.21411 0.32583
# Poissons Ratio (y) = 0.17409 0.45655
# Poissons Ratio (z) = 0.25944 0.44711
#
# Static dielectric constant tensor:
#      x y z
#    x 3.732540 0.000000 0.000000 
#    y 0.000000 3.739730 0.000000 
#    z 0.000000 0.000000 3.584090 
# 
# 
# High freq. dielectric constant tensor:
#      x y z
#    x 1.781470 0.000000 0.000000 
#    y 0.000000 1.773820 0.000000 
#    z 0.000000 0.000000 1.766510 
# 
# From -- ./inp_files/20742.got.cif
#   From: 2010.03.12/outbox.cif.g09.slc.cpg/sg24_11_cif.got.tgz:20742.got - 2010.04.14 03:06:53.
