data_PCOD8165758
_publ_section_title
;
Structure prediction by ZEFSAII (Michael W. Deem and Ramdas Pophale) SiO2 
 PCOD8165758
Probable space group: I 21 21 21
;
_chemical_formula_sum "Si O2"
_cell_formula_units_Z 40
_cell_length_a 24.086724
_cell_length_b 11.307268
_cell_length_c 6.835122
_cell_angle_alpha 90.000000
_cell_angle_beta 90.000000
_cell_angle_gamma 90.000000
_cell_volume 1861.579950
_symmetry_space_group_name_H-M "I 21 21 21"
_symmetry_group_IT_number 24
_symmetry_cell_setting 'orthorhombic'
loop_
_space_group_symop_operation_xyz
x,y,z
-x,1/2-y,z
x,-y,1/2-z
1/2-x,y,-z
1/2+x,1/2+y,1/2+z
1/2-x,-y,1/2+z
1/2+x,1/2-y,-z
-x,1/2+y,1/2-z
loop_
_atom_site_type_symbol
_atom_site_label
_atom_site_fract_x
_atom_site_fract_y
_atom_site_fract_z
Si Si1 0.959350 0.647618 0.999078
Si Si2 0.882873 0.195098 0.265656
Si Si3 0.689275 0.309168 0.062942
Si Si4 0.464314 0.500000 0.750000
Si Si5 0.381003 0.000000 0.250000
Si Si6 0.307592 0.386854 0.387150
O O1 0.919327 0.692168 0.172625
O O2 0.000000 0.750000 0.918090
O O3 0.997103 0.540105 0.071609
O O4 0.919449 0.603991 0.829727
O O5 0.925969 0.104832 0.166139
O O6 0.855662 0.128918 0.451986
O O7 0.836956 0.231134 0.109416
O O8 0.656902 0.432776 0.091388
O O9 0.693197 0.232524 0.260126
O O10 0.750000 0.348626 0.000000
O O11 0.320006 0.500000 0.250000
O O12 0.250000 0.406844 0.500000
#
# Coordination Sequence:
#
# PCOD8165758 Si02
#       6
#     8   8   8   4   4   8
#     4  10  23  44  67  98 136 179 238 291 353 417
#     4  11  23  45  70  99 139 181 233 291 357 417
#     4  12  26  44  70 103 142 191 233 290 355 433
#     4  10  22  42  69  98 129 180 230 300 350 414
#     4  12  26  44  69 106 139 192 238 294 354 432
#     4  12  25  43  70 104 144 184 235 289 356 435
#
# _framework density 21.487124999999999
#
# number of rings (size 3 to 8) (size 9 to 14) (size 15 to 20)
#    0.000    0.800    4.000    3.000    1.400    4.000 
#    7.200    0.000    0.000    0.000    0.000    0.000 
#    0.000    0.000    0.000    0.000    0.000    0.000 
#
# Total GULP energy -248052.144215 kJ/mol
# GULP energy per Si atom -12402.607211 kJ/mol
# Density = 2.143822 g / cm^3
# Si number density = 21.487125 Si / 1000 Ang^3
#
#
#
# Elastic Constant Matrix: (Units=GPa)
#
#
# Indices 1 2 3 4 5 6 
#
# 1 156.2647 60.0636 58.7305 0.0000 0.0000 0.0000
# 2 60.0636 108.1990 49.8548 0.0000 0.0000 0.0000
# 3 58.7305 49.8548 96.8176 0.0000 0.0000 0.0000
# 4 0.0000 0.0000 0.0000 38.1412 0.0000 0.0000
# 5 0.0000 0.0000 0.0000 0.0000 29.1223 0.0000
# 6 0.0000 0.0000 0.0000 0.0000 0.0000 17.0403
#
#
#
# Elastic Compliance Matrix: (Units=1/GPa)
#
#
# Indices 1 2 3 4 5 6 
#
# 1 0.009102 -0.003289 -0.003828 0.000000 0.000000 0.000000
# 2 -0.003289 0.013306 -0.004856 0.000000 0.000000 0.000000
# 3 -0.003828 -0.004856 0.015151 0.000000 0.000000 0.000000
# 4 0.000000 0.000000 0.000000 0.026218 0.000000 0.000000
# 5 0.000000 0.000000 0.000000 0.000000 0.034338 0.000000
# 6 0.000000 0.000000 0.000000 0.000000 0.000000 0.058684
#
#
# Mechanical properties :
#
#
# Convention : Reuss Voigt Hill
#
# Bulk Modulus (GPa) = 73.46047 77.61989 75.54018
# Shear Modulus (GPa) = 26.98553 29.70293 28.34423
#
# Velocity S-wave (km/s) = 3.54770 3.72204 3.63592
# Velocity P-wave (km/s) = 7.14450 7.39417 7.27041
#
# Compressibility (1/GPa) = 0.01361276
#
# Stress axis : x y z
#
# Youngs Moduli (GPa) = 109.86228 75.15539 66.00033
#
# Poissons Ratio (x) = 0.24720 0.25264
# Poissons Ratio (y) = 0.36135 0.32052
# Poissons Ratio (z) = 0.42054 0.36498
#
# Static dielectric constant tensor:
#      x y z
#    x 4.162800 0.000000 0.000000 
#    y 0.000000 2.241030 0.000000 
#    z 0.000000 0.000000 3.719780 
# 
# 
# High freq. dielectric constant tensor:
#      x y z
#    x 1.869760 0.000000 0.000000 
#    y 0.000000 1.852010 0.000000 
#    z 0.000000 0.000000 1.825560 
# 
# From -- ./inp_files/6922.got.cif
#   From: 2010.03.12/outbox.cif.g09.slc.cpg/sg24_4_cif.got.tgz:6922.got - 2010.04.14 03:06:53.
