data_PCOD8165440
_publ_section_title
;
Structure prediction by ZEFSAII (Michael W. Deem and Ramdas Pophale) SiO2 
 PCOD8165440
Probable space group: I 21 21 21
;
_chemical_formula_sum "Si O2"
_cell_formula_units_Z 40
_cell_length_a 8.387240
_cell_length_b 24.055283
_cell_length_c 8.370519
_cell_angle_alpha 90.000000
_cell_angle_beta 90.000000
_cell_angle_gamma 90.000000
_cell_volume 1688.814416
_symmetry_space_group_name_H-M "I 21 21 21"
_symmetry_group_IT_number 24
_symmetry_cell_setting 'orthorhombic'
loop_
_space_group_symop_operation_xyz
x,y,z
-x,1/2-y,z
x,-y,1/2-z
1/2-x,y,-z
1/2+x,1/2+y,1/2+z
1/2-x,-y,1/2+z
1/2+x,1/2-y,-z
-x,1/2+y,1/2-z
loop_
_atom_site_type_symbol
_atom_site_label
_atom_site_fract_x
_atom_site_fract_y
_atom_site_fract_z
Si Si1 0.069907 0.502648 0.058330
Si Si2 0.925517 0.192759 0.207209
Si Si3 0.632094 0.600559 0.877439
Si Si4 0.070897 0.307958 0.827046
Si Si5 0.369416 0.090697 0.127285
O O1 0.066556 0.500000 0.250000
O O2 0.976240 0.558973 0.016712
O O3 0.250000 0.505780 0.000000
O O4 0.985453 0.452691 0.961670
O O5 0.741782 0.186290 0.258564
O O6 0.000000 0.250000 0.271777
O O7 0.023387 0.142324 0.279183
O O8 0.926068 0.191087 0.017476
O O9 0.746980 0.564517 0.757454
O O10 0.750000 0.632657 0.000000
O O11 0.000000 0.250000 0.763665
O O12 0.966145 0.361243 0.778555
O O13 0.250000 0.119682 0.000000
#
# Coordination Sequence:
#
# PCOD8165440 Si02
#       5
#     8   8   8   8   8
#     4  12  29  47  71 103 142 188 236 294 357 423
#     4  10  21  42  71 106 145 182 235 294 358 423
#     4  12  28  47  70 104 145 192 239 292 354 422
#     4  10  21  37  74 111 137 178 238 301 355 417
#     4  12  24  46  73 100 142 183 239 293 347 416
#
# _framework density 23.685251999999998
#
# number of rings (size 3 to 8) (size 9 to 14) (size 15 to 20)
#    0.000    0.800    4.000    1.800   11.200    0.000 
#    0.000    4.000    0.000    0.000    0.000    0.000 
#    0.000    0.000    0.000    0.000    0.000    0.000 
#
# Total GULP energy -247822.133068 kJ/mol
# GULP energy per Si atom -12391.106653 kJ/mol
# Density = 2.363134 g / cm^3
# Si number density = 23.685252 Si / 1000 Ang^3
#
#
#
# Elastic Constant Matrix: (Units=GPa)
#
#
# Indices 1 2 3 4 5 6 
#
# 1 226.2361 94.8369 60.1386 -0.0004 -0.0004 -0.0001
# 2 94.8369 157.3276 31.0639 -0.0007 -0.0002 -0.0007
# 3 60.1386 31.0639 54.7313 -0.0042 0.0003 0.0051
# 4 -0.0004 -0.0007 -0.0042 13.1582 0.0000 0.0010
# 5 -0.0004 -0.0002 0.0003 0.0000 39.0813 -0.0006
# 6 -0.0001 -0.0007 0.0051 0.0010 -0.0006 37.8659
#
#
#
# Elastic Compliance Matrix: (Units=1/GPa)
#
#
# Indices 1 2 3 4 5 6 
#
# 1 0.007475 -0.003248 -0.006370 -0.000002 0.000000 0.000001
# 2 -0.003248 0.008570 -0.001295 0.000000 0.000000 0.000000
# 3 -0.006370 -0.001295 0.026005 0.000008 0.000000 -0.000004
# 4 -0.000002 0.000000 0.000008 0.075999 0.000000 -0.000002
# 5 0.000000 0.000000 0.000000 0.000000 0.025588 0.000000
# 6 0.000001 0.000000 -0.000004 -0.000002 0.000000 0.026409
#
#
# Mechanical properties :
#
#
# Convention : Reuss Voigt Hill
#
# Bulk Modulus (GPa) = 49.44596 90.04152 69.74374
# Shear Modulus (GPa) = 25.17459 34.83812 30.00636
#
# Velocity S-wave (km/s) = 3.26372 3.83936 3.56319
# Velocity P-wave (km/s) = 5.92656 7.59952 6.81457
#
# Compressibility (1/GPa) = 0.02022410
#
# Stress axis : x y z
#
# Youngs Moduli (GPa) = 133.77775 116.68797 38.45367
#
# Poissons Ratio (x) = 0.37903 0.24495
# Poissons Ratio (y) = 0.43454 0.04979
# Poissons Ratio (z) = 0.85216 0.15109
#
# Static dielectric constant tensor:
#      x y z
#    x 4.777640 0.000000 0.000000 
#    y 0.000000 4.168120 0.000000 
#    z 0.000000 0.000000 4.318580 
# 
# 
# High freq. dielectric constant tensor:
#      x y z
#    x 1.969020 0.000000 0.000000 
#    y 0.000000 1.923910 0.000000 
#    z 0.000000 0.000000 1.926360 
# 
# From -- ./inp_files/9224.got.cif
#   From: 2010.03.12/outbox.cif.g09.slc.cpg/sg24_5_cif.got.tgz:9224.got - 2010.04.14 03:06:53.
