data_PCOD8165768
_publ_section_title
;
Structure prediction by ZEFSAII (Michael W. Deem and Ramdas Pophale) SiO2 
 PCOD8165768
Probable space group: I 21 21 21
;
_chemical_formula_sum "Si O2"
_cell_formula_units_Z 44
_cell_length_a 28.968671
_cell_length_b 9.825786
_cell_length_c 7.637559
_cell_angle_alpha 90.000000
_cell_angle_beta 90.000000
_cell_angle_gamma 90.000000
_cell_volume 2173.954503
_symmetry_space_group_name_H-M "I 21 21 21"
_symmetry_group_IT_number 24
_symmetry_cell_setting 'orthorhombic'
loop_
_space_group_symop_operation_xyz
x,y,z
-x,1/2-y,z
x,-y,1/2-z
1/2-x,y,-z
1/2+x,1/2+y,1/2+z
1/2-x,-y,1/2+z
1/2+x,1/2-y,-z
-x,1/2+y,1/2-z
loop_
_atom_site_type_symbol
_atom_site_label
_atom_site_fract_x
_atom_site_fract_y
_atom_site_fract_z
Si Si1 0.619064 0.606950 0.052683
Si Si2 0.192122 0.500000 0.250000
Si Si3 0.012811 0.909415 0.907038
Si Si4 0.381159 0.700772 0.741406
Si Si5 0.537409 0.000000 0.750000
Si Si6 0.250000 0.313097 0.000000
Si Si7 0.159133 0.818630 0.602472
O O1 0.567334 0.568527 0.102118
O O2 0.652110 0.476038 0.052755
O O3 0.638597 0.709960 0.202978
O O4 0.618296 0.664333 0.856999
O O5 0.156381 0.605419 0.158483
O O6 0.224362 0.584715 0.374022
O O7 0.000000 0.750000 0.889500
O O8 0.991033 0.000000 0.750000
O O9 0.994768 0.977860 0.083790
O O10 0.431595 0.634946 0.733249
O O11 0.366838 0.727004 0.541105
O O12 0.213670 0.216757 0.898570
#
# Coordination Sequence:
#
# PCOD8165768 Si02
#       7
#     8   4   8   8   4   4   8
#     4  11  23  43  64  93 130 174 214 268 344 385
#     4   9  22  40  64  94 124 164 210 270 326 393
#     4  12  27  44  67 102 135 182 235 280 339 410
#     4  10  22  43  63  96 130 170 214 269 338 389
#     4  11  26  40  70  98 132 176 230 274 332 401
#     4  10  22  44  64  96 124 166 224 270 338 398
#     4  10  23  43  65  93 131 167 215 277 330 408
#
# _framework density 20.239612999999999
#
# number of rings (size 3 to 8) (size 9 to 14) (size 15 to 20)
#    0.000    1.455    3.636    0.545    7.636    0.727 
#   13.091    0.000    0.000    0.000    0.000    0.000 
#    0.000    0.000    0.000    0.000    0.000    0.000 
#
# Total GULP energy -272667.924226 kJ/mol
# GULP energy per Si atom -12393.996556 kJ/mol
# Density = 2.019355 g / cm^3
# Si number density = 20.239613 Si / 1000 Ang^3
#
#
#
# Elastic Constant Matrix: (Units=GPa)
#
#
# Indices 1 2 3 4 5 6 
#
# 1 135.1668 42.0512 54.9419 0.0000 0.0000 0.0000
# 2 42.0512 101.7793 43.0472 0.0000 0.0000 0.0000
# 3 54.9419 43.0472 114.2256 -0.0002 -0.0001 0.0000
# 4 0.0000 0.0000 -0.0002 29.0594 0.0000 0.0000
# 5 0.0000 0.0000 -0.0001 0.0000 23.1340 0.0000
# 6 0.0000 0.0000 0.0000 0.0000 0.0000 43.1362
#
#
#
# Elastic Compliance Matrix: (Units=1/GPa)
#
#
# Indices 1 2 3 4 5 6 
#
# 1 0.009670 -0.002413 -0.003742 0.000000 0.000000 0.000000
# 2 -0.002413 0.012290 -0.003471 0.000000 0.000000 0.000000
# 3 -0.003742 -0.003471 0.011863 0.000000 0.000000 0.000000
# 4 0.000000 0.000000 0.000000 0.034412 0.000000 0.000000
# 5 0.000000 0.000000 0.000000 0.000000 0.043226 0.000000
# 6 0.000000 0.000000 0.000000 0.000000 0.000000 0.023182
#
#
# Mechanical properties :
#
#
# Convention : Reuss Voigt Hill
#
# Bulk Modulus (GPa) = 68.62897 70.13913 69.38405
# Shear Modulus (GPa) = 31.49564 33.14135 32.31849
#
# Velocity S-wave (km/s) = 3.94907 4.05093 4.00033
# Velocity P-wave (km/s) = 7.40104 7.52394 7.46274
#
# Compressibility (1/GPa) = 0.01457111
#
# Stress axis : x y z
#
# Youngs Moduli (GPa) = 103.41443 81.36630 84.29832
#
# Poissons Ratio (x) = 0.19630 0.31544
# Poissons Ratio (y) = 0.24949 0.29262
# Poissons Ratio (z) = 0.38697 0.28244
#
# Static dielectric constant tensor:
#      x y z
#    x 4.056050 0.000000 0.000000 
#    y 0.000000 3.822510 0.000000 
#    z 0.000000 0.000000 3.757540 
# 
# 
# High freq. dielectric constant tensor:
#      x y z
#    x 1.800380 0.000000 0.000000 
#    y 0.000000 1.794730 0.000000 
#    z 0.000000 0.000000 1.790950 
# 
# From -- ./inp_files/16764.got.cif
#   From: 2010.03.12/outbox.cif.g09.slc.cpg/sg24_9_cif.got.tgz:16764.got - 2010.04.14 03:06:53.
