data_PCOD8165786
_publ_section_title
;
Structure prediction by ZEFSAII (Michael W. Deem and Ramdas Pophale) SiO2 
 PCOD8165786
Probable space group: I 21 21 21
;
_chemical_formula_sum "Si O2"
_cell_formula_units_Z 40
_cell_length_a 14.166250
_cell_length_b 9.033659
_cell_length_c 15.197777
_cell_angle_alpha 90.000000
_cell_angle_beta 90.000000
_cell_angle_gamma 90.000000
_cell_volume 1944.906207
_symmetry_space_group_name_H-M "I 21 21 21"
_symmetry_group_IT_number 24
_symmetry_cell_setting 'orthorhombic'
loop_
_space_group_symop_operation_xyz
x,y,z
-x,1/2-y,z
x,-y,1/2-z
1/2-x,y,-z
1/2+x,1/2+y,1/2+z
1/2-x,-y,1/2+z
1/2+x,1/2-y,-z
-x,1/2+y,1/2-z
loop_
_atom_site_type_symbol
_atom_site_label
_atom_site_fract_x
_atom_site_fract_y
_atom_site_fract_z
Si Si1 0.190380 0.197911 0.343574
Si Si2 0.804967 0.144482 0.788536
Si Si3 0.458849 0.000000 0.750000
Si Si4 0.250000 0.987003 0.500000
Si Si5 0.891359 0.767220 0.534079
Si Si6 0.125459 0.517527 0.379689
O O1 0.284055 0.233316 0.286009
O O2 0.108265 0.133597 0.280987
O O3 0.147170 0.343213 0.390749
O O4 0.230138 0.085117 0.415060
O O5 0.869711 0.208122 0.864193
O O6 0.701132 0.095750 0.818360
O O7 0.858462 0.000000 0.750000
O O8 0.523894 0.046949 0.833493
O O9 0.158486 0.883898 0.506106
O O10 0.862068 0.908417 0.475508
O O11 0.000000 0.750000 0.519352
#
# Coordination Sequence:
#
# PCOD8165786 Si02
#       6
#     8   8   4   4   8   8
#     4  11  25  40  71 101 141 179 224 284 353 422
#     4  10  22  44  67  91 127 190 223 273 335 411
#     4  12  22  38  68 114 136 166 232 290 356 406
#     4  12  26  44  70 104 142 178 220 304 350 410
#     4  12  26  45  69 100 136 184 234 281 348 422
#     4  11  23  40  71  95 141 178 218 284 355 413
#
# _framework density 20.566542999999999
#
# number of rings (size 3 to 8) (size 9 to 14) (size 15 to 20)
#    0.000    0.800    5.000    3.000    8.400    0.000 
#    3.600    0.000    0.000    0.000    0.000    0.000 
#    0.000    0.000    0.000    0.000    0.000    0.000 
#
# Total GULP energy -247977.917654 kJ/mol
# GULP energy per Si atom -12398.895883 kJ/mol
# Density = 2.051973 g / cm^3
# Si number density = 20.566543 Si / 1000 Ang^3
#
#
#
# Elastic Constant Matrix: (Units=GPa)
#
#
# Indices 1 2 3 4 5 6 
#
# 1 67.3725 42.5139 25.3920 0.0000 0.0000 0.0000
# 2 42.5139 145.6781 71.8692 0.0000 0.0000 0.0000
# 3 25.3920 71.8692 124.0472 0.0000 0.0000 0.0000
# 4 0.0000 0.0000 0.0000 51.1988 0.0000 0.0000
# 5 0.0000 0.0000 0.0000 0.0000 24.5394 0.0000
# 6 0.0000 0.0000 0.0000 0.0000 0.0000 13.0614
#
#
#
# Elastic Compliance Matrix: (Units=1/GPa)
#
#
# Indices 1 2 3 4 5 6 
#
# 1 0.018266 -0.004881 -0.000911 0.000000 0.000000 0.000000
# 2 -0.004881 0.010916 -0.005325 0.000000 0.000000 0.000000
# 3 -0.000911 -0.005325 0.011333 0.000000 0.000000 0.000000
# 4 0.000000 0.000000 0.000000 0.019532 0.000000 0.000000
# 5 0.000000 0.000000 0.000000 0.000000 0.040751 0.000000
# 6 0.000000 0.000000 0.000000 0.000000 0.000000 0.076562
#
#
# Mechanical properties :
#
#
# Convention : Reuss Voigt Hill
#
# Bulk Modulus (GPa) = 54.70276 68.51646 61.60961
# Shear Modulus (GPa) = 24.30856 30.91477 27.61167
#
# Velocity S-wave (km/s) = 3.44168 3.88126 3.66806
# Velocity P-wave (km/s) = 6.51530 7.31249 6.92538
#
# Compressibility (1/GPa) = 0.01828061
#
# Stress axis : x y z
#
# Youngs Moduli (GPa) = 54.74515 91.60678 88.23594
#
# Poissons Ratio (x) = 0.44717 0.08038
# Poissons Ratio (y) = 0.26723 0.46989
# Poissons Ratio (z) = 0.04987 0.48784
#
# Static dielectric constant tensor:
#      x y z
#    x 3.550930 0.000000 0.000000 
#    y 0.000000 3.201850 0.000000 
#    z 0.000000 0.000000 4.597240 
# 
# 
# High freq. dielectric constant tensor:
#      x y z
#    x 1.787360 0.000000 0.000000 
#    y 0.000000 1.817790 0.000000 
#    z 0.000000 0.000000 1.811800 
# 
# From -- ./inp_files/12359.got.cif
#   From: 2010.03.12/outbox.cif.g09.slc.cpg/sg24_7_cif.got.tgz:12359.got - 2010.04.14 03:06:53.
