data_PCOD8165024
_publ_section_title
;
Structure prediction by ZEFSAII (Michael W. Deem and Ramdas Pophale) SiO2 
 PCOD8165024
Probable space group: I 21 21 21
;
_chemical_formula_sum "Si O2"
_cell_formula_units_Z 40
_cell_length_a 7.832256
_cell_length_b 8.045556
_cell_length_c 27.325014
_cell_angle_alpha 90.000000
_cell_angle_beta 90.000000
_cell_angle_gamma 90.000000
_cell_volume 1721.881775
_symmetry_space_group_name_H-M "I 21 21 21"
_symmetry_group_IT_number 24
_symmetry_cell_setting 'orthorhombic'
loop_
_space_group_symop_operation_xyz
x,y,z
-x,1/2-y,z
x,-y,1/2-z
1/2-x,y,-z
1/2+x,1/2+y,1/2+z
1/2-x,-y,1/2+z
1/2+x,1/2-y,-z
-x,1/2+y,1/2-z
loop_
_atom_site_type_symbol
_atom_site_label
_atom_site_fract_x
_atom_site_fract_y
_atom_site_fract_z
Si Si1 0.516105 0.053902 0.194882
Si Si2 0.173206 0.559499 0.369171
Si Si3 0.205248 0.053284 0.133210
Si Si4 0.138449 0.127001 0.541650
Si Si5 0.910352 0.089087 0.028573
O O1 0.500000 0.250000 0.192859
O O2 0.676772 0.979514 0.163666
O O3 0.340856 0.980656 0.172338
O O4 0.542539 0.000000 0.250000
O O5 0.228613 0.751139 0.374326
O O6 0.157242 0.481220 0.424324
O O7 0.986287 0.523109 0.345649
O O8 0.239835 0.959273 0.081685
O O9 0.250000 0.226316 0.500000
O O10 0.000000 0.250000 0.566414
O O11 0.039423 0.992122 0.509375
O O12 0.000000 0.250000 0.053274
O O13 0.750000 0.157778 0.000000
#
# Coordination Sequence:
#
# PCOD8165024 Si02
#       5
#     8   8   8   8   8
#     4  10  23  41  66  93 123 157 207 270 335 393
#     4  10  19  38  66  94 118 160 222 274 311 366
#     4  10  20  40  64  92 126 163 216 273 313 369
#     4  12  24  40  58  92 139 179 209 256 327 392
#     4  12  21  35  62  93 125 169 224 271 313 366
#
# _framework density 23.230398000000001
#
# number of rings (size 3 to 8) (size 9 to 14) (size 15 to 20)
#    0.000    1.200    4.000    3.600    0.000    3.200 
#    0.000    0.000    0.000    0.000    0.000    0.000 
#    0.000    0.000    0.000    0.000    0.000    0.000 
#
# Total GULP energy -247782.629533 kJ/mol
# GULP energy per Si atom -12389.131477 kJ/mol
# Density = 2.317752 g / cm^3
# Si number density = 23.230398 Si / 1000 Ang^3
#
#
#
# Elastic Constant Matrix: (Units=GPa)
#
#
# Indices 1 2 3 4 5 6 
#
# 1 186.6710 15.5118 84.0138 0.0000 0.0000 0.0000
# 2 15.5118 20.1091 6.4920 0.0000 0.0000 0.0000
# 3 84.0138 6.4920 142.2972 0.0000 0.0000 0.0000
# 4 0.0000 0.0000 0.0000 25.5615 0.0000 0.0000
# 5 0.0000 0.0000 0.0000 0.0000 43.8116 0.0000
# 6 0.0000 0.0000 0.0000 0.0000 0.0000 15.7909
#
#
#
# Elastic Compliance Matrix: (Units=1/GPa)
#
#
# Indices 1 2 3 4 5 6 
#
# 1 0.007681 -0.004528 -0.004329 0.000000 0.000000 0.000000
# 2 -0.004528 0.053141 0.000249 0.000000 0.000000 0.000000
# 3 -0.004329 0.000249 0.009572 0.000000 0.000000 0.000000
# 4 0.000000 0.000000 0.000000 0.039121 0.000000 0.000000
# 5 0.000000 0.000000 0.000000 0.000000 0.022825 0.000000
# 6 0.000000 0.000000 0.000000 0.000000 0.000000 0.063328
#
#
# Mechanical properties :
#
#
# Convention : Reuss Voigt Hill
#
# Bulk Modulus (GPa) = 18.80441 62.34584 40.57513
# Shear Modulus (GPa) = 21.68164 33.23678 27.45921
#
# Velocity S-wave (km/s) = 3.05836 3.78662 3.44181
# Velocity P-wave (km/s) = 4.53693 6.78339 5.77053
#
# Compressibility (1/GPa) = 0.05317901
#
# Stress axis : x y z
#
# Youngs Moduli (GPa) = 130.18416 18.81787 104.47293
#
# Poissons Ratio (x) = 0.08520 0.45222
# Poissons Ratio (y) = 0.58945 -0.02600
# Poissons Ratio (z) = 0.56352 -0.00468
#
# Static dielectric constant tensor:
#      x y z
#    x 5.082980 0.000000 0.000000 
#    y 0.000000 3.811440 0.000000 
#    z 0.000000 0.000000 4.591920 
# 
# 
# High freq. dielectric constant tensor:
#      x y z
#    x 1.952120 0.000000 0.000000 
#    y 0.000000 1.880340 0.000000 
#    z 0.000000 0.000000 1.901460 
# 
# From -- ./inp_files/35005.got.cif
#   From: 2010.03.12/outbox.cif.g09.slc.cpg/sg24_18_cif.got.tgz:35005.got - 2010.04.14 03:06:53.
