data_PCOD8165188
_publ_section_title
;
Structure prediction by ZEFSAII (Michael W. Deem and Ramdas Pophale) SiO2 
 PCOD8165188
Probable space group: I 21 21 21
;
_chemical_formula_sum "Si O2"
_cell_formula_units_Z 64
_cell_length_a 8.698525
_cell_length_b 21.165567
_cell_length_c 18.015523
_cell_angle_alpha 90.000000
_cell_angle_beta 90.000000
_cell_angle_gamma 90.000000
_cell_volume 3316.823774
_symmetry_space_group_name_H-M "I 21 21 21"
_symmetry_group_IT_number 24
_symmetry_cell_setting 'orthorhombic'
loop_
_space_group_symop_operation_xyz
x,y,z
-x,1/2-y,z
x,-y,1/2-z
1/2-x,y,-z
1/2+x,1/2+y,1/2+z
1/2-x,-y,1/2+z
1/2+x,1/2-y,-z
-x,1/2+y,1/2-z
loop_
_atom_site_type_symbol
_atom_site_label
_atom_site_fract_x
_atom_site_fract_y
_atom_site_fract_z
Si Si1 0.398715 0.187469 0.447894
Si Si2 0.323221 0.988003 0.920176
Si Si3 0.318185 0.754209 0.419858
Si Si4 0.251098 0.120652 0.318721
Si Si5 0.564672 0.183863 0.654882
Si Si6 0.606288 0.809625 0.684410
Si Si7 0.187200 0.878398 0.346332
Si Si8 0.903086 0.091114 0.464301
O O1 0.500000 0.250000 0.448090
O O2 0.250000 0.197417 0.500000
O O3 0.352057 0.173180 0.362226
O O4 0.489559 0.126515 0.476761
O O5 0.230644 0.946523 0.859724
O O6 0.501797 0.965568 0.925577
O O7 0.303104 0.059504 0.895544
O O8 0.250000 0.977880 0.000000
O O9 0.500000 0.750000 0.422334
O O10 0.250000 0.740920 0.500000
O O11 0.255992 0.697205 0.367174
O O12 0.265805 0.822612 0.392121
O O13 0.284957 0.115457 0.230668
O O14 0.075385 0.139865 0.323350
O O15 0.500000 0.250000 0.622132
O O16 0.664512 0.193060 0.729801
O O17 0.658764 0.145409 0.593040
O O18 0.500000 0.750000 0.668478
O O19 0.496855 0.869163 0.666554
O O20 0.750000 0.061147 0.500000
#
# Coordination Sequence:
#
# PCOD8165188 Si02
#       8
#     8   8   8   8   8   8   8   8
#     4  12  22  37  58  90 127 171 212 251 314 378
#     4  11  20  40  60  82 120 158 210 255 300 372
#     4  11  22  40  62  90 123 148 193 259 318 375
#     4  10  20  37  56  87 120 154 204 261 293 366
#     4   9  17  32  56  78 117 156 197 238 300 372
#     4   8  17  36  58  86 116 147 192 249 301 368
#     4  10  21  37  65  90 109 163 205 243 325 377
#     4  11  22  36  55  86 122 164 207 261 305 353
#
# _framework density 19.295569
#
# number of rings (size 3 to 8) (size 9 to 14) (size 15 to 20)
#    0.000    1.750    3.750    3.375    1.750    0.500 
#    2.250    3.125    0.000    0.000    6.500    0.000 
#    0.000    0.000    0.000    0.000    0.000    0.000 
#
# Total GULP energy -396577.546955 kJ/mol
# GULP energy per Si atom -12393.048342 kJ/mol
# Density = 1.925165 g / cm^3
# Si number density = 19.295569 Si / 1000 Ang^3
#
#
#
# Elastic Constant Matrix: (Units=GPa)
#
#
# Indices 1 2 3 4 5 6 
#
# 1 95.3133 24.0548 44.5880 0.0000 0.0000 0.0000
# 2 24.0548 81.5937 29.7615 0.0000 0.0000 0.0000
# 3 44.5880 29.7615 120.5017 0.0001 0.0000 0.0000
# 4 0.0000 0.0000 0.0001 28.8084 0.0000 0.0000
# 5 0.0000 0.0000 0.0000 0.0000 26.3137 0.0000
# 6 0.0000 0.0000 0.0000 0.0000 0.0000 22.1724
#
#
#
# Elastic Compliance Matrix: (Units=1/GPa)
#
#
# Indices 1 2 3 4 5 6 
#
# 1 0.013068 -0.002296 -0.004268 0.000000 0.000000 0.000000
# 2 -0.002296 0.013873 -0.002577 0.000000 0.000000 0.000000
# 3 -0.004268 -0.002577 0.010514 0.000000 0.000000 0.000000
# 4 0.000000 0.000000 0.000000 0.034712 0.000000 0.000000
# 5 0.000000 0.000000 0.000000 0.000000 0.038003 0.000000
# 6 0.000000 0.000000 0.000000 0.000000 0.000000 0.045101
#
#
# Mechanical properties :
#
#
# Convention : Reuss Voigt Hill
#
# Bulk Modulus (GPa) = 52.15626 54.91303 53.53465
# Shear Modulus (GPa) = 27.78646 28.72586 28.25616
#
# Velocity S-wave (km/s) = 3.79891 3.86259 3.83088
# Velocity P-wave (km/s) = 6.80670 6.95798 6.88275
#
# Compressibility (1/GPa) = 0.01917315
#
# Stress axis : x y z
#
# Youngs Moduli (GPa) = 76.52364 72.08490 95.10721
#
# Poissons Ratio (x) = 0.16548 0.40595
# Poissons Ratio (y) = 0.17567 0.24507
# Poissons Ratio (z) = 0.32663 0.18575
#
# Static dielectric constant tensor:
#      x y z
#    x 3.436310 0.000000 0.000000 
#    y 0.000000 3.494360 0.000000 
#    z 0.000000 0.000000 4.058890 
# 
# 
# High freq. dielectric constant tensor:
#      x y z
#    x 1.721740 0.000000 0.000000 
#    y 0.000000 1.736220 0.000000 
#    z 0.000000 0.000000 1.766430 
# 
# From -- ./inp_files/29836.got.cif
#   From: 2010.03.12/outbox.cif.g09.slc.cpg/sg24_15_cif.got.tgz:29836.got - 2010.04.14 03:06:53.
