data_PCOD8165518
_publ_section_title
;
Structure prediction by ZEFSAII (Michael W. Deem and Ramdas Pophale) SiO2 
 PCOD8165518
Probable space group: I 21 21 21
;
_chemical_formula_sum "Si O2"
_cell_formula_units_Z 48
_cell_length_a 29.182054
_cell_length_b 9.096788
_cell_length_c 8.758246
_cell_angle_alpha 90.000000
_cell_angle_beta 90.000000
_cell_angle_gamma 90.000000
_cell_volume 2324.989896
_symmetry_space_group_name_H-M "I 21 21 21"
_symmetry_group_IT_number 24
_symmetry_cell_setting 'orthorhombic'
loop_
_space_group_symop_operation_xyz
x,y,z
-x,1/2-y,z
x,-y,1/2-z
1/2-x,y,-z
1/2+x,1/2+y,1/2+z
1/2-x,-y,1/2+z
1/2+x,1/2-y,-z
-x,1/2+y,1/2-z
loop_
_atom_site_type_symbol
_atom_site_label
_atom_site_fract_x
_atom_site_fract_y
_atom_site_fract_z
Si Si1 0.543106 0.658991 0.065721
Si Si2 0.719831 0.868648 0.638737
Si Si3 0.377591 0.350506 0.927489
Si Si4 0.717775 0.637071 0.857412
Si Si5 0.624947 0.814137 0.912814
Si Si6 0.544259 0.331255 0.074071
O O1 0.500000 0.750000 0.997292
O O2 0.543957 0.493247 0.999734
O O3 0.539389 0.655785 0.246296
O O4 0.590767 0.729937 0.021848
O O5 0.750000 0.929335 0.500000
O O6 0.674642 0.789707 0.569316
O O7 0.745803 0.749015 0.745021
O O8 0.703068 0.000000 0.750000
O O9 0.372374 0.520423 0.979326
O O10 0.396528 0.325909 0.756497
O O11 0.409441 0.258785 0.040609
O O12 0.704104 0.500000 0.750000
O O13 0.672973 0.725151 0.916681
O O14 0.750000 0.591021 0.000000
O O15 0.500000 0.250000 0.004210
#
# Coordination Sequence:
#
# PCOD8165518 Si02
#       6
#     8   8   8   8   8   8
#     4  10  22  40  62  92 124 163 207 258 318 382
#     4  11  22  41  66  93 130 171 219 271 320 387
#     4  10  21  40  61  90 122 162 209 258 317 376
#     4  11  24  43  63  93 130 174 219 274 331 392
#     4  10  22  39  62  87 124 162 207 259 315 384
#     4  10  22  40  63  90 126 161 207 262 315 380
#
# _framework density 20.645249
#
# number of rings (size 3 to 8) (size 9 to 14) (size 15 to 20)
#    0.000    1.667    3.333    2.000    4.667    4.000 
#    3.000    0.000    0.000    0.000    0.000    0.000 
#    0.000    0.000    0.000    0.000    0.000    0.000 
#
# Total GULP energy -297431.487497 kJ/mol
# GULP energy per Si atom -12392.978646 kJ/mol
# Density = 2.059826 g / cm^3
# Si number density = 20.645249 Si / 1000 Ang^3
#
#
#
# Elastic Constant Matrix: (Units=GPa)
#
#
# Indices 1 2 3 4 5 6 
#
# 1 111.6720 51.9849 39.2310 0.0000 0.0000 0.0000
# 2 51.9849 142.4721 31.1918 0.0000 0.0000 0.0000
# 3 39.2310 31.1918 41.1056 0.0000 0.0000 0.0000
# 4 0.0000 0.0000 0.0000 34.1257 0.0000 0.0000
# 5 0.0000 0.0000 0.0000 0.0000 36.6341 0.0000
# 6 0.0000 0.0000 0.0000 0.0000 0.0000 32.9736
#
#
#
# Elastic Compliance Matrix: (Units=1/GPa)
#
#
# Indices 1 2 3 4 5 6 
#
# 1 0.014270 -0.002668 -0.011595 0.000000 0.000000 0.000000
# 2 -0.002668 0.008916 -0.004219 0.000000 0.000000 0.000000
# 3 -0.011595 -0.004219 0.038595 0.000000 0.000000 0.000000
# 4 0.000000 0.000000 0.000000 0.029303 0.000000 0.000000
# 5 0.000000 0.000000 0.000000 0.000000 0.027297 0.000000
# 6 0.000000 0.000000 0.000000 0.000000 0.000000 0.030327
#
#
# Mechanical properties :
#
#
# Convention : Reuss Voigt Hill
#
# Bulk Modulus (GPa) = 40.29467 60.00724 50.15095
# Shear Modulus (GPa) = 25.78040 32.26947 29.02494
#
# Velocity S-wave (km/s) = 3.53758 3.95783 3.75359
# Velocity P-wave (km/s) = 6.02046 7.07212 6.56737
#
# Compressibility (1/GPa) = 0.02481718
#
# Stress axis : x y z
#
# Youngs Moduli (GPa) = 70.07591 112.15441 25.91017
#
# Poissons Ratio (x) = 0.29928 0.30042
# Poissons Ratio (y) = 0.18700 0.10932
# Poissons Ratio (z) = 0.81250 0.47319
#
# Static dielectric constant tensor:
#      x y z
#    x 3.533470 0.000000 0.000000 
#    y 0.000000 4.061620 0.000000 
#    z 0.000000 0.000000 3.582010 
# 
# 
# High freq. dielectric constant tensor:
#      x y z
#    x 1.799000 0.000000 0.000000 
#    y 0.000000 1.823480 0.000000 
#    z 0.000000 0.000000 1.790280 
# 
# From -- ./inp_files/16811.got.cif
#   From: 2010.03.12/outbox.cif.g09.slc.cpg/sg24_9_cif.got.tgz:16811.got - 2010.04.14 03:06:53.
