data_PCOD8165032
_publ_section_title
;
Structure prediction by ZEFSAII (Michael W. Deem and Ramdas Pophale) SiO2 
 PCOD8165032
Probable space group: I 21 21 21
;
_chemical_formula_sum "Si O2"
_cell_formula_units_Z 44
_cell_length_a 14.781508
_cell_length_b 15.206956
_cell_length_c 9.650430
_cell_angle_alpha 90.000000
_cell_angle_beta 90.000000
_cell_angle_gamma 90.000000
_cell_volume 2169.240464
_symmetry_space_group_name_H-M "I 21 21 21"
_symmetry_group_IT_number 24
_symmetry_cell_setting 'orthorhombic'
loop_
_space_group_symop_operation_xyz
x,y,z
-x,1/2-y,z
x,-y,1/2-z
1/2-x,y,-z
1/2+x,1/2+y,1/2+z
1/2-x,-y,1/2+z
1/2+x,1/2-y,-z
-x,1/2+y,1/2-z
loop_
_atom_site_type_symbol
_atom_site_label
_atom_site_fract_x
_atom_site_fract_y
_atom_site_fract_z
Si Si1 0.028048 0.898487 0.260394
Si Si2 0.206769 0.405151 0.791111
Si Si3 0.627607 0.153162 0.938640
Si Si4 0.212348 0.161641 0.141279
Si Si5 0.500000 0.250000 0.535841
Si Si6 0.815060 0.742876 0.879396
O O1 0.135832 0.897372 0.285678
O O2 0.975789 0.858964 0.393301
O O3 0.996860 0.838767 0.129208
O O4 0.998432 0.000000 0.250000
O O5 0.169630 0.500000 0.750000
O O6 0.306371 0.415399 0.858967
O O7 0.210390 0.343300 0.656720
O O8 0.134806 0.361731 0.897333
O O9 0.663774 0.248449 0.899676
O O10 0.295518 0.179359 0.247146
O O11 0.250000 0.116394 0.000000
O O12 0.416841 0.239360 0.432023
O O13 0.750000 0.709204 0.000000
#
# Coordination Sequence:
#
# PCOD8165032 Si02
#       6
#     8   8   8   8   4   8
#     4  12  25  42  68  95 128 175 222 271 329 396
#     4  10  21  33  56  96 130 164 209 274 333 393
#     4  10  19  39  62  88 129 170 216 260 336 397
#     4  11  21  46  66  91 126 178 219 265 324 392
#     4  12  24  42  68  98 128 170 214 280 332 382
#     4  11  22  39  66  90 130 169 215 267 334 383
#
# _framework density 20.283598000000001
#
# number of rings (size 3 to 8) (size 9 to 14) (size 15 to 20)
#    0.000    1.091    7.273    1.636    5.091    1.455 
#    3.273    0.000    0.000    0.000    0.000    0.000 
#    0.000    0.000    0.000    0.000    0.000    0.000 
#
# Total GULP energy -272736.293884 kJ/mol
# GULP energy per Si atom -12397.104267 kJ/mol
# Density = 2.023743 g / cm^3
# Si number density = 20.283598 Si / 1000 Ang^3
#
#
#
# Elastic Constant Matrix: (Units=GPa)
#
#
# Indices 1 2 3 4 5 6 
#
# 1 117.9393 0.3840 40.1889 0.0000 0.0000 0.0000
# 2 0.3840 57.6802 16.8857 0.0000 0.0000 0.0000
# 3 40.1889 16.8857 104.6843 0.0000 0.0000 0.0000
# 4 0.0000 0.0000 0.0000 2.1513 0.0000 0.0000
# 5 0.0000 0.0000 0.0000 0.0000 43.2018 0.0000
# 6 0.0000 0.0000 0.0000 0.0000 0.0000 19.7020
#
#
#
# Elastic Compliance Matrix: (Units=1/GPa)
#
#
# Indices 1 2 3 4 5 6 
#
# 1 0.009820 0.001090 -0.003946 0.000000 0.000000 0.000000
# 2 0.001090 0.018317 -0.003373 0.000000 0.000000 0.000000
# 3 -0.003946 -0.003373 0.011611 0.000000 0.000000 0.000000
# 4 0.000000 0.000000 0.000000 0.464827 0.000000 0.000000
# 5 0.000000 0.000000 0.000000 0.000000 0.023147 0.000000
# 6 0.000000 0.000000 0.000000 0.000000 0.000000 0.050756
#
#
# Mechanical properties :
#
#
# Convention : Reuss Voigt Hill
#
# Bulk Modulus (GPa) = 36.64266 43.91345 40.27806
# Shear Modulus (GPa) = 8.33287 27.86737 18.10012
#
# Velocity S-wave (km/s) = 2.02906 3.71062 2.99047
# Velocity P-wave (km/s) = 4.85735 6.32890 5.64131
#
# Compressibility (1/GPa) = 0.02729059
#
# Stress axis : x y z
#
# Youngs Moduli (GPa) = 101.83377 54.59371 86.12247
#
# Poissons Ratio (x) = -0.05949 0.33981
# Poissons Ratio (y) = -0.11097 0.29049
# Poissons Ratio (z) = 0.40181 0.18414
#
# Static dielectric constant tensor:
#      x y z
#    x 4.356640 0.000000 0.000000 
#    y 0.000000 3.455300 0.000000 
#    z 0.000000 0.000000 4.008640 
# 
# 
# High freq. dielectric constant tensor:
#      x y z
#    x 1.784940 0.000000 0.000000 
#    y 0.000000 1.767050 0.000000 
#    z 0.000000 0.000000 1.799040 
# 
# From -- ./inp_files/12664.got.cif
#   From: 2010.03.12/outbox.cif.g09.slc.cpg/sg24_7_cif.got.tgz:12664.got - 2010.04.14 03:06:53.
