data_PCOD8165701
_publ_section_title
;
Structure prediction by ZEFSAII (Michael W. Deem and Ramdas Pophale) SiO2 
 PCOD8165701
Probable space group: I 21 21 21
;
_chemical_formula_sum "Si O2"
_cell_formula_units_Z 40
_cell_length_a 11.908960
_cell_length_b 5.032081
_cell_length_c 30.297561
_cell_angle_alpha 90.000000
_cell_angle_beta 90.000000
_cell_angle_gamma 90.000000
_cell_volume 1815.637434
_symmetry_space_group_name_H-M "I 21 21 21"
_symmetry_group_IT_number 24
_symmetry_cell_setting 'orthorhombic'
loop_
_space_group_symop_operation_xyz
x,y,z
-x,1/2-y,z
x,-y,1/2-z
1/2-x,y,-z
1/2+x,1/2+y,1/2+z
1/2-x,-y,1/2+z
1/2+x,1/2-y,-z
-x,1/2+y,1/2-z
loop_
_atom_site_type_symbol
_atom_site_label
_atom_site_fract_x
_atom_site_fract_y
_atom_site_fract_z
Si Si1 0.000000 0.750000 0.277754
Si Si2 0.232873 0.376731 0.176258
Si Si3 0.930098 0.496815 0.548786
Si Si4 0.924654 0.505693 0.453294
Si Si5 0.745088 0.617636 0.118909
Si Si6 0.917361 0.000000 0.750000
O O1 0.953289 0.500000 0.250000
O O2 0.106663 0.635147 0.304371
O O3 0.229328 0.587767 0.136343
O O4 0.332633 0.461815 0.209066
O O5 0.263492 0.083483 0.159715
O O6 0.867771 0.563766 0.501967
O O7 0.868150 0.384728 0.591339
O O8 0.000000 0.750000 0.565150
O O9 0.000000 0.250000 0.531813
O O10 0.833293 0.488145 0.415834
O O11 0.000000 0.250000 0.451338
O O12 0.000000 0.750000 0.439084
O O13 0.000000 0.750000 0.757632
#
# Coordination Sequence:
#
# PCOD8165701 Si02
#       6
#     4   8   8   8   8   4
#     4  12  26  50  78  96 148 176 228 286 350 450
#     4  12  28  45  72 108 128 185 221 286 357 413
#     4  10  22  41  65  91 134 187 231 274 329 396
#     4  10  22  40  62  95 135 182 225 273 337 395
#     4  12  25  41  67 102 138 167 232 279 344 395
#     4  12  28  52  74  98 140 178 228 284 346 428
#
# _framework density 22.030830000000002
#
# number of rings (size 3 to 8) (size 9 to 14) (size 15 to 20)
#    0.000    0.800    1.000    5.400    5.600    4.800 
#    0.000    8.000    0.000    0.000    0.000    0.000 
#    0.000    0.000    0.000    0.000    0.000    0.000 
#
# Total GULP energy -247813.548716 kJ/mol
# GULP energy per Si atom -12390.677436 kJ/mol
# Density = 2.198069 g / cm^3
# Si number density = 22.030830 Si / 1000 Ang^3
#
#
#
# Elastic Constant Matrix: (Units=GPa)
#
#
# Indices 1 2 3 4 5 6 
#
# 1 117.5405 34.5253 48.0843 0.0000 0.0000 0.0000
# 2 34.5253 132.5030 16.7453 0.0000 0.0000 0.0000
# 3 48.0843 16.7453 96.1558 0.0000 0.0000 0.0000
# 4 0.0000 0.0000 0.0000 47.4752 0.0000 0.0000
# 5 0.0000 0.0000 0.0000 0.0000 43.1429 0.0000
# 6 0.0000 0.0000 0.0000 0.0000 0.0000 34.6291
#
#
#
# Elastic Compliance Matrix: (Units=1/GPa)
#
#
# Indices 1 2 3 4 5 6 
#
# 1 0.011336 -0.002288 -0.005270 0.000000 0.000000 0.000000
# 2 -0.002288 0.008178 -0.000280 0.000000 0.000000 0.000000
# 3 -0.005270 -0.000280 0.013084 0.000000 0.000000 0.000000
# 4 0.000000 0.000000 0.000000 0.021064 0.000000 0.000000
# 5 0.000000 0.000000 0.000000 0.000000 0.023179 0.000000
# 6 0.000000 0.000000 0.000000 0.000000 0.000000 0.028877
#
#
# Mechanical properties :
#
#
# Convention : Reuss Voigt Hill
#
# Bulk Modulus (GPa) = 59.09481 60.54544 59.82013
# Shear Modulus (GPa) = 39.35930 41.50574 40.43252
#
# Velocity S-wave (km/s) = 4.23135 4.34520 4.28865
# Velocity P-wave (km/s) = 7.12421 7.26059 7.19272
#
# Compressibility (1/GPa) = 0.01692196
#
# Stress axis : x y z
#
# Youngs Moduli (GPa) = 88.21760 122.27195 76.42903
#
# Poissons Ratio (x) = 0.27971 0.40279
# Poissons Ratio (y) = 0.20181 0.02142
# Poissons Ratio (z) = 0.46492 0.03427
#
# Static dielectric constant tensor:
#      x y z
#    x 4.002480 0.000000 0.000000 
#    y 0.000000 4.081270 0.000000 
#    z 0.000000 0.000000 4.214640 
# 
# 
# High freq. dielectric constant tensor:
#      x y z
#    x 1.860540 0.000000 0.000000 
#    y 0.000000 1.888200 0.000000 
#    z 0.000000 0.000000 1.883710 
# 
# From -- ./inp_files/37065.got.cif
#   From: 2010.03.12/outbox.cif.g09.slc.cpg/sg24_19_cif.got.tgz:37065.got - 2010.04.14 03:06:53.
