data_PCOD8165941
_publ_section_title
;
Structure prediction by ZEFSAII (Michael W. Deem and Ramdas Pophale) SiO2 
 PCOD8165941
Probable space group: I 21 21 21
;
_chemical_formula_sum "Si O2"
_cell_formula_units_Z 48
_cell_length_a 9.634924
_cell_length_b 20.445106
_cell_length_c 10.893524
_cell_angle_alpha 90.000000
_cell_angle_beta 90.000000
_cell_angle_gamma 90.000000
_cell_volume 2145.883075
_symmetry_space_group_name_H-M "I 21 21 21"
_symmetry_group_IT_number 24
_symmetry_cell_setting 'orthorhombic'
loop_
_space_group_symop_operation_xyz
x,y,z
-x,1/2-y,z
x,-y,1/2-z
1/2-x,y,-z
1/2+x,1/2+y,1/2+z
1/2-x,-y,1/2+z
1/2+x,1/2-y,-z
-x,1/2+y,1/2-z
loop_
_atom_site_type_symbol
_atom_site_label
_atom_site_fract_x
_atom_site_fract_y
_atom_site_fract_z
Si Si1 0.250000 0.292781 0.000000
Si Si2 0.754962 0.113673 0.645728
Si Si3 0.778937 0.677639 0.336123
Si Si4 0.347978 0.244770 0.607104
Si Si5 0.574224 0.000000 0.750000
Si Si6 0.106440 0.951244 0.464376
Si Si7 0.526644 0.128806 0.157308
O O1 0.323902 0.244299 0.903776
O O2 0.137349 0.336777 0.931291
O O3 0.750000 0.095313 0.500000
O O4 0.697530 0.186345 0.666027
O O5 0.908740 0.112664 0.707875
O O6 0.666458 0.063831 0.727956
O O7 0.844514 0.684907 0.202219
O O8 0.849934 0.617856 0.404757
O O9 0.611574 0.672276 0.325214
O O10 0.500000 0.250000 0.550017
O O11 0.250000 0.222042 0.500000
O O12 0.479250 0.994095 0.630205
O O13 0.250000 0.988669 0.500000
O O14 0.015900 0.938456 0.587093
#
# Coordination Sequence:
#
# PCOD8165941 Si02
#       7
#     4   8   8   8   4   8   8
#     4  12  20  32  68 104 142 176 210 266 342 410
#     4  11  27  44  68  98 132 180 231 278 337 414
#     4  11  23  39  69 104 140 173 227 278 350 416
#     4  11  26  42  66  99 143 181 221 276 350 420
#     4  12  26  50  66  94 134 170 246 288 342 388
#     4  10  24  46  69 100 130 176 232 286 345 409
#     4  11  23  42  68 103 140 178 218 281 347 416
#
# _framework density 22.368413
#
# number of rings (size 3 to 8) (size 9 to 14) (size 15 to 20)
#    0.000    1.000    4.167    2.500    9.333    0.000 
#    6.000    0.833    0.000    0.000    0.000    0.000 
#    0.000    0.000    0.000    0.000    0.000    0.000 
#
# Total GULP energy -297507.495842 kJ/mol
# GULP energy per Si atom -12396.145660 kJ/mol
# Density = 2.231750 g / cm^3
# Si number density = 22.368413 Si / 1000 Ang^3
#
#
#
# Elastic Constant Matrix: (Units=GPa)
#
#
# Indices 1 2 3 4 5 6 
#
# 1 100.8947 -1.8557 47.8734 -0.0002 -0.0001 0.0000
# 2 -1.8557 22.8571 8.6002 0.0003 -0.0001 0.0000
# 3 47.8734 8.6002 132.6763 0.0012 0.0002 0.0000
# 4 -0.0002 0.0003 0.0012 29.0112 0.0000 0.0001
# 5 -0.0001 -0.0001 0.0002 0.0000 50.7929 0.0000
# 6 0.0000 0.0000 0.0000 0.0001 0.0000 13.9319
#
#
#
# Elastic Compliance Matrix: (Units=1/GPa)
#
#
# Indices 1 2 3 4 5 6 
#
# 1 0.012119 0.002695 -0.004547 0.000000 0.000000 0.000000
# 2 0.002695 0.045443 -0.003918 0.000000 0.000000 0.000000
# 3 -0.004547 -0.003918 0.009432 0.000000 0.000000 0.000000
# 4 0.000000 0.000000 0.000000 0.034469 0.000000 0.000000
# 5 0.000000 0.000000 0.000000 0.000000 0.019688 0.000000
# 6 0.000000 0.000000 0.000000 0.000000 0.000000 0.071778
#
#
# Mechanical properties :
#
#
# Convention : Reuss Voigt Hill
#
# Bulk Modulus (GPa) = 18.03348 40.62933 29.33140
# Shear Modulus (GPa) = 22.42617 32.20123 27.31370
#
# Velocity S-wave (km/s) = 3.16979 3.79830 3.49819
# Velocity P-wave (km/s) = 4.63425 6.11876 5.42750
#
# Compressibility (1/GPa) = 0.05545243
#
# Stress axis : x y z
#
# Youngs Moduli (GPa) = 82.51788 22.00555 106.02262
#
# Poissons Ratio (x) = -0.05930 0.48213
# Poissons Ratio (y) = -0.22238 0.41540
# Poissons Ratio (z) = 0.37524 0.08622
#
# Static dielectric constant tensor:
#      x y z
#    x 4.616790 0.000000 0.000000 
#    y 0.000000 3.738560 0.000000 
#    z 0.000000 0.000000 4.410610 
# 
# 
# High freq. dielectric constant tensor:
#      x y z
#    x 1.891220 0.000000 0.000000 
#    y 0.000000 1.855620 0.000000 
#    z 0.000000 0.000000 1.893210 
# 
# From -- ./inp_files/18612.got.cif
#   From: 2010.03.12/outbox.cif.g09.slc.cpg/sg24_10_cif.got.tgz:18612.got - 2010.04.14 03:06:53.
