data_PCOD8165665
_publ_section_title
;
Structure prediction by ZEFSAII (Michael W. Deem and Ramdas Pophale) SiO2 
 PCOD8165665
Probable space group: I 21 21 21
;
_chemical_formula_sum "Si O2"
_cell_formula_units_Z 64
_cell_length_a 17.882968
_cell_length_b 20.339557
_cell_length_c 8.797152
_cell_angle_alpha 90.000000
_cell_angle_beta 90.000000
_cell_angle_gamma 90.000000
_cell_volume 3199.802586
_symmetry_space_group_name_H-M "I 21 21 21"
_symmetry_group_IT_number 24
_symmetry_cell_setting 'orthorhombic'
loop_
_space_group_symop_operation_xyz
x,y,z
-x,1/2-y,z
x,-y,1/2-z
1/2-x,y,-z
1/2+x,1/2+y,1/2+z
1/2-x,-y,1/2+z
1/2+x,1/2-y,-z
-x,1/2+y,1/2-z
loop_
_atom_site_type_symbol
_atom_site_label
_atom_site_fract_x
_atom_site_fract_y
_atom_site_fract_z
Si Si1 0.824719 0.998967 0.432358
Si Si2 0.555629 0.578514 0.766798
Si Si3 0.538641 0.316850 0.304543
Si Si4 0.334028 0.841564 0.962035
Si Si5 0.437148 0.396723 0.487880
Si Si6 0.322051 0.697221 0.900935
Si Si7 0.994935 0.820790 0.468264
Si Si8 0.673781 0.149470 0.933333
O O1 0.750000 0.032661 0.500000
O O2 0.826900 0.925087 0.489460
O O3 0.831174 0.000000 0.250000
O O4 0.890589 0.036351 0.521920
O O5 0.563893 0.500000 0.750000
O O6 0.629877 0.603789 0.852416
O O7 0.483472 0.597293 0.859473
O O8 0.537103 0.618112 0.611950
O O9 0.500000 0.250000 0.367985
O O10 0.620082 0.327467 0.381971
O O11 0.490571 0.382675 0.344825
O O12 0.542583 0.313997 0.123303
O O13 0.332100 0.774163 0.865253
O O14 0.250000 0.865311 0.000000
O O15 0.388925 0.330729 0.499206
O O16 0.320162 0.655213 0.747358
O O17 0.250000 0.684221 0.000000
O O18 0.905595 0.825828 0.497643
O O19 0.000000 0.750000 0.380316
O O20 0.750000 0.183792 0.000000
#
# Coordination Sequence:
#
# PCOD8165665 Si02
#       8
#     8   8   8   8   8   8   8   8
#     4  11  22  35  51  79 121 166 207 242 290 361
#     4  11  23  42  67  90 123 168 213 257 322 393
#     4  10  22  38  62  94 123 155 204 264 319 377
#     4  10  23  43  66  93 120 157 213 269 322 391
#     4  11  20  35  60  83 122 161 215 249 298 373
#     4  11  21  34  62  88 121 164 212 252 313 373
#     4  11  23  40  64  93 128 161 205 264 326 373
#     4  11  24  37  54  87 131 168 206 255 306 373
#
# _framework density 20.001235000000001
#
# number of rings (size 3 to 8) (size 9 to 14) (size 15 to 20)
#    0.000    1.250    3.750    2.250    1.750    2.000 
#    0.000    6.875    0.000    0.000    0.000    0.000 
#    0.000    0.000    0.000    0.000    0.000    0.000 
#
# Total GULP energy -396482.345134 kJ/mol
# GULP energy per Si atom -12390.073285 kJ/mol
# Density = 1.995571 g / cm^3
# Si number density = 20.001235 Si / 1000 Ang^3
#
#
#
# Elastic Constant Matrix: (Units=GPa)
#
#
# Indices 1 2 3 4 5 6 
#
# 1 144.5062 49.3868 32.4364 0.0000 0.0000 0.0000
# 2 49.3868 118.2556 26.4136 0.0000 0.0000 0.0000
# 3 32.4364 26.4136 63.6527 0.0000 0.0000 0.0000
# 4 0.0000 0.0000 0.0000 20.4508 0.0000 0.0000
# 5 0.0000 0.0000 0.0000 0.0000 21.5852 0.0000
# 6 0.0000 0.0000 0.0000 0.0000 0.0000 35.6777
#
#
#
# Elastic Compliance Matrix: (Units=1/GPa)
#
#
# Indices 1 2 3 4 5 6 
#
# 1 0.008625 -0.002888 -0.003197 0.000000 0.000000 0.000000
# 2 -0.002888 0.010287 -0.002797 0.000000 0.000000 0.000000
# 3 -0.003197 -0.002797 0.018500 0.000000 0.000000 0.000000
# 4 0.000000 0.000000 0.000000 0.048898 0.000000 0.000000
# 5 0.000000 0.000000 0.000000 0.000000 0.046328 0.000000
# 6 0.000000 0.000000 0.000000 0.000000 0.000000 0.028029
#
#
# Mechanical properties :
#
#
# Convention : Reuss Voigt Hill
#
# Bulk Modulus (GPa) = 50.89489 60.32091 55.60790
# Shear Modulus (GPa) = 27.03010 30.08791 28.55901
#
# Velocity S-wave (km/s) = 3.68016 3.88274 3.78281
# Velocity P-wave (km/s) = 6.59994 7.09401 6.85143
#
# Compressibility (1/GPa) = 0.01964834
#
# Stress axis : x y z
#
# Youngs Moduli (GPa) = 115.94726 97.20917 54.05428
#
# Poissons Ratio (x) = 0.28073 0.17279
# Poissons Ratio (y) = 0.33484 0.15120
# Poissons Ratio (z) = 0.37064 0.27191
#
# Static dielectric constant tensor:
#      x y z
#    x 3.836170 0.000000 0.000000 
#    y 0.000000 3.825740 0.000000 
#    z 0.000000 0.000000 3.409130 
# 
# 
# High freq. dielectric constant tensor:
#      x y z
#    x 1.786990 0.000000 0.000000 
#    y 0.000000 1.780430 0.000000 
#    z 0.000000 0.000000 1.764750 
# 
# From -- ./inp_files/14614.got.cif
#   From: 2010.03.12/outbox.cif.g09.slc.cpg/sg24_8_cif.got.tgz:14614.got - 2010.04.14 03:06:53.
