data_PCOD8165279
_publ_section_title
;
Structure prediction by ZEFSAII (Michael W. Deem and Ramdas Pophale) SiO2 
 PCOD8165279
Probable space group: I 21 21 21
;
_chemical_formula_sum "Si O2"
_cell_formula_units_Z 52
_cell_length_a 8.223243
_cell_length_b 18.486658
_cell_length_c 17.601571
_cell_angle_alpha 90.000000
_cell_angle_beta 90.000000
_cell_angle_gamma 90.000000
_cell_volume 2675.795769
_symmetry_space_group_name_H-M "I 21 21 21"
_symmetry_group_IT_number 24
_symmetry_cell_setting 'orthorhombic'
loop_
_space_group_symop_operation_xyz
x,y,z
-x,1/2-y,z
x,-y,1/2-z
1/2-x,y,-z
1/2+x,1/2+y,1/2+z
1/2-x,-y,1/2+z
1/2+x,1/2-y,-z
-x,1/2+y,1/2-z
loop_
_atom_site_type_symbol
_atom_site_label
_atom_site_fract_x
_atom_site_fract_y
_atom_site_fract_z
Si Si1 0.379340 0.312108 0.433935
Si Si2 0.786419 0.943132 0.687829
Si Si3 0.500000 0.750000 0.688605
Si Si4 0.952207 0.457478 0.621116
Si Si5 0.044645 0.903456 0.370738
Si Si6 0.764570 0.500000 0.250000
Si Si7 0.832550 0.792176 0.765791
Si Si8 0.250000 0.964518 0.500000
O O1 0.500000 0.250000 0.465508
O O2 0.250000 0.329458 0.500000
O O3 0.471144 0.383983 0.408036
O O4 0.298431 0.285617 0.355874
O O5 0.642213 0.927673 0.629161
O O6 0.853007 0.873487 0.733716
O O7 0.723689 0.000000 0.750000
O O8 0.924295 0.977054 0.635432
O O9 0.455228 0.817811 0.637258
O O10 0.664294 0.760039 0.736128
O O11 0.847269 0.447228 0.698194
O O12 0.838538 0.481016 0.554248
O O13 0.125018 0.915835 0.452436
O O14 0.131951 0.945465 0.301690
O O15 0.000000 0.750000 0.743301
#
# Coordination Sequence:
#
# PCOD8165279 Si02
#       8
#     8   8   4   8   8   4   8   4
#     4  11  26  41  58  88 131 172 208 256 316 387
#     4  11  20  39  67  97 119 161 217 269 308 363
#     4  10  24  40  70  94 126 162 218 264 324 380
#     4  11  23  41  66  91 125 167 212 257 321 374
#     4  10  23  42  63  98 126 163 209 264 319 385
#     4  10  20  38  70  92 126 160 212 272 304 382
#     4  10  23  41  65  96 125 166 213 267 321 376
#     4  10  26  40  64  92 132 166 204 256 328 388
#
# _framework density 19.433471999999998
#
# number of rings (size 3 to 8) (size 9 to 14) (size 15 to 20)
#    0.000    1.538    3.077    0.000   12.923    0.000 
#    2.769    3.077    0.000    0.000    0.000    0.000 
#    0.000    0.000    0.000    0.000    0.000    0.000 
#
# Total GULP energy -322235.111286 kJ/mol
# GULP energy per Si atom -12393.658126 kJ/mol
# Density = 1.938924 g / cm^3
# Si number density = 19.433472 Si / 1000 Ang^3
#
#
#
# Elastic Constant Matrix: (Units=GPa)
#
#
# Indices 1 2 3 4 5 6 
#
# 1 79.7105 33.3411 30.9591 0.0000 0.0000 0.0000
# 2 33.3411 97.1030 25.5927 0.0000 0.0000 0.0000
# 3 30.9591 25.5927 91.1224 0.0000 0.0000 0.0000
# 4 0.0000 0.0000 0.0000 14.2393 0.0000 0.0000
# 5 0.0000 0.0000 0.0000 0.0000 49.2694 0.0000
# 6 0.0000 0.0000 0.0000 0.0000 0.0000 32.3769
#
#
#
# Elastic Compliance Matrix: (Units=1/GPa)
#
#
# Indices 1 2 3 4 5 6 
#
# 1 0.016016 -0.004390 -0.004209 0.000000 0.000000 0.000000
# 2 -0.004390 0.012325 -0.001970 0.000000 0.000000 0.000000
# 3 -0.004209 -0.001970 0.012957 0.000000 0.000000 0.000000
# 4 0.000000 0.000000 0.000000 0.070228 0.000000 0.000000
# 5 0.000000 0.000000 0.000000 0.000000 0.020297 0.000000
# 6 0.000000 0.000000 0.000000 0.000000 0.000000 0.030886
#
#
# Mechanical properties :
#
#
# Convention : Reuss Voigt Hill
#
# Bulk Modulus (GPa) = 49.60016 49.74686 49.67351
# Shear Modulus (GPa) = 26.23745 31.04665 28.64205
#
# Velocity S-wave (km/s) = 3.67838 4.00132 3.84324
# Velocity P-wave (km/s) = 6.60448 6.85577 6.73129
#
# Compressibility (1/GPa) = 0.02016122
#
# Stress axis : x y z
#
# Youngs Moduli (GPa) = 62.43658 81.13621 77.17579
#
# Poissons Ratio (x) = 0.35620 0.32480
# Poissons Ratio (y) = 0.27410 0.15204
# Poissons Ratio (z) = 0.26277 0.15984
#
# Static dielectric constant tensor:
#      x y z
#    x 3.806100 0.000000 0.000000 
#    y 0.000000 3.694190 0.000000 
#    z 0.000000 0.000000 3.618240 
# 
# 
# High freq. dielectric constant tensor:
#      x y z
#    x 1.772250 0.000000 0.000000 
#    y 0.000000 1.764560 0.000000 
#    z 0.000000 0.000000 1.751790 
# 
# From -- ./inp_files/29677.got.cif
#   From: 2010.03.12/outbox.cif.g09.slc.cpg/sg24_15_cif.got.tgz:29677.got - 2010.04.14 03:06:53.
