data_PCOD8165271
_publ_section_title
;
Structure prediction by ZEFSAII (Michael W. Deem and Ramdas Pophale) SiO2 
 PCOD8165271
Probable space group: I 21 21 21
;
_chemical_formula_sum "Si O2"
_cell_formula_units_Z 48
_cell_length_a 5.020682
_cell_length_b 14.133040
_cell_length_c 30.103840
_cell_angle_alpha 90.000000
_cell_angle_beta 90.000000
_cell_angle_gamma 90.000000
_cell_volume 2136.093213
_symmetry_space_group_name_H-M "I 21 21 21"
_symmetry_group_IT_number 24
_symmetry_cell_setting 'orthorhombic'
loop_
_space_group_symop_operation_xyz
x,y,z
-x,1/2-y,z
x,-y,1/2-z
1/2-x,y,-z
1/2+x,1/2+y,1/2+z
1/2-x,-y,1/2+z
1/2+x,1/2-y,-z
-x,1/2+y,1/2-z
loop_
_atom_site_type_symbol
_atom_site_label
_atom_site_fract_x
_atom_site_fract_y
_atom_site_fract_z
Si Si1 0.207153 0.877151 0.618753
Si Si2 0.000000 0.250000 0.948166
Si Si3 0.250000 0.587415 0.500000
Si Si4 0.194060 0.493819 0.092043
Si Si5 0.748129 0.181800 0.642166
Si Si6 0.696428 0.901175 0.761234
Si Si7 0.683752 0.336085 0.219444
O O1 0.218474 0.832406 0.667092
O O2 0.238294 0.787599 0.584602
O O3 0.427584 0.958228 0.615768
O O4 0.926409 0.926812 0.609578
O O5 0.963700 0.159250 0.979413
O O6 0.145214 0.518768 0.460980
O O7 0.248193 0.604031 0.102636
O O8 0.500000 0.250000 0.636930
O O9 0.743162 0.121468 0.687290
O O10 0.000000 0.250000 0.639035
O O11 0.476417 0.828733 0.741393
O O12 0.980748 0.917174 0.735857
O O13 0.548841 0.000000 0.750000
O O14 0.500000 0.250000 0.237873
#
# Coordination Sequence:
#
# PCOD8165271 Si02
#       7
#     8   4   4   8   8   8   8
#     4  11  22  40  63 100 143 178 220 261 339 405
#     4  10  20  38  66 104 140 190 210 278 330 438
#     4  10  22  42  70 100 138 172 230 266 350 414
#     4  11  25  43  68  96 131 175 223 288 336 402
#     4  12  25  46  69  95 130 180 233 286 344 398
#     4  12  25  41  64  92 130 174 224 279 336 394
#     4  12  23  39  60  94 131 173 217 265 313 395
#
# _framework density 22.470927
#
# number of rings (size 3 to 8) (size 9 to 14) (size 15 to 20)
#    0.000    0.667    0.833    8.500    0.000    4.000 
#    0.000    0.833    0.000    0.000    0.000    0.000 
#    0.000    0.000    0.000    0.000    0.000    0.000 
#
# Total GULP energy -297356.203148 kJ/mol
# GULP energy per Si atom -12389.841798 kJ/mol
# Density = 2.241978 g / cm^3
# Si number density = 22.470927 Si / 1000 Ang^3
#
#
#
# Elastic Constant Matrix: (Units=GPa)
#
#
# Indices 1 2 3 4 5 6 
#
# 1 95.4559 18.8907 35.8332 0.0000 0.0000 0.0000
# 2 18.8907 140.6723 63.1472 0.0000 0.0000 0.0000
# 3 35.8332 63.1472 141.7291 0.0000 0.0000 0.0000
# 4 0.0000 0.0000 0.0000 41.8625 0.0000 0.0000
# 5 0.0000 0.0000 0.0000 0.0000 17.0880 0.0000
# 6 0.0000 0.0000 0.0000 0.0000 0.0000 33.1142
#
#
#
# Elastic Compliance Matrix: (Units=1/GPa)
#
#
# Indices 1 2 3 4 5 6 
#
# 1 0.011585 -0.000301 -0.002795 0.000000 0.000000 0.000000
# 2 -0.000301 0.008894 -0.003886 0.000000 0.000000 0.000000
# 3 -0.002795 -0.003886 0.009494 0.000000 0.000000 0.000000
# 4 0.000000 0.000000 0.000000 0.023888 0.000000 0.000000
# 5 0.000000 0.000000 0.000000 0.000000 0.058521 0.000000
# 6 0.000000 0.000000 0.000000 0.000000 0.000000 0.030199
#
#
# Mechanical properties :
#
#
# Convention : Reuss Voigt Hill
#
# Bulk Modulus (GPa) = 62.47003 68.17772 65.32388
# Shear Modulus (GPa) = 30.88705 35.74534 33.31619
#
# Velocity S-wave (km/s) = 3.71149 3.99273 3.85468
# Velocity P-wave (km/s) = 6.79909 7.18764 6.99606
#
# Compressibility (1/GPa) = 0.01600768
#
# Stress axis : x y z
#
# Youngs Moduli (GPa) = 86.32025 112.43807 105.33047
#
# Poissons Ratio (x) = 0.03386 0.29438
# Poissons Ratio (y) = 0.02599 0.40936
# Poissons Ratio (z) = 0.24125 0.43699
#
# Static dielectric constant tensor:
#      x y z
#    x 4.267820 0.000000 0.000000 
#    y 0.000000 4.913020 0.000000 
#    z 0.000000 0.000000 4.306120 
# 
# 
# High freq. dielectric constant tensor:
#      x y z
#    x 1.892490 0.000000 0.000000 
#    y 0.000000 1.895110 0.000000 
#    z 0.000000 0.000000 1.883030 
# 
# From -- ./inp_files/36487.got.cif
#   From: 2010.03.12/outbox.cif.g09.slc.cpg/sg24_19_cif.got.tgz:36487.got - 2010.04.14 03:06:53.
