data_PCOD8165348
_publ_section_title
;
Structure prediction by ZEFSAII (Michael W. Deem and Ramdas Pophale) SiO2 
 PCOD8165348
Probable space group: I 21 21 21
;
_chemical_formula_sum "Si O2"
_cell_formula_units_Z 48
_cell_length_a 8.254822
_cell_length_b 25.211165
_cell_length_c 10.809280
_cell_angle_alpha 90.000000
_cell_angle_beta 90.000000
_cell_angle_gamma 90.000000
_cell_volume 2249.559033
_symmetry_space_group_name_H-M "I 21 21 21"
_symmetry_group_IT_number 24
_symmetry_cell_setting 'orthorhombic'
loop_
_space_group_symop_operation_xyz
x,y,z
-x,1/2-y,z
x,-y,1/2-z
1/2-x,y,-z
1/2+x,1/2+y,1/2+z
1/2-x,-y,1/2+z
1/2+x,1/2-y,-z
-x,1/2+y,1/2-z
loop_
_atom_site_type_symbol
_atom_site_label
_atom_site_fract_x
_atom_site_fract_y
_atom_site_fract_z
Si Si1 0.000000 0.250000 0.689450
Si Si2 0.441629 0.688885 0.616813
Si Si3 0.250000 0.759810 0.000000
Si Si4 0.476656 0.445867 0.315024
Si Si5 0.750000 0.890133 0.000000
Si Si6 0.750000 0.570983 0.000000
Si Si7 0.433319 0.342543 0.151110
Si Si8 0.458897 0.844821 0.870590
O O1 0.155437 0.270344 0.609446
O O2 0.955839 0.300918 0.772539
O O3 0.500000 0.750000 0.605362
O O4 0.488954 0.657716 0.491588
O O5 0.252171 0.679544 0.650740
O O6 0.546471 0.661242 0.723536
O O7 0.109323 0.793654 0.063101
O O8 0.426140 0.500000 0.250000
O O9 0.338926 0.429978 0.409404
O O10 0.638027 0.458863 0.398260
O O11 0.477687 0.399476 0.210693
O O12 0.859419 0.850042 0.078646
O O13 0.861107 0.603797 0.092089
#
# Coordination Sequence:
#
# PCOD8165348 Si02
#       8
#     4   8   4   8   4   4   8   8
#     4  12  24  42  58  98 128 180 226 284 344 422
#     4  11  23  40  63  98 139 183 225 282 349 429
#     4  11  26  33  64  90 132 170 228 270 340 410
#     4  11  24  47  72 102 136 180 237 302 357 422
#     4  10  20  41  75  92 130 169 224 297 346 408
#     4   9  22  46  67  98 134 175 228 287 350 416
#     4  11  24  42  66  94 139 181 230 288 350 423
#     4  10  20  41  63  96 128 174 219 276 341 409
#
# _framework density 21.337516000000001
#
# number of rings (size 3 to 8) (size 9 to 14) (size 15 to 20)
#    0.000    1.333    2.500    4.000    3.500    2.000 
#    3.000    1.667    0.000    0.000    0.000    0.000 
#    0.000    0.000    0.000    0.000    0.000    0.000 
#
# Total GULP energy -297316.582852 kJ/mol
# GULP energy per Si atom -12388.190952 kJ/mol
# Density = 2.128895 g / cm^3
# Si number density = 21.337516 Si / 1000 Ang^3
#
#
#
# Elastic Constant Matrix: (Units=GPa)
#
#
# Indices 1 2 3 4 5 6 
#
# 1 78.3663 15.3983 44.7589 0.0005 0.0000 -0.0001
# 2 15.3983 90.5352 63.5789 0.0006 0.0001 -0.0001
# 3 44.7589 63.5789 188.1331 0.0030 0.0016 -0.0001
# 4 0.0005 0.0006 0.0030 34.4447 0.0002 -0.0001
# 5 0.0000 0.0001 0.0016 0.0002 21.3142 0.0003
# 6 -0.0001 -0.0001 -0.0001 -0.0001 0.0003 20.0254
#
#
#
# Elastic Compliance Matrix: (Units=1/GPa)
#
#
# Indices 1 2 3 4 5 6 
#
# 1 0.014767 -0.000058 -0.003494 0.000000 0.000000 0.000000
# 2 -0.000058 0.014483 -0.004881 0.000000 0.000000 0.000000
# 3 -0.003494 -0.004881 0.007796 -0.000001 -0.000001 0.000000
# 4 0.000000 0.000000 -0.000001 0.029032 0.000000 0.000000
# 5 0.000000 0.000000 -0.000001 0.000000 0.046917 -0.000001
# 6 0.000000 0.000000 0.000000 0.000000 -0.000001 0.049937
#
#
# Mechanical properties :
#
#
# Convention : Reuss Voigt Hill
#
# Bulk Modulus (GPa) = 49.55091 67.16742 58.35916
# Shear Modulus (GPa) = 26.80625 30.71010 28.75818
#
# Velocity S-wave (km/s) = 3.54827 3.79787 3.67519
# Velocity P-wave (km/s) = 6.32928 7.12591 6.73938
#
# Compressibility (1/GPa) = 0.02018126
#
# Stress axis : x y z
#
# Youngs Moduli (GPa) = 67.71660 69.04778 128.27211
#
# Poissons Ratio (x) = 0.00402 0.44814
# Poissons Ratio (y) = 0.00394 0.62604
# Poissons Ratio (z) = 0.23658 0.33699
#
# Static dielectric constant tensor:
#      x y z
#    x 4.139750 0.000000 0.000000 
#    y 0.000000 3.463710 0.000000 
#    z 0.000000 0.000000 4.136350 
# 
# 
# High freq. dielectric constant tensor:
#      x y z
#    x 1.844470 0.000000 0.000000 
#    y 0.000000 1.801160 0.000000 
#    z 0.000000 0.000000 1.865190 
# 
# From -- ./inp_files/18650.got.cif
#   From: 2010.03.12/outbox.cif.g09.slc.cpg/sg24_10_cif.got.tgz:18650.got - 2010.04.14 03:06:53.
