data_PCOD8165129
_publ_section_title
;
Structure prediction by ZEFSAII (Michael W. Deem and Ramdas Pophale) SiO2 
 PCOD8165129
Probable space group: I 21 21 21
;
_chemical_formula_sum "Si O2"
_cell_formula_units_Z 56
_cell_length_a 14.807294
_cell_length_b 9.567862
_cell_length_c 18.302366
_cell_angle_alpha 90.000000
_cell_angle_beta 90.000000
_cell_angle_gamma 90.000000
_cell_volume 2592.972065
_symmetry_space_group_name_H-M "I 21 21 21"
_symmetry_group_IT_number 24
_symmetry_cell_setting 'orthorhombic'
loop_
_space_group_symop_operation_xyz
x,y,z
-x,1/2-y,z
x,-y,1/2-z
1/2-x,y,-z
1/2+x,1/2+y,1/2+z
1/2-x,-y,1/2+z
1/2+x,1/2-y,-z
-x,1/2+y,1/2-z
loop_
_atom_site_type_symbol
_atom_site_label
_atom_site_fract_x
_atom_site_fract_y
_atom_site_fract_z
Si Si1 0.787873 0.798546 0.643037
Si Si2 0.184218 0.483409 0.431737
Si Si3 0.401852 0.206708 0.567887
Si Si4 0.946789 0.882731 0.536067
Si Si5 0.228478 0.028104 0.084405
Si Si6 0.084486 0.170075 0.745337
Si Si7 0.911512 0.604703 0.908389
O O1 0.725993 0.938668 0.640003
O O2 0.870422 0.821277 0.588427
O O3 0.716047 0.684257 0.613222
O O4 0.825411 0.743979 0.721089
O O5 0.250000 0.496640 0.500000
O O6 0.169954 0.323798 0.407738
O O7 0.089031 0.542533 0.462307
O O8 0.500000 0.250000 0.599067
O O9 0.403115 0.201520 0.479604
O O10 0.363067 0.060955 0.600298
O O11 0.000000 0.750000 0.505622
O O12 0.011522 0.987822 0.580746
O O13 0.319117 0.967477 0.119990
O O14 0.250000 0.028097 0.000000
O O15 0.072583 0.208279 0.659649
O O16 0.000000 0.250000 0.784754
O O17 0.080671 0.000000 0.750000
#
# Coordination Sequence:
#
# PCOD8165129 Si02
#       7
#     8   8   8   8   8   8   8
#     4  11  22  38  55  88 129 182 218 267 320 402
#     4  10  22  35  57  82 125 167 217 273 330 380
#     4  11  22  39  59  92 123 163 210 280 348 403
#     4  11  19  34  60  90 124 170 217 270 330 394
#     4  10  20  35  59  86 122 162 215 266 335 402
#     4  12  24  41  60  93 136 188 229 258 322 430
#     4  11  21  37  64  89 131 170 213 263 339 408
#
# _framework density 21.596838000000002
#
# number of rings (size 3 to 8) (size 9 to 14) (size 15 to 20)
#    0.000    1.143    4.286    4.286    2.000    0.000 
#    2.571    0.000    0.000    0.000    0.000    5.000 
#    0.000    0.000    0.000    1.286    0.000    0.000 
#
# Total GULP energy -346885.829818 kJ/mol
# GULP energy per Si atom -12388.779636 kJ/mol
# Density = 2.154768 g / cm^3
# Si number density = 21.596838 Si / 1000 Ang^3
#
#
#
# Elastic Constant Matrix: (Units=GPa)
#
#
# Indices 1 2 3 4 5 6 
#
# 1 96.2434 50.0677 27.8180 0.0000 0.0000 0.0000
# 2 50.0677 129.4344 37.8259 0.0000 0.0000 0.0000
# 3 27.8180 37.8259 42.6139 0.0000 0.0000 0.0000
# 4 0.0000 0.0000 0.0000 12.9052 0.0000 0.0000
# 5 0.0000 0.0000 0.0000 0.0000 -11.7598 0.0000
# 6 0.0000 0.0000 0.0000 0.0000 0.0000 53.5171
#
#
#
# Elastic Compliance Matrix: (Units=1/GPa)
#
#
# Indices 1 2 3 4 5 6 
#
# 1 0.014012 -0.003709 -0.005855 0.000000 0.000000 0.000000
# 2 -0.003709 0.011414 -0.007710 0.000000 0.000000 0.000000
# 3 -0.005855 -0.007710 0.034132 0.000000 0.000000 0.000000
# 4 0.000000 0.000000 0.000000 0.077488 0.000000 0.000000
# 5 0.000000 0.000000 0.000000 0.000000 -0.085036 0.000000
# 6 0.000000 0.000000 0.000000 0.000000 0.000000 0.018686
#
#
# Mechanical properties :
#
#
# Convention : Reuss Voigt Hill
#
# Bulk Modulus (GPa) = 39.98333 55.52387 47.75360
# Shear Modulus (GPa) = 44.02157 21.10451 32.56304
#
# Velocity S-wave (km/s) = 4.51969 3.12942 3.88721
# Velocity P-wave (km/s) = 6.76687 6.23079 6.50435
#
# Compressibility (1/GPa) = 0.02501042
#
# Stress axis : x y z
#
# Youngs Moduli (GPa) = 71.36687 87.61221 29.29791
#
# Poissons Ratio (x) = 0.32497 0.17152
# Poissons Ratio (y) = 0.26472 0.22589
# Poissons Ratio (z) = 0.41782 0.67550
#
# Static dielectric constant tensor:
#      x y z
#    x 5.096530 0.000000 0.000000 
#    y 0.000000 4.253030 0.000000 
#    z 0.000000 0.000000 3.718520 
# 
# 
# High freq. dielectric constant tensor:
#      x y z
#    x 1.849120 0.000000 0.000000 
#    y 0.000000 1.865200 0.000000 
#    z 0.000000 0.000000 1.790400 
# 
# From -- ./inp_files/33761.got.cif
#   From: 2010.03.12/outbox.cif.g09.slc.cpg/sg24_17_cif.got.tgz:33761.got - 2010.04.14 03:06:53.
