data_PCOD8165039
_publ_section_title
;
Structure prediction by ZEFSAII (Michael W. Deem and Ramdas Pophale) SiO2 
 PCOD8165039
Probable space group: I 21 21 21
;
_chemical_formula_sum "Si O2"
_cell_formula_units_Z 60
_cell_length_a 8.943360
_cell_length_b 10.786727
_cell_length_c 28.572581
_cell_angle_alpha 90.000000
_cell_angle_beta 90.000000
_cell_angle_gamma 90.000000
_cell_volume 2756.384968
_symmetry_space_group_name_H-M "I 21 21 21"
_symmetry_group_IT_number 24
_symmetry_cell_setting 'orthorhombic'
loop_
_space_group_symop_operation_xyz
x,y,z
-x,1/2-y,z
x,-y,1/2-z
1/2-x,y,-z
1/2+x,1/2+y,1/2+z
1/2-x,-y,1/2+z
1/2+x,1/2-y,-z
-x,1/2+y,1/2-z
loop_
_atom_site_type_symbol
_atom_site_label
_atom_site_fract_x
_atom_site_fract_y
_atom_site_fract_z
Si Si1 0.154508 0.712682 0.647538
Si Si2 0.353893 0.632681 0.249655
Si Si3 0.622853 0.518535 0.466725
Si Si4 0.685752 0.609161 0.216373
Si Si5 0.212641 0.965641 0.370026
Si Si6 0.000000 0.250000 0.014052
Si Si7 0.600980 0.140749 0.519670
Si Si8 0.614419 0.931149 0.588602
O O1 0.101261 0.660395 0.697174
O O2 0.253800 0.834771 0.654547
O O3 0.247992 0.605251 0.621809
O O4 0.000000 0.750000 0.620411
O O5 0.264377 0.500000 0.250000
O O6 0.504957 0.612437 0.219190
O O7 0.258740 0.750070 0.229551
O O8 0.750000 0.462338 0.500000
O O9 0.677991 0.511439 0.413775
O O10 0.596749 0.661483 0.480960
O O11 0.475872 0.437346 0.477414
O O12 0.748688 0.500000 0.250000
O O13 0.750429 0.578535 0.165018
O O14 0.039695 0.954295 0.383807
O O15 0.892801 0.173512 0.048706
O O16 0.500000 0.250000 0.539545
O O17 0.750000 0.203208 0.500000
O O18 0.651160 0.059091 0.563564
#
# Coordination Sequence:
#
# PCOD8165039 Si02
#       8
#     8   8   8   8   8   4   8   8
#     4  12  22  39  72 103 139 188 234 302 378 450
#     4  10  20  42  63  99 145 176 238 322 363 434
#     4  11  22  42  68  98 142 190 234 297 373 435
#     4  10  19  40  67  98 132 188 237 308 374 438
#     4  12  23  41  71 102 139 191 243 295 389 451
#     4  10  20  40  64  96 150 182 220 300 366 430
#     4  11  26  48  68  93 142 195 248 302 366 437
#     4  11  24  45  67 106 146 183 238 315 360 454
#
# _framework density 21.76764
#
# number of rings (size 3 to 8) (size 9 to 14) (size 15 to 20)
#    0.000    1.067    6.667    1.200    2.800    3.200 
#    4.800    0.667    0.000    0.000    0.000    0.000 
#    0.000    0.000    0.000    0.000    0.000    0.000 
#
# Total GULP energy -371800.785115 kJ/mol
# GULP energy per Si atom -12393.359504 kJ/mol
# Density = 2.171810 g / cm^3
# Si number density = 21.767640 Si / 1000 Ang^3
#
#
#
# Elastic Constant Matrix: (Units=GPa)
#
#
# Indices 1 2 3 4 5 6 
#
# 1 110.9415 33.3011 47.5764 0.0000 0.0000 0.0000
# 2 33.3011 161.5218 54.3308 0.0000 0.0000 0.0000
# 3 47.5764 54.3308 123.4917 0.0000 0.0000 0.0000
# 4 0.0000 0.0000 0.0000 36.6391 0.0000 0.0000
# 5 0.0000 0.0000 0.0000 0.0000 14.5239 0.0000
# 6 0.0000 0.0000 0.0000 0.0000 0.0000 26.5025
#
#
#
# Elastic Compliance Matrix: (Units=1/GPa)
#
#
# Indices 1 2 3 4 5 6 
#
# 1 0.010929 -0.000982 -0.003778 0.000000 0.000000 0.000000
# 2 -0.000982 0.007355 -0.002857 0.000000 0.000000 0.000000
# 3 -0.003778 -0.002857 0.010810 0.000000 0.000000 0.000000
# 4 0.000000 0.000000 0.000000 0.027293 0.000000 0.000000
# 5 0.000000 0.000000 0.000000 0.000000 0.068852 0.000000
# 6 0.000000 0.000000 0.000000 0.000000 0.000000 0.037732
#
#
# Mechanical properties :
#
#
# Convention : Reuss Voigt Hill
#
# Bulk Modulus (GPa) = 72.15928 74.04129 73.10029
# Shear Modulus (GPa) = 27.34826 32.91621 30.13223
#
# Velocity S-wave (km/s) = 3.54838 3.89287 3.72461
# Velocity P-wave (km/s) = 7.07176 7.36846 7.22163
#
# Compressibility (1/GPa) = 0.01385823
#
# Stress axis : x y z
#
# Youngs Moduli (GPa) = 91.50036 135.96651 92.50333
#
# Poissons Ratio (x) = 0.13356 0.34950
# Poissons Ratio (y) = 0.08988 0.26431
# Poissons Ratio (z) = 0.34572 0.38850
#
# Static dielectric constant tensor:
#      x y z
#    x 3.768150 0.000000 0.000000 
#    y 0.000000 4.405940 0.000000 
#    z 0.000000 0.000000 3.813570 
# 
# 
# High freq. dielectric constant tensor:
#      x y z
#    x 1.832610 0.000000 0.000000 
#    y 0.000000 1.867540 0.000000 
#    z 0.000000 0.000000 1.844030 
# 
# From -- ./inp_files/36929.got.cif
#   From: 2010.03.12/outbox.cif.g09.slc.cpg/sg24_19_cif.got.tgz:36929.got - 2010.04.14 03:06:53.
