data_PCOD8165152
_publ_section_title
;
Structure prediction by ZEFSAII (Michael W. Deem and Ramdas Pophale) SiO2 
 PCOD8165152
Probable space group: I 21 21 21
;
_chemical_formula_sum "Si O2"
_cell_formula_units_Z 64
_cell_length_a 11.687623
_cell_length_b 17.961402
_cell_length_c 15.625594
_cell_angle_alpha 90.000000
_cell_angle_beta 90.000000
_cell_angle_gamma 90.000000
_cell_volume 3280.219932
_symmetry_space_group_name_H-M "I 21 21 21"
_symmetry_group_IT_number 24
_symmetry_cell_setting 'orthorhombic'
loop_
_space_group_symop_operation_xyz
x,y,z
-x,1/2-y,z
x,-y,1/2-z
1/2-x,y,-z
1/2+x,1/2+y,1/2+z
1/2-x,-y,1/2+z
1/2+x,1/2-y,-z
-x,1/2+y,1/2-z
loop_
_atom_site_type_symbol
_atom_site_label
_atom_site_fract_x
_atom_site_fract_y
_atom_site_fract_z
Si Si1 0.582023 0.062746 0.864452
Si Si2 0.262139 0.554817 0.099473
Si Si3 0.510309 0.171795 0.158262
Si Si4 0.751561 0.838584 0.744917
Si Si5 0.704337 0.673765 0.236749
Si Si6 0.523011 0.033952 0.054590
Si Si7 0.676350 0.449241 0.825952
Si Si8 0.691677 0.563327 0.079097
O O1 0.647455 0.128770 0.813094
O O2 0.460049 0.052772 0.820736
O O3 0.651632 0.985829 0.860355
O O4 0.559435 0.073920 0.965823
O O5 0.277967 0.622783 0.164038
O O6 0.365566 0.496295 0.103759
O O7 0.250000 0.581724 0.000000
O O8 0.500000 0.250000 0.104921
O O9 0.638845 0.154083 0.184931
O O10 0.428152 0.185104 0.239499
O O11 0.464341 0.100947 0.106509
O O12 0.730430 0.752724 0.772012
O O13 0.772857 0.633006 0.313371
O O14 0.700079 0.625092 0.151675
O O15 0.436014 0.964139 0.054225
O O16 0.725196 0.500000 0.750000
O O17 0.728079 0.489644 0.908920
O O18 0.750000 0.605715 0.000000
#
# Coordination Sequence:
#
# PCOD8165152 Si02
#       8
#     8   8   8   8   8   8   8   8
#     4  11  22  37  60  87 121 156 206 244 302 368
#     4  10  22  37  61  90 114 151 203 255 299 353
#     4  10  21  38  60  89 119 149 196 250 303 357
#     4  11  22  39  60  86 123 163 193 247 312 369
#     4  10  23  38  60  89 120 160 205 244 310 375
#     4  11  21  38  62  92 114 153 206 258 297 356
#     4  10  20  36  58  84 114 155 203 248 292 364
#     4  11  21  38  62  90 118 155 205 263 304 356
#
# _framework density 19.510885999999999
#
# number of rings (size 3 to 8) (size 9 to 14) (size 15 to 20)
#    0.000    1.500    3.750    1.875    0.000    2.000 
#    2.250    0.000    0.000    0.000    0.000    0.000 
#    0.000    0.000    0.000    0.000    0.000    0.000 
#
# Total GULP energy -396461.032158 kJ/mol
# GULP energy per Si atom -12389.407255 kJ/mol
# Density = 1.946648 g / cm^3
# Si number density = 19.510886 Si / 1000 Ang^3
#
#
#
# Elastic Constant Matrix: (Units=GPa)
#
#
# Indices 1 2 3 4 5 6 
#
# 1 90.2732 21.9148 19.7609 0.0000 0.0000 0.0000
# 2 21.9148 121.4429 54.5925 0.0000 0.0000 0.0000
# 3 19.7609 54.5925 80.7612 0.0000 0.0000 0.0000
# 4 0.0000 0.0000 0.0000 12.6872 0.0000 0.0000
# 5 0.0000 0.0000 0.0000 0.0000 27.5084 0.0000
# 6 0.0000 0.0000 0.0000 0.0000 0.0000 23.0539
#
#
#
# Elastic Compliance Matrix: (Units=1/GPa)
#
#
# Indices 1 2 3 4 5 6 
#
# 1 0.011824 -0.001197 -0.002084 0.000000 0.000000 0.000000
# 2 -0.001197 0.011950 -0.007785 0.000000 0.000000 0.000000
# 3 -0.002084 -0.007785 0.018155 0.000000 0.000000 0.000000
# 4 0.000000 0.000000 0.000000 0.078820 0.000000 0.000000
# 5 0.000000 0.000000 0.000000 0.000000 0.036353 0.000000
# 6 0.000000 0.000000 0.000000 0.000000 0.000000 0.043377
#
#
# Mechanical properties :
#
#
# Convention : Reuss Voigt Hill
#
# Bulk Modulus (GPa) = 50.51324 53.89040 52.20182
# Shear Modulus (GPa) = 21.81419 25.73050 23.77234
#
# Velocity S-wave (km/s) = 3.34736 3.63544 3.49437
# Velocity P-wave (km/s) = 6.39419 6.73071 6.56461
#
# Compressibility (1/GPa) = 0.01979679
#
# Stress axis : x y z
#
# Youngs Moduli (GPa) = 84.57191 83.68276 55.08251
#
# Poissons Ratio (x) = 0.10015 0.11480
# Poissons Ratio (y) = 0.10122 0.42882
# Poissons Ratio (z) = 0.17626 0.65147
#
# Static dielectric constant tensor:
#      x y z
#    x 3.590830 0.000000 0.000000 
#    y 0.000000 3.575400 0.000000 
#    z 0.000000 0.000000 3.547340 
# 
# 
# High freq. dielectric constant tensor:
#      x y z
#    x 1.769530 0.000000 0.000000 
#    y 0.000000 1.751280 0.000000 
#    z 0.000000 0.000000 1.756210 
# 
# From -- ./inp_files/21716.got.cif
#   From: 2010.03.12/outbox.cif.g09.slc.cpg/sg24_11_cif.got.tgz:21716.got - 2010.04.14 03:06:53.
