data_PCOD8165737
_publ_section_title
;
Structure prediction by ZEFSAII (Michael W. Deem and Ramdas Pophale) SiO2 
 PCOD8165737
Probable space group: I 21 21 21
;
_chemical_formula_sum "Si O2"
_cell_formula_units_Z 40
_cell_length_a 8.583152
_cell_length_b 15.540232
_cell_length_c 12.800201
_cell_angle_alpha 90.000000
_cell_angle_beta 90.000000
_cell_angle_gamma 90.000000
_cell_volume 1707.344229
_symmetry_space_group_name_H-M "I 21 21 21"
_symmetry_group_IT_number 24
_symmetry_cell_setting 'orthorhombic'
loop_
_space_group_symop_operation_xyz
x,y,z
-x,1/2-y,z
x,-y,1/2-z
1/2-x,y,-z
1/2+x,1/2+y,1/2+z
1/2-x,-y,1/2+z
1/2+x,1/2-y,-z
-x,1/2+y,1/2-z
loop_
_atom_site_type_symbol
_atom_site_label
_atom_site_fract_x
_atom_site_fract_y
_atom_site_fract_z
Si Si1 0.927480 0.616653 0.081313
Si Si2 0.377463 0.399419 0.771705
Si Si3 0.906647 0.334286 0.640209
Si Si4 0.954045 0.152910 0.841589
Si Si5 0.586588 0.420915 0.960952
O O1 0.776361 0.672072 0.115345
O O2 0.877248 0.517593 0.076207
O O3 0.062970 0.639425 0.162228
O O4 0.993153 0.637637 0.966136
O O5 0.344553 0.500000 0.750000
O O6 0.224540 0.348786 0.804918
O O7 0.509018 0.378356 0.858981
O O8 0.000000 0.250000 0.676785
O O9 0.938588 0.388182 0.747006
O O10 0.000000 0.250000 0.876838
O O11 0.969822 0.089041 0.940977
O O12 0.750000 0.378289 0.000000
#
# Coordination Sequence:
#
# PCOD8165737 Si02
#       5
#     8   8   8   8   8
#     4  10  22  43  66  99 134 178 228 273 336 401
#     4  10  24  41  68 101 135 177 227 282 336 405
#     4  10  22  41  66  98 136 178 221 275 338 402
#     4  11  26  44  65 100 139 180 226 282 344 404
#     4  11  22  42  70  99 133 178 224 280 336 403
#
# _framework density 23.4282
#
# number of rings (size 3 to 8) (size 9 to 14) (size 15 to 20)
#    0.000    1.600    2.000    1.800    2.800    8.800 
#    0.000    5.000    0.000    0.000    0.000    0.000 
#    0.000    0.000    0.000    0.000    0.000    0.000 
#
# Total GULP energy -247791.617470 kJ/mol
# GULP energy per Si atom -12389.580873 kJ/mol
# Density = 2.337488 g / cm^3
# Si number density = 23.428200 Si / 1000 Ang^3
#
#
#
# Elastic Constant Matrix: (Units=GPa)
#
#
# Indices 1 2 3 4 5 6 
#
# 1 109.1543 37.0445 25.8005 0.0000 0.0000 0.0000
# 2 37.0445 50.0199 14.6937 0.0002 0.0000 0.0000
# 3 25.8005 14.6937 142.0137 0.0003 0.0000 0.0000
# 4 0.0000 0.0002 0.0003 24.7483 0.0000 0.0000
# 5 0.0000 0.0000 0.0000 0.0000 48.5506 0.0000
# 6 0.0000 0.0000 0.0000 0.0000 0.0000 32.1246
#
#
#
# Elastic Compliance Matrix: (Units=1/GPa)
#
#
# Indices 1 2 3 4 5 6 
#
# 1 0.012484 -0.008848 -0.001353 0.000000 0.000000 0.000000
# 2 -0.008848 0.026890 -0.001175 0.000000 0.000000 0.000000
# 3 -0.001353 -0.001175 0.007409 0.000000 0.000000 0.000000
# 4 0.000000 0.000000 0.000000 0.040407 0.000000 0.000000
# 5 0.000000 0.000000 0.000000 0.000000 0.020597 0.000000
# 6 0.000000 0.000000 0.000000 0.000000 0.000000 0.031129
#
#
# Mechanical properties :
#
#
# Convention : Reuss Voigt Hill
#
# Bulk Modulus (GPa) = 41.61140 50.69616 46.15378
# Shear Modulus (GPa) = 29.46775 35.99466 32.73120
#
# Velocity S-wave (km/s) = 3.55038 3.92392 3.74182
# Velocity P-wave (km/s) = 5.88275 6.49734 6.19767
#
# Compressibility (1/GPa) = 0.02403188
#
# Stress axis : x y z
#
# Youngs Moduli (GPa) = 80.10296 37.18844 134.97387
#
# Poissons Ratio (x) = 0.32905 0.18256
# Poissons Ratio (y) = 0.70877 0.15856
# Poissons Ratio (z) = 0.10834 0.04369
#
# Static dielectric constant tensor:
#      x y z
#    x 4.049380 0.000000 0.000000 
#    y 0.000000 3.859400 0.000000 
#    z 0.000000 0.000000 4.857820 
# 
# 
# High freq. dielectric constant tensor:
#      x y z
#    x 1.919250 0.000000 0.000000 
#    y 0.000000 1.891270 0.000000 
#    z 0.000000 0.000000 1.963320 
# 
# From -- ./inp_files/24541.got.cif
#   From: 2010.03.12/outbox.cif.g09.slc.cpg/sg24_13_cif.got.tgz:24541.got - 2010.04.14 03:06:53.
