data_PCOD8165839
_publ_section_title
;
Structure prediction by ZEFSAII (Michael W. Deem and Ramdas Pophale) SiO2 
 PCOD8165839
Probable space group: I 21 21 21
;
_chemical_formula_sum "Si O2"
_cell_formula_units_Z 64
_cell_length_a 15.039682
_cell_length_b 8.571978
_cell_length_c 21.957787
_cell_angle_alpha 90.000000
_cell_angle_beta 90.000000
_cell_angle_gamma 90.000000
_cell_volume 2830.794019
_symmetry_space_group_name_H-M "I 21 21 21"
_symmetry_group_IT_number 24
_symmetry_cell_setting 'orthorhombic'
loop_
_space_group_symop_operation_xyz
x,y,z
-x,1/2-y,z
x,-y,1/2-z
1/2-x,y,-z
1/2+x,1/2+y,1/2+z
1/2-x,-y,1/2+z
1/2+x,1/2-y,-z
-x,1/2+y,1/2-z
loop_
_atom_site_type_symbol
_atom_site_label
_atom_site_fract_x
_atom_site_fract_y
_atom_site_fract_z
Si Si1 0.247103 0.482267 0.592556
Si Si2 0.227940 0.287684 0.193520
Si Si3 0.093075 0.830654 0.220372
Si Si4 0.827824 0.496184 0.119377
Si Si5 0.905798 0.682241 0.757355
Si Si6 0.915252 0.465296 0.992855
Si Si7 0.338850 0.832862 0.112051
Si Si8 0.115198 0.607057 0.507229
O O1 0.267293 0.543928 0.660850
O O2 0.233332 0.296583 0.589932
O O3 0.150414 0.542786 0.571263
O O4 0.322197 0.548868 0.547528
O O5 0.168400 0.288034 0.254658
O O6 0.327668 0.243365 0.213446
O O7 0.169144 0.177040 0.147966
O O8 0.111711 0.868991 0.150120
O O9 0.000000 0.750000 0.230682
O O10 0.099461 0.000000 0.250000
O O11 0.855263 0.509992 0.049908
O O12 0.723632 0.524616 0.130921
O O13 0.910701 0.500000 0.750000
O O14 0.892530 0.726917 0.828832
O O15 0.000000 0.750000 0.734977
O O16 0.884246 0.290648 0.978081
O O17 0.019193 0.462320 0.008983
O O18 0.902131 0.597026 0.940835
#
# Coordination Sequence:
#
# PCOD8165839 Si02
#       8
#     8   8   8   8   8   8   8   8
#     4  11  26  44  70 104 144 180 239 290 365 422
#     4  11  22  49  75  92 144 193 238 295 349 441
#     4  10  23  42  67 103 139 182 238 289 357 426
#     4  11  22  45  72  99 135 192 231 286 356 431
#     4  12  28  49  72 102 142 189 250 297 360 426
#     4  11  25  45  76 101 138 189 239 287 364 426
#     4  12  27  45  71 103 142 182 230 306 362 417
#     4  10  25  47  67 108 139 183 241 290 345 448
#
# _framework density 22.608497
#
# number of rings (size 3 to 8) (size 9 to 14) (size 15 to 20)
#    0.000    1.000    3.750    1.500    8.750    4.000 
#    0.000    0.000    0.000    0.000    0.000    0.000 
#    0.000    0.000    0.000    0.000    0.000    0.000 
#
# Total GULP energy -396509.194237 kJ/mol
# GULP energy per Si atom -12390.912320 kJ/mol
# Density = 2.255704 g / cm^3
# Si number density = 22.608497 Si / 1000 Ang^3
#
#
#
# Elastic Constant Matrix: (Units=GPa)
#
#
# Indices 1 2 3 4 5 6 
#
# 1 113.6645 31.6673 12.7348 0.0000 0.0000 0.0000
# 2 31.6673 89.9369 33.9131 0.0000 0.0000 0.0000
# 3 12.7348 33.9131 85.9609 0.0000 0.0000 0.0000
# 4 0.0000 0.0000 0.0000 118.4781 0.0000 0.0000
# 5 0.0000 0.0000 0.0000 0.0000 22.9498 0.0000
# 6 0.0000 0.0000 0.0000 0.0000 0.0000 30.2154
#
#
#
# Elastic Compliance Matrix: (Units=1/GPa)
#
#
# Indices 1 2 3 4 5 6 
#
# 1 0.009756 -0.003395 -0.000106 0.000000 0.000000 0.000000
# 2 -0.003395 0.014244 -0.005116 0.000000 0.000000 0.000000
# 3 -0.000106 -0.005116 0.013667 0.000000 0.000000 0.000000
# 4 0.000000 0.000000 0.000000 0.008440 0.000000 0.000000
# 5 0.000000 0.000000 0.000000 0.000000 0.043573 0.000000
# 6 0.000000 0.000000 0.000000 0.000000 0.000000 0.033096
#
#
# Mechanical properties :
#
#
# Convention : Reuss Voigt Hill
#
# Bulk Modulus (GPa) = 48.94294 49.57694 49.25994
# Shear Modulus (GPa) = 34.05503 48.41181 41.23342
#
# Velocity S-wave (km/s) = 3.88531 4.63245 4.27523
# Velocity P-wave (km/s) = 6.46703 7.11258 6.79748
#
# Compressibility (1/GPa) = 0.02043196
#
# Stress axis : x y z
#
# Youngs Moduli (GPa) = 102.50563 70.20698 73.16690
#
# Poissons Ratio (x) = 0.23836 0.00774
# Poissons Ratio (y) = 0.34802 0.37435
# Poissons Ratio (z) = 0.01085 0.35921
#
# Static dielectric constant tensor:
#      x y z
#    x 2.821040 0.000000 0.000000 
#    y 0.000000 4.086300 0.000000 
#    z 0.000000 0.000000 4.272510 
# 
# 
# High freq. dielectric constant tensor:
#      x y z
#    x 1.894200 0.000000 0.000000 
#    y 0.000000 1.893620 0.000000 
#    z 0.000000 0.000000 1.893360 
# 
# From -- ./inp_files/35869.got.cif
#   From: 2010.03.12/outbox.cif.g09.slc.cpg/sg24_18_cif.got.tgz:35869.got - 2010.04.14 03:06:53.
