data_PCOD8165651
_publ_section_title
;
Structure prediction by ZEFSAII (Michael W. Deem and Ramdas Pophale) SiO2 
 PCOD8165651
Probable space group: I 21 21 21
;
_chemical_formula_sum "Si O2"
_cell_formula_units_Z 32
_cell_length_a 8.121261
_cell_length_b 19.973159
_cell_length_c 9.692063
_cell_angle_alpha 90.000000
_cell_angle_beta 90.000000
_cell_angle_gamma 90.000000
_cell_volume 1572.122762
_symmetry_space_group_name_H-M "I 21 21 21"
_symmetry_group_IT_number 24
_symmetry_cell_setting 'orthorhombic'
loop_
_space_group_symop_operation_xyz
x,y,z
-x,1/2-y,z
x,-y,1/2-z
1/2-x,y,-z
1/2+x,1/2+y,1/2+z
1/2-x,-y,1/2+z
1/2+x,1/2-y,-z
-x,1/2+y,1/2-z
loop_
_atom_site_type_symbol
_atom_site_label
_atom_site_fract_x
_atom_site_fract_y
_atom_site_fract_z
Si Si1 0.930712 0.458448 0.955923
Si Si2 0.397452 0.423083 0.778980
Si Si3 0.529603 0.911632 0.189166
Si Si4 0.060737 0.676913 0.044674
O O1 0.900873 0.416069 0.814792
O O2 0.036637 0.524013 0.913191
O O3 0.750000 0.481364 0.000000
O O4 0.029296 0.412761 0.066946
O O5 0.443348 0.500000 0.750000
O O6 0.204866 0.406994 0.767721
O O7 0.484443 0.372693 0.670657
O O8 0.473519 0.848670 0.096148
O O9 0.000000 0.750000 0.085977
O O10 0.250000 0.674745 0.000000
#
# Coordination Sequence:
#
# PCOD8165651 Si02
#       4
#     8   8   8   8
#     4  11  23  34  56  96 124 150 197 268 316 337
#     4  11  20  38  64  88 120 162 213 248 302 372
#     4  10  22  37  59  87 123 163 204 247 302 379
#     4  10  23  40  62  90 120 166 203 247 308 370
#
# _framework density 20.354645999999999
#
# number of rings (size 3 to 8) (size 9 to 14) (size 15 to 20)
#    0.000    1.500    5.000    0.750    3.500    3.000 
#    0.000    1.250    0.000    0.000    0.000    0.000 
#    0.000    0.000    0.000    0.000    0.000    0.000 
#
# Total GULP energy -198245.593133 kJ/mol
# GULP energy per Si atom -12390.349571 kJ/mol
# Density = 2.030832 g / cm^3
# Si number density = 20.354646 Si / 1000 Ang^3
#
#
#
# Elastic Constant Matrix: (Units=GPa)
#
#
# Indices 1 2 3 4 5 6 
#
# 1 46.8327 4.7620 32.9077 0.0000 0.0000 0.0000
# 2 4.7620 113.9078 67.1943 -0.0002 0.0001 0.0000
# 3 32.9077 67.1943 154.9736 -0.0022 0.0008 0.0004
# 4 0.0000 -0.0002 -0.0022 35.9901 0.0004 0.0002
# 5 0.0000 0.0001 0.0008 0.0004 26.7676 -0.0001
# 6 0.0000 0.0000 0.0004 0.0002 -0.0001 23.1487
#
#
#
# Elastic Compliance Matrix: (Units=1/GPa)
#
#
# Indices 1 2 3 4 5 6 
#
# 1 0.025787 0.002892 -0.006730 0.000000 0.000000 0.000000
# 2 0.002892 0.012120 -0.005869 0.000000 0.000000 0.000000
# 3 -0.006730 -0.005869 0.010427 0.000001 0.000000 0.000000
# 4 0.000000 0.000000 0.000001 0.027785 0.000000 0.000000
# 5 0.000000 0.000000 0.000000 0.000000 0.037359 0.000000
# 6 0.000000 0.000000 0.000000 0.000000 0.000000 0.043199
#
#
# Mechanical properties :
#
#
# Convention : Reuss Voigt Hill
#
# Bulk Modulus (GPa) = 34.57826 58.38244 46.48035
# Shear Modulus (GPa) = 26.92060 31.23796 29.07928
#
# Velocity S-wave (km/s) = 3.64067 3.92175 3.78382
# Velocity P-wave (km/s) = 5.89045 7.01796 6.47878
#
# Compressibility (1/GPa) = 0.02891991
#
# Stress axis : x y z
#
# Youngs Moduli (GPa) = 38.77895 82.50530 95.90929
#
# Poissons Ratio (x) = -0.23858 0.64543
# Poissons Ratio (y) = -0.11214 0.56292
# Poissons Ratio (z) = 0.26096 0.48425
#
# Static dielectric constant tensor:
#      x y z
#    x 3.407740 0.000000 0.000000 
#    y 0.000000 3.640370 0.000000 
#    z 0.000000 0.000000 4.268550 
# 
# 
# High freq. dielectric constant tensor:
#      x y z
#    x 1.781260 0.000000 0.000000 
#    y 0.000000 1.751810 0.000000 
#    z 0.000000 0.000000 1.819430 
# 
# From -- ./inp_files/8909.got.cif
#   From: 2010.03.12/outbox.cif.g09.slc.cpg/sg24_5_cif.got.tgz:8909.got - 2010.04.14 03:06:53.
