data_PCOD8165660
_publ_section_title
;
Structure prediction by ZEFSAII (Michael W. Deem and Ramdas Pophale) SiO2 
 PCOD8165660
Probable space group: I 21 21 21
;
_chemical_formula_sum "Si O2"
_cell_formula_units_Z 60
_cell_length_a 10.664185
_cell_length_b 26.971217
_cell_length_c 9.641649
_cell_angle_alpha 90.000000
_cell_angle_beta 90.000000
_cell_angle_gamma 90.000000
_cell_volume 2773.189396
_symmetry_space_group_name_H-M "I 21 21 21"
_symmetry_group_IT_number 24
_symmetry_cell_setting 'orthorhombic'
loop_
_space_group_symop_operation_xyz
x,y,z
-x,1/2-y,z
x,-y,1/2-z
1/2-x,y,-z
1/2+x,1/2+y,1/2+z
1/2-x,-y,1/2+z
1/2+x,1/2-y,-z
-x,1/2+y,1/2-z
loop_
_atom_site_type_symbol
_atom_site_label
_atom_site_fract_x
_atom_site_fract_y
_atom_site_fract_z
Si Si1 0.107426 0.712557 0.649312
Si Si2 0.994327 0.109185 0.787962
Si Si3 0.019644 0.385339 0.285090
Si Si4 0.610807 0.785746 0.675687
Si Si5 0.991657 0.956133 0.446520
Si Si6 0.754667 0.603427 0.838576
Si Si7 0.610840 0.057104 0.465839
Si Si8 0.694087 0.500000 0.750000
O O1 0.245247 0.733518 0.694399
O O2 0.089927 0.704862 0.485765
O O3 0.000000 0.750000 0.705273
O O4 0.094043 0.657299 0.708368
O O5 0.125674 0.129993 0.728430
O O6 0.926402 0.068515 0.691648
O O7 0.023019 0.083633 0.934870
O O8 0.096652 0.335247 0.266699
O O9 0.076074 0.425734 0.177349
O O10 0.023549 0.408413 0.438320
O O11 0.870389 0.377289 0.259613
O O12 0.500000 0.750000 0.731394
O O13 0.114382 0.981735 0.382448
O O14 0.901242 0.998747 0.504019
O O15 0.778219 0.544565 0.809400
O O16 0.750000 0.615863 0.000000
O O17 0.750000 0.074214 0.500000
#
# Coordination Sequence:
#
# PCOD8165660 Si02
#       8
#     8   8   8   8   8   8   8   4
#     4  10  23  44  67 100 138 163 216 284 333 399
#     4  12  25  41  67  99 128 177 221 271 339 394
#     4  11  22  43  65  93 134 173 215 270 339 384
#     4  10  22  43  71  99 131 174 216 272 343 405
#     4  11  22  42  61  97 130 176 222 268 324 391
#     4  11  23  38  64  90 136 173 218 272 323 392
#     4  12  25  41  62  91 134 178 223 267 320 399
#     4  10  22  38  60  90 140 174 218 278 318 380
#
# _framework density 21.635739999999998
#
# number of rings (size 3 to 8) (size 9 to 14) (size 15 to 20)
#    0.000    1.067    5.333    1.200    5.600    4.800 
#    0.000    0.667    0.000    0.000    0.000    0.000 
#    0.000    0.000    0.000    0.000    0.000    0.000 
#
# Total GULP energy -371949.682698 kJ/mol
# GULP energy per Si atom -12398.322757 kJ/mol
# Density = 2.158650 g / cm^3
# Si number density = 21.635740 Si / 1000 Ang^3
#
#
#
# Elastic Constant Matrix: (Units=GPa)
#
#
# Indices 1 2 3 4 5 6 
#
# 1 122.5674 33.6841 15.5463 -0.0004 0.0000 0.0003
# 2 33.6841 97.4235 21.5093 0.0004 0.0002 0.0002
# 3 15.5463 21.5093 76.6026 -0.0001 0.0016 0.0016
# 4 -0.0004 0.0004 -0.0001 16.6553 0.0001 0.0002
# 5 0.0000 0.0002 0.0016 0.0001 22.2171 -0.0005
# 6 0.0003 0.0002 0.0016 0.0002 -0.0005 33.6277
#
#
#
# Elastic Compliance Matrix: (Units=1/GPa)
#
#
# Indices 1 2 3 4 5 6 
#
# 1 0.009090 -0.002916 -0.001026 0.000000 0.000000 0.000000
# 2 -0.002916 0.011879 -0.002743 0.000000 0.000000 0.000000
# 3 -0.001026 -0.002743 0.014033 0.000000 -0.000001 -0.000001
# 4 0.000000 0.000000 0.000000 0.060041 0.000000 0.000000
# 5 0.000000 0.000000 -0.000001 0.000000 0.045010 0.000001
# 6 0.000000 0.000000 -0.000001 0.000000 0.000001 0.029737
#
#
# Mechanical properties :
#
#
# Convention : Reuss Voigt Hill
#
# Bulk Modulus (GPa) = 46.23199 48.67477 47.45338
# Shear Modulus (GPa) = 26.26429 29.55693 27.91061
#
# Velocity S-wave (km/s) = 3.48793 3.70011 3.59559
# Velocity P-wave (km/s) = 6.13479 6.38754 6.26244
#
# Compressibility (1/GPa) = 0.02163004
#
# Stress axis : x y z
#
# Youngs Moduli (GPa) = 110.00590 84.18532 71.26084
#
# Poissons Ratio (x) = 0.24553 0.07311
# Poissons Ratio (y) = 0.32083 0.19550
# Poissons Ratio (z) = 0.11286 0.23096
#
# Static dielectric constant tensor:
#      x y z
#    x 3.911700 0.000000 0.000000 
#    y 0.000000 3.742560 0.000000 
#    z 0.000000 0.000000 3.787800 
# 
# 
# High freq. dielectric constant tensor:
#      x y z
#    x 1.852380 0.000000 0.000000 
#    y 0.000000 1.832880 0.000000 
#    z 0.000000 0.000000 1.842480 
# 
# From -- ./inp_files/11521.got.cif
#   From: 2010.03.12/outbox.cif.g09.slc.cpg/sg24_6_cif.got.tgz:11521.got - 2010.04.14 03:06:53.
