data_PCOD8165099
_publ_section_title
;
Structure prediction by ZEFSAII (Michael W. Deem and Ramdas Pophale) SiO2 
 PCOD8165099
Probable space group: I 21 21 21
;
_chemical_formula_sum "Si O2"
_cell_formula_units_Z 40
_cell_length_a 4.883410
_cell_length_b 21.599815
_cell_length_c 19.533407
_cell_angle_alpha 90.000000
_cell_angle_beta 90.000000
_cell_angle_gamma 90.000000
_cell_volume 2060.398471
_symmetry_space_group_name_H-M "I 21 21 21"
_symmetry_group_IT_number 24
_symmetry_cell_setting 'orthorhombic'
loop_
_space_group_symop_operation_xyz
x,y,z
-x,1/2-y,z
x,-y,1/2-z
1/2-x,y,-z
1/2+x,1/2+y,1/2+z
1/2-x,-y,1/2+z
1/2+x,1/2-y,-z
-x,1/2+y,1/2-z
loop_
_atom_site_type_symbol
_atom_site_label
_atom_site_fract_x
_atom_site_fract_y
_atom_site_fract_z
Si Si1 0.182283 0.378176 0.724199
Si Si2 0.664018 0.546080 0.809326
Si Si3 0.672069 0.546932 0.424202
Si Si4 0.661995 0.878051 0.620017
Si Si5 0.500000 0.250000 0.849276
Si Si6 0.500000 0.750000 0.256671
O O1 0.407178 0.408347 0.672576
O O2 0.294161 0.386893 0.800144
O O3 0.902177 0.414037 0.722230
O O4 0.120970 0.305531 0.709381
O O5 0.559064 0.500000 0.750000
O O6 0.783488 0.512891 0.876529
O O7 0.750000 0.524667 0.500000
O O8 0.372218 0.578992 0.422601
O O9 0.861231 0.601511 0.398886
O O10 0.644680 0.803940 0.604798
O O11 0.748281 0.277293 0.802283
#
# Coordination Sequence:
#
# PCOD8165099 Si02
#       6
#     8   8   8   8   4   4
#     4  11  20  35  60  87 113 149 185 244 286 337
#     4  12  21  36  59  86 114 149 195 233 289 343
#     4  12  25  38  55  82 117 156 192 238 287 340
#     4  11  20  38  57  80 115 151 197 235 284 332
#     4  10  20  34  58  83 112 157 194 244 276 326
#     4  10  20  34  54  93 124 139 188 240 302 336
#
# _framework density 19.413722
#
# number of rings (size 3 to 8) (size 9 to 14) (size 15 to 20)
#    0.000    0.800    4.000    7.200    0.000    0.000 
#    0.000    2.000    0.000    1.200    0.000    2.800 
#    0.000    1.600    0.000    0.000    0.000    0.000 
#
# Total GULP energy -247832.313860 kJ/mol
# GULP energy per Si atom -12391.615693 kJ/mol
# Density = 1.936954 g / cm^3
# Si number density = 19.413722 Si / 1000 Ang^3
#
#
#
# Elastic Constant Matrix: (Units=GPa)
#
#
# Indices 1 2 3 4 5 6 
#
# 1 94.7416 35.3596 1.5533 0.0000 0.0000 0.0000
# 2 35.3596 116.4174 45.9948 0.0000 0.0000 0.0000
# 3 1.5533 45.9948 50.2037 0.0000 0.0001 0.0000
# 4 0.0000 0.0000 0.0000 10.9282 0.0000 0.0000
# 5 0.0000 0.0000 0.0001 0.0000 123.4471 0.0000
# 6 0.0000 0.0000 0.0000 0.0000 0.0000 48.4222
#
#
#
# Elastic Compliance Matrix: (Units=1/GPa)
#
#
# Indices 1 2 3 4 5 6 
#
# 1 0.012628 -0.005770 0.004895 0.000000 0.000000 0.000000
# 2 -0.005770 0.016099 -0.014571 0.000000 0.000000 0.000000
# 3 0.004895 -0.014571 0.033116 0.000000 0.000000 0.000000
# 4 0.000000 0.000000 0.000000 0.091506 0.000000 0.000000
# 5 0.000000 0.000000 0.000000 0.000000 0.008101 0.000000
# 6 0.000000 0.000000 0.000000 0.000000 0.000000 0.020652
#
#
# Mechanical properties :
#
#
# Convention : Reuss Voigt Hill
#
# Bulk Modulus (GPa) = 32.30677 47.46425 39.88551
# Shear Modulus (GPa) = 22.39042 48.45650 35.42346
#
# Velocity S-wave (km/s) = 3.39976 5.00141 4.27624
# Velocity P-wave (km/s) = 5.66467 7.60618 6.70606
#
# Compressibility (1/GPa) = 0.03095327
#
# Stress axis : x y z
#
# Youngs Moduli (GPa) = 79.18855 62.11639 30.19647
#
# Poissons Ratio (x) = 0.35838 -0.14782
# Poissons Ratio (y) = 0.45688 0.43998
# Poissons Ratio (z) = -0.38764 0.90507
#
# Static dielectric constant tensor:
#      x y z
#    x 4.030450 0.000000 0.000000 
#    y 0.000000 3.722490 0.000000 
#    z 0.000000 0.000000 3.206270 
# 
# 
# High freq. dielectric constant tensor:
#      x y z
#    x 1.788160 0.000000 0.000000 
#    y 0.000000 1.763290 0.000000 
#    z 0.000000 0.000000 1.688650 
# 
# From -- ./inp_files/4698.got.cif
#   From: 2010.03.12/outbox.cif.g09.slc.cpg/sg24_3_cif.got.tgz:4698.got - 2010.04.14 03:06:53.
