data_PCOD8165127
_publ_section_title
;
Structure prediction by ZEFSAII (Michael W. Deem and Ramdas Pophale) SiO2 
 PCOD8165127
Probable space group: I 21 21 21
;
_chemical_formula_sum "Si O2"
_cell_formula_units_Z 44
_cell_length_a 16.501787
_cell_length_b 5.482559
_cell_length_c 22.023666
_cell_angle_alpha 90.000000
_cell_angle_beta 90.000000
_cell_angle_gamma 90.000000
_cell_volume 1992.525569
_symmetry_space_group_name_H-M "I 21 21 21"
_symmetry_group_IT_number 24
_symmetry_cell_setting 'orthorhombic'
loop_
_space_group_symop_operation_xyz
x,y,z
-x,1/2-y,z
x,-y,1/2-z
1/2-x,y,-z
1/2+x,1/2+y,1/2+z
1/2-x,-y,1/2+z
1/2+x,1/2-y,-z
-x,1/2+y,1/2-z
loop_
_atom_site_type_symbol
_atom_site_label
_atom_site_fract_x
_atom_site_fract_y
_atom_site_fract_z
Si Si1 0.182197 0.325447 0.408282
Si Si2 0.660571 0.250753 0.223556
Si Si3 0.659915 0.124248 0.089682
Si Si4 0.750000 0.535665 0.500000
Si Si5 0.951243 0.000948 0.010943
Si Si6 0.156111 0.247968 0.271587
O O1 0.270337 0.433132 0.395488
O O2 0.119822 0.517216 0.437950
O O3 0.153224 0.226236 0.343923
O O4 0.189607 0.114168 0.457565
O O5 0.620820 0.500000 0.250000
O O6 0.639824 0.260788 0.152167
O O7 0.755948 0.251531 0.239079
O O8 0.621476 0.000000 0.250000
O O9 0.688223 0.314194 0.039877
O O10 0.583232 0.990965 0.058382
O O11 0.000000 0.250000 0.020735
O O12 0.000000 0.750000 0.022211
O O13 0.112330 0.500000 0.250000
O O14 0.110504 0.000000 0.250000
#
# Coordination Sequence:
#
# PCOD8165127 Si02
#       6
#     8   8   8   4   8   8
#     4  12  23  40  70 100 133 177 230 292 333 401
#     4  10  20  35  59 102 129 157 206 287 342 381
#     4  12  23  40  70 100 133 177 230 292 333 401
#     4  12  20  36  66 104 128 166 234 288 346 386
#     4  12  28  46  63  99 146 190 224 272 346 414
#     4  10  20  35  59 102 129 157 206 287 342 381
#
# _framework density 22.082528
#
# number of rings (size 3 to 8) (size 9 to 14) (size 15 to 20)
#    0.000    0.727    7.273    3.273    0.000    0.000 
#    0.000    0.000    0.000    4.364    0.000    0.000 
#    0.000    0.000    0.000    0.000    0.000    0.000 
#
# Total GULP energy -272682.415446 kJ/mol
# GULP energy per Si atom -12394.655248 kJ/mol
# Density = 2.203227 g / cm^3
# Si number density = 22.082528 Si / 1000 Ang^3
#
#
#
# Elastic Constant Matrix: (Units=GPa)
#
#
# Indices 1 2 3 4 5 6 
#
# 1 26.4859 6.8416 -2.6953 0.0000 0.0000 0.0000
# 2 6.8416 181.7327 50.6990 0.0000 0.0000 0.0000
# 3 -2.6953 50.6990 168.3190 0.0000 0.0000 0.0000
# 4 0.0000 0.0000 0.0000 73.6347 0.0000 0.0000
# 5 0.0000 0.0000 0.0000 0.0000 2.9626 0.0000
# 6 0.0000 0.0000 0.0000 0.0000 0.0000 19.1178
#
#
#
# Elastic Compliance Matrix: (Units=1/GPa)
#
#
# Indices 1 2 3 4 5 6 
#
# 1 0.038328 -0.001762 0.001145 0.000000 0.000000 0.000000
# 2 -0.001762 0.006088 -0.001862 0.000000 0.000000 0.000000
# 3 0.001145 -0.001862 0.006520 0.000000 0.000000 0.000000
# 4 0.000000 0.000000 0.000000 0.013581 0.000000 0.000000
# 5 0.000000 0.000000 0.000000 0.000000 0.337543 0.000000
# 6 0.000000 0.000000 0.000000 0.000000 0.000000 0.052307
#
#
# Mechanical properties :
#
#
# Convention : Reuss Voigt Hill
#
# Bulk Modulus (GPa) = 21.75008 54.02538 37.88773
# Shear Modulus (GPa) = 10.53402 40.58916 25.56159
#
# Velocity S-wave (km/s) = 2.18647 4.29192 3.40597
# Velocity P-wave (km/s) = 4.03051 7.00565 5.71507
#
# Compressibility (1/GPa) = 0.04597684
#
# Stress axis : x y z
#
# Youngs Moduli (GPa) = 26.09081 164.24659 153.36708
#
# Poissons Ratio (x) = 0.28944 -0.17553
# Poissons Ratio (y) = 0.04598 0.28558
# Poissons Ratio (z) = -0.02986 0.30584
#
# Static dielectric constant tensor:
#      x y z
#    x 3.668380 0.000000 0.000000 
#    y 0.000000 4.806840 0.000000 
#    z 0.000000 0.000000 4.164280 
# 
# 
# High freq. dielectric constant tensor:
#      x y z
#    x 1.809910 0.000000 0.000000 
#    y 0.000000 1.891320 0.000000 
#    z 0.000000 0.000000 1.883310 
# 
# From -- ./inp_files/35938.got.cif
#   From: 2010.03.12/outbox.cif.g09.slc.cpg/sg24_18_cif.got.tgz:35938.got - 2010.04.14 03:06:53.
