data_PCOD8165028
_publ_section_title
;
Structure prediction by ZEFSAII (Michael W. Deem and Ramdas Pophale) SiO2 
 PCOD8165028
Probable space group: I 21 21 21
;
_chemical_formula_sum "Si O2"
_cell_formula_units_Z 36
_cell_length_a 7.190627
_cell_length_b 18.765367
_cell_length_c 10.532921
_cell_angle_alpha 90.000000
_cell_angle_beta 90.000000
_cell_angle_gamma 90.000000
_cell_volume 1421.257111
_symmetry_space_group_name_H-M "I 21 21 21"
_symmetry_group_IT_number 24
_symmetry_cell_setting 'orthorhombic'
loop_
_space_group_symop_operation_xyz
x,y,z
-x,1/2-y,z
x,-y,1/2-z
1/2-x,y,-z
1/2+x,1/2+y,1/2+z
1/2-x,-y,1/2+z
1/2+x,1/2-y,-z
-x,1/2+y,1/2-z
loop_
_atom_site_type_symbol
_atom_site_label
_atom_site_fract_x
_atom_site_fract_y
_atom_site_fract_z
Si Si1 0.500000 0.250000 0.392525
Si Si2 0.888153 0.921681 0.258792
Si Si3 0.977834 0.947808 0.631795
Si Si4 0.248721 0.855161 0.234740
Si Si5 0.750000 0.862962 0.000000
Si Si6 0.250000 0.960312 0.000000
O O1 0.320856 0.222548 0.311415
O O2 0.565517 0.184893 0.480137
O O3 0.737120 0.921194 0.374790
O O4 0.777151 0.909509 0.125793
O O5 0.037417 0.858597 0.289970
O O6 0.983485 0.000000 0.250000
O O7 0.107701 0.879510 0.657793
O O8 0.990642 0.000000 0.750000
O O9 0.062372 0.990090 0.509939
O O10 0.227440 0.911617 0.121446
#
# Coordination Sequence:
#
# PCOD8165028 Si02
#       6
#     4   8   8   8   4   4
#     4  12  24  40  64  98 144 196 236 282 356 446
#     4  11  23  38  60  94 139 181 233 291 355 427
#     4   9  20  38  57  94 133 175 233 294 352 426
#     4  11  22  39  58  97 137 183 231 287 361 428
#     4  12  23  40  64  98 141 182 234 286 358 426
#     4  10  19  38  70  88 137 188 234 300 368 406
#
# _framework density 25.329688999999998
#
# number of rings (size 3 to 8) (size 9 to 14) (size 15 to 20)
#    0.000    1.333    2.222    5.333    6.222    0.000 
#    0.000    0.000    0.000    0.000    0.000    7.778 
#    0.000    1.778    0.000    0.000    0.000    0.000 
#
# Total GULP energy -223053.888121 kJ/mol
# GULP energy per Si atom -12391.882673 kJ/mol
# Density = 2.527204 g / cm^3
# Si number density = 25.329689 Si / 1000 Ang^3
#
#
#
# Elastic Constant Matrix: (Units=GPa)
#
#
# Indices 1 2 3 4 5 6 
#
# 1 187.7908 42.3436 13.7490 0.0001 0.0000 0.0000
# 2 42.3436 83.5328 36.7904 0.0001 0.0000 0.0000
# 3 13.7490 36.7904 39.9560 0.0001 0.0002 0.0001
# 4 0.0001 0.0001 0.0001 25.3314 0.0000 0.0000
# 5 0.0000 0.0000 0.0002 0.0000 31.7524 0.0000
# 6 0.0000 0.0000 0.0001 0.0000 0.0000 63.2809
#
#
#
# Elastic Compliance Matrix: (Units=1/GPa)
#
#
# Indices 1 2 3 4 5 6 
#
# 1 0.006049 -0.003616 0.001248 0.000000 0.000000 0.000000
# 2 -0.003616 0.022300 -0.019289 0.000000 0.000000 0.000000
# 3 0.001248 -0.019289 0.042358 0.000000 0.000000 0.000000
# 4 0.000000 0.000000 0.000000 0.039477 0.000000 0.000000
# 5 0.000000 0.000000 0.000000 0.000000 0.031494 0.000000
# 6 0.000000 0.000000 0.000000 0.000000 0.000000 0.015803
#
#
# Mechanical properties :
#
#
# Convention : Reuss Voigt Hill
#
# Bulk Modulus (GPa) = 36.50435 55.22728 45.86582
# Shear Modulus (GPa) = 23.81811 38.63274 31.22542
#
# Velocity S-wave (km/s) = 3.06980 3.90961 3.51488
# Velocity P-wave (km/s) = 5.19691 6.49852 5.88382
#
# Compressibility (1/GPa) = 0.02739399
#
# Stress axis : x y z
#
# Youngs Moduli (GPa) = 165.31550 44.84392 23.60803
#
# Poissons Ratio (x) = 0.16215 -0.02946
# Poissons Ratio (y) = 0.59777 0.45536
# Poissons Ratio (z) = -0.20631 0.86497
#
# Static dielectric constant tensor:
#      x y z
#    x 5.905780 0.000000 0.000000 
#    y 0.000000 4.341730 0.000000 
#    z 0.000000 0.000000 4.314820 
# 
# 
# High freq. dielectric constant tensor:
#      x y z
#    x 2.039490 0.000000 0.000000 
#    y 0.000000 1.975040 0.000000 
#    z 0.000000 0.000000 1.974780 
# 
# From -- ./inp_files/24634.got.cif
#   From: 2010.03.12/outbox.cif.g09.slc.cpg/sg24_13_cif.got.tgz:24634.got - 2010.04.14 03:06:53.
