data_PCOD8165134
_publ_section_title
;
Structure prediction by ZEFSAII (Michael W. Deem and Ramdas Pophale) SiO2 
 PCOD8165134
Probable space group: I 21 21 21
;
_chemical_formula_sum "Si O2"
_cell_formula_units_Z 56
_cell_length_a 12.518892
_cell_length_b 10.660169
_cell_length_c 17.252249
_cell_angle_alpha 90.000000
_cell_angle_beta 90.000000
_cell_angle_gamma 90.000000
_cell_volume 2302.373088
_symmetry_space_group_name_H-M "I 21 21 21"
_symmetry_group_IT_number 24
_symmetry_cell_setting 'orthorhombic'
loop_
_space_group_symop_operation_xyz
x,y,z
-x,1/2-y,z
x,-y,1/2-z
1/2-x,y,-z
1/2+x,1/2+y,1/2+z
1/2-x,-y,1/2+z
1/2+x,1/2-y,-z
-x,1/2+y,1/2-z
loop_
_atom_site_type_symbol
_atom_site_label
_atom_site_fract_x
_atom_site_fract_y
_atom_site_fract_z
Si Si1 0.000000 0.250000 0.551099
Si Si2 0.257431 0.500000 0.374662
Si Si3 0.695772 0.733513 0.164801
Si Si4 0.922890 0.639762 0.157613
Si Si5 0.304228 0.766487 0.335200
Si Si6 0.575937 0.000000 0.513332
Si Si7 0.500000 0.250000 0.051099
Si Si8 0.577110 0.639762 0.657613
O O1 0.100553 0.216772 0.604743
O O2 0.008887 0.371307 0.495736
O O3 0.275616 0.378874 0.322153
O O4 0.275616 0.621126 0.322153
O O5 0.338612 0.500000 0.445196
O O6 0.135952 0.500000 0.404526
O O7 0.800889 0.664555 0.131181
O O8 0.663626 0.679851 0.250000
O O9 0.927798 0.635167 0.250000
O O10 0.955998 0.500000 0.124025
O O11 0.000000 0.750000 0.126243
O O12 0.399447 0.783228 0.395257
O O13 0.199111 0.835445 0.368819
O O14 0.508887 0.871307 0.504264
O O15 0.500000 0.750000 0.626243
#
# Coordination Sequence:
#
# PCOD8165134 Si02
#       8
#     4   8   8   8   8   8   4   8
#     4  10  21  38  64  94 127 170 214 272 332 408
#     4   9  19  38  60  83 122 169 218 254 300 394
#     4  10  20  35  61  96 130 161 204 270 347 405
#     4   9  19  34  52  77 116 161 201 247 310 387
#     4  10  20  35  61  96 130 161 204 270 347 405
#     4   9  20  40  62  82 120 171 221 260 310 377
#     4  10  21  38  64  94 127 170 214 272 332 408
#     4   9  19  34  52  77 116 161 201 247 310 387
#
# _framework density 24.32273
#
# number of rings (size 3 to 8) (size 9 to 14) (size 15 to 20)
#    0.000    2.571    0.000    0.857    4.000    0.000 
#    2.571    1.429    0.000    3.429    0.000    0.000 
#    0.000    0.000    0.000    0.000    0.000    0.000 
#
# Total GULP energy -347170.373723 kJ/mol
# GULP energy per Si atom -12398.941919 kJ/mol
# Density = 2.426737 g / cm^3
# Si number density = 24.322730 Si / 1000 Ang^3
#
#
#
# Elastic Constant Matrix: (Units=GPa)
#
#
# Indices 1 2 3 4 5 6 
#
# 1 147.8056 79.0539 29.1587 0.0000 0.0000 0.0000
# 2 79.0539 173.6229 28.3861 0.0000 0.0000 0.0000
# 3 29.1587 28.3861 50.7903 0.0000 0.0000 0.0000
# 4 0.0000 0.0000 0.0000 21.4667 0.0000 0.0000
# 5 0.0000 0.0000 0.0000 0.0000 21.1908 0.0000
# 6 0.0000 0.0000 0.0000 0.0000 0.0000 46.0098
#
#
#
# Elastic Compliance Matrix: (Units=1/GPa)
#
#
# Indices 1 2 3 4 5 6 
#
# 1 0.009425 -0.003749 -0.003315 0.000000 0.000000 0.000000
# 2 -0.003749 0.007830 -0.002224 0.000000 0.000000 0.000000
# 3 -0.003315 -0.002224 0.022835 0.000000 0.000000 0.000000
# 4 0.000000 0.000000 0.000000 0.046584 0.000000 0.000000
# 5 0.000000 0.000000 0.000000 0.000000 0.047190 0.000000
# 6 0.000000 0.000000 0.000000 0.000000 0.000000 0.021734
#
#
# Mechanical properties :
#
#
# Convention : Reuss Voigt Hill
#
# Bulk Modulus (GPa) = 46.48298 71.71292 59.09795
# Shear Modulus (GPa) = 27.57142 33.44148 30.50645
#
# Velocity S-wave (km/s) = 3.37050 3.71200 3.54536
# Velocity P-wave (km/s) = 5.85657 6.92241 6.41168
#
# Compressibility (1/GPa) = 0.02151325
#
# Stress axis : x y z
#
# Youngs Moduli (GPa) = 106.10023 127.70850 43.79237
#
# Poissons Ratio (x) = 0.47882 0.14519
# Poissons Ratio (y) = 0.39781 0.09738
# Poissons Ratio (z) = 0.35177 0.28399
#
# Static dielectric constant tensor:
#      x y z
#    x 4.405390 0.000000 0.000000 
#    y 0.000000 4.810060 0.000000 
#    z 0.000000 0.000000 4.038110 
# 
# 
# High freq. dielectric constant tensor:
#      x y z
#    x 1.970490 0.000000 0.000000 
#    y 0.000000 1.974020 0.000000 
#    z 0.000000 0.000000 1.976520 
# 
# From -- ./inp_files/33409.got.cif
#   From: 2010.03.12/outbox.cif.g09.slc.cpg/sg24_17_cif.got.tgz:33409.got - 2010.04.14 03:06:53.
