data_PCOD8165751
_publ_section_title
;
Structure prediction by ZEFSAII (Michael W. Deem and Ramdas Pophale) SiO2 
 PCOD8165751
Probable space group: I 21 21 21
;
_chemical_formula_sum "Si O2"
_cell_formula_units_Z 28
_cell_length_a 30.360584
_cell_length_b 8.145695
_cell_length_c 4.814670
_cell_angle_alpha 90.000000
_cell_angle_beta 90.000000
_cell_angle_gamma 90.000000
_cell_volume 1190.706684
_symmetry_space_group_name_H-M "I 21 21 21"
_symmetry_group_IT_number 24
_symmetry_cell_setting 'orthorhombic'
loop_
_space_group_symop_operation_xyz
x,y,z
-x,1/2-y,z
x,-y,1/2-z
1/2-x,y,-z
1/2+x,1/2+y,1/2+z
1/2-x,-y,1/2+z
1/2+x,1/2-y,-z
-x,1/2+y,1/2-z
loop_
_atom_site_type_symbol
_atom_site_label
_atom_site_fract_x
_atom_site_fract_y
_atom_site_fract_z
Si Si1 0.250000 0.104223 0.000000
Si Si2 0.466193 0.888746 0.011449
Si Si3 0.385865 0.689104 0.255759
Si Si4 0.327716 0.312446 0.744126
O O1 0.286760 0.207158 0.840779
O O2 0.227824 0.000000 0.750000
O O3 0.500000 0.750000 0.907181
O O4 0.424106 0.808886 0.159022
O O5 0.489121 0.000000 0.250000
O O6 0.452426 0.000000 0.750000
O O7 0.401856 0.500000 0.250000
O O8 0.371038 0.725790 0.570155
O O9 0.342449 0.724245 0.070007
O O10 0.312334 0.500000 0.750000
#
# Coordination Sequence:
#
# PCOD8165751 Si02
#       4
#     4   8   8   8
#     4  12  26  40  62  96 134 168 212 274 322 370
#     4  12  26  43  67  97 132 172 212 263 319 381
#     4  10  22  42  67  94 125 165 215 266 317 378
#     4  10  23  42  65  91 126 172 214 258 319 389
#
# _framework density 23.515447999999999
#
# number of rings (size 3 to 8) (size 9 to 14) (size 15 to 20)
#    0.000    1.143    0.000    5.143    0.000   14.857 
#    0.000    0.000    0.000    0.000    0.000    0.000 
#    0.000    0.000    0.000    0.000    0.000    0.000 
#
# Total GULP energy -173591.128896 kJ/mol
# GULP energy per Si atom -12399.366350 kJ/mol
# Density = 2.346193 g / cm^3
# Si number density = 23.515448 Si / 1000 Ang^3
#
#
#
# Elastic Constant Matrix: (Units=GPa)
#
#
# Indices 1 2 3 4 5 6 
#
# 1 73.0077 54.5940 5.4943 -0.0009 0.0002 0.0000
# 2 54.5940 125.6879 50.5144 -0.0004 0.0001 0.0002
# 3 5.4943 50.5144 116.8513 -0.0021 0.0006 -0.0001
# 4 -0.0009 -0.0004 -0.0021 49.2667 0.0001 0.0001
# 5 0.0002 0.0001 0.0006 0.0001 16.1780 0.0000
# 6 0.0000 0.0002 -0.0001 0.0001 0.0000 16.8078
#
#
#
# Elastic Compliance Matrix: (Units=1/GPa)
#
#
# Indices 1 2 3 4 5 6 
#
# 1 0.021509 -0.010815 0.003664 0.000000 0.000000 0.000000
# 2 -0.010815 0.015067 -0.006005 0.000000 0.000000 0.000000
# 3 0.003664 -0.006005 0.010982 0.000000 0.000000 0.000000
# 4 0.000000 0.000000 0.000000 0.020298 0.000000 0.000000
# 5 0.000000 0.000000 0.000000 0.000000 0.061812 0.000000
# 6 0.000000 0.000000 0.000000 0.000000 0.000000 0.059496
#
#
# Mechanical properties :
#
#
# Convention : Reuss Voigt Hill
#
# Bulk Modulus (GPa) = 47.06903 59.63913 53.35408
# Shear Modulus (GPa) = 22.46602 30.11345 26.28973
#
# Velocity S-wave (km/s) = 3.09426 3.58240 3.34724
# Velocity P-wave (km/s) = 5.72937 6.52137 6.13815
#
# Compressibility (1/GPa) = 0.02124539
#
# Stress axis : x y z
#
# Youngs Moduli (GPa) = 46.49236 66.36852 91.06170
#
# Poissons Ratio (x) = 0.71779 -0.33365
# Poissons Ratio (y) = 0.50283 0.54683
# Poissons Ratio (z) = -0.17035 0.39855
#
# Static dielectric constant tensor:
#      x y z
#    x 3.719630 0.000000 0.000000 
#    y 0.000000 4.480110 0.000000 
#    z 0.000000 0.000000 4.680810 
# 
# 
# High freq. dielectric constant tensor:
#      x y z
#    x 1.911010 0.000000 0.000000 
#    y 0.000000 1.942870 0.000000 
#    z 0.000000 0.000000 1.955140 
# 
# From -- ./inp_files/6785.got.cif
#   From: 2010.03.12/outbox.cif.g09.slc.cpg/sg24_4_cif.got.tgz:6785.got - 2010.04.14 03:06:53.
