data_PCOD8165082
_publ_section_title
;
Structure prediction by ZEFSAII (Michael W. Deem and Ramdas Pophale) SiO2 
 PCOD8165082
Probable space group: I 21 21 21
;
_chemical_formula_sum "Si O2"
_cell_formula_units_Z 64
_cell_length_a 23.539608
_cell_length_b 16.507061
_cell_length_c 8.427641
_cell_angle_alpha 90.000000
_cell_angle_beta 90.000000
_cell_angle_gamma 90.000000
_cell_volume 3274.726316
_symmetry_space_group_name_H-M "I 21 21 21"
_symmetry_group_IT_number 24
_symmetry_cell_setting 'orthorhombic'
loop_
_space_group_symop_operation_xyz
x,y,z
-x,1/2-y,z
x,-y,1/2-z
1/2-x,y,-z
1/2+x,1/2+y,1/2+z
1/2-x,-y,1/2+z
1/2+x,1/2-y,-z
-x,1/2+y,1/2-z
loop_
_atom_site_type_symbol
_atom_site_label
_atom_site_fract_x
_atom_site_fract_y
_atom_site_fract_z
Si Si1 0.807267 0.508676 0.935771
Si Si2 0.474417 0.833246 0.417070
Si Si3 0.264854 0.252966 0.180268
Si Si4 0.384974 0.241801 0.314724
Si Si5 0.827885 0.330063 0.396554
Si Si6 0.898144 0.572689 0.354185
Si Si7 0.793062 0.070331 0.873423
Si Si8 0.086609 0.410253 0.815348
O O1 0.809556 0.500000 0.750000
O O2 0.750000 0.465173 0.000000
O O3 0.803587 0.602598 0.984241
O O4 0.862231 0.466462 0.004996
O O5 0.500000 0.750000 0.479826
O O6 0.434499 0.815406 0.262240
O O7 0.444153 0.870363 0.568398
O O8 0.525452 0.895574 0.389803
O O9 0.328409 0.221792 0.213737
O O10 0.222820 0.221614 0.317915
O O11 0.262567 0.350216 0.197053
O O12 0.250000 0.225877 0.000000
O O13 0.372606 0.223258 0.500242
O O14 0.402622 0.336848 0.310575
O O15 0.859096 0.371495 0.251840
O O16 0.925724 0.500000 0.250000
O O17 0.857674 0.092825 0.933119
O O18 0.802472 0.000000 0.750000
O O19 0.750000 0.032929 0.000000
O O20 0.082047 0.500000 0.750000
#
# Coordination Sequence:
#
# PCOD8165082 Si02
#       8
#     8   8   8   8   8   8   8   8
#     4  11  22  36  55  83 117 153 190 232 282 338
#     4  10  21  40  61  79 108 151 194 236 286 343
#     4  10  20  33  54  85 119 153 189 231 283 340
#     4  10  20  35  58  84 112 151 193 233 284 339
#     4  11  22  36  56  86 119 149 191 239 284 339
#     4  10  23  39  56  81 113 149 189 235 287 339
#     4   9  19  36  58  84 114 146 182 227 283 342
#     4   9  20  37  58  84 112 144 186 233 280 338
#
# _framework density 19.543619
#
# number of rings (size 3 to 8) (size 9 to 14) (size 15 to 20)
#    0.000    2.000    0.000    3.750    0.000    9.000 
#    0.000    3.750    0.000    0.000    0.000    0.000 
#    0.000    0.000    0.000    0.000    0.000    0.000 
#
# Total GULP energy -396467.614287 kJ/mol
# GULP energy per Si atom -12389.612946 kJ/mol
# Density = 1.949914 g / cm^3
# Si number density = 19.543619 Si / 1000 Ang^3
#
#
#
# Elastic Constant Matrix: (Units=GPa)
#
#
# Indices 1 2 3 4 5 6 
#
# 1 106.9903 49.1865 45.5650 0.0000 0.0000 0.0000
# 2 49.1865 96.2235 45.3400 0.0000 0.0000 0.0000
# 3 45.5650 45.3400 115.4481 0.0000 0.0000 0.0000
# 4 0.0000 0.0000 0.0000 -213.0676 0.0000 0.0000
# 5 0.0000 0.0000 0.0000 0.0000 8.5149 0.0000
# 6 0.0000 0.0000 0.0000 0.0000 0.0000 22.5030
#
#
#
# Elastic Compliance Matrix: (Units=1/GPa)
#
#
# Indices 1 2 3 4 5 6 
#
# 1 0.013068 -0.005215 -0.003110 0.000000 0.000000 0.000000
# 2 -0.005215 0.014833 -0.003767 0.000000 0.000000 0.000000
# 3 -0.003110 -0.003767 0.011369 0.000000 0.000000 0.000000
# 4 0.000000 0.000000 0.000000 -0.004693 0.000000 0.000000
# 5 0.000000 0.000000 0.000000 0.000000 0.117442 0.000000
# 6 0.000000 0.000000 0.000000 0.000000 0.000000 0.044439
#
#
# Mechanical properties :
#
#
# Convention : Reuss Voigt Hill
#
# Bulk Modulus (GPa) = 66.28390 66.53832 66.41111
# Shear Modulus (GPa) = 22.15623 -24.50526 -1.17451
#
# Velocity S-wave (km/s) = 3.37067 -3.54485 -0.77606
# Velocity P-wave (km/s) = 7.00986 4.16717 5.76643
#
# Compressibility (1/GPa) = 0.01508662
#
# Stress axis : x y z
#
# Youngs Moduli (GPa) = 76.52004 67.41599 87.95994
#
# Poissons Ratio (x) = 0.35157 0.27354
# Poissons Ratio (y) = 0.39904 0.33137
# Poissons Ratio (z) = 0.23796 0.25398
#
# Static dielectric constant tensor:
#      x y z
#    x 5.921300 0.000000 0.000000 
#    y 0.000000 3.849210 0.000000 
#    z 0.000000 0.000000 3.340190 
# 
# 
# High freq. dielectric constant tensor:
#      x y z
#    x 1.770350 0.000000 0.000000 
#    y 0.000000 1.777110 0.000000 
#    z 0.000000 0.000000 1.737100 
# 
# From -- ./inp_files/16072.got.cif
#   From: 2010.03.12/outbox.cif.g09.slc.cpg/sg24_9_cif.got.tgz:16072.got - 2010.04.14 03:06:53.
