data_PCOD8165233
_publ_section_title
;
Structure prediction by ZEFSAII (Michael W. Deem and Ramdas Pophale) SiO2 
 PCOD8165233
Probable space group: I 21 21 21
;
_chemical_formula_sum "Si O2"
_cell_formula_units_Z 60
_cell_length_a 8.784551
_cell_length_b 22.202972
_cell_length_c 14.924996
_cell_angle_alpha 90.000000
_cell_angle_beta 90.000000
_cell_angle_gamma 90.000000
_cell_volume 2911.018083
_symmetry_space_group_name_H-M "I 21 21 21"
_symmetry_group_IT_number 24
_symmetry_cell_setting 'orthorhombic'
loop_
_space_group_symop_operation_xyz
x,y,z
-x,1/2-y,z
x,-y,1/2-z
1/2-x,y,-z
1/2+x,1/2+y,1/2+z
1/2-x,-y,1/2+z
1/2+x,1/2-y,-z
-x,1/2+y,1/2-z
loop_
_atom_site_type_symbol
_atom_site_label
_atom_site_fract_x
_atom_site_fract_y
_atom_site_fract_z
Si Si1 0.474202 0.082145 0.368550
Si Si2 0.750000 0.957222 0.500000
Si Si3 0.177648 0.638789 0.635153
Si Si4 0.301066 0.567639 0.787406
Si Si5 0.845971 0.644624 0.704578
Si Si6 0.999003 0.547316 0.060570
Si Si7 0.247603 0.017542 0.844001
Si Si8 0.680517 0.738482 0.590557
O O1 0.647905 0.082404 0.341212
O O2 0.365022 0.128898 0.312152
O O3 0.469630 0.092374 0.476576
O O4 0.417041 0.014437 0.348250
O O5 0.848229 0.915463 0.565850
O O6 0.634192 0.999653 0.551321
O O7 0.302095 0.615632 0.707154
O O8 0.245750 0.696375 0.588585
O O9 0.016138 0.658405 0.674141
O O10 0.305862 0.500000 0.750000
O O11 0.446626 0.583781 0.850767
O O12 0.775150 0.588766 0.649879
O O13 0.735356 0.700651 0.679111
O O14 0.847557 0.508283 0.075144
O O15 0.328990 0.000000 0.750000
O O16 0.500000 0.750000 0.588893
O O17 0.750000 0.706829 0.500000
#
# Coordination Sequence:
#
# PCOD8165233 Si02
#       8
#     8   4   8   8   8   8   8   8
#     4  10  20  38  56  87 123 166 209 254 313 379
#     4  12  22  32  58  86 134 162 206 248 312 372
#     4  11  23  39  60  86 124 170 209 261 312 384
#     4  11  19  34  57  86 127 165 204 251 310 381
#     4  10  23  42  62  82 122 170 214 257 319 376
#     4  12  21  33  57  94 128 163 210 251 314 380
#     4  10  22  35  56  87 123 158 200 253 315 376
#     4  12  27  43  64  90 123 162 216 266 321 390
#
# _framework density 20.611346000000001
#
# number of rings (size 3 to 8) (size 9 to 14) (size 15 to 20)
#    0.000    1.067    3.333    4.800    1.867    2.133 
#    0.000    0.000    0.000    0.000    0.000   35.467 
#    0.000    0.000    0.000    0.000    0.000    0.000 
#
# Total GULP energy -371740.883518 kJ/mol
# GULP energy per Si atom -12391.362784 kJ/mol
# Density = 2.056443 g / cm^3
# Si number density = 20.611346 Si / 1000 Ang^3
#
#
#
# Elastic Constant Matrix: (Units=GPa)
#
#
# Indices 1 2 3 4 5 6 
#
# 1 80.7357 22.1059 25.8189 0.0000 0.0000 0.0000
# 2 22.1059 60.6746 21.2688 0.0001 0.0000 0.0000
# 3 25.8189 21.2688 106.9774 0.0003 -0.0001 0.0000
# 4 0.0000 0.0001 0.0003 27.3205 0.0000 0.0000
# 5 0.0000 0.0000 -0.0001 0.0000 37.0221 0.0000
# 6 0.0000 0.0000 0.0000 0.0000 0.0000 23.7211
#
#
#
# Elastic Compliance Matrix: (Units=1/GPa)
#
#
# Indices 1 2 3 4 5 6 
#
# 1 0.014409 -0.004333 -0.002616 0.000000 0.000000 0.000000
# 2 -0.004333 0.019019 -0.002736 0.000000 0.000000 0.000000
# 3 -0.002616 -0.002736 0.010523 0.000000 0.000000 0.000000
# 4 0.000000 0.000000 0.000000 0.036603 0.000000 0.000000
# 5 0.000000 0.000000 0.000000 0.000000 0.027011 0.000000
# 6 0.000000 0.000000 0.000000 0.000000 0.000000 0.042157
#
#
# Mechanical properties :
#
#
# Convention : Reuss Voigt Hill
#
# Bulk Modulus (GPa) = 40.68000 42.97497 41.82749
# Shear Modulus (GPa) = 28.20337 29.55901 28.88119
#
# Velocity S-wave (km/s) = 3.70312 3.79108 3.74736
# Velocity P-wave (km/s) = 6.16958 6.32917 6.24989
#
# Compressibility (1/GPa) = 0.02458210
#
# Stress axis : x y z
#
# Youngs Moduli (GPa) = 69.40089 52.57956 95.02941
#
# Poissons Ratio (x) = 0.22781 0.24862
# Poissons Ratio (y) = 0.30069 0.25996
# Poissons Ratio (z) = 0.18157 0.14383
#
# Static dielectric constant tensor:
#      x y z
#    x 3.845840 0.000000 0.000000 
#    y 0.000000 3.411040 0.000000 
#    z 0.000000 0.000000 4.173390 
# 
# 
# High freq. dielectric constant tensor:
#      x y z
#    x 1.814400 0.000000 0.000000 
#    y 0.000000 1.758710 0.000000 
#    z 0.000000 0.000000 1.818540 
# 
# From -- ./inp_files/25180.got.cif
#   From: 2010.03.12/outbox.cif.g09.slc.cpg/sg24_13_cif.got.tgz:25180.got - 2010.04.14 03:06:53.
