data_PCOD8165324
_publ_section_title
;
Structure prediction by ZEFSAII (Michael W. Deem and Ramdas Pophale) SiO2 
 PCOD8165324
Probable space group: I 21 21 21
;
_chemical_formula_sum "Si O2"
_cell_formula_units_Z 56
_cell_length_a 17.063008
_cell_length_b 10.404484
_cell_length_c 15.052496
_cell_angle_alpha 90.000000
_cell_angle_beta 90.000000
_cell_angle_gamma 90.000000
_cell_volume 2672.296615
_symmetry_space_group_name_H-M "I 21 21 21"
_symmetry_group_IT_number 24
_symmetry_cell_setting 'orthorhombic'
loop_
_space_group_symop_operation_xyz
x,y,z
-x,1/2-y,z
x,-y,1/2-z
1/2-x,y,-z
1/2+x,1/2+y,1/2+z
1/2-x,-y,1/2+z
1/2+x,1/2-y,-z
-x,1/2+y,1/2-z
loop_
_atom_site_type_symbol
_atom_site_label
_atom_site_fract_x
_atom_site_fract_y
_atom_site_fract_z
Si Si1 0.122408 0.910936 0.134541
Si Si2 0.085902 0.031088 0.965015
Si Si3 0.582827 0.945450 0.388869
Si Si4 0.913244 0.199819 0.711758
Si Si5 0.161710 0.717102 0.470461
Si Si6 0.914286 0.699909 0.308628
Si Si7 0.295021 0.922126 0.164383
O O1 0.093961 0.795656 0.200372
O O2 0.214365 0.884440 0.116660
O O3 0.102153 0.051415 0.171940
O O4 0.082522 0.912548 0.036353
O O5 0.007491 0.036670 0.909920
O O6 0.157300 0.015825 0.898358
O O7 0.100929 0.167855 0.010692
O O8 0.590892 0.833196 0.316065
O O9 0.632986 0.909711 0.476684
O O10 0.611937 0.079175 0.348478
O O11 0.847855 0.303202 0.691885
O O12 0.000000 0.250000 0.686702
O O13 0.250000 0.748418 0.500000
O O14 0.149374 0.708646 0.362374
O O15 0.000000 0.750000 0.335687
O O16 0.267702 0.000000 0.250000
#
# Coordination Sequence:
#
# PCOD8165324 Si02
#       7
#     8   8   8   8   8   8   8
#     4  10  22  39  63 101 127 162 225 276 331 388
#     4  11  21  38  65  96 128 168 219 276 330 404
#     4  11  23  41  62  94 133 174 222 269 336 414
#     4  11  23  39  62  97 134 175 213 270 345 410
#     4  11  22  36  65  96 127 168 223 273 331 393
#     4  10  20  40  65  92 129 164 216 282 325 393
#     4  12  21  37  68  97 133 168 218 278 336 400
#
# _framework density 20.955757999999999
#
# number of rings (size 3 to 8) (size 9 to 14) (size 15 to 20)
#    0.000    1.143    2.857    6.857    2.000    0.000 
#    2.571    1.429    6.286    0.000    0.000    0.000 
#    0.000    0.000    0.000    0.000    0.000    0.000 
#
# Total GULP energy -346985.552715 kJ/mol
# GULP energy per Si atom -12392.341168 kJ/mol
# Density = 2.090806 g / cm^3
# Si number density = 20.955758 Si / 1000 Ang^3
#
#
#
# Elastic Constant Matrix: (Units=GPa)
#
#
# Indices 1 2 3 4 5 6 
#
# 1 108.2214 26.9510 10.1556 0.0000 0.0000 0.0000
# 2 26.9510 66.7504 23.1045 0.0000 0.0000 0.0000
# 3 10.1556 23.1045 84.0344 0.0000 0.0000 0.0000
# 4 0.0000 0.0000 0.0000 21.2552 0.0000 0.0000
# 5 0.0000 0.0000 0.0000 0.0000 19.1215 0.0000
# 6 0.0000 0.0000 0.0000 0.0000 0.0000 9.5699
#
#
#
# Elastic Compliance Matrix: (Units=1/GPa)
#
#
# Indices 1 2 3 4 5 6 
#
# 1 0.010274 -0.004110 -0.000112 0.000000 0.000000 0.000000
# 2 -0.004110 0.018201 -0.004507 0.000000 0.000000 0.000000
# 3 -0.000112 -0.004507 0.013153 0.000000 0.000000 0.000000
# 4 0.000000 0.000000 0.000000 0.047047 0.000000 0.000000
# 5 0.000000 0.000000 0.000000 0.000000 0.052297 0.000000
# 6 0.000000 0.000000 0.000000 0.000000 0.000000 0.104495
#
#
# Mechanical properties :
#
#
# Convention : Reuss Voigt Hill
#
# Bulk Modulus (GPa) = 41.37374 42.15871 41.76622
# Shear Modulus (GPa) = 18.45149 23.24233 20.84691
#
# Velocity S-wave (km/s) = 2.97054 3.33395 3.15748
# Velocity P-wave (km/s) = 5.61709 5.91455 5.76774
#
# Compressibility (1/GPa) = 0.02416992
#
# Stress axis : x y z
#
# Youngs Moduli (GPa) = 97.33066 54.94303 76.03019
#
# Poissons Ratio (x) = 0.22580 0.00850
# Poissons Ratio (y) = 0.39999 0.34270
# Poissons Ratio (z) = 0.01088 0.24765
#
# Static dielectric constant tensor:
#      x y z
#    x 3.637770 0.000000 0.000000 
#    y 0.000000 3.600600 0.000000 
#    z 0.000000 0.000000 4.618240 
# 
# 
# High freq. dielectric constant tensor:
#      x y z
#    x 1.817750 0.000000 0.000000 
#    y 0.000000 1.786730 0.000000 
#    z 0.000000 0.000000 1.840630 
# 
# From -- ./inp_files/26519.got.cif
#   From: 2010.03.12/outbox.cif.g09.slc.cpg/sg24_14_cif.got.tgz:26519.got - 2010.04.14 03:06:53.
