data_PCOD8165834
_publ_section_title
;
Structure prediction by ZEFSAII (Michael W. Deem and Ramdas Pophale) SiO2 
 PCOD8165834
Probable space group: I 21 21 21
;
_chemical_formula_sum "Si O2"
_cell_formula_units_Z 56
_cell_length_a 11.939660
_cell_length_b 12.317752
_cell_length_c 18.424313
_cell_angle_alpha 90.000000
_cell_angle_beta 90.000000
_cell_angle_gamma 90.000000
_cell_volume 2709.659491
_symmetry_space_group_name_H-M "I 21 21 21"
_symmetry_group_IT_number 24
_symmetry_cell_setting 'orthorhombic'
loop_
_space_group_symop_operation_xyz
x,y,z
-x,1/2-y,z
x,-y,1/2-z
1/2-x,y,-z
1/2+x,1/2+y,1/2+z
1/2-x,-y,1/2+z
1/2+x,1/2-y,-z
-x,1/2+y,1/2-z
loop_
_atom_site_type_symbol
_atom_site_label
_atom_site_fract_x
_atom_site_fract_y
_atom_site_fract_z
Si Si1 0.070359 0.573565 0.820956
Si Si2 0.222800 0.261140 0.167015
Si Si3 0.843862 0.593282 0.445388
Si Si4 0.000000 0.750000 0.240156
Si Si5 0.627412 0.569591 0.822185
Si Si6 0.158150 0.805681 0.801019
Si Si7 0.000000 0.250000 0.975785
Si Si8 0.175456 0.416127 0.928025
O O1 0.099732 0.500000 0.750000
O O2 0.141529 0.683295 0.828670
O O3 0.097172 0.513047 0.897489
O O4 0.941211 0.609799 0.816172
O O5 0.220556 0.185833 0.097278
O O6 0.107680 0.265023 0.210359
O O7 0.322334 0.209166 0.214907
O O8 0.241906 0.383871 0.138309
O O9 0.750000 0.544185 0.500000
O O10 0.894478 0.502499 0.392441
O O11 0.953341 0.647344 0.479807
O O12 0.017363 0.856420 0.190244
O O13 0.653920 0.500000 0.750000
O O14 0.732968 0.646102 0.839957
O O15 0.898901 0.194016 0.932622
O O16 0.250000 0.444806 0.000000
#
# Coordination Sequence:
#
# PCOD8165834 Si02
#       8
#     8   8   8   4   8   8   4   8
#     4  11  24  39  68 102 129 182 216 291 354 403
#     4  11  20  43  65 105 135 167 224 291 339 413
#     4  12  24  41  67 103 134 180 224 287 356 406
#     4  10  23  42  68 100 140 171 226 288 335 416
#     4  11  23  42  68 100 130 182 225 284 342 413
#     4  10  23  42  65 101 136 161 239 277 336 421
#     4  12  25  42  66 100 138 175 236 292 347 424
#     4  12  26  42  65 104 140 180 225 291 363 412
#
# _framework density 20.666803999999999
#
# number of rings (size 3 to 8) (size 9 to 14) (size 15 to 20)
#    0.000    0.857    7.143    0.857    4.000    0.000 
#   10.286    0.714    0.000    0.000    0.000    0.000 
#    0.000    0.000    0.000    0.000    0.000    0.000 
#
# Total GULP energy -346985.132311 kJ/mol
# GULP energy per Si atom -12392.326154 kJ/mol
# Density = 2.061977 g / cm^3
# Si number density = 20.666804 Si / 1000 Ang^3
#
#
#
# Elastic Constant Matrix: (Units=GPa)
#
#
# Indices 1 2 3 4 5 6 
#
# 1 88.8192 53.6487 51.9296 0.0000 0.0000 0.0000
# 2 53.6487 118.1718 42.5408 0.0000 0.0000 0.0000
# 3 51.9296 42.5408 83.2067 0.0000 0.0000 0.0000
# 4 0.0000 0.0000 0.0000 3.1607 0.0000 0.0000
# 5 0.0000 0.0000 0.0000 0.0000 9.9781 0.0000
# 6 0.0000 0.0000 0.0000 0.0000 0.0000 34.3745
#
#
#
# Elastic Compliance Matrix: (Units=1/GPa)
#
#
# Indices 1 2 3 4 5 6 
#
# 1 0.020494 -0.005760 -0.009846 0.000000 0.000000 0.000000
# 2 -0.005760 0.011990 -0.002535 0.000000 0.000000 0.000000
# 3 -0.009846 -0.002535 0.019459 0.000000 0.000000 0.000000
# 4 0.000000 0.000000 0.000000 0.316388 0.000000 0.000000
# 5 0.000000 0.000000 0.000000 0.000000 0.100219 0.000000
# 6 0.000000 0.000000 0.000000 0.000000 0.000000 0.029091
#
#
# Mechanical properties :
#
#
# Convention : Reuss Voigt Hill
#
# Bulk Modulus (GPa) = 63.85015 65.15954 64.50484
# Shear Modulus (GPa) = 9.27396 18.97456 14.12426
#
# Velocity S-wave (km/s) = 2.12064 3.03333 2.61708
# Velocity P-wave (km/s) = 6.07933 6.62308 6.35702
#
# Compressibility (1/GPa) = 0.01566167
#
# Stress axis : x y z
#
# Youngs Moduli (GPa) = 48.79385 83.40402 51.38938
#
# Poissons Ratio (x) = 0.48039 0.50597
# Poissons Ratio (y) = 0.28104 0.13029
# Poissons Ratio (z) = 0.48041 0.21145
#
# Static dielectric constant tensor:
#      x y z
#    x 4.920650 0.000000 0.000000 
#    y 0.000000 4.786900 0.000000 
#    z 0.000000 0.000000 3.767660 
# 
# 
# High freq. dielectric constant tensor:
#      x y z
#    x 1.815640 0.000000 0.000000 
#    y 0.000000 1.809180 0.000000 
#    z 0.000000 0.000000 1.793680 
# 
# From -- ./inp_files/33394.got.cif
#   From: 2010.03.12/outbox.cif.g09.slc.cpg/sg24_17_cif.got.tgz:33394.got - 2010.04.14 03:06:53.
