data_PCOD8165472
_publ_section_title
;
Structure prediction by ZEFSAII (Michael W. Deem and Ramdas Pophale) SiO2 
 PCOD8165472
Probable space group: I 21 21 21
;
_chemical_formula_sum "Si O2"
_cell_formula_units_Z 64
_cell_length_a 9.441796
_cell_length_b 11.169747
_cell_length_c 30.418988
_cell_angle_alpha 90.000000
_cell_angle_beta 90.000000
_cell_angle_gamma 90.000000
_cell_volume 3208.061687
_symmetry_space_group_name_H-M "I 21 21 21"
_symmetry_group_IT_number 24
_symmetry_cell_setting 'orthorhombic'
loop_
_space_group_symop_operation_xyz
x,y,z
-x,1/2-y,z
x,-y,1/2-z
1/2-x,y,-z
1/2+x,1/2+y,1/2+z
1/2-x,-y,1/2+z
1/2+x,1/2-y,-z
-x,1/2+y,1/2-z
loop_
_atom_site_type_symbol
_atom_site_label
_atom_site_fract_x
_atom_site_fract_y
_atom_site_fract_z
Si Si1 0.221943 0.474909 0.859501
Si Si2 0.343865 0.409957 0.040529
Si Si3 0.347103 0.871009 0.462507
Si Si4 0.051490 0.880265 0.839829
Si Si5 0.665290 0.740520 0.686212
Si Si6 0.996182 0.879490 0.145201
Si Si7 0.792565 0.623979 0.226458
Si Si8 0.224996 0.037953 0.121795
O O1 0.218275 0.448958 0.912135
O O2 0.252883 0.353313 0.833592
O O3 0.336680 0.576225 0.847416
O O4 0.076639 0.525190 0.839434
O O5 0.362713 0.269866 0.031707
O O6 0.508657 0.449755 0.038341
O O7 0.250000 0.464171 0.000000
O O8 0.250000 0.928676 0.500000
O O9 0.259606 0.876947 0.417889
O O10 0.133008 0.870533 0.793099
O O11 0.000000 0.750000 0.855411
O O12 0.163710 0.929456 0.875073
O O13 0.500000 0.750000 0.674366
O O14 0.690985 0.732661 0.738606
O O15 0.728058 0.618370 0.665751
O O16 0.000000 0.750000 0.121559
O O17 0.085613 0.862932 0.190027
O O18 0.070665 0.979092 0.114608
O O19 0.822697 0.500000 0.250000
#
# Coordination Sequence:
#
# PCOD8165472 Si02
#       8
#     8   8   8   8   8   8   8   8
#     4  12  23  41  70  99 130 176 221 271 341 395
#     4  10  22  37  62 102 137 162 206 270 329 409
#     4  10  21  38  63  95 135 167 193 259 345 403
#     4  11  25  43  63  89 129 180 221 266 330 389
#     4  12  23  40  68  99 127 172 220 283 328 391
#     4  11  24  41  64  87 125 180 226 267 315 391
#     4  11  22  44  62  89 133 167 219 278 329 383
#     4  11  21  42  65  90 131 169 214 264 331 391
#
# _framework density 19.949742000000001
#
# number of rings (size 3 to 8) (size 9 to 14) (size 15 to 20)
#    0.000    1.000    6.250    1.875    1.750    1.500 
#    0.000    1.875    0.000    4.500    0.000    0.000 
#    0.000    0.000    0.000    0.000    0.000    0.000 
#
# Total GULP energy -396633.115627 kJ/mol
# GULP energy per Si atom -12394.784863 kJ/mol
# Density = 1.990434 g / cm^3
# Si number density = 19.949742 Si / 1000 Ang^3
#
#
#
# Elastic Constant Matrix: (Units=GPa)
#
#
# Indices 1 2 3 4 5 6 
#
# 1 113.8632 25.7957 52.8142 0.0000 0.0000 0.0000
# 2 25.7957 74.6598 12.8946 0.0000 0.0000 0.0000
# 3 52.8142 12.8946 110.4241 0.0000 0.0000 0.0000
# 4 0.0000 0.0000 0.0000 17.5803 0.0000 0.0000
# 5 0.0000 0.0000 0.0000 0.0000 29.4952 0.0000
# 6 0.0000 0.0000 0.0000 0.0000 0.0000 31.8383
#
#
#
# Elastic Compliance Matrix: (Units=1/GPa)
#
#
# Indices 1 2 3 4 5 6 
#
# 1 0.012000 -0.003220 -0.005363 0.000000 0.000000 0.000000
# 2 -0.003220 0.014534 -0.000157 0.000000 0.000000 0.000000
# 3 -0.005363 -0.000157 0.011640 0.000000 0.000000 0.000000
# 4 0.000000 0.000000 0.000000 0.056882 0.000000 0.000000
# 5 0.000000 0.000000 0.000000 0.000000 0.033904 0.000000
# 6 0.000000 0.000000 0.000000 0.000000 0.000000 0.031409
#
#
# Mechanical properties :
#
#
# Convention : Reuss Voigt Hill
#
# Bulk Modulus (GPa) = 48.32677 53.55068 50.93873
# Shear Modulus (GPa) = 27.06436 29.61228 28.33832
#
# Velocity S-wave (km/s) = 3.68724 3.85690 3.77302
# Velocity P-wave (km/s) = 6.51187 6.83632 6.67607
#
# Compressibility (1/GPa) = 0.02069247
#
# Stress axis : x y z
#
# Youngs Moduli (GPa) = 83.33629 68.80577 85.91419
#
# Poissons Ratio (x) = 0.22153 0.46078
# Poissons Ratio (y) = 0.26832 0.01351
# Poissons Ratio (z) = 0.44695 0.01082
#
# Static dielectric constant tensor:
#      x y z
#    x 3.987650 0.000000 0.000000 
#    y 0.000000 3.590030 0.000000 
#    z 0.000000 0.000000 3.589210 
# 
# 
# High freq. dielectric constant tensor:
#      x y z
#    x 1.796340 0.000000 0.000000 
#    y 0.000000 1.768760 0.000000 
#    z 0.000000 0.000000 1.761880 
# 
# From -- ./inp_files/18918.got.cif
#   From: 2010.03.12/outbox.cif.g09.slc.cpg/sg24_10_cif.got.tgz:18918.got - 2010.04.14 03:06:53.
