data_PCOD8165814
_publ_section_title
;
Structure prediction by ZEFSAII (Michael W. Deem and Ramdas Pophale) SiO2 
 PCOD8165814
Probable space group: I 21 21 21
;
_chemical_formula_sum "Si O2"
_cell_formula_units_Z 52
_cell_length_a 9.963091
_cell_length_b 19.219985
_cell_length_c 13.383173
_cell_angle_alpha 90.000000
_cell_angle_beta 90.000000
_cell_angle_gamma 90.000000
_cell_volume 2562.749948
_symmetry_space_group_name_H-M "I 21 21 21"
_symmetry_group_IT_number 24
_symmetry_cell_setting 'orthorhombic'
loop_
_space_group_symop_operation_xyz
x,y,z
-x,1/2-y,z
x,-y,1/2-z
1/2-x,y,-z
1/2+x,1/2+y,1/2+z
1/2-x,-y,1/2+z
1/2+x,1/2-y,-z
-x,1/2+y,1/2-z
loop_
_atom_site_type_symbol
_atom_site_label
_atom_site_fract_x
_atom_site_fract_y
_atom_site_fract_z
Si Si1 0.269439 0.193879 0.199987
Si Si2 0.633850 0.295098 0.421412
Si Si3 0.159101 0.951641 0.909644
Si Si4 0.519809 0.618658 0.636267
Si Si5 0.848255 0.500000 0.250000
Si Si6 0.767713 0.840063 0.615277
Si Si7 0.968315 0.407062 0.904058
O O1 0.307352 0.216620 0.311597
O O2 0.112061 0.176909 0.188847
O O3 0.304934 0.260010 0.132291
O O4 0.348139 0.126896 0.158727
O O5 0.500000 0.250000 0.440188
O O6 0.750000 0.273868 0.500000
O O7 0.594765 0.376623 0.433630
O O8 0.254176 0.946249 0.811735
O O9 0.043768 0.009428 0.895980
O O10 0.250000 0.978816 0.000000
O O11 0.556792 0.542210 0.675204
O O12 0.368282 0.636427 0.670936
O O13 0.537778 0.621326 0.516969
O O14 0.750000 0.855060 0.500000
O O15 0.893098 0.886894 0.651072
#
# Coordination Sequence:
#
# PCOD8165814 Si02
#       7
#     8   8   8   8   4   8   8
#     4  12  21  39  65  89 124 170 213 252 309 387
#     4  11  26  45  64  91 122 164 221 270 321 383
#     4  11  20  39  66  90 118 162 217 261 308 371
#     4  11  22  37  60  97 127 163 209 252 318 378
#     4  12  20  38  64  96 118 166 208 268 298 384
#     4  10  23  37  57  96 137 162 193 256 324 376
#     4  11  20  38  66  95 127 160 206 262 312 377
#
# _framework density 20.290704000000002
#
# number of rings (size 3 to 8) (size 9 to 14) (size 15 to 20)
#    0.000    0.923    4.615    3.231    0.000    3.692 
#    0.000    6.154    0.000    0.000    0.000    0.000 
#    0.000    0.000    0.000    0.000    0.000    0.000 
#
# Total GULP energy -322455.783603 kJ/mol
# GULP energy per Si atom -12402.145523 kJ/mol
# Density = 2.024452 g / cm^3
# Si number density = 20.290704 Si / 1000 Ang^3
#
#
#
# Elastic Constant Matrix: (Units=GPa)
#
#
# Indices 1 2 3 4 5 6 
#
# 1 155.3402 75.6694 39.9440 0.0000 0.0000 0.0000
# 2 75.6694 121.9943 9.6059 0.0001 0.0000 0.0000
# 3 39.9440 9.6059 67.6500 0.0003 0.0000 0.0000
# 4 0.0000 0.0001 0.0003 27.4751 0.0000 0.0000
# 5 0.0000 0.0000 0.0000 0.0000 23.5805 0.0000
# 6 0.0000 0.0000 0.0000 0.0000 0.0000 30.7556
#
#
#
# Elastic Compliance Matrix: (Units=1/GPa)
#
#
# Indices 1 2 3 4 5 6 
#
# 1 0.010972 -0.006367 -0.005575 0.000000 0.000000 0.000000
# 2 -0.006367 0.011984 0.002058 0.000000 0.000000 0.000000
# 3 -0.005575 0.002058 0.017781 0.000000 0.000000 0.000000
# 4 0.000000 0.000000 0.000000 0.036397 0.000000 0.000000
# 5 0.000000 0.000000 0.000000 0.000000 0.042408 0.000000
# 6 0.000000 0.000000 0.000000 0.000000 0.000000 0.032514
#
#
# Mechanical properties :
#
#
# Convention : Reuss Voigt Hill
#
# Bulk Modulus (GPa) = 47.68651 66.15810 56.92231
# Shear Modulus (GPa) = 27.96194 31.01326 29.48760
#
# Velocity S-wave (km/s) = 3.71626 3.91378 3.81630
# Velocity P-wave (km/s) = 6.47818 7.28694 6.89443
#
# Compressibility (1/GPa) = 0.02097029
#
# Stress axis : x y z
#
# Youngs Moduli (GPa) = 91.13814 83.44271 56.23885
#
# Poissons Ratio (x) = 0.53127 0.31351
# Poissons Ratio (y) = 0.58027 -0.11572
# Poissons Ratio (z) = 0.50806 -0.17169
#
# Static dielectric constant tensor:
#      x y z
#    x 3.905150 0.000000 0.000000 
#    y 0.000000 3.562950 0.000000 
#    z 0.000000 0.000000 3.706760 
# 
# 
# High freq. dielectric constant tensor:
#      x y z
#    x 1.785370 0.000000 0.000000 
#    y 0.000000 1.794030 0.000000 
#    z 0.000000 0.000000 1.791930 
# 
# From -- ./inp_files/25000.got.cif
#   From: 2010.03.12/outbox.cif.g09.slc.cpg/sg24_13_cif.got.tgz:25000.got - 2010.04.14 03:06:53.
