data_PCOD8165531
_publ_section_title
;
Structure prediction by ZEFSAII (Michael W. Deem and Ramdas Pophale) SiO2 
 PCOD8165531
Probable space group: I 21 21 21
;
_chemical_formula_sum "Si O2"
_cell_formula_units_Z 52
_cell_length_a 20.749625
_cell_length_b 14.680686
_cell_length_c 8.886507
_cell_angle_alpha 90.000000
_cell_angle_beta 90.000000
_cell_angle_gamma 90.000000
_cell_volume 2706.996470
_symmetry_space_group_name_H-M "I 21 21 21"
_symmetry_group_IT_number 24
_symmetry_cell_setting 'orthorhombic'
loop_
_space_group_symop_operation_xyz
x,y,z
-x,1/2-y,z
x,-y,1/2-z
1/2-x,y,-z
1/2+x,1/2+y,1/2+z
1/2-x,-y,1/2+z
1/2+x,1/2-y,-z
-x,1/2+y,1/2-z
loop_
_atom_site_type_symbol
_atom_site_label
_atom_site_fract_x
_atom_site_fract_y
_atom_site_fract_z
Si Si1 0.823144 0.753743 0.970069
Si Si2 0.419159 0.055896 0.896539
Si Si3 0.853617 0.894872 0.717117
Si Si4 0.462414 0.339965 0.006227
Si Si5 0.315771 0.952689 0.090849
Si Si6 0.638072 0.745707 0.692805
Si Si7 0.750000 0.816957 0.500000
O O1 0.860688 0.755868 0.127989
O O2 0.750000 0.778893 0.000000
O O3 0.850961 0.832327 0.864555
O O4 0.829659 0.655106 0.890111
O O5 0.380076 0.144371 0.850530
O O6 0.435612 0.000000 0.750000
O O7 0.487958 0.080142 0.967631
O O8 0.377036 0.997293 0.011357
O O9 0.922731 0.873916 0.647876
O O10 0.796387 0.878055 0.600270
O O11 0.848435 0.000000 0.750000
O O12 0.500000 0.250000 0.056686
O O13 0.414869 0.317778 0.866263
O O14 0.305598 0.000000 0.250000
O O15 0.250000 0.967911 0.000000
O O16 0.707948 0.757179 0.615654
#
# Coordination Sequence:
#
# PCOD8165531 Si02
#       7
#     8   8   8   8   8   8   4
#     4  11  23  41  63 100 135 161 207 265 328 382
#     4  11  22  41  66  93 128 169 216 258 317 389
#     4  11  25  42  64  95 123 167 216 265 314 380
#     4   9  23  44  64  87 126 171 215 253 317 375
#     4  11  26  38  63 102 135 167 207 262 323 397
#     4  10  21  40  64  95 126 170 207 260 315 384
#     4  10  22  38  68  88 126 168 200 258 328 364
#
# _framework density 19.209482000000001
#
# number of rings (size 3 to 8) (size 9 to 14) (size 15 to 20)
#    0.000    1.538    3.077    0.462   10.769    1.846 
#    0.000    5.385    0.000    0.000    0.000    0.000 
#    0.000    0.000    0.000    0.000    0.000    0.000 
#
# Total GULP energy -322446.166575 kJ/mol
# GULP energy per Si atom -12401.775637 kJ/mol
# Density = 1.916576 g / cm^3
# Si number density = 19.209482 Si / 1000 Ang^3
#
#
#
# Elastic Constant Matrix: (Units=GPa)
#
#
# Indices 1 2 3 4 5 6 
#
# 1 128.6610 65.1011 53.4192 0.0000 0.0000 0.0000
# 2 65.1011 130.6746 78.7379 0.0000 0.0000 0.0000
# 3 53.4192 78.7379 137.4664 0.0000 0.0000 0.0000
# 4 0.0000 0.0000 0.0000 14.8926 0.0000 0.0000
# 5 0.0000 0.0000 0.0000 0.0000 25.5959 0.0000
# 6 0.0000 0.0000 0.0000 0.0000 0.0000 12.2736
#
#
#
# Elastic Compliance Matrix: (Units=1/GPa)
#
#
# Indices 1 2 3 4 5 6 
#
# 1 0.010639 -0.004290 -0.001677 0.000000 0.000000 0.000000
# 2 -0.004290 0.013415 -0.006017 0.000000 0.000000 0.000000
# 3 -0.001677 -0.006017 0.011373 0.000000 0.000000 0.000000
# 4 0.000000 0.000000 0.000000 0.067148 0.000000 0.000000
# 5 0.000000 0.000000 0.000000 0.000000 0.039069 0.000000
# 6 0.000000 0.000000 0.000000 0.000000 0.000000 0.081476
#
#
# Mechanical properties :
#
#
# Convention : Reuss Voigt Hill
#
# Bulk Modulus (GPa) = 87.26654 87.92426 87.59540
# Shear Modulus (GPa) = 19.92768 23.85534 21.89151
#
# Velocity S-wave (km/s) = 3.22434 3.52782 3.37949
# Velocity P-wave (km/s) = 7.70645 7.90346 7.80557
#
# Compressibility (1/GPa) = 0.01145915
#
# Stress axis : x y z
#
# Youngs Moduli (GPa) = 93.99060 74.54206 87.92967
#
# Poissons Ratio (x) = 0.31977 0.14749
# Poissons Ratio (y) = 0.40320 0.52907
# Poissons Ratio (z) = 0.15766 0.44852
#
# Static dielectric constant tensor:
#      x y z
#    x 3.739890 0.000000 0.000000 
#    y 0.000000 3.519560 0.000000 
#    z 0.000000 0.000000 3.794380 
# 
# 
# High freq. dielectric constant tensor:
#      x y z
#    x 1.757780 0.000000 0.000000 
#    y 0.000000 1.750610 0.000000 
#    z 0.000000 0.000000 1.753890 
# 
# From -- ./inp_files/15195.got.cif
#   From: 2010.03.12/outbox.cif.g09.slc.cpg/sg24_8_cif.got.tgz:15195.got - 2010.04.14 03:06:53.
