data_PCOD8165881
_publ_section_title
;
Structure prediction by ZEFSAII (Michael W. Deem and Ramdas Pophale) SiO2 
 PCOD8165881
Probable space group: I 21 21 21
;
_chemical_formula_sum "Si O2"
_cell_formula_units_Z 20
_cell_length_a 13.398687
_cell_length_b 5.106408
_cell_length_c 13.554982
_cell_angle_alpha 90.000000
_cell_angle_beta 90.000000
_cell_angle_gamma 90.000000
_cell_volume 927.420516
_symmetry_space_group_name_H-M "I 21 21 21"
_symmetry_group_IT_number 24
_symmetry_cell_setting 'orthorhombic'
loop_
_space_group_symop_operation_xyz
x,y,z
-x,1/2-y,z
x,-y,1/2-z
1/2-x,y,-z
1/2+x,1/2+y,1/2+z
1/2-x,-y,1/2+z
1/2+x,1/2-y,-z
-x,1/2+y,1/2-z
loop_
_atom_site_type_symbol
_atom_site_label
_atom_site_fract_x
_atom_site_fract_y
_atom_site_fract_z
Si Si1 0.500000 0.750000 0.983228
Si Si2 0.000000 0.750000 0.618254
Si Si3 0.660772 0.000000 0.250000
Si Si4 0.648569 0.762979 0.810632
O O1 0.599795 0.759802 0.917996
O O2 0.516326 0.501124 0.051472
O O3 0.095518 0.703133 0.687402
O O4 0.732676 0.173987 0.321621
O O5 0.629994 0.500000 0.750000
O O6 0.596056 0.000000 0.750000
#
# Coordination Sequence:
#
# PCOD8165881 Si02
#       4
#     4   4   4   8
#     4  12  25  45  74 108 136 172 248 299 345 400
#     4  12  27  45  70 102 142 188 232 297 335 430
#     4  10  28  48  68  94 146 196 224 272 376 406
#     4  10  23  45  74 100 138 188 225 288 355 432
#
# _framework density 21.565187999999999
#
# number of rings (size 3 to 8) (size 9 to 14) (size 15 to 20)
#    1.200    0.000    0.000    4.800    8.400    1.600 
#    0.000    0.000    0.000    0.000    0.000    0.000 
#    0.000    0.000    0.000    0.000    0.000    0.000 
#
# Total GULP energy -123950.119887 kJ/mol
# GULP energy per Si atom -12395.011989 kJ/mol
# Density = 2.151610 g / cm^3
# Si number density = 21.565188 Si / 1000 Ang^3
#
#
#
# Elastic Constant Matrix: (Units=GPa)
#
#
# Indices 1 2 3 4 5 6 
#
# 1 177.7682 61.6862 93.8057 0.0000 0.0000 0.0000
# 2 61.6862 194.2392 81.3449 0.0000 0.0000 0.0000
# 3 93.8057 81.3449 143.6819 0.0000 0.0000 0.0000
# 4 0.0000 0.0000 0.0000 65.5407 0.0000 0.0000
# 5 0.0000 0.0000 0.0000 0.0000 -23.2947 0.0000
# 6 0.0000 0.0000 0.0000 0.0000 0.0000 -6.6428
#
#
#
# Elastic Compliance Matrix: (Units=1/GPa)
#
#
# Indices 1 2 3 4 5 6 
#
# 1 0.008619 -0.000499 -0.005344 0.000000 0.000000 0.000000
# 2 -0.000499 0.006777 -0.003511 0.000000 0.000000 0.000000
# 3 -0.005344 -0.003511 0.012437 0.000000 0.000000 0.000000
# 4 0.000000 0.000000 0.000000 0.015258 0.000000 0.000000
# 5 0.000000 0.000000 0.000000 0.000000 -0.042928 0.000000
# 6 0.000000 0.000000 0.000000 0.000000 0.000000 -0.150538
#
#
# Mechanical properties :
#
#
# Convention : Reuss Voigt Hill
#
# Bulk Modulus (GPa) = 109.60437 109.92922 109.76679
# Shear Modulus (GPa) = -38.87240 25.71077 -6.58081
#
# Velocity S-wave (km/s) = -4.25025 3.45662 -1.74878
# Velocity P-wave (km/s) = 5.18158 8.18639 6.85076
#
# Compressibility (1/GPa) = 0.00912372
#
# Stress axis : x y z
#
# Youngs Moduli (GPa) = 116.02858 147.55452 80.40657
#
# Poissons Ratio (x) = 0.07362 0.42972
# Poissons Ratio (y) = 0.05789 0.28232
# Poissons Ratio (z) = 0.62010 0.51808
#
# Static dielectric constant tensor:
#      x y z
#    x 3.948270 0.000000 0.000000 
#    y 0.000000 3.983770 0.000000 
#    z 0.000000 0.000000 3.880300 
# 
# 
# High freq. dielectric constant tensor:
#      x y z
#    x 1.855700 0.000000 0.000000 
#    y 0.000000 1.867140 0.000000 
#    z 0.000000 0.000000 1.837570 
# 
# From -- ./inp_files/1551.got.cif
#   From: 2010.03.12/outbox.cif.g09.slc.cpg/sg24_1_cif.got.tgz:1551.got - 2010.04.14 03:06:53.
