data_PCOD8165091
_publ_section_title
;
Structure prediction by ZEFSAII (Michael W. Deem and Ramdas Pophale) SiO2 
 PCOD8165091
Probable space group: I 21 21 21
;
_chemical_formula_sum "Si O2"
_cell_formula_units_Z 28
_cell_length_a 5.044138
_cell_length_b 12.328688
_cell_length_c 21.010910
_cell_angle_alpha 90.000000
_cell_angle_beta 90.000000
_cell_angle_gamma 90.000000
_cell_volume 1306.618143
_symmetry_space_group_name_H-M "I 21 21 21"
_symmetry_group_IT_number 24
_symmetry_cell_setting 'orthorhombic'
loop_
_space_group_symop_operation_xyz
x,y,z
-x,1/2-y,z
x,-y,1/2-z
1/2-x,y,-z
1/2+x,1/2+y,1/2+z
1/2-x,-y,1/2+z
1/2+x,1/2-y,-z
-x,1/2+y,1/2-z
loop_
_atom_site_type_symbol
_atom_site_label
_atom_site_fract_x
_atom_site_fract_y
_atom_site_fract_z
Si Si1 0.500000 0.250000 0.959681
Si Si2 0.195221 0.025138 0.648428
Si Si3 0.326618 0.477122 0.927449
Si Si4 0.243028 0.176960 0.763116
O O1 0.389954 0.349069 0.917976
O O2 0.250000 0.203857 0.000000
O O3 0.413238 0.044703 0.593041
O O4 0.287330 0.919637 0.687300
O O5 0.907727 0.009320 0.619082
O O6 0.180982 0.129591 0.693310
O O7 0.250000 0.503264 0.000000
O O8 0.500000 0.250000 0.759707
O O9 0.000000 0.250000 0.786348
#
# Coordination Sequence:
#
# PCOD8165091 Si02
#       4
#     4   8   8   8
#     4  10  20  34  52  86 128 166 198 228 298 374
#     4  11  24  40  64  94 120 164 208 245 314 368
#     4  11  22  38  60  90 131 161 196 250 304 375
#     4  11  24  43  65  89 121 161 209 263 303 352
#
# _framework density 21.429369000000001
#
# number of rings (size 3 to 8) (size 9 to 14) (size 15 to 20)
#    0.000    1.143    0.000    7.714    6.000    4.571 
#    0.000    0.000    0.000   17.143    0.000    0.000 
#    0.000    0.000    0.000    0.000    0.000    0.000 
#
# Total GULP energy -173638.818986 kJ/mol
# GULP energy per Si atom -12402.772785 kJ/mol
# Density = 2.138059 g / cm^3
# Si number density = 21.429369 Si / 1000 Ang^3
#
#
#
# Elastic Constant Matrix: (Units=GPa)
#
#
# Indices 1 2 3 4 5 6 
#
# 1 151.4508 24.0750 16.2498 0.0000 0.0000 0.0000
# 2 24.0750 50.5786 8.2613 0.0000 0.0000 0.0000
# 3 16.2498 8.2613 64.5102 0.0000 0.0000 0.0000
# 4 0.0000 0.0000 0.0000 25.1125 0.0000 0.0000
# 5 0.0000 0.0000 0.0000 0.0000 38.8237 0.0000
# 6 0.0000 0.0000 0.0000 0.0000 0.0000 16.9524
#
#
#
# Elastic Compliance Matrix: (Units=1/GPa)
#
#
# Indices 1 2 3 4 5 6 
#
# 1 0.007268 -0.003228 -0.001417 0.000000 0.000000 0.000000
# 2 -0.003228 0.021627 -0.001957 0.000000 0.000000 0.000000
# 3 -0.001417 -0.001957 0.016109 0.000000 0.000000 0.000000
# 4 0.000000 0.000000 0.000000 0.039821 0.000000 0.000000
# 5 0.000000 0.000000 0.000000 0.000000 0.025757 0.000000
# 6 0.000000 0.000000 0.000000 0.000000 0.000000 0.058989
#
#
# Mechanical properties :
#
#
# Convention : Reuss Voigt Hill
#
# Bulk Modulus (GPa) = 31.44608 40.41243 35.92926
# Shear Modulus (GPa) = 25.85644 30.70794 28.28219
#
# Velocity S-wave (km/s) = 3.47737 3.78958 3.63683
# Velocity P-wave (km/s) = 5.55238 6.16825 5.86840
#
# Compressibility (1/GPa) = 0.03180046
#
# Stress axis : x y z
#
# Youngs Moduli (GPa) = 137.58915 46.23792 62.07705
#
# Poissons Ratio (x) = 0.14926 0.08799
# Poissons Ratio (y) = 0.44414 0.12146
# Poissons Ratio (z) = 0.19502 0.09047
#
# Static dielectric constant tensor:
#      x y z
#    x 3.911750 0.000000 0.000000 
#    y 0.000000 3.672120 0.000000 
#    z 0.000000 0.000000 4.025410 
# 
# 
# High freq. dielectric constant tensor:
#      x y z
#    x 1.867260 0.000000 0.000000 
#    y 0.000000 1.812400 0.000000 
#    z 0.000000 0.000000 1.845810 
# 
# From -- ./inp_files/31867.got.cif
#   From: 2010.03.12/outbox.cif.g09.slc.cpg/sg24_16_cif.got.tgz:31867.got - 2010.04.14 03:06:53.
