data_PCOD8165397
_publ_section_title
;
Structure prediction by ZEFSAII (Michael W. Deem and Ramdas Pophale) SiO2 
 PCOD8165397
Probable space group: I 21 21 21
;
_chemical_formula_sum "Si O2"
_cell_formula_units_Z 44
_cell_length_a 9.835008
_cell_length_b 17.710280
_cell_length_c 13.932921
_cell_angle_alpha 90.000000
_cell_angle_beta 90.000000
_cell_angle_gamma 90.000000
_cell_volume 2426.846567
_symmetry_space_group_name_H-M "I 21 21 21"
_symmetry_group_IT_number 24
_symmetry_cell_setting 'orthorhombic'
loop_
_space_group_symop_operation_xyz
x,y,z
-x,1/2-y,z
x,-y,1/2-z
1/2-x,y,-z
1/2+x,1/2+y,1/2+z
1/2-x,-y,1/2+z
1/2+x,1/2-y,-z
-x,1/2+y,1/2-z
loop_
_atom_site_type_symbol
_atom_site_label
_atom_site_fract_x
_atom_site_fract_y
_atom_site_fract_z
Si Si1 0.371476 0.798229 0.938799
Si Si2 0.346632 0.949878 0.334720
Si Si3 0.750000 0.557999 0.000000
Si Si4 0.060723 0.668886 0.588866
Si Si5 0.358349 0.680910 0.628761
Si Si6 0.121764 0.834329 0.277978
O O1 0.500000 0.750000 0.970892
O O2 0.349932 0.795194 0.824399
O O3 0.250000 0.759543 0.000000
O O4 0.376794 0.887364 0.968745
O O5 0.457799 0.894619 0.377124
O O6 0.216605 0.905939 0.292863
O O7 0.411756 0.000000 0.250000
O O8 0.295779 0.006194 0.414531
O O9 0.204221 0.651981 0.641991
O O10 0.083171 0.662242 0.475765
O O11 0.000000 0.750000 0.618726
O O12 0.350803 0.771862 0.639970
O O13 0.460987 0.643759 0.707934
#
# Coordination Sequence:
#
# PCOD8165397 Si02
#       6
#     8   8   4   8   8   8
#     4  10  21  42  62  89 118 163 223 264 309 380
#     4  12  23  41  62  92 135 169 212 265 332 397
#     4  10  24  38  64  92 122 174 212 264 328 388
#     4  11  21  36  61  98 128 161 207 268 326 391
#     4  10  21  35  62  95 118 157 210 269 326 361
#     4  11  19  37  64  91 120 159 210 268 321 386
#
# _framework density 18.130524000000001
#
# number of rings (size 3 to 8) (size 9 to 14) (size 15 to 20)
#    0.545    0.727    7.273    1.091    0.000    0.000 
#    6.545    0.909   12.000    0.000    0.000    0.000 
#    0.000    0.000    0.000    0.000    0.000    0.000 
#
# Total GULP energy -272620.999008 kJ/mol
# GULP energy per Si atom -12391.863591 kJ/mol
# Density = 1.808926 g / cm^3
# Si number density = 18.130524 Si / 1000 Ang^3
#
#
#
# Elastic Constant Matrix: (Units=GPa)
#
#
# Indices 1 2 3 4 5 6 
#
# 1 148.7851 66.5982 62.3008 0.0001 0.0000 0.0000
# 2 66.5982 107.1414 44.9266 0.0009 0.0000 0.0000
# 3 62.3008 44.9266 109.9695 0.0017 0.0000 0.0001
# 4 0.0001 0.0009 0.0017 -5.1319 0.0002 0.0001
# 5 0.0000 0.0000 0.0000 0.0002 16.7205 0.0000
# 6 0.0000 0.0000 0.0001 0.0001 0.0000 47.9857
#
#
#
# Elastic Compliance Matrix: (Units=1/GPa)
#
#
# Indices 1 2 3 4 5 6 
#
# 1 0.010591 -0.004908 -0.003995 -0.000002 0.000000 0.000000
# 2 -0.004908 0.013537 -0.002750 0.000001 0.000000 0.000000
# 3 -0.003995 -0.002750 0.012480 0.000004 0.000000 0.000000
# 4 -0.000002 0.000001 0.000004 -0.194861 0.000003 0.000001
# 5 0.000000 0.000000 0.000000 0.000003 0.059807 0.000000
# 6 0.000000 0.000000 0.000000 0.000001 0.000000 0.020840
#
#
# Mechanical properties :
#
#
# Convention : Reuss Voigt Hill
#
# Bulk Modulus (GPa) = 75.17376 79.28304 77.22840
# Shear Modulus (GPa) = -100.26804 24.71955 -37.77424
#
# Velocity S-wave (km/s) = -7.44470 3.69646 -4.56945
# Velocity P-wave (km/s) = 5.68731 7.87670 3.85337
#
# Compressibility (1/GPa) = 0.01330251
#
# Stress axis : x y z
#
# Youngs Moduli (GPa) = 94.42195 73.86960 80.12748
#
# Poissons Ratio (x) = 0.36255 0.32010
# Poissons Ratio (y) = 0.46342 0.22035
# Poissons Ratio (z) = 0.37720 0.20314
#
# Static dielectric constant tensor:
#      x y z
#    x 3.869930 0.000000 0.000000 
#    y 0.000000 3.370570 0.000000 
#    z 0.000000 0.000000 3.324930 
# 
# 
# High freq. dielectric constant tensor:
#      x y z
#    x 1.701120 0.000000 0.000000 
#    y 0.000000 1.685940 0.000000 
#    z 0.000000 0.000000 1.707750 
# 
# From -- ./inp_files/12663.got.cif
#   From: 2010.03.12/outbox.cif.g09.slc.cpg/sg24_7_cif.got.tgz:12663.got - 2010.04.14 03:06:53.
