data_PCOD8165662
_publ_section_title
;
Structure prediction by ZEFSAII (Michael W. Deem and Ramdas Pophale) SiO2 
 PCOD8165662
Probable space group: I 21 21 21
;
_chemical_formula_sum "Si O2"
_cell_formula_units_Z 40
_cell_length_a 25.172747
_cell_length_b 14.461565
_cell_length_c 5.014785
_cell_angle_alpha 90.000000
_cell_angle_beta 90.000000
_cell_angle_gamma 90.000000
_cell_volume 1825.568877
_symmetry_space_group_name_H-M "I 21 21 21"
_symmetry_group_IT_number 24
_symmetry_cell_setting 'orthorhombic'
loop_
_space_group_symop_operation_xyz
x,y,z
-x,1/2-y,z
x,-y,1/2-z
1/2-x,y,-z
1/2+x,1/2+y,1/2+z
1/2-x,-y,1/2+z
1/2+x,1/2-y,-z
-x,1/2+y,1/2-z
loop_
_atom_site_type_symbol
_atom_site_label
_atom_site_fract_x
_atom_site_fract_y
_atom_site_fract_z
Si Si1 0.750000 0.156785 0.500000
Si Si2 0.859192 0.767767 0.963568
Si Si3 0.007967 0.144543 0.175920
Si Si4 0.892835 0.124245 0.023501
Si Si5 0.814306 0.000000 0.250000
Si Si6 0.926118 0.399428 0.668826
O O1 0.796702 0.221902 0.616040
O O2 0.776872 0.087954 0.289484
O O3 0.893866 0.831735 0.768709
O O4 0.876086 0.661419 0.928877
O O5 0.870181 0.800942 0.263897
O O6 0.032787 0.088435 0.423774
O O7 0.000000 0.250000 0.272853
O O8 0.952717 0.095710 0.097914
O O9 0.046454 0.148464 0.921456
O O10 0.854986 0.032664 0.015832
O O11 0.904512 0.500000 0.750000
#
# Coordination Sequence:
#
# PCOD8165662 Si02
#       6
#     4   8   8   8   4   8
#     4  10  22  40  68  88 130 166 222 262 346 380
#     4  11  22  42  62  89 119 172 208 271 320 385
#     4  12  22  42  63  92 129 179 214 262 326 400
#     4  11  23  37  62  90 131 162 211 251 331 390
#     4  10  22  38  60  98 124 162 204 282 308 416
#     4  12  25  40  64  94 133 170 225 273 316 384
#
# _framework density 21.910976999999999
#
# number of rings (size 3 to 8) (size 9 to 14) (size 15 to 20)
#    0.000    0.800    4.000    3.600    2.800    4.800 
#    0.000    0.000    0.000    7.200    0.000    0.000 
#    0.000    0.000    0.000    0.000    0.000    0.000 
#
# Total GULP energy -247950.474323 kJ/mol
# GULP energy per Si atom -12397.523716 kJ/mol
# Density = 2.186111 g / cm^3
# Si number density = 21.910977 Si / 1000 Ang^3
#
#
#
# Elastic Constant Matrix: (Units=GPa)
#
#
# Indices 1 2 3 4 5 6 
#
# 1 143.1390 55.9404 14.5856 0.0000 0.0000 0.0000
# 2 55.9404 91.7164 12.2960 0.0000 0.0000 0.0000
# 3 14.5856 12.2960 82.3686 0.0000 0.0000 0.0000
# 4 0.0000 0.0000 0.0000 26.3417 0.0000 0.0000
# 5 0.0000 0.0000 0.0000 0.0000 22.3808 0.0000
# 6 0.0000 0.0000 0.0000 0.0000 0.0000 31.1290
#
#
#
# Elastic Compliance Matrix: (Units=1/GPa)
#
#
# Indices 1 2 3 4 5 6 
#
# 1 0.009225 -0.005518 -0.000810 0.000000 0.000000 0.000000
# 2 -0.005518 0.014427 -0.001176 0.000000 0.000000 0.000000
# 3 -0.000810 -0.001176 0.012460 0.000000 0.000000 0.000000
# 4 0.000000 0.000000 0.000000 0.037963 0.000000 0.000000
# 5 0.000000 0.000000 0.000000 0.000000 0.044681 0.000000
# 6 0.000000 0.000000 0.000000 0.000000 0.000000 0.032124
#
#
# Mechanical properties :
#
#
# Convention : Reuss Voigt Hill
#
# Bulk Modulus (GPa) = 47.38777 53.65201 50.51989
# Shear Modulus (GPa) = 28.91465 31.59711 30.25588
#
# Velocity S-wave (km/s) = 3.63663 3.80158 3.72002
# Velocity P-wave (km/s) = 6.26959 6.61882 6.44657
#
# Compressibility (1/GPa) = 0.02110249
#
# Stress axis : x y z
#
# Youngs Moduli (GPa) = 108.39734 69.31639 80.25960
#
# Poissons Ratio (x) = 0.38250 0.06500
# Poissons Ratio (y) = 0.59816 0.09442
# Poissons Ratio (z) = 0.08778 0.08155
#
# Static dielectric constant tensor:
#      x y z
#    x 4.309350 0.000000 0.000000 
#    y 0.000000 3.883130 0.000000 
#    z 0.000000 0.000000 3.876230 
# 
# 
# High freq. dielectric constant tensor:
#      x y z
#    x 1.857420 0.000000 0.000000 
#    y 0.000000 1.844980 0.000000 
#    z 0.000000 0.000000 1.863990 
# 
# From -- ./inp_files/6326.got.cif
#   From: 2010.03.12/outbox.cif.g09.slc.cpg/sg24_4_cif.got.tgz:6326.got - 2010.04.14 03:06:53.
