data_PCOD8165763
_publ_section_title
;
Structure prediction by ZEFSAII (Michael W. Deem and Ramdas Pophale) SiO2 
 PCOD8165763
Probable space group: I 21 21 21
;
_chemical_formula_sum "Si O2"
_cell_formula_units_Z 48
_cell_length_a 15.664807
_cell_length_b 14.045940
_cell_length_c 9.982734
_cell_angle_alpha 90.000000
_cell_angle_beta 90.000000
_cell_angle_gamma 90.000000
_cell_volume 2196.470407
_symmetry_space_group_name_H-M "I 21 21 21"
_symmetry_group_IT_number 24
_symmetry_cell_setting 'orthorhombic'
loop_
_space_group_symop_operation_xyz
x,y,z
-x,1/2-y,z
x,-y,1/2-z
1/2-x,y,-z
1/2+x,1/2+y,1/2+z
1/2-x,-y,1/2+z
1/2+x,1/2-y,-z
-x,1/2+y,1/2-z
loop_
_atom_site_type_symbol
_atom_site_label
_atom_site_fract_x
_atom_site_fract_y
_atom_site_fract_z
Si Si1 0.395148 0.106141 0.500040
Si Si2 0.956645 0.500000 0.750000
Si Si3 0.054198 0.000000 0.250000
Si Si4 0.585069 0.848540 0.662267
Si Si5 0.439886 0.669636 0.363216
Si Si6 0.000000 0.250000 0.378419
Si Si7 0.750000 0.236397 0.500000
Si Si8 0.234071 0.609326 0.745034
O O1 0.395852 0.051719 0.358474
O O2 0.486158 0.157894 0.527234
O O3 0.329676 0.192949 0.491924
O O4 0.383123 0.035954 0.628780
O O5 0.017309 0.568524 0.665307
O O6 0.991565 0.920491 0.307047
O O7 0.565246 0.804791 0.518907
O O8 0.581221 0.767719 0.778719
O O9 0.679887 0.893224 0.655194
O O10 0.500000 0.750000 0.294001
O O11 0.343033 0.672690 0.312027
O O12 0.758262 0.160797 0.381502
O O13 0.202749 0.500000 0.750000
#
# Coordination Sequence:
#
# PCOD8165763 Si02
#       8
#     8   4   4   8   8   4   4   8
#     4  11  25  45  72 104 144 195 249 292 370 440
#     4  12  26  44  72 106 144 198 232 300 369 441
#     4  10  22  42  76 102 136 198 242 292 347 449
#     4  11  21  43  68 104 135 180 239 296 356 421
#     4  12  26  44  69 104 147 183 236 297 371 441
#     4  10  22  42  72  96 144 190 238 288 360 446
#     4  12  28  48  68 102 148 196 242 308 368 438
#     4  12  27  42  70 104 141 182 235 301 368 430
#
# _framework density 21.853241000000001
#
# number of rings (size 3 to 8) (size 9 to 14) (size 15 to 20)
#    0.000    0.667    5.833    1.500    5.833    0.667 
#    0.000    0.000    0.000    0.000    0.000    0.000 
#    0.000    0.000    0.000    0.000    0.000    0.000 
#
# Total GULP energy -297394.174644 kJ/mol
# GULP energy per Si atom -12391.423944 kJ/mol
# Density = 2.180350 g / cm^3
# Si number density = 21.853241 Si / 1000 Ang^3
#
#
#
# Elastic Constant Matrix: (Units=GPa)
#
#
# Indices 1 2 3 4 5 6 
#
# 1 91.7620 39.5454 31.1030 0.0000 0.0000 0.0000
# 2 39.5454 109.9182 52.1036 0.0000 0.0000 0.0000
# 3 31.1030 52.1036 120.7640 0.0000 0.0000 0.0000
# 4 0.0000 0.0000 0.0000 41.1867 0.0000 0.0000
# 5 0.0000 0.0000 0.0000 0.0000 25.3736 0.0000
# 6 0.0000 0.0000 0.0000 0.0000 0.0000 40.8583
#
#
#
# Elastic Compliance Matrix: (Units=1/GPa)
#
#
# Indices 1 2 3 4 5 6 
#
# 1 0.013167 -0.003934 -0.001694 0.000000 0.000000 0.000000
# 2 -0.003934 0.012612 -0.004428 0.000000 0.000000 0.000000
# 3 -0.001694 -0.004428 0.010627 0.000000 0.000000 0.000000
# 4 0.000000 0.000000 0.000000 0.024280 0.000000 0.000000
# 5 0.000000 0.000000 0.000000 0.000000 0.039411 0.000000
# 6 0.000000 0.000000 0.000000 0.000000 0.000000 0.024475
#
#
# Mechanical properties :
#
#
# Convention : Reuss Voigt Hill
#
# Bulk Modulus (GPa) = 61.37136 63.10534 62.23835
# Shear Modulus (GPa) = 33.30738 34.79653 34.05196
#
# Velocity S-wave (km/s) = 3.90826 3.99467 3.95170
# Velocity P-wave (km/s) = 6.96494 7.08633 7.02590
#
# Compressibility (1/GPa) = 0.01629425
#
# Stress axis : x y z
#
# Youngs Moduli (GPa) = 75.94511 79.28816 94.09618
#
# Poissons Ratio (x) = 0.31195 0.15938
# Poissons Ratio (y) = 0.29879 0.41668
# Poissons Ratio (z) = 0.12864 0.35111
#
# Static dielectric constant tensor:
#      x y z
#    x 3.965440 0.000000 0.000000 
#    y 0.000000 4.286500 0.000000 
#    z 0.000000 0.000000 4.182530 
# 
# 
# High freq. dielectric constant tensor:
#      x y z
#    x 1.847430 0.000000 0.000000 
#    y 0.000000 1.864590 0.000000 
#    z 0.000000 0.000000 1.868890 
# 
# From -- ./inp_files/20799.got.cif
#   From: 2010.03.12/outbox.cif.g09.slc.cpg/sg24_11_cif.got.tgz:20799.got - 2010.04.14 03:06:53.
