data_PCOD8165754
_publ_section_title
;
Structure prediction by ZEFSAII (Michael W. Deem and Ramdas Pophale) SiO2 
 PCOD8165754
Probable space group: I 21 21 21
;
_chemical_formula_sum "Si O2"
_cell_formula_units_Z 40
_cell_length_a 17.396714
_cell_length_b 9.130889
_cell_length_c 11.804958
_cell_angle_alpha 90.000000
_cell_angle_beta 90.000000
_cell_angle_gamma 90.000000
_cell_volume 1875.187647
_symmetry_space_group_name_H-M "I 21 21 21"
_symmetry_group_IT_number 24
_symmetry_cell_setting 'orthorhombic'
loop_
_space_group_symop_operation_xyz
x,y,z
-x,1/2-y,z
x,-y,1/2-z
1/2-x,y,-z
1/2+x,1/2+y,1/2+z
1/2-x,-y,1/2+z
1/2+x,1/2-y,-z
-x,1/2+y,1/2-z
loop_
_atom_site_type_symbol
_atom_site_label
_atom_site_fract_x
_atom_site_fract_y
_atom_site_fract_z
Si Si1 0.318211 0.219584 0.067458
Si Si2 0.049993 0.396811 0.641647
Si Si3 0.217800 0.281459 0.682326
Si Si4 0.250000 0.054491 0.500000
Si Si5 0.944899 0.881742 0.454551
Si Si6 0.844937 0.000000 0.250000
O O1 0.300254 0.208010 0.198731
O O2 0.250000 0.305056 0.000000
O O3 0.394592 0.310162 0.053943
O O4 0.324062 0.055023 0.013024
O O5 0.033950 0.500000 0.750000
O O6 0.141079 0.357654 0.631788
O O7 0.022348 0.477509 0.524033
O O8 0.000000 0.250000 0.654575
O O9 0.253937 0.152263 0.609845
O O10 0.288548 0.391728 0.684788
O O11 0.000000 0.750000 0.415342
O O12 0.899512 0.923955 0.341838
#
# Coordination Sequence:
#
# PCOD8165754 Si02
#       6
#     8   8   8   4   8   4
#     4  10  22  42  67  99 142 183 228 299 353 416
#     4  12  27  44  73 107 145 187 237 298 371 438
#     4  12  22  43  73 104 140 189 243 296 363 435
#     4  10  24  36  68 110 136 176 240 302 350 434
#     4  12  27  48  68 102 147 191 240 305 373 437
#     4  12  24  48  74  94 140 196 248 294 360 454
#
# _framework density 21.331199000000002
#
# number of rings (size 3 to 8) (size 9 to 14) (size 15 to 20)
#    0.600    0.000    5.000    2.400    2.800    0.800 
#    3.600    0.000    0.000    0.000    0.000    0.000 
#    0.000    0.000    0.000    0.000    0.000    0.000 
#
# Total GULP energy -247795.117286 kJ/mol
# GULP energy per Si atom -12389.755864 kJ/mol
# Density = 2.128265 g / cm^3
# Si number density = 21.331199 Si / 1000 Ang^3
#
#
#
# Elastic Constant Matrix: (Units=GPa)
#
#
# Indices 1 2 3 4 5 6 
#
# 1 95.2424 57.8007 48.3445 0.0000 0.0000 0.0000
# 2 57.8007 141.3106 50.4086 0.0000 0.0000 0.0000
# 3 48.3445 50.4086 113.8116 0.0000 0.0000 0.0000
# 4 0.0000 0.0000 0.0000 -2.7102 0.0000 0.0000
# 5 0.0000 0.0000 0.0000 0.0000 23.6716 0.0000
# 6 0.0000 0.0000 0.0000 0.0000 0.0000 -76.2340
#
#
#
# Elastic Compliance Matrix: (Units=1/GPa)
#
#
# Indices 1 2 3 4 5 6 
#
# 1 0.015729 -0.004810 -0.004551 0.000000 0.000000 0.000000
# 2 -0.004810 0.009876 -0.002331 0.000000 0.000000 0.000000
# 3 -0.004551 -0.002331 0.011752 0.000000 0.000000 0.000000
# 4 0.000000 0.000000 0.000000 -0.368982 0.000000 0.000000
# 5 0.000000 0.000000 0.000000 0.000000 0.042245 0.000000
# 6 0.000000 0.000000 0.000000 0.000000 0.000000 -0.013117
#
#
# Mechanical properties :
#
#
# Convention : Reuss Voigt Hill
#
# Bulk Modulus (GPa) = 71.56782 73.71912 72.64347
# Shear Modulus (GPa) = -18.21771 1.86620 -8.17576
#
# Velocity S-wave (km/s) = -2.92557 0.93636 -1.95987
# Velocity P-wave (km/s) = 4.71293 5.98359 5.38586
#
# Compressibility (1/GPa) = 0.01397276
#
# Stress axis : x y z
#
# Youngs Moduli (GPa) = 63.57833 101.25986 85.09344
#
# Poissons Ratio (x) = 0.48708 0.38723
# Poissons Ratio (y) = 0.30583 0.19833
# Poissons Ratio (z) = 0.28932 0.23601
#
# Static dielectric constant tensor:
#      x y z
#    x 3.912590 0.000000 0.000000 
#    y 0.000000 4.313070 0.000000 
#    z 0.000000 0.000000 4.995210 
# 
# 
# High freq. dielectric constant tensor:
#      x y z
#    x 1.819420 0.000000 0.000000 
#    y 0.000000 1.854270 0.000000 
#    z 0.000000 0.000000 1.843860 
# 
# From -- ./inp_files/21362.got.cif
#   From: 2010.03.12/outbox.cif.g09.slc.cpg/sg24_11_cif.got.tgz:21362.got - 2010.04.14 03:06:53.
