data_PCOD8165331
_publ_section_title
;
Structure prediction by ZEFSAII (Michael W. Deem and Ramdas Pophale) SiO2 
 PCOD8165331
Probable space group: I 21 21 21
;
_chemical_formula_sum "Si O2"
_cell_formula_units_Z 40
_cell_length_a 22.170267
_cell_length_b 13.568223
_cell_length_c 5.984538
_cell_angle_alpha 90.000000
_cell_angle_beta 90.000000
_cell_angle_gamma 90.000000
_cell_volume 1800.215618
_symmetry_space_group_name_H-M "I 21 21 21"
_symmetry_group_IT_number 24
_symmetry_cell_setting 'orthorhombic'
loop_
_space_group_symop_operation_xyz
x,y,z
-x,1/2-y,z
x,-y,1/2-z
1/2-x,y,-z
1/2+x,1/2+y,1/2+z
1/2-x,-y,1/2+z
1/2+x,1/2-y,-z
-x,1/2+y,1/2-z
loop_
_atom_site_type_symbol
_atom_site_label
_atom_site_fract_x
_atom_site_fract_y
_atom_site_fract_z
Si Si1 0.182410 0.286338 0.533938
Si Si2 0.077036 0.614437 0.206067
Si Si3 0.399806 0.242390 0.078867
Si Si4 0.359032 0.103445 0.697809
Si Si5 0.529898 0.599430 0.111890
O O1 0.250000 0.326139 0.500000
O O2 0.143306 0.353191 0.368343
O O3 0.155058 0.294614 0.783702
O O4 0.181016 0.171022 0.464250
O O5 0.074034 0.500000 0.250000
O O6 0.063768 0.675202 0.434656
O O7 0.030258 0.640133 0.009374
O O8 0.447583 0.189931 0.239075
O O9 0.369759 0.159409 0.927786
O O10 0.421969 0.075062 0.579896
O O11 0.325287 0.000000 0.750000
O O12 0.516260 0.500000 0.250000
#
# Coordination Sequence:
#
# PCOD8165331 Si02
#       5
#     8   8   8   8   8
#     4  10  25  47  67  98 131 183 238 284 344 400
#     4  11  27  45  65 104 137 180 237 280 350 410
#     4  10  24  45  70  94 146 177 223 288 345 413
#     4  10  20  40  67 104 137 177 221 271 355 417
#     4  11  23  41  68 101 143 180 222 280 350 428
#
# _framework density 22.219559
#
# number of rings (size 3 to 8) (size 9 to 14) (size 15 to 20)
#    0.000    1.600    2.000    0.600    2.800   12.000 
#    7.200    0.000    0.000    0.000    0.000    0.000 
#    0.000    0.000    0.000    0.000    0.000    0.000 
#
# Total GULP energy -248015.510965 kJ/mol
# GULP energy per Si atom -12400.775548 kJ/mol
# Density = 2.216899 g / cm^3
# Si number density = 22.219559 Si / 1000 Ang^3
#
#
#
# Elastic Constant Matrix: (Units=GPa)
#
#
# Indices 1 2 3 4 5 6 
#
# 1 121.4309 20.2063 48.6722 0.0000 0.0000 0.0000
# 2 20.2063 105.9283 51.8989 0.0000 0.0000 0.0000
# 3 48.6722 51.8989 137.2711 0.0000 0.0000 0.0000
# 4 0.0000 0.0000 0.0000 46.6451 0.0000 0.0000
# 5 0.0000 0.0000 0.0000 0.0000 25.0634 0.0000
# 6 0.0000 0.0000 0.0000 0.0000 0.0000 17.9788
#
#
#
# Elastic Compliance Matrix: (Units=1/GPa)
#
#
# Indices 1 2 3 4 5 6 
#
# 1 0.009603 -0.000201 -0.003329 0.000000 0.000000 0.000000
# 2 -0.000201 0.011591 -0.004311 0.000000 0.000000 0.000000
# 3 -0.003329 -0.004311 0.010095 0.000000 0.000000 0.000000
# 4 0.000000 0.000000 0.000000 0.021438 0.000000 0.000000
# 5 0.000000 0.000000 0.000000 0.000000 0.039899 0.000000
# 6 0.000000 0.000000 0.000000 0.000000 0.000000 0.055621
#
#
# Mechanical properties :
#
#
# Convention : Reuss Voigt Hill
#
# Bulk Modulus (GPa) = 64.07287 67.35390 65.71339
# Shear Modulus (GPa) = 29.56287 34.19432 31.87860
#
# Velocity S-wave (km/s) = 3.65154 3.92717 3.79186
# Velocity P-wave (km/s) = 6.83207 7.13739 6.98640
#
# Compressibility (1/GPa) = 0.01560723
#
# Stress axis : x y z
#
# Youngs Moduli (GPa) = 104.13549 86.27535 99.05791
#
# Poissons Ratio (x) = 0.01732 0.32976
# Poissons Ratio (y) = 0.02091 0.42704
# Poissons Ratio (z) = 0.34667 0.37193
#
# Static dielectric constant tensor:
#      x y z
#    x 3.695210 0.000000 0.000000 
#    y 0.000000 4.004340 0.000000 
#    z 0.000000 0.000000 4.349410 
# 
# 
# High freq. dielectric constant tensor:
#      x y z
#    x 1.845360 0.000000 0.000000 
#    y 0.000000 1.880360 0.000000 
#    z 0.000000 0.000000 1.894430 
# 
# From -- ./inp_files/6292.got.cif
#   From: 2010.03.12/outbox.cif.g09.slc.cpg/sg24_4_cif.got.tgz:6292.got - 2010.04.14 03:06:53.
