data_PCOD8165433
_publ_section_title
;
Structure prediction by ZEFSAII (Michael W. Deem and Ramdas Pophale) SiO2 
 PCOD8165433
Probable space group: I 21 21 21
;
_chemical_formula_sum "Si O2"
_cell_formula_units_Z 60
_cell_length_a 22.108173
_cell_length_b 16.215962
_cell_length_c 8.812913
_cell_angle_alpha 90.000000
_cell_angle_beta 90.000000
_cell_angle_gamma 90.000000
_cell_volume 3159.475960
_symmetry_space_group_name_H-M "I 21 21 21"
_symmetry_group_IT_number 24
_symmetry_cell_setting 'orthorhombic'
loop_
_space_group_symop_operation_xyz
x,y,z
-x,1/2-y,z
x,-y,1/2-z
1/2-x,y,-z
1/2+x,1/2+y,1/2+z
1/2-x,-y,1/2+z
1/2+x,1/2-y,-z
-x,1/2+y,1/2-z
loop_
_atom_site_type_symbol
_atom_site_label
_atom_site_fract_x
_atom_site_fract_y
_atom_site_fract_z
Si Si1 0.934199 0.996152 0.425169
Si Si2 0.787103 0.772386 0.267273
Si Si3 0.147950 0.908103 0.803793
Si Si4 0.041356 0.676236 0.584411
Si Si5 0.984974 0.582496 0.846314
Si Si6 0.302717 0.559118 0.878815
Si Si7 0.250000 0.159216 0.500000
Si Si8 0.665333 0.260323 0.085771
O O1 0.863316 0.019170 0.452897
O O2 0.975005 0.066161 0.504750
O O3 0.950015 0.000000 0.250000
O O4 0.952518 0.904440 0.479041
O O5 0.818526 0.855618 0.206812
O O6 0.719951 0.788702 0.332925
O O7 0.826199 0.732372 0.403762
O O8 0.784788 0.712318 0.124955
O O9 0.083577 0.890672 0.885264
O O10 0.158195 0.851080 0.656096
O O11 0.152184 0.000000 0.750000
O O12 0.199500 0.897765 0.927373
O O13 0.107493 0.707105 0.622463
O O14 0.000000 0.750000 0.510210
O O15 0.013332 0.655169 0.747233
O O16 0.983881 0.500000 0.750000
O O17 0.275862 0.500000 0.750000
O O18 0.250000 0.573983 0.000000
#
# Coordination Sequence:
#
# PCOD8165433 Si02
#       8
#     8   8   8   8   8   8   4   8
#     4  10  23  41  59  89 132 163 204 261 321 384
#     4  10  22  40  59  88 125 162 199 256 310 374
#     4  10  21  40  61  88 117 154 208 263 314 385
#     4  11  21  39  64  92 116 164 216 258 303 376
#     4   9  20  39  62  84 115 158 207 254 306 373
#     4  11  24  37  60  92 128 166 207 249 310 385
#     4  10  22  40  60  88 122 154 200 258 320 380
#     4  10  21  37  63  86 123 158 210 255 314 365
#
# _framework density 18.990492
#
# number of rings (size 3 to 8) (size 9 to 14) (size 15 to 20)
#    0.000    1.867    2.000    1.600    5.600    2.667 
#    2.400    1.333    0.000    0.000    0.000    0.000 
#    0.000    0.000    0.000    0.000    0.000    0.000 
#
# Total GULP energy -371914.872362 kJ/mol
# GULP energy per Si atom -12397.162412 kJ/mol
# Density = 1.894727 g / cm^3
# Si number density = 18.990492 Si / 1000 Ang^3
#
#
#
# Elastic Constant Matrix: (Units=GPa)
#
#
# Indices 1 2 3 4 5 6 
#
# 1 127.6550 58.2854 61.2980 0.0000 0.0000 0.0000
# 2 58.2854 106.5019 49.7669 0.0000 0.0000 0.0000
# 3 61.2980 49.7669 119.3425 0.0000 0.0000 0.0000
# 4 0.0000 0.0000 0.0000 26.0224 0.0000 0.0000
# 5 0.0000 0.0000 0.0000 0.0000 25.4545 0.0000
# 6 0.0000 0.0000 0.0000 0.0000 0.0000 31.0289
#
#
#
# Elastic Compliance Matrix: (Units=1/GPa)
#
#
# Indices 1 2 3 4 5 6 
#
# 1 0.011950 -0.004560 -0.004236 0.000000 0.000000 0.000000
# 2 -0.004560 0.013402 -0.003247 0.000000 0.000000 0.000000
# 3 -0.004236 -0.003247 0.011909 0.000000 0.000000 0.000000
# 4 0.000000 0.000000 0.000000 0.038428 0.000000 0.000000
# 5 0.000000 0.000000 0.000000 0.000000 0.039286 0.000000
# 6 0.000000 0.000000 0.000000 0.000000 0.000000 0.032228
#
#
# Mechanical properties :
#
#
# Convention : Reuss Voigt Hill
#
# Bulk Modulus (GPa) = 75.90101 76.91110 76.40605
# Shear Modulus (GPa) = 28.46064 28.77776 28.61920
#
# Velocity S-wave (km/s) = 3.87548 3.89701 3.88626
# Velocity P-wave (km/s) = 7.75116 7.79978 7.77551
#
# Compressibility (1/GPa) = 0.01317506
#
# Stress axis : x y z
#
# Youngs Moduli (GPa) = 83.68238 74.61388 83.97079
#
# Poissons Ratio (x) = 0.34027 0.35571
# Poissons Ratio (y) = 0.38162 0.27262
# Poissons Ratio (z) = 0.35449 0.24224
#
# Static dielectric constant tensor:
#      x y z
#    x 3.745720 0.000000 0.000000 
#    y 0.000000 3.554850 0.000000 
#    z 0.000000 0.000000 3.634010 
# 
# 
# High freq. dielectric constant tensor:
#      x y z
#    x 1.746540 0.000000 0.000000 
#    y 0.000000 1.740930 0.000000 
#    z 0.000000 0.000000 1.731600 
# 
# From -- ./inp_files/16006.got.cif
#   From: 2010.03.12/outbox.cif.g09.slc.cpg/sg24_9_cif.got.tgz:16006.got - 2010.04.14 03:06:53.
