data_PCOD8165720
_publ_section_title
;
Structure prediction by ZEFSAII (Michael W. Deem and Ramdas Pophale) SiO2 
 PCOD8165720
Probable space group: I 21 21 21
;
_chemical_formula_sum "Si O2"
_cell_formula_units_Z 64
_cell_length_a 11.942955
_cell_length_b 18.152189
_cell_length_c 14.317789
_cell_angle_alpha 90.000000
_cell_angle_beta 90.000000
_cell_angle_gamma 90.000000
_cell_volume 3103.964593
_symmetry_space_group_name_H-M "I 21 21 21"
_symmetry_group_IT_number 24
_symmetry_cell_setting 'orthorhombic'
loop_
_space_group_symop_operation_xyz
x,y,z
-x,1/2-y,z
x,-y,1/2-z
1/2-x,y,-z
1/2+x,1/2+y,1/2+z
1/2-x,-y,1/2+z
1/2+x,1/2-y,-z
-x,1/2+y,1/2-z
loop_
_atom_site_type_symbol
_atom_site_label
_atom_site_fract_x
_atom_site_fract_y
_atom_site_fract_z
Si Si1 0.358980 0.058600 0.672465
Si Si2 0.874878 0.502309 0.984109
Si Si3 0.030020 0.625324 0.924842
Si Si4 0.587958 0.651186 0.398940
Si Si5 0.459407 0.667303 0.861672
Si Si6 0.278534 0.671524 0.211948
Si Si7 0.841289 0.335437 0.692030
Si Si8 0.163056 0.688115 0.579501
O O1 0.416677 0.010778 0.590025
O O2 0.448980 0.120961 0.695675
O O3 0.240149 0.099748 0.656161
O O4 0.333483 0.000000 0.750000
O O5 0.750000 0.537054 0.000000
O O6 0.858774 0.419505 0.948380
O O7 0.965007 0.545954 0.919765
O O8 0.138467 0.627125 0.857740
O O9 0.937497 0.681196 0.884018
O O10 0.057868 0.648018 0.029671
O O11 0.594742 0.641847 0.287361
O O12 0.461938 0.658284 0.437979
O O13 0.660907 0.723080 0.424036
O O14 0.500000 0.750000 0.851154
O O15 0.345549 0.645860 0.810725
O O16 0.276809 0.759067 0.198201
O O17 0.301992 0.654721 0.320408
O O18 0.250000 0.660071 0.500000
#
# Coordination Sequence:
#
# PCOD8165720 Si02
#       8
#     8   8   8   8   8   8   8   8
#     4  11  24  40  62  94 134 170 212 268 332 383
#     4  11  22  39  61  95 131 164 213 267 335 386
#     4  11  23  37  64  97 131 169 213 269 328 391
#     4  10  22  40  66  93 124 166 224 273 327 387
#     4  11  23  41  62  95 131 176 215 262 327 399
#     4  11  22  42  64  95 131 167 220 265 324 389
#     4  11  20  39  67  91 127 167 213 272 318 383
#     4  10  22  42  64  93 123 169 224 278 324 382
#
# _framework density 20.618791999999999
#
# number of rings (size 3 to 8) (size 9 to 14) (size 15 to 20)
#    0.000    1.250    3.750    2.625    0.000    2.000 
#    2.250    3.750    0.000    0.000    0.000    0.000 
#    0.000    0.000    0.000    0.000    0.000    0.000 
#
# Total GULP energy -396493.438150 kJ/mol
# GULP energy per Si atom -12390.419942 kJ/mol
# Density = 2.057186 g / cm^3
# Si number density = 20.618792 Si / 1000 Ang^3
#
#
#
# Elastic Constant Matrix: (Units=GPa)
#
#
# Indices 1 2 3 4 5 6 
#
# 1 127.7588 21.1976 37.0834 0.0000 0.0000 0.0000
# 2 21.1976 71.4001 21.0356 0.0002 0.0000 0.0000
# 3 37.0834 21.0356 70.3191 0.0002 0.0000 0.0000
# 4 0.0000 0.0002 0.0002 23.5750 0.0000 0.0000
# 5 0.0000 0.0000 0.0000 0.0000 40.4800 0.0000
# 6 0.0000 0.0000 0.0000 0.0000 0.0000 24.2234
#
#
#
# Elastic Compliance Matrix: (Units=1/GPa)
#
#
# Indices 1 2 3 4 5 6 
#
# 1 0.009378 -0.001455 -0.004510 0.000000 0.000000 0.000000
# 2 -0.001455 0.015585 -0.003895 0.000000 0.000000 0.000000
# 3 -0.004510 -0.003895 0.017764 0.000000 0.000000 0.000000
# 4 0.000000 0.000000 0.000000 0.042418 0.000000 0.000000
# 5 0.000000 0.000000 0.000000 0.000000 0.024704 0.000000
# 6 0.000000 0.000000 0.000000 0.000000 0.000000 0.041282
#
#
# Mechanical properties :
#
#
# Convention : Reuss Voigt Hill
#
# Bulk Modulus (GPa) = 43.46510 47.56791 45.51650
# Shear Modulus (GPa) = 28.00797 30.33309 29.17053
#
# Velocity S-wave (km/s) = 3.68961 3.83970 3.76540
# Velocity P-wave (km/s) = 6.26714 6.54049 6.40527
#
# Compressibility (1/GPa) = 0.02300696
#
# Stress axis : x y z
#
# Youngs Moduli (GPa) = 106.63446 64.16385 56.29232
#
# Poissons Ratio (x) = 0.09338 0.25388
# Poissons Ratio (y) = 0.15519 0.21924
# Poissons Ratio (z) = 0.48093 0.24990
#
# Static dielectric constant tensor:
#      x y z
#    x 3.715550 0.000000 0.000000 
#    y 0.000000 3.559500 0.000000 
#    z 0.000000 0.000000 3.926600 
# 
# 
# High freq. dielectric constant tensor:
#      x y z
#    x 1.813070 0.000000 0.000000 
#    y 0.000000 1.790460 0.000000 
#    z 0.000000 0.000000 1.807290 
# 
# From -- ./inp_files/21043.got.cif
#   From: 2010.03.12/outbox.cif.g09.slc.cpg/sg24_11_cif.got.tgz:21043.got - 2010.04.14 03:06:53.
