data_PCOD8165607
_publ_section_title
;
Structure prediction by ZEFSAII (Michael W. Deem and Ramdas Pophale) SiO2 
 PCOD8165607
Probable space group: I 21 21 21
;
_chemical_formula_sum "Si O2"
_cell_formula_units_Z 56
_cell_length_a 10.664275
_cell_length_b 16.089431
_cell_length_c 15.667478
_cell_angle_alpha 90.000000
_cell_angle_beta 90.000000
_cell_angle_gamma 90.000000
_cell_volume 2688.259040
_symmetry_space_group_name_H-M "I 21 21 21"
_symmetry_group_IT_number 24
_symmetry_cell_setting 'orthorhombic'
loop_
_space_group_symop_operation_xyz
x,y,z
-x,1/2-y,z
x,-y,1/2-z
1/2-x,y,-z
1/2+x,1/2+y,1/2+z
1/2-x,-y,1/2+z
1/2+x,1/2-y,-z
-x,1/2+y,1/2-z
loop_
_atom_site_type_symbol
_atom_site_label
_atom_site_fract_x
_atom_site_fract_y
_atom_site_fract_z
Si Si1 0.179112 0.469125 0.656259
Si Si2 0.500000 0.250000 0.183068
Si Si3 0.089462 0.354545 0.377345
Si Si4 0.661124 0.413856 0.707546
Si Si5 0.633468 0.247346 0.786492
Si Si6 0.077867 0.863920 0.832800
Si Si7 0.304425 0.646669 0.408278
Si Si8 0.500000 0.250000 0.473922
O O1 0.213995 0.500000 0.750000
O O2 0.296560 0.418877 0.619601
O O3 0.166916 0.548776 0.595071
O O4 0.049699 0.417402 0.659536
O O5 0.580944 0.309746 0.245146
O O6 0.429953 0.305757 0.114014
O O7 0.121021 0.282425 0.310945
O O8 0.083477 0.312562 0.470124
O O9 0.954192 0.395838 0.356598
O O10 0.625259 0.500000 0.750000
O O11 0.679976 0.342456 0.780056
O O12 0.798003 0.421701 0.662469
O O13 0.500000 0.250000 0.833722
O O14 0.712454 0.178635 0.834707
O O15 0.092018 0.802217 0.912689
O O16 0.250000 0.671840 0.500000
#
# Coordination Sequence:
#
# PCOD8165607 Si02
#       8
#     8   4   8   8   8   8   8   4
#     4  12  24  44  70 101 137 181 232 287 348 414
#     4  11  22  46  67  92 130 184 233 268 354 409
#     4  11  23  43  68 100 132 181 229 280 339 411
#     4  11  23  41  66  98 132 178 230 272 340 419
#     4  10  21  43  69  94 127 178 227 272 347 410
#     4  11  25  41  68 101 137 183 218 283 355 417
#     4  12  27  43  70 100 134 179 237 293 336 410
#     4  11  26  42  73 100 146 170 237 290 342 421
#
# _framework density 20.831327000000002
#
# number of rings (size 3 to 8) (size 9 to 14) (size 15 to 20)
#    0.000    0.857    6.429    0.857    7.000    1.714 
#    0.000    0.000    3.143    0.000    0.000    0.000 
#    0.000    0.000    0.000    0.000    0.000    0.000 
#
# Total GULP energy -347024.681447 kJ/mol
# GULP energy per Si atom -12393.738623 kJ/mol
# Density = 2.078391 g / cm^3
# Si number density = 20.831327 Si / 1000 Ang^3
#
#
#
# Elastic Constant Matrix: (Units=GPa)
#
#
# Indices 1 2 3 4 5 6 
#
# 1 131.8512 62.2365 26.1918 0.0000 0.0000 0.0000
# 2 62.2365 143.2763 46.0061 0.0000 0.0000 0.0000
# 3 26.1918 46.0061 113.8113 0.0000 -0.0001 0.0000
# 4 0.0000 0.0000 0.0000 37.1898 0.0000 0.0000
# 5 0.0000 0.0000 -0.0001 0.0000 -18.6783 0.0000
# 6 0.0000 0.0000 0.0000 0.0000 0.0000 7.1709
#
#
#
# Elastic Compliance Matrix: (Units=1/GPa)
#
#
# Indices 1 2 3 4 5 6 
#
# 1 0.009576 -0.003967 -0.000600 0.000000 0.000000 0.000000
# 2 -0.003967 0.009664 -0.002994 0.000000 0.000000 0.000000
# 3 -0.000600 -0.002994 0.010135 0.000000 0.000000 0.000000
# 4 0.000000 0.000000 0.000000 0.026889 0.000000 0.000000
# 5 0.000000 0.000000 0.000000 0.000000 -0.053538 0.000000
# 6 0.000000 0.000000 0.000000 0.000000 0.000000 0.139452
#
#
# Mechanical properties :
#
#
# Convention : Reuss Voigt Hill
#
# Bulk Modulus (GPa) = 70.15928 73.08973 71.62450
# Shear Modulus (GPa) = 30.85467 22.10346 26.47907
#
# Velocity S-wave (km/s) = 3.85277 3.26094 3.56914
# Velocity P-wave (km/s) = 7.31742 7.02431 7.17236
#
# Compressibility (1/GPa) = 0.01425328
#
# Stress axis : x y z
#
# Youngs Moduli (GPa) = 104.42782 103.47803 98.67107
#
# Poissons Ratio (x) = 0.41049 0.05922
# Poissons Ratio (y) = 0.41425 0.29537
# Poissons Ratio (z) = 0.06268 0.30976
#
# Static dielectric constant tensor:
#      x y z
#    x 3.579080 0.000000 0.000000 
#    y 0.000000 3.994930 0.000000 
#    z 0.000000 0.000000 3.639940 
# 
# 
# High freq. dielectric constant tensor:
#      x y z
#    x 1.830530 0.000000 0.000000 
#    y 0.000000 1.825410 0.000000 
#    z 0.000000 0.000000 1.792550 
# 
# From -- ./inp_files/25852.got.cif
#   From: 2010.03.12/outbox.cif.g09.slc.cpg/sg24_13_cif.got.tgz:25852.got - 2010.04.14 03:06:53.
