data_PCOD8165853
_publ_section_title
;
Structure prediction by ZEFSAII (Michael W. Deem and Ramdas Pophale) SiO2 
 PCOD8165853
Probable space group: I 21 21 21
;
_chemical_formula_sum "Si O2"
_cell_formula_units_Z 40
_cell_length_a 29.811207
_cell_length_b 6.858870
_cell_length_c 8.984816
_cell_angle_alpha 90.000000
_cell_angle_beta 90.000000
_cell_angle_gamma 90.000000
_cell_volume 1837.136050
_symmetry_space_group_name_H-M "I 21 21 21"
_symmetry_group_IT_number 24
_symmetry_cell_setting 'orthorhombic'
loop_
_space_group_symop_operation_xyz
x,y,z
-x,1/2-y,z
x,-y,1/2-z
1/2-x,y,-z
1/2+x,1/2+y,1/2+z
1/2-x,-y,1/2+z
1/2+x,1/2-y,-z
-x,1/2+y,1/2-z
loop_
_atom_site_type_symbol
_atom_site_label
_atom_site_fract_x
_atom_site_fract_y
_atom_site_fract_z
Si Si1 0.750000 0.709813 0.000000
Si Si2 0.551287 0.704844 0.817740
Si Si3 0.162228 0.609573 0.902538
Si Si4 0.374874 0.288027 0.886307
Si Si5 0.905392 0.553812 0.909925
Si Si6 0.804788 0.500000 0.250000
O O1 0.784984 0.854067 0.920108
O O2 0.726341 0.566727 0.884206
O O3 0.500000 0.750000 0.781810
O O4 0.565511 0.500000 0.750000
O O5 0.584959 0.848743 0.728878
O O6 0.559670 0.687680 0.995426
O O7 0.152149 0.500000 0.750000
O O8 0.139923 0.822510 0.894193
O O9 0.143253 0.487559 0.042258
O O10 0.335199 0.183402 0.796002
O O11 0.393889 0.151092 0.015656
O O12 0.926832 0.500000 0.750000
#
# Coordination Sequence:
#
# PCOD8165853 Si02
#       6
#     4   8   8   8   8   4
#     4  12  30  42  68 102 132 182 238 292 334 412
#     4  10  23  43  72 104 133 179 232 288 339 418
#     4  12  27  42  71 102 134 184 234 285 348 417
#     4  11  23  47  70  98 141 183 227 284 353 408
#     4  11  22  46  66  99 141 182 221 277 359 411
#     4  12  26  48  68  96 144 186 226 294 348 406
#
# _framework density 21.773019999999999
#
# number of rings (size 3 to 8) (size 9 to 14) (size 15 to 20)
#    0.000    0.800    7.000    0.000    9.800    1.600 
#    0.000    5.000    0.000    0.000    0.000    0.000 
#    0.000    0.000    0.000    0.000    0.000    0.000 
#
# Total GULP energy -248001.715502 kJ/mol
# GULP energy per Si atom -12400.085775 kJ/mol
# Density = 2.172346 g / cm^3
# Si number density = 21.773020 Si / 1000 Ang^3
#
#
#
# Elastic Constant Matrix: (Units=GPa)
#
#
# Indices 1 2 3 4 5 6 
#
# 1 141.5905 25.5498 65.1411 0.0000 0.0000 0.0000
# 2 25.5498 74.5916 35.3378 0.0000 0.0000 0.0000
# 3 65.1411 35.3378 150.9978 0.0000 0.0000 0.0000
# 4 0.0000 0.0000 0.0000 34.6602 0.0000 0.0000
# 5 0.0000 0.0000 0.0000 0.0000 23.8624 0.0000
# 6 0.0000 0.0000 0.0000 0.0000 0.0000 24.5273
#
#
#
# Elastic Compliance Matrix: (Units=1/GPa)
#
#
# Indices 1 2 3 4 5 6 
#
# 1 0.008938 -0.001389 -0.003531 0.000000 0.000000 0.000000
# 2 -0.001389 0.015294 -0.002980 0.000000 0.000000 0.000000
# 3 -0.003531 -0.002980 0.008843 0.000000 0.000000 0.000000
# 4 0.000000 0.000000 0.000000 0.028852 0.000000 0.000000
# 5 0.000000 0.000000 0.000000 0.000000 0.041907 0.000000
# 6 0.000000 0.000000 0.000000 0.000000 0.000000 0.040771
#
#
# Mechanical properties :
#
#
# Convention : Reuss Voigt Hill
#
# Bulk Modulus (GPa) = 57.88519 68.80414 63.34467
# Shear Modulus (GPa) = 30.09121 32.68673 31.38897
#
# Velocity S-wave (km/s) = 3.72161 3.87880 3.80102
# Velocity P-wave (km/s) = 6.71645 7.19231 6.95845
#
# Compressibility (1/GPa) = 0.01727557
#
# Stress axis : x y z
#
# Youngs Moduli (GPa) = 111.88712 65.38586 113.08111
#
# Poissons Ratio (x) = 0.09080 0.39926
# Poissons Ratio (y) = 0.15538 0.33699
# Poissons Ratio (z) = 0.39504 0.19486
#
# Static dielectric constant tensor:
#      x y z
#    x 3.793050 0.000000 0.000000 
#    y 0.000000 3.951670 0.000000 
#    z 0.000000 0.000000 4.245500 
# 
# 
# High freq. dielectric constant tensor:
#      x y z
#    x 1.843440 0.000000 0.000000 
#    y 0.000000 1.868460 0.000000 
#    z 0.000000 0.000000 1.870380 
# 
# From -- ./inp_files/15654.got.cif
#   From: 2010.03.12/outbox.cif.g09.slc.cpg/sg24_8_cif.got.tgz:15654.got - 2010.04.14 03:06:53.
