data_PCOD8165477
_publ_section_title
;
Structure prediction by ZEFSAII (Michael W. Deem and Ramdas Pophale) SiO2 
 PCOD8165477
Probable space group: I 21 21 21
;
_chemical_formula_sum "Si O2"
_cell_formula_units_Z 48
_cell_length_a 14.628101
_cell_length_b 9.021707
_cell_length_c 16.190829
_cell_angle_alpha 90.000000
_cell_angle_beta 90.000000
_cell_angle_gamma 90.000000
_cell_volume 2136.710846
_symmetry_space_group_name_H-M "I 21 21 21"
_symmetry_group_IT_number 24
_symmetry_cell_setting 'orthorhombic'
loop_
_space_group_symop_operation_xyz
x,y,z
-x,1/2-y,z
x,-y,1/2-z
1/2-x,y,-z
1/2+x,1/2+y,1/2+z
1/2-x,-y,1/2+z
1/2+x,1/2-y,-z
-x,1/2+y,1/2-z
loop_
_atom_site_type_symbol
_atom_site_label
_atom_site_fract_x
_atom_site_fract_y
_atom_site_fract_z
Si Si1 0.150916 0.049982 0.523468
Si Si2 0.219825 0.628197 0.299656
Si Si3 0.893683 0.234244 0.049586
Si Si4 0.829161 0.642296 0.791599
Si Si5 0.890905 0.023476 0.904481
Si Si6 0.000000 0.250000 0.808043
Si Si7 0.000000 0.750000 0.959297
O O1 0.250000 0.113520 0.500000
O O2 0.141751 0.087241 0.618872
O O3 0.064864 0.142544 0.484172
O O4 0.143516 0.877472 0.500139
O O5 0.164298 0.500000 0.250000
O O6 0.157998 0.719897 0.363147
O O7 0.254194 0.731653 0.224303
O O8 0.302990 0.544195 0.346762
O O9 0.000000 0.250000 0.069279
O O10 0.870477 0.088058 0.996052
O O11 0.783993 0.500000 0.750000
O O12 0.921059 0.692641 0.748905
O O13 0.974645 0.116399 0.868430
O O14 0.926959 0.852953 0.906991
#
# Coordination Sequence:
#
# PCOD8165477 Si02
#       7
#     8   8   8   8   8   4   4
#     4  12  25  44  69 103 144 190 242 301 362 440
#     4  11  26  45  71 105 143 193 242 299 370 434
#     4  12  24  49  76 102 143 198 255 295 358 443
#     4  11  22  39  65 102 144 180 232 292 372 435
#     4  11  21  41  70 107 146 186 235 299 370 443
#     4  10  21  38  66 102 151 188 220 294 377 452
#     4  12  23  38  64 110 145 174 234 302 365 418
#
# _framework density 22.464433
#
# number of rings (size 3 to 8) (size 9 to 14) (size 15 to 20)
#    0.000    0.667    2.500    7.000    0.000    6.667 
#    0.000    2.500    1.833    0.000    0.000    0.000 
#    0.000    0.000    0.000    0.000    0.000    0.000 
#
# Total GULP energy -297391.933482 kJ/mol
# GULP energy per Si atom -12391.330562 kJ/mol
# Density = 2.241330 g / cm^3
# Si number density = 22.464433 Si / 1000 Ang^3
#
#
#
# Elastic Constant Matrix: (Units=GPa)
#
#
# Indices 1 2 3 4 5 6 
#
# 1 88.7561 35.4917 21.9344 0.0000 0.0000 0.0000
# 2 35.4917 144.2353 49.1212 0.0000 0.0000 0.0000
# 3 21.9344 49.1212 86.7154 0.0000 0.0000 0.0000
# 4 0.0000 0.0000 0.0000 37.3258 0.0000 0.0000
# 5 0.0000 0.0000 0.0000 0.0000 -2.1763 0.0000
# 6 0.0000 0.0000 0.0000 0.0000 0.0000 62.9591
#
#
#
# Elastic Compliance Matrix: (Units=1/GPa)
#
#
# Indices 1 2 3 4 5 6 
#
# 1 0.012717 -0.002520 -0.001789 0.000000 0.000000 0.000000
# 2 -0.002520 0.009090 -0.004512 0.000000 0.000000 0.000000
# 3 -0.001789 -0.004512 0.014540 0.000000 0.000000 0.000000
# 4 0.000000 0.000000 0.000000 0.026791 0.000000 0.000000
# 5 0.000000 0.000000 0.000000 0.000000 -0.459503 0.000000
# 6 0.000000 0.000000 0.000000 0.000000 0.000000 0.015883
#
#
# Mechanical properties :
#
#
# Convention : Reuss Voigt Hill
#
# Bulk Modulus (GPa) = 53.46106 59.20016 56.33061
# Shear Modulus (GPa) = -14.02109 33.83235 9.90563
#
# Velocity S-wave (km/s) = -2.50100 3.88498 2.10215
# Velocity P-wave (km/s) = 3.93824 6.82160 5.56974
#
# Compressibility (1/GPa) = 0.01870520
#
# Stress axis : x y z
#
# Youngs Moduli (GPa) = 78.63724 110.01535 68.77479
#
# Poissons Ratio (x) = 0.27722 0.12306
# Poissons Ratio (y) = 0.19815 0.31028
# Poissons Ratio (z) = 0.14070 0.49634
#
# Static dielectric constant tensor:
#      x y z
#    x 4.106870 0.000000 0.000000 
#    y 0.000000 4.523240 0.000000 
#    z 0.000000 0.000000 3.407290 
# 
# 
# High freq. dielectric constant tensor:
#      x y z
#    x 1.874910 0.000000 0.000000 
#    y 0.000000 1.910810 0.000000 
#    z 0.000000 0.000000 1.860920 
# 
# From -- ./inp_files/30767.got.cif
#   From: 2010.03.12/outbox.cif.g09.slc.cpg/sg24_16_cif.got.tgz:30767.got - 2010.04.14 03:06:53.
