data_PCOD8165854
_publ_section_title
;
Structure prediction by ZEFSAII (Michael W. Deem and Ramdas Pophale) SiO2 
 PCOD8165854
Probable space group: I 21 21 21
;
_chemical_formula_sum "Si O2"
_cell_formula_units_Z 60
_cell_length_a 13.959268
_cell_length_b 11.486569
_cell_length_c 16.742158
_cell_angle_alpha 90.000000
_cell_angle_beta 90.000000
_cell_angle_gamma 90.000000
_cell_volume 2684.506174
_symmetry_space_group_name_H-M "I 21 21 21"
_symmetry_group_IT_number 24
_symmetry_cell_setting 'orthorhombic'
loop_
_space_group_symop_operation_xyz
x,y,z
-x,1/2-y,z
x,-y,1/2-z
1/2-x,y,-z
1/2+x,1/2+y,1/2+z
1/2-x,-y,1/2+z
1/2+x,1/2-y,-z
-x,1/2+y,1/2-z
loop_
_atom_site_type_symbol
_atom_site_label
_atom_site_fract_x
_atom_site_fract_y
_atom_site_fract_z
Si Si1 0.940937 0.633956 0.445083
Si Si2 0.275210 0.355907 0.584834
Si Si3 0.419192 0.994423 0.095395
Si Si4 0.219626 0.296184 0.084969
Si Si5 0.909486 0.107288 0.688207
Si Si6 0.580847 0.014980 0.843119
Si Si7 0.900066 0.717945 0.676461
Si Si8 0.250000 0.133832 0.500000
O O1 0.964238 0.584684 0.532442
O O2 0.829890 0.669217 0.430004
O O3 0.000000 0.750000 0.433490
O O4 0.975783 0.539647 0.379553
O O5 0.250000 0.415832 0.500000
O O6 0.189913 0.395858 0.642219
O O7 0.376437 0.397251 0.619652
O O8 0.288986 0.216794 0.571723
O O9 0.384511 0.077087 0.170058
O O10 0.499101 0.903230 0.127342
O O11 0.333308 0.938468 0.043473
O O12 0.152490 0.380778 0.135137
O O13 0.314736 0.285378 0.135674
O O14 0.250000 0.350623 0.000000
O O15 0.910427 0.232962 0.732819
O O16 0.913701 0.000000 0.750000
O O17 0.568586 0.000000 0.750000
O O18 0.000000 0.750000 0.632683
#
# Coordination Sequence:
#
# PCOD8165854 Si02
#       8
#     8   8   8   8   8   8   8   4
#     4  10  23  43  73 103 133 185 242 301 357 431
#     4  10  23  45  67  97 141 184 247 288 368 440
#     4  12  24  45  68  96 146 184 246 286 364 450
#     4  11  22  40  72 103 140 176 245 303 363 433
#     4  12  26  41  70 110 151 184 231 311 386 441
#     4  11  23  42  70 104 139 184 238 313 363 429
#     4  12  25  40  69 109 141 191 226 301 376 443
#     4  10  28  44  66  94 134 200 238 294 352 434
#
# _framework density 22.350479
#
# number of rings (size 3 to 8) (size 9 to 14) (size 15 to 20)
#    0.400    0.533    2.667    4.400    3.733    0.000 
#    0.000    5.333    2.933    0.000    0.000    0.000 
#    0.000    0.000    0.000    0.000    0.000    0.000 
#
# Total GULP energy -371644.533616 kJ/mol
# GULP energy per Si atom -12388.151121 kJ/mol
# Density = 2.229961 g / cm^3
# Si number density = 22.350479 Si / 1000 Ang^3
#
#
#
# Elastic Constant Matrix: (Units=GPa)
#
#
# Indices 1 2 3 4 5 6 
#
# 1 98.4872 35.4548 39.8348 0.0000 0.0000 0.0000
# 2 35.4548 84.5083 38.8097 0.0000 0.0000 0.0000
# 3 39.8348 38.8097 124.1917 0.0000 0.0000 0.0000
# 4 0.0000 0.0000 0.0000 60.6937 0.0000 0.0000
# 5 0.0000 0.0000 0.0000 0.0000 34.2129 0.0000
# 6 0.0000 0.0000 0.0000 0.0000 0.0000 31.1962
#
#
#
# Elastic Compliance Matrix: (Units=1/GPa)
#
#
# Indices 1 2 3 4 5 6 
#
# 1 0.012756 -0.004054 -0.002824 0.000000 0.000000 0.000000
# 2 -0.004054 0.015105 -0.003420 0.000000 0.000000 0.000000
# 3 -0.002824 -0.003420 0.010027 0.000000 0.000000 0.000000
# 4 0.000000 0.000000 0.000000 0.016476 0.000000 0.000000
# 5 0.000000 0.000000 0.000000 0.000000 0.029229 0.000000
# 6 0.000000 0.000000 0.000000 0.000000 0.000000 0.032055
#
#
# Mechanical properties :
#
#
# Convention : Reuss Voigt Hill
#
# Bulk Modulus (GPa) = 57.83752 59.48732 58.66242
# Shear Modulus (GPa) = 35.20950 38.09309 36.65130
#
# Velocity S-wave (km/s) = 3.97336 4.13286 4.05389
# Velocity P-wave (km/s) = 6.85447 7.03189 6.94375
#
# Compressibility (1/GPa) = 0.01728981
#
# Stress axis : x y z
#
# Youngs Moduli (GPa) = 78.39731 66.20485 99.73427
#
# Poissons Ratio (x) = 0.26842 0.28169
# Poissons Ratio (y) = 0.31786 0.34106
# Poissons Ratio (z) = 0.22142 0.22640
#
# Static dielectric constant tensor:
#      x y z
#    x 4.308570 0.000000 0.000000 
#    y 0.000000 4.297160 0.000000 
#    z 0.000000 0.000000 4.066290 
# 
# 
# High freq. dielectric constant tensor:
#      x y z
#    x 1.879040 0.000000 0.000000 
#    y 0.000000 1.880310 0.000000 
#    z 0.000000 0.000000 1.879250 
# 
# From -- ./inp_files/30873.got.cif
#   From: 2010.03.12/outbox.cif.g09.slc.cpg/sg24_16_cif.got.tgz:30873.got - 2010.04.14 03:06:53.
