data_PCOD8165568
_publ_section_title
;
Structure prediction by ZEFSAII (Michael W. Deem and Ramdas Pophale) SiO2 
 PCOD8165568
Probable space group: I 21 21 21
;
_chemical_formula_sum "Si O2"
_cell_formula_units_Z 56
_cell_length_a 13.969444
_cell_length_b 20.378234
_cell_length_c 8.197918
_cell_angle_alpha 90.000000
_cell_angle_beta 90.000000
_cell_angle_gamma 90.000000
_cell_volume 2333.722621
_symmetry_space_group_name_H-M "I 21 21 21"
_symmetry_group_IT_number 24
_symmetry_cell_setting 'orthorhombic'
loop_
_space_group_symop_operation_xyz
x,y,z
-x,1/2-y,z
x,-y,1/2-z
1/2-x,y,-z
1/2+x,1/2+y,1/2+z
1/2-x,-y,1/2+z
1/2+x,1/2-y,-z
-x,1/2+y,1/2-z
loop_
_atom_site_type_symbol
_atom_site_label
_atom_site_fract_x
_atom_site_fract_y
_atom_site_fract_z
Si Si1 0.474798 0.979345 0.931480
Si Si2 0.445463 0.106226 0.094129
Si Si3 0.843539 0.138569 0.897771
Si Si4 0.148425 0.596572 0.956505
Si Si5 0.862857 0.363541 0.545614
Si Si6 0.350332 0.775229 0.548885
Si Si7 0.647942 0.769797 0.918382
O O1 0.506417 0.000000 0.750000
O O2 0.568754 0.960237 0.039233
O O3 0.405467 0.916630 0.921344
O O4 0.412357 0.036564 0.019887
O O5 0.560150 0.096206 0.081404
O O6 0.395181 0.117173 0.269972
O O7 0.427403 0.167878 0.975438
O O8 0.820617 0.131073 0.710341
O O9 0.750000 0.114712 0.000000
O O10 0.868137 0.214572 0.928485
O O11 0.250000 0.563584 0.000000
O O12 0.103472 0.656947 0.064920
O O13 0.750000 0.361106 0.500000
O O14 0.906521 0.290762 0.509319
O O15 0.250000 0.808780 0.500000
O O16 0.348795 0.747790 0.729608
O O17 0.750000 0.777122 0.000000
#
# Coordination Sequence:
#
# PCOD8165568 Si02
#       7
#     8   8   8   8   8   8   8
#     4  12  29  46  68 106 149 197 258 299 369 459
#     4  12  26  47  71 104 154 196 248 308 373 448
#     4  11  24  44  75 108 146 189 247 306 382 447
#     4  11  24  47  73 104 146 193 242 317 375 441
#     4  11  24  48  76 107 146 194 247 310 380 450
#     4  11  22  41  74 113 145 188 244 308 379 456
#     4  10  21  41  72 108 144 182 240 307 381 443
#
# _framework density 23.995996999999999
#
# number of rings (size 3 to 8) (size 9 to 14) (size 15 to 20)
#    0.000    0.857    1.429    7.714    4.000    2.857 
#    2.571    0.000    0.000    0.000    0.000    0.000 
#    0.000    0.000    0.000    0.000    0.000    0.000 
#
# Total GULP energy -346873.576334 kJ/mol
# GULP energy per Si atom -12388.342012 kJ/mol
# Density = 2.394138 g / cm^3
# Si number density = 23.995997 Si / 1000 Ang^3
#
#
#
# Elastic Constant Matrix: (Units=GPa)
#
#
# Indices 1 2 3 4 5 6 
#
# 1 90.5281 11.5666 26.5758 0.0000 0.0000 0.0000
# 2 11.5666 100.4985 46.6025 0.0000 0.0000 0.0000
# 3 26.5758 46.6025 147.7451 0.0001 0.0000 0.0000
# 4 0.0000 0.0000 0.0001 29.9710 0.0000 0.0000
# 5 0.0000 0.0000 0.0000 0.0000 39.2250 0.0000
# 6 0.0000 0.0000 0.0000 0.0000 0.0000 22.7236
#
#
#
# Elastic Compliance Matrix: (Units=1/GPa)
#
#
# Indices 1 2 3 4 5 6 
#
# 1 0.011678 -0.000433 -0.001964 0.000000 0.000000 0.000000
# 2 -0.000433 0.011671 -0.003603 0.000000 0.000000 0.000000
# 3 -0.001964 -0.003603 0.008258 0.000000 0.000000 0.000000
# 4 0.000000 0.000000 0.000000 0.033366 0.000000 0.000000
# 5 0.000000 0.000000 0.000000 0.000000 0.025494 0.000000
# 6 0.000000 0.000000 0.000000 0.000000 0.000000 0.044007
#
#
# Mechanical properties :
#
#
# Convention : Reuss Voigt Hill
#
# Bulk Modulus (GPa) = 51.00415 56.47349 53.73882
# Shear Modulus (GPa) = 32.67732 35.31904 33.99818
#
# Velocity S-wave (km/s) = 3.69424 3.84066 3.76816
# Velocity P-wave (km/s) = 6.28474 6.57672 6.43238
#
# Compressibility (1/GPa) = 0.01960625
#
# Stress axis : x y z
#
# Youngs Moduli (GPa) = 85.62956 85.68066 121.09040
#
# Poissons Ratio (x) = 0.03713 0.23781
# Poissons Ratio (y) = 0.03711 0.43634
# Poissons Ratio (z) = 0.16817 0.30875
#
# Static dielectric constant tensor:
#      x y z
#    x 4.374560 0.000000 0.000000 
#    y 0.000000 4.714450 0.000000 
#    z 0.000000 0.000000 4.237540 
# 
# 
# High freq. dielectric constant tensor:
#      x y z
#    x 1.946400 0.000000 0.000000 
#    y 0.000000 1.964950 0.000000 
#    z 0.000000 0.000000 1.953770 
# 
# From -- ./inp_files/13188.got.cif
#   From: 2010.03.12/outbox.cif.g09.slc.cpg/sg24_7_cif.got.tgz:13188.got - 2010.04.14 03:06:53.
