data_PCOD8165841
_publ_section_title
;
Structure prediction by ZEFSAII (Michael W. Deem and Ramdas Pophale) SiO2 
 PCOD8165841
Probable space group: I 21 21 21
;
_chemical_formula_sum "Si O2"
_cell_formula_units_Z 56
_cell_length_a 8.880867
_cell_length_b 16.207708
_cell_length_c 17.685822
_cell_angle_alpha 90.000000
_cell_angle_beta 90.000000
_cell_angle_gamma 90.000000
_cell_volume 2545.670674
_symmetry_space_group_name_H-M "I 21 21 21"
_symmetry_group_IT_number 24
_symmetry_cell_setting 'orthorhombic'
loop_
_space_group_symop_operation_xyz
x,y,z
-x,1/2-y,z
x,-y,1/2-z
1/2-x,y,-z
1/2+x,1/2+y,1/2+z
1/2-x,-y,1/2+z
1/2+x,1/2-y,-z
-x,1/2+y,1/2-z
loop_
_atom_site_type_symbol
_atom_site_label
_atom_site_fract_x
_atom_site_fract_y
_atom_site_fract_z
Si Si1 0.868383 0.619243 0.670756
Si Si2 0.178620 0.758503 0.425936
Si Si3 0.141415 0.701250 0.224183
Si Si4 0.206507 0.389453 0.859620
Si Si5 0.066624 0.531202 0.167481
Si Si6 0.737311 0.530112 0.912831
Si Si7 0.870968 0.317317 0.663035
O O1 0.754087 0.691767 0.644112
O O2 0.795146 0.532762 0.650724
O O3 0.903999 0.633088 0.759193
O O4 0.028354 0.612052 0.629163
O O5 0.250000 0.802408 0.500000
O O6 0.230762 0.663268 0.429155
O O7 0.000000 0.750000 0.423514
O O8 0.250894 0.664230 0.286493
O O9 0.218768 0.767029 0.170459
O O10 0.000000 0.750000 0.261974
O O11 0.098635 0.627460 0.169036
O O12 0.283258 0.479853 0.856651
O O13 0.009647 0.500000 0.250000
O O14 0.940265 0.527703 0.103543
O O15 0.832559 0.615143 0.901773
O O16 0.750000 0.501831 0.000000
O O17 0.000000 0.250000 0.641504
#
# Coordination Sequence:
#
# PCOD8165841 Si02
#       7
#     8   8   8   8   8   8   8
#     4  12  24  43  72 103 138 178 234 302 355 428
#     4  12  24  40  64  96 140 187 228 282 356 433
#     4  11  21  40  70 102 131 170 230 294 350 418
#     4  11  23  39  66 103 140 172 232 290 362 423
#     4  10  23  42  69 100 134 178 231 290 351 424
#     4  12  28  47  65  99 143 193 237 286 367 436
#     4  12  24  44  75 103 136 177 240 302 359 418
#
# _framework density 21.998131000000001
#
# number of rings (size 3 to 8) (size 9 to 14) (size 15 to 20)
#    0.000    0.571    4.286    4.286    4.000    2.286 
#    2.571    0.000    0.000    0.000    0.000    0.000 
#    0.000    0.000    0.000    0.000    0.000    0.000 
#
# Total GULP energy -346878.803934 kJ/mol
# GULP energy per Si atom -12388.528712 kJ/mol
# Density = 2.194806 g / cm^3
# Si number density = 21.998131 Si / 1000 Ang^3
#
#
#
# Elastic Constant Matrix: (Units=GPa)
#
#
# Indices 1 2 3 4 5 6 
#
# 1 149.1316 35.4360 19.1358 0.0000 0.0000 0.0000
# 2 35.4360 118.7480 9.6654 0.0000 0.0000 0.0000
# 3 19.1358 9.6654 54.2940 0.0000 0.0000 0.0000
# 4 0.0000 0.0000 0.0000 26.5335 0.0000 0.0000
# 5 0.0000 0.0000 0.0000 0.0000 20.5178 0.0000
# 6 0.0000 0.0000 0.0000 0.0000 0.0000 35.6658
#
#
#
# Elastic Compliance Matrix: (Units=1/GPa)
#
#
# Indices 1 2 3 4 5 6 
#
# 1 0.007484 -0.002048 -0.002273 0.000000 0.000000 0.000000
# 2 -0.002048 0.009106 -0.000899 0.000000 0.000000 0.000000
# 3 -0.002273 -0.000899 0.019379 0.000000 0.000000 0.000000
# 4 0.000000 0.000000 0.000000 0.037688 0.000000 0.000000
# 5 0.000000 0.000000 0.000000 0.000000 0.048738 0.000000
# 6 0.000000 0.000000 0.000000 0.000000 0.000000 0.028038
#
#
# Mechanical properties :
#
#
# Convention : Reuss Voigt Hill
#
# Bulk Modulus (GPa) = 39.17247 50.07200 44.62223
# Shear Modulus (GPa) = 29.51882 33.73918 31.62900
#
# Velocity S-wave (km/s) = 3.66714 3.92053 3.79595
# Velocity P-wave (km/s) = 5.98134 6.58069 6.28816
#
# Compressibility (1/GPa) = 0.02552813
#
# Stress axis : x y z
#
# Youngs Moduli (GPa) = 133.62097 109.82249 51.60115
#
# Poissons Ratio (x) = 0.22495 0.11729
# Poissons Ratio (y) = 0.27369 0.04639
# Poissons Ratio (z) = 0.30373 0.09874
#
# Static dielectric constant tensor:
#      x y z
#    x 3.886940 0.000000 0.000000 
#    y 0.000000 4.608550 0.000000 
#    z 0.000000 0.000000 3.787890 
# 
# 
# High freq. dielectric constant tensor:
#      x y z
#    x 1.878650 0.000000 0.000000 
#    y 0.000000 1.879510 0.000000 
#    z 0.000000 0.000000 1.832810 
# 
# From -- ./inp_files/32833.got.cif
#   From: 2010.03.12/outbox.cif.g09.slc.cpg/sg24_17_cif.got.tgz:32833.got - 2010.04.14 03:06:53.
