data_PCOD8165819
_publ_section_title
;
Structure prediction by ZEFSAII (Michael W. Deem and Ramdas Pophale) SiO2 
 PCOD8165819
Probable space group: I 21 21 21
;
_chemical_formula_sum "Si O2"
_cell_formula_units_Z 40
_cell_length_a 11.553278
_cell_length_b 5.599237
_cell_length_c 26.136230
_cell_angle_alpha 90.000000
_cell_angle_beta 90.000000
_cell_angle_gamma 90.000000
_cell_volume 1690.740739
_symmetry_space_group_name_H-M "I 21 21 21"
_symmetry_group_IT_number 24
_symmetry_cell_setting 'orthorhombic'
loop_
_space_group_symop_operation_xyz
x,y,z
-x,1/2-y,z
x,-y,1/2-z
1/2-x,y,-z
1/2+x,1/2+y,1/2+z
1/2-x,-y,1/2+z
1/2+x,1/2-y,-z
-x,1/2+y,1/2-z
loop_
_atom_site_type_symbol
_atom_site_label
_atom_site_fract_x
_atom_site_fract_y
_atom_site_fract_z
Si Si1 0.290126 0.540238 0.057501
Si Si2 0.568917 0.000000 0.750000
Si Si3 0.868413 0.811041 0.355810
Si Si4 0.310269 0.930885 0.130228
Si Si5 0.867097 0.753724 0.770129
Si Si6 0.500000 0.250000 0.093497
O O1 0.194034 0.436458 0.096204
O O2 0.300490 0.818986 0.073353
O O3 0.415710 0.413981 0.059026
O O4 0.250000 0.519388 0.000000
O O5 0.500000 0.250000 0.743909
O O6 0.640541 0.032601 0.803332
O O7 0.805500 0.556525 0.349287
O O8 0.000000 0.750000 0.370326
O O9 0.345136 0.721827 0.169359
O O10 0.418329 0.108166 0.132052
O O11 0.810916 0.500000 0.750000
O O12 0.000000 0.750000 0.753674
O O13 0.808405 0.000000 0.750000
#
# Coordination Sequence:
#
# PCOD8165819 Si02
#       6
#     8   4   8   8   8   4
#     4  11  26  46  77 109 145 197 254 324 392 469
#     4  10  24  48  80 114 158 212 260 328 394 470
#     4  10  26  48  75 109 154 200 259 318 391 468
#     4  11  25  46  72 102 146 196 249 314 380 457
#     4  10  23  39  67 105 147 192 243 303 373 453
#     4  10  24  48  72 104 146 188 246 314 392 452
#
# _framework density 23.658269000000001
#
# number of rings (size 3 to 8) (size 9 to 14) (size 15 to 20)
#    0.000    1.600    0.000    1.800   16.800    4.800 
#    5.400    0.000    0.000    0.000    0.000    0.000 
#    0.000    0.000    0.000    0.000    0.000    0.000 
#
# Total GULP energy -247794.680787 kJ/mol
# GULP energy per Si atom -12389.734039 kJ/mol
# Density = 2.360442 g / cm^3
# Si number density = 23.658269 Si / 1000 Ang^3
#
#
#
# Elastic Constant Matrix: (Units=GPa)
#
#
# Indices 1 2 3 4 5 6 
#
# 1 154.2435 51.8424 52.6973 0.0000 0.0000 0.0000
# 2 51.8424 161.2375 58.5992 0.0000 0.0000 0.0000
# 3 52.6973 58.5992 160.0491 0.0000 0.0000 0.0000
# 4 0.0000 0.0000 0.0000 32.6098 0.0000 0.0000
# 5 0.0000 0.0000 0.0000 0.0000 -13.8143 0.0000
# 6 0.0000 0.0000 0.0000 0.0000 0.0000 24.1818
#
#
#
# Elastic Compliance Matrix: (Units=1/GPa)
#
#
# Indices 1 2 3 4 5 6 
#
# 1 0.007733 -0.001801 -0.001887 0.000000 0.000000 0.000000
# 2 -0.001801 0.007573 -0.002180 0.000000 0.000000 0.000000
# 3 -0.001887 -0.002180 0.007668 0.000000 0.000000 0.000000
# 4 0.000000 0.000000 0.000000 0.030666 0.000000 0.000000
# 5 0.000000 0.000000 0.000000 0.000000 -0.072389 0.000000
# 6 0.000000 0.000000 0.000000 0.000000 0.000000 0.041353
#
#
# Mechanical properties :
#
#
# Convention : Reuss Voigt Hill
#
# Bulk Modulus (GPa) = 88.97675 89.08978 89.03327
# Shear Modulus (GPa) = 131.28412 29.42154 80.35283
#
# Velocity S-wave (km/s) = 7.45737 3.53030 5.83418
# Velocity P-wave (km/s) = 10.57547 7.37266 9.11583
#
# Compressibility (1/GPa) = 0.01123889
#
# Stress axis : x y z
#
# Youngs Moduli (GPa) = 129.31367 132.04366 130.42047
#
# Poissons Ratio (x) = 0.23776 0.24609
# Poissons Ratio (y) = 0.23285 0.28431
# Poissons Ratio (z) = 0.24400 0.28785
#
# Static dielectric constant tensor:
#      x y z
#    x 4.364240 0.000000 0.000000 
#    y 0.000000 5.661660 0.000000 
#    z 0.000000 0.000000 4.080080 
# 
# 
# High freq. dielectric constant tensor:
#      x y z
#    x 1.947730 0.000000 0.000000 
#    y 0.000000 1.951810 0.000000 
#    z 0.000000 0.000000 1.924270 
# 
# From -- ./inp_files/37060.got.cif
#   From: 2010.03.12/outbox.cif.g09.slc.cpg/sg24_19_cif.got.tgz:37060.got - 2010.04.14 03:06:53.
