data_PCOD8165034
_publ_section_title
;
Structure prediction by ZEFSAII (Michael W. Deem and Ramdas Pophale) SiO2 
 PCOD8165034
Probable space group: I 21 21 21
;
_chemical_formula_sum "Si O2"
_cell_formula_units_Z 48
_cell_length_a 9.231097
_cell_length_b 19.908794
_cell_length_c 13.324798
_cell_angle_alpha 90.000000
_cell_angle_beta 90.000000
_cell_angle_gamma 90.000000
_cell_volume 2448.831491
_symmetry_space_group_name_H-M "I 21 21 21"
_symmetry_group_IT_number 24
_symmetry_cell_setting 'orthorhombic'
loop_
_space_group_symop_operation_xyz
x,y,z
-x,1/2-y,z
x,-y,1/2-z
1/2-x,y,-z
1/2+x,1/2+y,1/2+z
1/2-x,-y,1/2+z
1/2+x,1/2-y,-z
-x,1/2+y,1/2-z
loop_
_atom_site_type_symbol
_atom_site_label
_atom_site_fract_x
_atom_site_fract_y
_atom_site_fract_z
Si Si1 0.844543 0.135533 0.410939
Si Si2 0.081637 0.317437 0.852036
Si Si3 0.078249 0.045761 0.508482
Si Si4 0.915690 0.909971 0.468572
Si Si5 0.894807 0.189667 0.197136
Si Si6 0.095308 0.566851 0.807467
O O1 0.750000 0.172754 0.500000
O O2 0.879362 0.184371 0.317771
O O3 0.737677 0.076270 0.375596
O O4 0.997479 0.105102 0.447370
O O5 0.246180 0.292645 0.858440
O O6 0.062323 0.370167 0.762331
O O7 0.000000 0.250000 0.825893
O O8 0.029189 0.352190 0.954808
O O9 0.250000 0.051451 0.500000
O O10 0.046508 0.055355 0.625875
O O11 0.019800 0.973852 0.472810
O O12 0.750000 0.929230 0.500000
O O13 0.938429 0.881324 0.355328
O O14 0.000000 0.250000 0.170044
O O15 0.133720 0.500000 0.750000
#
# Coordination Sequence:
#
# PCOD8165034 Si02
#       6
#     8   8   8   8   8   8
#     4   9  21  39  62  83 112 157 209 245 295 363
#     4  10  21  36  61  88 120 162 197 246 306 362
#     4  11  23  37  56  92 123 153 197 262 316 344
#     4  10  20  37  60  85 120 163 201 236 299 380
#     4  10  22  38  58  88 118 155 203 247 303 360
#     4  10  19  39  64  84 115 161 209 242 289 372
#
# _framework density 19.601185999999998
#
# number of rings (size 3 to 8) (size 9 to 14) (size 15 to 20)
#    0.000    2.000    1.667    2.000    4.667    2.667 
#    3.000    8.333    0.000    0.000    0.000    0.000 
#    0.000    0.000    0.000    0.000    0.000    0.000 
#
# Total GULP energy -297457.438414 kJ/mol
# GULP energy per Si atom -12394.059934 kJ/mol
# Density = 1.955657 g / cm^3
# Si number density = 19.601186 Si / 1000 Ang^3
#
#
#
# Elastic Constant Matrix: (Units=GPa)
#
#
# Indices 1 2 3 4 5 6 
#
# 1 104.4012 23.2081 13.2429 0.0000 0.0000 0.0000
# 2 23.2081 57.4779 -1.2785 0.0000 0.0000 0.0000
# 3 13.2429 -1.2785 81.9970 0.0001 0.0000 0.0000
# 4 0.0000 0.0000 0.0001 21.4981 0.0000 0.0000
# 5 0.0000 0.0000 0.0000 0.0000 32.4856 0.0000
# 6 0.0000 0.0000 0.0000 0.0000 0.0000 25.5034
#
#
#
# Elastic Compliance Matrix: (Units=1/GPa)
#
#
# Indices 1 2 3 4 5 6 
#
# 1 0.010785 -0.004395 -0.001810 0.000000 0.000000 0.000000
# 2 -0.004395 0.019195 0.001009 0.000000 0.000000 0.000000
# 3 -0.001810 0.001009 0.012504 0.000000 0.000000 0.000000
# 4 0.000000 0.000000 0.000000 0.046516 0.000000 0.000000
# 5 0.000000 0.000000 0.000000 0.000000 0.030783 0.000000
# 6 0.000000 0.000000 0.000000 0.000000 0.000000 0.039211
#
#
# Mechanical properties :
#
#
# Convention : Reuss Voigt Hill
#
# Bulk Modulus (GPa) = 31.16116 34.91347 33.03731
# Shear Modulus (GPa) = 27.76505 29.81099 28.78802
#
# Velocity S-wave (km/s) = 3.76772 3.90407 3.83650
# Velocity P-wave (km/s) = 5.90421 6.17843 6.04288
#
# Compressibility (1/GPa) = 0.03209124
#
# Stress axis : x y z
#
# Youngs Moduli (GPa) = 92.72076 52.09684 79.97647
#
# Poissons Ratio (x) = 0.22897 0.14479
# Poissons Ratio (y) = 0.40751 -0.08070
# Poissons Ratio (z) = 0.16786 -0.05257
#
# Static dielectric constant tensor:
#      x y z
#    x 3.461320 0.000000 0.000000 
#    y 0.000000 3.319350 0.000000 
#    z 0.000000 0.000000 3.999220 
# 
# 
# High freq. dielectric constant tensor:
#      x y z
#    x 1.747700 0.000000 0.000000 
#    y 0.000000 1.750420 0.000000 
#    z 0.000000 0.000000 1.781320 
# 
# From -- ./inp_files/24780.got.cif
#   From: 2010.03.12/outbox.cif.g09.slc.cpg/sg24_13_cif.got.tgz:24780.got - 2010.04.14 03:06:53.
