data_PCOD8165678
_publ_section_title
;
Structure prediction by ZEFSAII (Michael W. Deem and Ramdas Pophale) SiO2 
 PCOD8165678
Probable space group: I 21 21 21
;
_chemical_formula_sum "Si O2"
_cell_formula_units_Z 32
_cell_length_a 15.547081
_cell_length_b 13.279202
_cell_length_c 6.972173
_cell_angle_alpha 90.000000
_cell_angle_beta 90.000000
_cell_angle_gamma 90.000000
_cell_volume 1439.424841
_symmetry_space_group_name_H-M "I 21 21 21"
_symmetry_group_IT_number 24
_symmetry_cell_setting 'orthorhombic'
loop_
_space_group_symop_operation_xyz
x,y,z
-x,1/2-y,z
x,-y,1/2-z
1/2-x,y,-z
1/2+x,1/2+y,1/2+z
1/2-x,-y,1/2+z
1/2+x,1/2-y,-z
-x,1/2+y,1/2-z
loop_
_atom_site_type_symbol
_atom_site_label
_atom_site_fract_x
_atom_site_fract_y
_atom_site_fract_z
Si Si1 0.414255 0.698259 0.930778
Si Si2 0.500000 0.750000 0.291794
Si Si3 0.250000 0.831497 0.000000
Si Si4 0.058294 0.500000 0.250000
Si Si5 0.423162 0.940922 0.446601
Si Si6 0.716933 0.500000 0.750000
O O1 0.500000 0.750000 0.833265
O O2 0.386730 0.599380 0.807597
O O3 0.439349 0.679236 0.154553
O O4 0.331867 0.769992 0.929231
O O5 0.439501 0.821543 0.419091
O O6 0.274736 0.904929 0.179669
O O7 0.003098 0.514206 0.439557
O O8 0.414934 0.000000 0.250000
O O9 0.337889 0.959702 0.570018
#
# Coordination Sequence:
#
# PCOD8165678 Si02
#       6
#     8   4   4   4   8   4
#     4  10  23  45  68 103 145 187 244 303 370 450
#     4  10  22  38  72  98 140 184 234 288 366 446
#     4  12  26  46  70 108 152 182 250 310 376 450
#     4  11  22  40  70 103 138 194 244 299 368 451
#     4  11  21  43  70 104 140 185 238 297 374 449
#     4  11  28  40  70 107 150 186 242 319 382 439
#
# _framework density 22.231102
#
# number of rings (size 3 to 8) (size 9 to 14) (size 15 to 20)
#    0.750    0.500    2.500    4.500   10.500    0.000 
#    0.000    2.500    0.000    0.000    0.000    0.000 
#    0.000    0.000    0.000    0.000    0.000    0.000 
#
# Total GULP energy -198213.353723 kJ/mol
# GULP energy per Si atom -12388.334608 kJ/mol
# Density = 2.218050 g / cm^3
# Si number density = 22.231102 Si / 1000 Ang^3
#
#
#
# Elastic Constant Matrix: (Units=GPa)
#
#
# Indices 1 2 3 4 5 6 
#
# 1 111.0755 74.7124 26.1281 0.0000 0.0000 0.0000
# 2 74.7124 179.8473 65.7488 0.0000 0.0000 0.0000
# 3 26.1281 65.7488 119.1226 0.0000 0.0000 0.0000
# 4 0.0000 0.0000 0.0000 53.6797 0.0000 0.0000
# 5 0.0000 0.0000 0.0000 0.0000 106.4029 0.0000
# 6 0.0000 0.0000 0.0000 0.0000 0.0000 40.4139
#
#
#
# Elastic Compliance Matrix: (Units=1/GPa)
#
#
# Indices 1 2 3 4 5 6 
#
# 1 0.012496 -0.005248 0.000156 0.000000 0.000000 0.000000
# 2 -0.005248 0.009170 -0.003910 0.000000 0.000000 0.000000
# 3 0.000156 -0.003910 0.010519 0.000000 0.000000 0.000000
# 4 0.000000 0.000000 0.000000 0.018629 0.000000 0.000000
# 5 0.000000 0.000000 0.000000 0.000000 0.009398 0.000000
# 6 0.000000 0.000000 0.000000 0.000000 0.000000 0.024744
#
#
# Mechanical properties :
#
#
# Convention : Reuss Voigt Hill
#
# Bulk Modulus (GPa) = 70.52254 82.58046 76.55150
# Shear Modulus (GPa) = 46.43042 56.32969 51.38005
#
# Velocity S-wave (km/s) = 4.57501 5.03917 4.81269
# Velocity P-wave (km/s) = 7.72651 8.43117 8.08652
#
# Compressibility (1/GPa) = 0.01417986
#
# Stress axis : x y z
#
# Youngs Moduli (GPa) = 80.02360 109.05166 95.06855
#
# Poissons Ratio (x) = 0.57232 -0.01481
# Poissons Ratio (y) = 0.41998 0.37173
# Poissons Ratio (z) = -0.01247 0.42641
#
# Static dielectric constant tensor:
#      x y z
#    x 3.782670 0.000000 0.000000 
#    y 0.000000 3.728110 0.000000 
#    z 0.000000 0.000000 4.294650 
# 
# 
# High freq. dielectric constant tensor:
#      x y z
#    x 1.846160 0.000000 0.000000 
#    y 0.000000 1.874380 0.000000 
#    z 0.000000 0.000000 1.892720 
# 
# From -- ./inp_files/4393.got.cif
#   From: 2010.03.12/outbox.cif.g09.slc.cpg/sg24_3_cif.got.tgz:4393.got - 2010.04.14 03:06:53.
