data_PCOD8165892
_publ_section_title
;
Structure prediction by ZEFSAII (Michael W. Deem and Ramdas Pophale) SiO2 
 PCOD8165892
Probable space group: I 21 21 21
;
_chemical_formula_sum "Si O2"
_cell_formula_units_Z 40
_cell_length_a 16.292374
_cell_length_b 9.000445
_cell_length_c 11.049746
_cell_angle_alpha 90.000000
_cell_angle_beta 90.000000
_cell_angle_gamma 90.000000
_cell_volume 1620.319462
_symmetry_space_group_name_H-M "I 21 21 21"
_symmetry_group_IT_number 24
_symmetry_cell_setting 'orthorhombic'
loop_
_space_group_symop_operation_xyz
x,y,z
-x,1/2-y,z
x,-y,1/2-z
1/2-x,y,-z
1/2+x,1/2+y,1/2+z
1/2-x,-y,1/2+z
1/2+x,1/2-y,-z
-x,1/2+y,1/2-z
loop_
_atom_site_type_symbol
_atom_site_label
_atom_site_fract_x
_atom_site_fract_y
_atom_site_fract_z
Si Si1 0.247160 0.250189 0.264134
Si Si2 0.024764 0.084304 0.950179
Si Si3 0.250000 0.357237 0.000000
Si Si4 0.583052 0.679847 0.899113
Si Si5 0.866566 0.082093 0.579729
Si Si6 0.141725 0.000000 0.750000
O O1 0.154011 0.213887 0.302239
O O2 0.294558 0.395263 0.319052
O O3 0.299892 0.115466 0.318566
O O4 0.251553 0.254594 0.118730
O O5 0.000000 0.250000 0.993749
O O6 0.091742 0.098639 0.845582
O O7 0.951138 0.996538 0.881009
O O8 0.062537 0.992191 0.065299
O O9 0.170826 0.464154 0.015593
O O10 0.500000 0.750000 0.844388
O O11 0.609883 0.760618 0.022447
#
# Coordination Sequence:
#
# PCOD8165892 Si02
#       6
#     8   8   4   8   8   4
#     4  12  26  48  73 115 158 210 265 322 406 472
#     4  11  26  44  74 119 153 201 266 324 397 469
#     4  12  26  42  76 116 152 210 270 322 378 488
#     4  10  23  49  82 107 153 209 255 322 400 474
#     4  11  23  46  77 108 157 204 256 326 397 472
#     4  12  28  42  76 110 160 206 250 332 392 474
#
# _framework density 24.686489000000002
#
# number of rings (size 3 to 8) (size 9 to 14) (size 15 to 20)
#    0.000    0.800    4.000    1.800    5.600    3.200 
#    0.000    7.000    0.000    0.000    0.000    0.000 
#    0.000    0.000    0.000    0.000    0.000    0.000 
#
# Total GULP energy -247776.967478 kJ/mol
# GULP energy per Si atom -12388.848374 kJ/mol
# Density = 2.463030 g / cm^3
# Si number density = 24.686489 Si / 1000 Ang^3
#
#
#
# Elastic Constant Matrix: (Units=GPa)
#
#
# Indices 1 2 3 4 5 6 
#
# 1 183.0745 55.9955 62.3639 0.0000 0.0000 0.0000
# 2 55.9955 148.9409 45.2011 0.0000 0.0000 0.0000
# 3 62.3639 45.2011 93.6710 0.0000 0.0000 0.0000
# 4 0.0000 0.0000 0.0000 20.2653 0.0000 0.0000
# 5 0.0000 0.0000 0.0000 0.0000 20.2553 0.0000
# 6 0.0000 0.0000 0.0000 0.0000 0.0000 47.4471
#
#
#
# Elastic Compliance Matrix: (Units=1/GPa)
#
#
# Indices 1 2 3 4 5 6 
#
# 1 0.007338 -0.001495 -0.004164 0.000000 0.000000 0.000000
# 2 -0.001495 0.008171 -0.002947 0.000000 0.000000 0.000000
# 3 -0.004164 -0.002947 0.014870 0.000000 0.000000 0.000000
# 4 0.000000 0.000000 0.000000 0.049345 0.000000 0.000000
# 5 0.000000 0.000000 0.000000 0.000000 0.049370 0.000000
# 6 0.000000 0.000000 0.000000 0.000000 0.000000 0.021076
#
#
# Mechanical properties :
#
#
# Convention : Reuss Voigt Hill
#
# Bulk Modulus (GPa) = 75.95352 83.64526 79.79939
# Shear Modulus (GPa) = 29.10840 35.06862 32.08851
#
# Velocity S-wave (km/s) = 3.43756 3.77312 3.60924
# Velocity P-wave (km/s) = 6.82567 7.27588 7.05437
#
# Compressibility (1/GPa) = 0.01316595
#
# Stress axis : x y z
#
# Youngs Moduli (GPa) = 136.27688 122.38956 67.24847
#
# Poissons Ratio (x) = 0.18298 0.28002
# Poissons Ratio (y) = 0.20374 0.19821
# Poissons Ratio (z) = 0.56746 0.36073
#
# Static dielectric constant tensor:
#      x y z
#    x 4.839230 0.000000 0.000000 
#    y 0.000000 4.434940 0.000000 
#    z 0.000000 0.000000 3.824990 
# 
# 
# High freq. dielectric constant tensor:
#      x y z
#    x 2.007110 0.000000 0.000000 
#    y 0.000000 1.991260 0.000000 
#    z 0.000000 0.000000 1.942980 
# 
# From -- ./inp_files/21365.got.cif
#   From: 2010.03.12/outbox.cif.g09.slc.cpg/sg24_11_cif.got.tgz:21365.got - 2010.04.14 03:06:53.
