data_PCOD8165806
_publ_section_title
;
Structure prediction by ZEFSAII (Michael W. Deem and Ramdas Pophale) SiO2 
 PCOD8165806
Probable space group: I 21 21 21
;
_chemical_formula_sum "Si O2"
_cell_formula_units_Z 60
_cell_length_a 9.775931
_cell_length_b 11.457935
_cell_length_c 25.603709
_cell_angle_alpha 90.000000
_cell_angle_beta 90.000000
_cell_angle_gamma 90.000000
_cell_volume 2867.922191
_symmetry_space_group_name_H-M "I 21 21 21"
_symmetry_group_IT_number 24
_symmetry_cell_setting 'orthorhombic'
loop_
_space_group_symop_operation_xyz
x,y,z
-x,1/2-y,z
x,-y,1/2-z
1/2-x,y,-z
1/2+x,1/2+y,1/2+z
1/2-x,-y,1/2+z
1/2+x,1/2-y,-z
-x,1/2+y,1/2-z
loop_
_atom_site_type_symbol
_atom_site_label
_atom_site_fract_x
_atom_site_fract_y
_atom_site_fract_z
Si Si1 0.843353 0.511649 0.550711
Si Si2 0.849747 0.979250 0.951126
Si Si3 0.018451 0.118500 0.782636
Si Si4 0.733100 0.263387 0.438433
Si Si5 0.240434 0.395018 0.852007
Si Si6 0.500000 0.750000 0.869750
Si Si7 0.228696 0.135377 0.147085
Si Si8 0.993519 0.986014 0.189720
O O1 0.750000 0.525622 0.500000
O O2 0.827573 0.386860 0.580607
O O3 0.800991 0.609316 0.592000
O O4 0.001305 0.528378 0.533810
O O5 0.772199 0.060399 0.910567
O O6 0.866385 0.847061 0.928211
O O7 0.750000 0.973662 0.000000
O O8 0.170452 0.106360 0.805000
O O9 0.000000 0.250000 0.755342
O O10 0.911571 0.114502 0.829643
O O11 0.990598 0.000000 0.750000
O O12 0.750000 0.279932 0.500000
O O13 0.872863 0.236067 0.408363
O O14 0.312715 0.270075 0.852809
O O15 0.334993 0.479754 0.817511
O O16 0.483672 0.855695 0.829765
O O17 0.089005 0.065318 0.153522
O O18 0.034926 0.000000 0.250000
#
# Coordination Sequence:
#
# PCOD8165806 Si02
#       8
#     8   8   8   8   8   4   8   8
#     4  11  24  41  67  99 136 175 222 272 340 411
#     4  11  24  41  67  99 136 175 222 272 340 411
#     4  10  22  46  68  96 132 173 222 280 341 400
#     4  10  23  38  66  96 140 174 218 280 354 402
#     4  11  24  44  67  93 136 175 220 278 338 400
#     4  12  24  44  70 106 136 184 228 294 330 430
#     4  11  24  44  67  93 136 175 220 278 338 400
#     4  12  27  46  68 100 136 175 235 281 346 395
#
# _framework density 20.921071000000001
#
# number of rings (size 3 to 8) (size 9 to 14) (size 15 to 20)
#    0.000    1.067    4.000    1.600   11.200    0.533 
#    4.800    0.000    0.000    0.000    0.000    0.000 
#    0.000    0.000    0.000    0.000    0.000    0.000 
#
# Total GULP energy -371935.508456 kJ/mol
# GULP energy per Si atom -12397.850282 kJ/mol
# Density = 2.087345 g / cm^3
# Si number density = 20.921071 Si / 1000 Ang^3
#
#
#
# Elastic Constant Matrix: (Units=GPa)
#
#
# Indices 1 2 3 4 5 6 
#
# 1 79.9157 5.3242 22.0363 0.0000 0.0000 0.0000
# 2 5.3242 117.7937 42.7548 0.0000 0.0000 0.0000
# 3 22.0363 42.7548 90.1631 0.0000 0.0000 0.0000
# 4 0.0000 0.0000 0.0000 30.4685 0.0000 0.0000
# 5 0.0000 0.0000 0.0000 0.0000 30.1574 0.0000
# 6 0.0000 0.0000 0.0000 0.0000 0.0000 30.8309
#
#
#
# Elastic Compliance Matrix: (Units=1/GPa)
#
#
# Indices 1 2 3 4 5 6 
#
# 1 0.013466 0.000708 -0.003627 0.000000 0.000000 0.000000
# 2 0.000708 0.010292 -0.005053 0.000000 0.000000 0.000000
# 3 -0.003627 -0.005053 0.014374 0.000000 0.000000 0.000000
# 4 0.000000 0.000000 0.000000 0.032821 0.000000 0.000000
# 5 0.000000 0.000000 0.000000 0.000000 0.033159 0.000000
# 6 0.000000 0.000000 0.000000 0.000000 0.000000 0.032435
#
#
# Mechanical properties :
#
#
# Convention : Reuss Voigt Hill
#
# Bulk Modulus (GPa) = 45.07183 47.56701 46.31942
# Shear Modulus (GPa) = 31.27222 32.80851 32.04037
#
# Velocity S-wave (km/s) = 3.87042 3.96435 3.91767
# Velocity P-wave (km/s) = 6.44702 6.61366 6.53087
#
# Compressibility (1/GPa) = 0.02218681
#
# Stress axis : x y z
#
# Youngs Moduli (GPa) = 74.26060 97.16721 69.57211
#
# Poissons Ratio (x) = -0.06877 0.25232
# Poissons Ratio (y) = -0.05256 0.35156
# Poissons Ratio (z) = 0.26933 0.49100
#
# Static dielectric constant tensor:
#      x y z
#    x 3.743120 0.000000 0.000000 
#    y 0.000000 4.270700 0.000000 
#    z 0.000000 0.000000 3.532240 
# 
# 
# High freq. dielectric constant tensor:
#      x y z
#    x 1.827800 0.000000 0.000000 
#    y 0.000000 1.835180 0.000000 
#    z 0.000000 0.000000 1.802770 
# 
# From -- ./inp_files/36927.got.cif
#   From: 2010.03.12/outbox.cif.g09.slc.cpg/sg24_19_cif.got.tgz:36927.got - 2010.04.14 03:06:53.
