data_PCOD8165173
_publ_section_title
;
Structure prediction by ZEFSAII (Michael W. Deem and Ramdas Pophale) SiO2 
 PCOD8165173
Probable space group: I 21 21 21
;
_chemical_formula_sum "Si O2"
_cell_formula_units_Z 44
_cell_length_a 16.022356
_cell_length_b 9.679875
_cell_length_c 15.329041
_cell_angle_alpha 90.000000
_cell_angle_beta 90.000000
_cell_angle_gamma 90.000000
_cell_volume 2377.448467
_symmetry_space_group_name_H-M "I 21 21 21"
_symmetry_group_IT_number 24
_symmetry_cell_setting 'orthorhombic'
loop_
_space_group_symop_operation_xyz
x,y,z
-x,1/2-y,z
x,-y,1/2-z
1/2-x,y,-z
1/2+x,1/2+y,1/2+z
1/2-x,-y,1/2+z
1/2+x,1/2-y,-z
-x,1/2+y,1/2-z
loop_
_atom_site_type_symbol
_atom_site_label
_atom_site_fract_x
_atom_site_fract_y
_atom_site_fract_z
Si Si1 0.500000 0.250000 0.606400
Si Si2 0.500000 0.250000 0.886676
Si Si3 0.067393 0.003329 0.004677
Si Si4 0.372302 0.342080 0.744278
Si Si5 0.045865 0.105762 0.681235
Si Si6 0.263146 0.869757 0.193657
Si Si7 0.750000 0.461866 0.500000
O O1 0.555508 0.355730 0.551008
O O2 0.435553 0.335882 0.663874
O O3 0.486162 0.119234 0.948380
O O4 0.418340 0.280758 0.829255
O O5 0.037713 0.982105 0.906690
O O6 0.164873 0.050756 0.003836
O O7 0.345363 0.500000 0.750000
O O8 0.286683 0.260846 0.729798
O O9 0.139026 0.145305 0.711688
O O10 0.000000 0.250000 0.673596
O O11 0.004699 0.000000 0.750000
O O12 0.228509 0.000000 0.250000
O O13 0.250070 0.873651 0.089202
#
# Coordination Sequence:
#
# PCOD8165173 Si02
#       7
#     4   4   8   8   8   8   4
#     4  11  20  36  57  88 122 160 199 236 302 389
#     4  11  24  36  61  96 128 160 195 262 314 379
#     4  11  21  39  62  88 122 162 210 249 305 373
#     4  11  22  35  58  93 129 156 191 252 321 372
#     4  10  23  40  62  86 113 163 213 258 306 359
#     4  10  21  38  61  87 118 161 210 250 304 378
#     4  10  20  36  64  86 118 168 208 246 290 382
#
# _framework density 18.507235999999999
#
# number of rings (size 3 to 8) (size 9 to 14) (size 15 to 20)
#    0.000    1.455    4.545    1.091    1.273    0.727 
#    0.000    0.000    4.000    2.182    0.000    0.000 
#    0.000    0.000    0.000    0.000    0.000    0.000 
#
# Total GULP energy -272714.475278 kJ/mol
# GULP energy per Si atom -12396.112513 kJ/mol
# Density = 1.846511 g / cm^3
# Si number density = 18.507236 Si / 1000 Ang^3
#
#
#
# Elastic Constant Matrix: (Units=GPa)
#
#
# Indices 1 2 3 4 5 6 
#
# 1 65.4852 31.2452 36.0077 0.0000 0.0000 0.0000
# 2 31.2452 98.0928 49.8760 0.0000 0.0000 0.0000
# 3 36.0077 49.8760 120.6858 0.0000 0.0000 0.0000
# 4 0.0000 0.0000 0.0000 27.7685 0.0000 0.0000
# 5 0.0000 0.0000 0.0000 0.0000 260.8059 0.0000
# 6 0.0000 0.0000 0.0000 0.0000 0.0000 27.0331
#
#
#
# Elastic Compliance Matrix: (Units=1/GPa)
#
#
# Indices 1 2 3 4 5 6 
#
# 1 0.019499 -0.004118 -0.004116 0.000000 0.000000 0.000000
# 2 -0.004118 0.013776 -0.004465 0.000000 0.000000 0.000000
# 3 -0.004116 -0.004465 0.011359 0.000000 0.000000 0.000000
# 4 0.000000 0.000000 0.000000 0.036012 0.000000 0.000000
# 5 0.000000 0.000000 0.000000 0.000000 0.003834 0.000000
# 6 0.000000 0.000000 0.000000 0.000000 0.000000 0.036992
#
#
# Mechanical properties :
#
#
# Convention : Reuss Voigt Hill
#
# Bulk Modulus (GPa) = 51.98340 57.61352 54.79846
# Shear Modulus (GPa) = 32.61981 74.26383 53.44182
#
# Velocity S-wave (km/s) = 4.20282 6.34145 5.37949
# Velocity P-wave (km/s) = 7.19032 9.20959 8.26188
#
# Compressibility (1/GPa) = 0.01923691
#
# Stress axis : x y z
#
# Youngs Moduli (GPa) = 51.28577 72.58867 88.03574
#
# Poissons Ratio (x) = 0.29893 0.36232
# Poissons Ratio (y) = 0.21120 0.39305
# Poissons Ratio (z) = 0.21107 0.32408
#
# Static dielectric constant tensor:
#      x y z
#    x 3.425640 0.000000 0.000000 
#    y 0.000000 2.646940 0.000000 
#    z 0.000000 0.000000 3.683880 
# 
# 
# High freq. dielectric constant tensor:
#      x y z
#    x 1.717040 0.000000 0.000000 
#    y 0.000000 1.703100 0.000000 
#    z 0.000000 0.000000 1.735880 
# 
# From -- ./inp_files/12708.got.cif
#   From: 2010.03.12/outbox.cif.g09.slc.cpg/sg24_7_cif.got.tgz:12708.got - 2010.04.14 03:06:53.
