data_PCOD8165613
_publ_section_title
;
Structure prediction by ZEFSAII (Michael W. Deem and Ramdas Pophale) SiO2 
 PCOD8165613
Probable space group: I 21 21 21
;
_chemical_formula_sum "Si O2"
_cell_formula_units_Z 32
_cell_length_a 18.110228
_cell_length_b 11.789908
_cell_length_c 7.559573
_cell_angle_alpha 90.000000
_cell_angle_beta 90.000000
_cell_angle_gamma 90.000000
_cell_volume 1614.104318
_symmetry_space_group_name_H-M "I 21 21 21"
_symmetry_group_IT_number 24
_symmetry_cell_setting 'orthorhombic'
loop_
_space_group_symop_operation_xyz
x,y,z
-x,1/2-y,z
x,-y,1/2-z
1/2-x,y,-z
1/2+x,1/2+y,1/2+z
1/2-x,-y,1/2+z
1/2+x,1/2-y,-z
-x,1/2+y,1/2-z
loop_
_atom_site_type_symbol
_atom_site_label
_atom_site_fract_x
_atom_site_fract_y
_atom_site_fract_z
Si Si1 0.250000 0.234163 0.000000
Si Si2 0.078333 0.702709 0.954365
Si Si3 0.984629 0.000000 0.750000
Si Si4 0.702258 0.122074 0.676328
Si Si5 0.375069 0.114230 0.176873
O O1 0.246245 0.308665 0.175953
O O2 0.324862 0.158789 0.015085
O O3 0.068999 0.580125 0.861637
O O4 0.120110 0.789421 0.826152
O O5 0.000000 0.750000 0.017058
O O6 0.126464 0.686523 0.130231
O O7 0.039968 0.922555 0.625203
O O8 0.750000 0.110612 0.500000
O O9 0.681507 0.000000 0.750000
O O10 0.334969 0.000000 0.250000
#
# Coordination Sequence:
#
# PCOD8165613 Si02
#       5
#     4   8   4   8   8
#     4  12  24  42  68  96 134 174 214 270 338 388
#     4  10  21  44  64  94 135 168 220 272 321 390
#     4   8  20  40  70  90 132 176 210 274 330 372
#     4  12  26  43  69  98 131 171 223 277 329 389
#     4   9  21  40  65  98 126 177 210 264 327 386
#
# _framework density 19.825237000000001
#
# number of rings (size 3 to 8) (size 9 to 14) (size 15 to 20)
#    0.750    1.000    3.750    0.000    5.250    2.000 
#    4.500    0.000    0.000    0.000    0.000    0.000 
#    0.000    0.000    0.000    0.000    0.000    0.000 
#
# Total GULP energy -198268.135458 kJ/mol
# GULP energy per Si atom -12391.758466 kJ/mol
# Density = 1.978011 g / cm^3
# Si number density = 19.825237 Si / 1000 Ang^3
#
#
#
# Elastic Constant Matrix: (Units=GPa)
#
#
# Indices 1 2 3 4 5 6 
#
# 1 89.0879 36.6632 42.6772 0.0000 0.0000 0.0000
# 2 36.6632 124.8756 49.0126 0.0000 0.0000 0.0000
# 3 42.6772 49.0126 90.1386 0.0000 0.0000 0.0000
# 4 0.0000 0.0000 0.0000 24.0114 0.0000 0.0000
# 5 0.0000 0.0000 0.0000 0.0000 33.6946 0.0000
# 6 0.0000 0.0000 0.0000 0.0000 0.0000 16.1904
#
#
#
# Elastic Compliance Matrix: (Units=1/GPa)
#
#
# Indices 1 2 3 4 5 6 
#
# 1 0.014917 -0.002044 -0.005951 0.000000 0.000000 0.000000
# 2 -0.002044 0.010461 -0.004720 0.000000 0.000000 0.000000
# 3 -0.005951 -0.004720 0.016478 0.000000 0.000000 0.000000
# 4 0.000000 0.000000 0.000000 0.041647 0.000000 0.000000
# 5 0.000000 0.000000 0.000000 0.000000 0.029678 0.000000
# 6 0.000000 0.000000 0.000000 0.000000 0.000000 0.061765
#
#
# Mechanical properties :
#
#
# Convention : Reuss Voigt Hill
#
# Bulk Modulus (GPa) = 60.88190 62.31200 61.59695
# Shear Modulus (GPa) = 24.28929 26.49589 25.39259
#
# Velocity S-wave (km/s) = 3.50404 3.65975 3.58274
# Velocity P-wave (km/s) = 6.86637 7.02547 6.94637
#
# Compressibility (1/GPa) = 0.01642524
#
# Stress axis : x y z
#
# Youngs Moduli (GPa) = 67.03804 95.59589 60.68544
#
# Poissons Ratio (x) = 0.19537 0.36116
# Poissons Ratio (y) = 0.13701 0.28646
# Poissons Ratio (z) = 0.39896 0.45125
#
# Static dielectric constant tensor:
#      x y z
#    x 3.682690 0.000000 0.000000 
#    y 0.000000 3.860630 0.000000 
#    z 0.000000 0.000000 3.226590 
# 
# 
# High freq. dielectric constant tensor:
#      x y z
#    x 1.781400 0.000000 0.000000 
#    y 0.000000 1.792610 0.000000 
#    z 0.000000 0.000000 1.729890 
# 
# From -- ./inp_files/13800.got.cif
#   From: 2010.03.12/outbox.cif.g09.slc.cpg/sg24_7_cif.got.tgz:13800.got - 2010.04.14 03:06:53.
