data_PCOD8165571
_publ_section_title
;
Structure prediction by ZEFSAII (Michael W. Deem and Ramdas Pophale) SiO2 
 PCOD8165571
Probable space group: I 21 21 21
;
_chemical_formula_sum "Si O2"
_cell_formula_units_Z 36
_cell_length_a 14.413542
_cell_length_b 8.901271
_cell_length_c 11.873561
_cell_angle_alpha 90.000000
_cell_angle_beta 90.000000
_cell_angle_gamma 90.000000
_cell_volume 1523.364143
_symmetry_space_group_name_H-M "I 21 21 21"
_symmetry_group_IT_number 24
_symmetry_cell_setting 'orthorhombic'
loop_
_space_group_symop_operation_xyz
x,y,z
-x,1/2-y,z
x,-y,1/2-z
1/2-x,y,-z
1/2+x,1/2+y,1/2+z
1/2-x,-y,1/2+z
1/2+x,1/2-y,-z
-x,1/2+y,1/2-z
loop_
_atom_site_type_symbol
_atom_site_label
_atom_site_fract_x
_atom_site_fract_y
_atom_site_fract_z
Si Si1 0.250000 0.327078 0.500000
Si Si2 0.193931 0.826993 0.774446
Si Si3 0.144790 0.663795 0.296730
Si Si4 0.000000 0.750000 0.122721
Si Si5 0.565345 0.023019 0.998907
Si Si6 0.500000 0.750000 0.317639
O O1 0.241156 0.218117 0.607217
O O2 0.162037 0.435763 0.510769
O O3 0.256511 0.743776 0.679178
O O4 0.086788 0.778594 0.764172
O O5 0.203830 0.000000 0.750000
O O6 0.167957 0.500000 0.250000
O O7 0.090587 0.754587 0.200298
O O8 0.082554 0.656562 0.408968
O O9 0.991645 0.599960 0.046238
O O10 0.523032 0.100543 0.109716
#
# Coordination Sequence:
#
# PCOD8165571 Si02
#       6
#     4   8   8   4   8   4
#     4  12  26  52  80 102 162 218 248 314 426 462
#     4  12  30  48  78 112 151 203 264 328 388 481
#     4  10  21  46  73 109 145 205 258 315 380 470
#     4  10  21  41  76 106 156 200 262 310 388 454
#     4  11  25  45  78 111 154 208 249 321 391 475
#     4  12  31  47  76 118 160 192 268 328 392 472
#
# _framework density 23.631907000000002
#
# number of rings (size 3 to 8) (size 9 to 14) (size 15 to 20)
#    0.000    0.889    4.444    2.000    6.222    6.222 
#    0.000    0.000    0.000    0.000    0.000    0.000 
#    0.000    0.000    0.000    0.000    0.000    0.000 
#
# Total GULP energy -223121.462191 kJ/mol
# GULP energy per Si atom -12395.636788 kJ/mol
# Density = 2.357812 g / cm^3
# Si number density = 23.631907 Si / 1000 Ang^3
#
#
#
# Elastic Constant Matrix: (Units=GPa)
#
#
# Indices 1 2 3 4 5 6 
#
# 1 148.1826 67.8823 32.2220 0.0000 0.0000 0.0000
# 2 67.8823 109.4817 40.8443 0.0000 0.0000 0.0000
# 3 32.2220 40.8443 88.7796 0.0000 0.0000 0.0000
# 4 0.0000 0.0000 0.0000 18.6007 0.0000 0.0000
# 5 0.0000 0.0000 0.0000 0.0000 24.0725 0.0000
# 6 0.0000 0.0000 0.0000 0.0000 0.0000 46.2305
#
#
#
# Elastic Compliance Matrix: (Units=1/GPa)
#
#
# Indices 1 2 3 4 5 6 
#
# 1 0.009483 -0.005548 -0.000889 0.000000 0.000000 0.000000
# 2 -0.005548 0.014272 -0.004553 0.000000 0.000000 0.000000
# 3 -0.000889 -0.004553 0.013681 0.000000 0.000000 0.000000
# 4 0.000000 0.000000 0.000000 0.053761 0.000000 0.000000
# 5 0.000000 0.000000 0.000000 0.000000 0.041541 0.000000
# 6 0.000000 0.000000 0.000000 0.000000 0.000000 0.021631
#
#
# Mechanical properties :
#
#
# Convention : Reuss Voigt Hill
#
# Bulk Modulus (GPa) = 64.69716 69.81569 67.25643
# Shear Modulus (GPa) = 27.54775 31.48043 29.51409
#
# Velocity S-wave (km/s) = 3.41794 3.65378 3.53782
# Velocity P-wave (km/s) = 6.55842 6.88529 6.72384
#
# Compressibility (1/GPa) = 0.01545663
#
# Stress axis : x y z
#
# Youngs Moduli (GPa) = 105.44648 70.06495 73.09346
#
# Poissons Ratio (x) = 0.38874 0.06501
# Poissons Ratio (y) = 0.58505 0.33276
# Poissons Ratio (z) = 0.09379 0.31897
#
# Static dielectric constant tensor:
#      x y z
#    x 4.599660 0.000000 0.000000 
#    y 0.000000 4.829600 0.000000 
#    z 0.000000 0.000000 4.657770 
# 
# 
# High freq. dielectric constant tensor:
#      x y z
#    x 1.951130 0.000000 0.000000 
#    y 0.000000 1.937740 0.000000 
#    z 0.000000 0.000000 1.930030 
# 
# From -- ./inp_files/26273.got.cif
#   From: 2010.03.12/outbox.cif.g09.slc.cpg/sg24_14_cif.got.tgz:26273.got - 2010.04.14 03:06:53.
