data_PCOD8165995
_publ_section_title
;
Structure prediction by ZEFSAII (Michael W. Deem and Ramdas Pophale) SiO2 
 PCOD8165995
Probable space group: I 21 21 21
;
_chemical_formula_sum "Si O2"
_cell_formula_units_Z 44
_cell_length_a 13.434102
_cell_length_b 11.539631
_cell_length_c 17.066181
_cell_angle_alpha 90.000000
_cell_angle_beta 90.000000
_cell_angle_gamma 90.000000
_cell_volume 2645.677540
_symmetry_space_group_name_H-M "I 21 21 21"
_symmetry_group_IT_number 24
_symmetry_cell_setting 'orthorhombic'
loop_
_space_group_symop_operation_xyz
x,y,z
-x,1/2-y,z
x,-y,1/2-z
1/2-x,y,-z
1/2+x,1/2+y,1/2+z
1/2-x,-y,1/2+z
1/2+x,1/2-y,-z
-x,1/2+y,1/2-z
loop_
_atom_site_type_symbol
_atom_site_label
_atom_site_fract_x
_atom_site_fract_y
_atom_site_fract_z
Si Si1 0.750000 0.105112 0.000000
Si Si2 0.734186 0.381369 0.798254
Si Si3 0.110819 0.786951 0.586904
Si Si4 0.563893 0.369197 0.927781
Si Si5 0.613145 0.005990 0.874884
Si Si6 0.892450 0.808380 0.238665
O O1 0.672868 0.180005 0.051070
O O2 0.803657 0.020066 0.059841
O O3 0.744771 0.500000 0.750000
O O4 0.839068 0.345308 0.836942
O O5 0.653837 0.379757 0.867601
O O6 0.695643 0.286101 0.736475
O O7 0.105257 0.879255 0.515929
O O8 0.000000 0.750000 0.613178
O O9 0.500000 0.250000 0.917339
O O10 0.494732 0.479457 0.913844
O O11 0.627345 0.102778 0.808677
O O12 0.616272 0.876011 0.842809
O O13 0.000000 0.750000 0.249173
#
# Coordination Sequence:
#
# PCOD8165995 Si02
#       6
#     4   8   8   8   8   8
#     4  12  18  36  58  80 108 136 190 228 264 320
#     4  12  21  34  55  84 116 149 177 220 279 329
#     4  11  20  34  57  82 109 135 189 234 262 317
#     4  11  16  31  56  88 108 131 181 235 276 305
#     4  11  20  31  60  87 109 139 179 230 282 315
#     4  11  20  34  53  90 118 136 173 231 285 323
#
# _framework density 16.630901000000001
#
# number of rings (size 3 to 8) (size 9 to 14) (size 15 to 20)
#    0.000    0.727   10.909    1.091    0.000    0.000 
#    0.000    1.818    8.000    0.000    0.000    0.000 
#    0.000    0.000    0.000    0.000    0.000    0.000 
#
# Total GULP energy -272693.657072 kJ/mol
# GULP energy per Si atom -12395.166231 kJ/mol
# Density = 1.659305 g / cm^3
# Si number density = 16.630901 Si / 1000 Ang^3
#
#
#
# Elastic Constant Matrix: (Units=GPa)
#
#
# Indices 1 2 3 4 5 6 
#
# 1 114.5500 44.2865 49.5371 0.0000 0.0000 0.0000
# 2 44.2865 92.3269 57.2609 0.0000 0.0000 0.0000
# 3 49.5371 57.2609 84.6806 0.0000 0.0000 0.0000
# 4 0.0000 0.0000 0.0000 17.7381 0.0000 0.0000
# 5 0.0000 0.0000 0.0000 0.0000 32.5396 0.0000
# 6 0.0000 0.0000 0.0000 0.0000 0.0000 12.3363
#
#
#
# Elastic Compliance Matrix: (Units=1/GPa)
#
#
# Indices 1 2 3 4 5 6 
#
# 1 0.011990 -0.002413 -0.005382 0.000000 0.000000 0.000000
# 2 -0.002413 0.019140 -0.011531 0.000000 0.000000 0.000000
# 3 -0.005382 -0.011531 0.022755 0.000000 0.000000 0.000000
# 4 0.000000 0.000000 0.000000 0.056376 0.000000 0.000000
# 5 0.000000 0.000000 0.000000 0.000000 0.030732 0.000000
# 6 0.000000 0.000000 0.000000 0.000000 0.000000 0.081062
#
#
# Mechanical properties :
#
#
# Convention : Reuss Voigt Hill
#
# Bulk Modulus (GPa) = 65.64948 65.96962 65.80955
# Shear Modulus (GPa) = 18.81224 21.88768 20.34996
#
# Velocity S-wave (km/s) = 3.36692 3.63172 3.50183
# Velocity P-wave (km/s) = 7.39425 7.57225 7.48378
#
# Compressibility (1/GPa) = 0.01523241
#
# Stress axis : x y z
#
# Youngs Moduli (GPa) = 83.39981 52.24668 43.94691
#
# Poissons Ratio (x) = 0.12609 0.23654
# Poissons Ratio (y) = 0.20127 0.50674
# Poissons Ratio (z) = 0.44889 0.60244
#
# Static dielectric constant tensor:
#      x y z
#    x 3.388600 0.000000 0.000000 
#    y 0.000000 3.049940 0.000000 
#    z 0.000000 0.000000 3.433910 
# 
# 
# High freq. dielectric constant tensor:
#      x y z
#    x 1.645110 0.000000 0.000000 
#    y 0.000000 1.612470 0.000000 
#    z 0.000000 0.000000 1.633930 
# 
# From -- ./inp_files/21467.got.cif
#   From: 2010.03.12/outbox.cif.g09.slc.cpg/sg24_11_cif.got.tgz:21467.got - 2010.04.14 03:06:53.
