data_PCOD8165011
_publ_section_title
;
Structure prediction by ZEFSAII (Michael W. Deem and Ramdas Pophale) SiO2 
 PCOD8165011
Probable space group: I 21 21 21
;
_chemical_formula_sum "Si O2"
_cell_formula_units_Z 44
_cell_length_a 6.378953
_cell_length_b 25.436823
_cell_length_c 12.917258
_cell_angle_alpha 90.000000
_cell_angle_beta 90.000000
_cell_angle_gamma 90.000000
_cell_volume 2095.958137
_symmetry_space_group_name_H-M "I 21 21 21"
_symmetry_group_IT_number 24
_symmetry_cell_setting 'orthorhombic'
loop_
_space_group_symop_operation_xyz
x,y,z
-x,1/2-y,z
x,-y,1/2-z
1/2-x,y,-z
1/2+x,1/2+y,1/2+z
1/2-x,-y,1/2+z
1/2+x,1/2-y,-z
-x,1/2+y,1/2-z
loop_
_atom_site_type_symbol
_atom_site_label
_atom_site_fract_x
_atom_site_fract_y
_atom_site_fract_z
Si Si1 0.028300 0.543177 0.168589
Si Si2 0.250000 0.479629 0.000000
Si Si3 0.331852 0.400376 0.177129
Si Si4 0.790099 0.370799 0.696597
Si Si5 0.611955 0.197375 0.407409
Si Si6 0.080849 0.304404 0.218559
O O1 0.951984 0.500000 0.250000
O O2 0.222278 0.575169 0.219920
O O3 0.829181 0.579790 0.147635
O O4 0.085585 0.517004 0.058725
O O5 0.144794 0.441891 0.915059
O O6 0.570372 0.386376 0.203791
O O7 0.194189 0.348128 0.144403
O O8 0.627267 0.327283 0.731803
O O9 0.939922 0.347395 0.609258
O O10 0.500000 0.250000 0.445742
O O11 0.750000 0.174506 0.500000
O O12 0.749238 0.209710 0.306252
O O13 0.000000 0.250000 0.162979
#
# Coordination Sequence:
#
# PCOD8165011 Si02
#       6
#     8   4   8   8   8   8
#     4   9  20  41  64  91 121 162 213 261 309 379
#     4  10  20  44  70  88 130 166 208 272 322 368
#     4   9  21  39  64  92 126 160 212 262 315 384
#     4  10  21  40  60  87 124 163 207 252 312 376
#     4  11  22  35  56  88 125 163 206 255 311 380
#     4  10  19  38  61  85 121 165 205 254 320 380
#
# _framework density 20.992787
#
# number of rings (size 3 to 8) (size 9 to 14) (size 15 to 20)
#    0.000    2.182    1.818    0.545    0.000    2.182 
#   18.000   13.636    8.000    0.000    0.000    0.000 
#    0.000    0.000    0.000    0.000    0.000    0.000 
#
# Total GULP energy -272696.976861 kJ/mol
# GULP energy per Si atom -12395.317130 kJ/mol
# Density = 2.094501 g / cm^3
# Si number density = 20.992787 Si / 1000 Ang^3
#
#
#
# Elastic Constant Matrix: (Units=GPa)
#
#
# Indices 1 2 3 4 5 6 
#
# 1 123.1014 67.6357 41.0045 0.0000 -0.0001 -0.0001
# 2 67.6357 157.0935 46.0844 0.0001 -0.0001 0.0000
# 3 41.0045 46.0844 78.0335 0.0005 -0.0003 -0.0001
# 4 0.0000 0.0001 0.0005 28.9310 -0.0001 0.0000
# 5 -0.0001 -0.0001 -0.0003 -0.0001 15.2402 0.0000
# 6 -0.0001 0.0000 -0.0001 0.0000 0.0000 33.0034
#
#
#
# Elastic Compliance Matrix: (Units=1/GPa)
#
#
# Indices 1 2 3 4 5 6 
#
# 1 0.011489 -0.003841 -0.003769 0.000000 0.000000 0.000000
# 2 -0.003841 0.008984 -0.003287 0.000000 0.000000 0.000000
# 3 -0.003769 -0.003287 0.016737 0.000000 0.000000 0.000000
# 4 0.000000 0.000000 0.000000 0.034565 0.000000 0.000000
# 5 0.000000 0.000000 0.000000 0.000000 0.065616 0.000000
# 6 0.000000 0.000000 0.000000 0.000000 0.000000 0.030300
#
#
# Mechanical properties :
#
#
# Convention : Reuss Voigt Hill
#
# Bulk Modulus (GPa) = 64.86959 74.18637 69.52798
# Shear Modulus (GPa) = 25.69074 29.00186 27.34630
#
# Velocity S-wave (km/s) = 3.50206 3.72091 3.61314
# Velocity P-wave (km/s) = 6.87900 7.34002 7.11324
#
# Compressibility (1/GPa) = 0.01541554
#
# Stress axis : x y z
#
# Youngs Moduli (GPa) = 87.03894 111.31337 59.74880
#
# Poissons Ratio (x) = 0.42755 0.22518
# Poissons Ratio (y) = 0.33431 0.19640
# Poissons Ratio (z) = 0.32804 0.36591
#
# Static dielectric constant tensor:
#      x y z
#    x 3.919090 0.000000 0.000000 
#    y 0.000000 4.261000 0.000000 
#    z 0.000000 0.000000 3.351350 
# 
# 
# High freq. dielectric constant tensor:
#      x y z
#    x 1.830120 0.000000 0.000000 
#    y 0.000000 1.847500 0.000000 
#    z 0.000000 0.000000 1.775120 
# 
# From -- ./inp_files/23830.got.cif
#   From: 2010.03.12/outbox.cif.g09.slc.cpg/sg24_12_cif.got.tgz:23830.got - 2010.04.14 03:06:53.
