data_PCOD8165882
_publ_section_title
;
Structure prediction by ZEFSAII (Michael W. Deem and Ramdas Pophale) SiO2 
 PCOD8165882
Probable space group: I 21 21 21
;
_chemical_formula_sum "Si O2"
_cell_formula_units_Z 28
_cell_length_a 8.483400
_cell_length_b 8.250861
_cell_length_c 17.680508
_cell_angle_alpha 90.000000
_cell_angle_beta 90.000000
_cell_angle_gamma 90.000000
_cell_volume 1237.553420
_symmetry_space_group_name_H-M "I 21 21 21"
_symmetry_group_IT_number 24
_symmetry_cell_setting 'orthorhombic'
loop_
_space_group_symop_operation_xyz
x,y,z
-x,1/2-y,z
x,-y,1/2-z
1/2-x,y,-z
1/2+x,1/2+y,1/2+z
1/2-x,-y,1/2+z
1/2+x,1/2-y,-z
-x,1/2+y,1/2-z
loop_
_atom_site_type_symbol
_atom_site_label
_atom_site_fract_x
_atom_site_fract_y
_atom_site_fract_z
Si Si1 0.548690 0.578710 0.876326
Si Si2 0.717531 0.500000 0.250000
Si Si3 0.000000 0.250000 0.817097
Si Si4 0.250000 0.777028 0.000000
Si Si5 0.226110 0.535946 0.581071
O O1 0.500000 0.750000 0.839235
O O2 0.680917 0.497829 0.825847
O O3 0.616306 0.609928 0.961693
O O4 0.397373 0.460894 0.878250
O O5 0.612827 0.340840 0.241248
O O6 0.906021 0.122337 0.869072
O O7 0.179015 0.654201 0.935296
O O8 0.250000 0.627099 0.500000
#
# Coordination Sequence:
#
# PCOD8165882 Si02
#       5
#     8   4   4   4   8
#     4  10  23  45  76 100 137 191 233 284 355 433
#     4  12  32  42  74  96 156 190 226 294 350 448
#     4  12  30  46  64 110 144 188 234 296 358 418
#     4   8  20  44  78 102 130 182 240 290 344 416
#     4   9  23  44  73 102 135 177 238 301 341 416
#
# _framework density 22.625285999999999
#
# number of rings (size 3 to 8) (size 9 to 14) (size 15 to 20)
#    0.857    1.143    0.000    0.000   16.000    2.286 
#    0.000    0.000    0.000    0.000    0.000    0.000 
#    0.000    0.000    0.000    0.000    0.000    0.000 
#
# Total GULP energy -173466.169021 kJ/mol
# GULP energy per Si atom -12390.440644 kJ/mol
# Density = 2.257379 g / cm^3
# Si number density = 22.625286 Si / 1000 Ang^3
#
#
#
# Elastic Constant Matrix: (Units=GPa)
#
#
# Indices 1 2 3 4 5 6 
#
# 1 153.4384 53.2509 64.5093 0.0000 0.0000 0.0000
# 2 53.2509 58.3985 24.1290 0.0000 0.0000 0.0000
# 3 64.5093 24.1290 92.0143 0.0000 0.0000 0.0000
# 4 0.0000 0.0000 0.0000 31.8388 0.0000 0.0000
# 5 0.0000 0.0000 0.0000 0.0000 37.2149 0.0000
# 6 0.0000 0.0000 0.0000 0.0000 0.0000 45.8436
#
#
#
# Elastic Compliance Matrix: (Units=1/GPa)
#
#
# Indices 1 2 3 4 5 6 
#
# 1 0.012069 -0.008421 -0.006253 0.000000 0.000000 0.000000
# 2 -0.008421 0.025081 -0.000673 0.000000 0.000000 0.000000
# 3 -0.006253 -0.000673 0.015428 0.000000 0.000000 0.000000
# 4 0.000000 0.000000 0.000000 0.031408 0.000000 0.000000
# 5 0.000000 0.000000 0.000000 0.000000 0.026871 0.000000
# 6 0.000000 0.000000 0.000000 0.000000 0.000000 0.021813
#
#
# Mechanical properties :
#
#
# Convention : Reuss Voigt Hill
#
# Bulk Modulus (GPa) = 45.69668 65.29217 55.49442
# Shear Modulus (GPa) = 29.29822 33.77693 31.53758
#
# Velocity S-wave (km/s) = 3.60242 3.86798 3.73756
# Velocity P-wave (km/s) = 6.12734 6.99064 6.57318
#
# Compressibility (1/GPa) = 0.02188343
#
# Stress axis : x y z
#
# Youngs Moduli (GPa) = 82.85858 39.87103 64.81708
#
# Poissons Ratio (x) = 0.33577 0.40529
# Poissons Ratio (y) = 0.69779 0.04362
# Poissons Ratio (z) = 0.51810 0.02683
#
# Static dielectric constant tensor:
#      x y z
#    x 4.174400 0.000000 0.000000 
#    y 0.000000 3.775100 0.000000 
#    z 0.000000 0.000000 3.863280 
# 
# 
# High freq. dielectric constant tensor:
#      x y z
#    x 1.903320 0.000000 0.000000 
#    y 0.000000 1.867630 0.000000 
#    z 0.000000 0.000000 1.878920 
# 
# From -- ./inp_files/8734.got.cif
#   From: 2010.03.12/outbox.cif.g09.slc.cpg/sg24_5_cif.got.tgz:8734.got - 2010.04.14 03:06:53.
