data_PCOD8165797
_publ_section_title
;
Structure prediction by ZEFSAII (Michael W. Deem and Ramdas Pophale) SiO2 
 PCOD8165797
Probable space group: I 21 21 21
;
_chemical_formula_sum "Si O2"
_cell_formula_units_Z 40
_cell_length_a 4.963659
_cell_length_b 28.289541
_cell_length_c 12.181245
_cell_angle_alpha 90.000000
_cell_angle_beta 90.000000
_cell_angle_gamma 90.000000
_cell_volume 1710.485974
_symmetry_space_group_name_H-M "I 21 21 21"
_symmetry_group_IT_number 24
_symmetry_cell_setting 'orthorhombic'
loop_
_space_group_symop_operation_xyz
x,y,z
-x,1/2-y,z
x,-y,1/2-z
1/2-x,y,-z
1/2+x,1/2+y,1/2+z
1/2-x,-y,1/2+z
1/2+x,1/2-y,-z
-x,1/2+y,1/2-z
loop_
_atom_site_type_symbol
_atom_site_label
_atom_site_fract_x
_atom_site_fract_y
_atom_site_fract_z
Si Si1 0.250000 0.718930 0.000000
Si Si2 0.937817 0.552010 0.211219
Si Si3 0.817227 0.796913 0.759181
Si Si4 0.428646 0.399089 0.213715
Si Si5 0.000000 0.750000 0.420491
Si Si6 0.750000 0.487399 0.500000
Si Si7 0.250000 0.555720 0.500000
O O1 0.500000 0.750000 0.032473
O O2 0.306753 0.692760 0.882732
O O3 0.025505 0.500000 0.250000
O O4 0.718846 0.575655 0.292798
O O5 0.214184 0.581700 0.195138
O O6 0.768774 0.549031 0.099930
O O7 0.986875 0.843538 0.729409
O O8 0.586710 0.791931 0.664606
O O9 0.000000 0.750000 0.752921
O O10 0.262141 0.409791 0.103412
O O11 0.250000 0.765214 0.500000
O O12 0.497333 0.520933 0.501163
#
# Coordination Sequence:
#
# PCOD8165797 Si02
#       7
#     4   8   8   8   4   4   4
#     4  10  22  44  74  98 138 190 244 298 368 424
#     4  12  24  46  66 102 137 180 232 297 351 429
#     4  11  27  49  75 109 149 199 246 313 369 434
#     4  12  27  42  73 106 142 186 243 288 365 437
#     4  12  26  46  72 106 152 198 244 304 370 434
#     4  12  24  42  75  93 144 183 228 295 368 412
#     4  12  22  42  67 105 132 193 230 281 360 446
#
# _framework density 23.385165000000001
#
# number of rings (size 3 to 8) (size 9 to 14) (size 15 to 20)
#    0.000    0.400    6.000    1.800    4.200    1.600 
#    1.800    1.000    0.000    0.000    0.000    0.000 
#    0.000    0.000    0.000    0.000    0.000    0.000 
#
# Total GULP energy -247779.632999 kJ/mol
# GULP energy per Si atom -12388.981650 kJ/mol
# Density = 2.333194 g / cm^3
# Si number density = 23.385165 Si / 1000 Ang^3
#
#
#
# Elastic Constant Matrix: (Units=GPa)
#
#
# Indices 1 2 3 4 5 6 
#
# 1 128.8629 39.9817 12.7528 0.0000 0.0000 0.0000
# 2 39.9817 133.7619 12.5372 0.0000 0.0000 0.0000
# 3 12.7528 12.5372 131.6487 0.0000 0.0000 0.0000
# 4 0.0000 0.0000 0.0000 20.7762 0.0000 0.0000
# 5 0.0000 0.0000 0.0000 0.0000 39.1943 0.0000
# 6 0.0000 0.0000 0.0000 0.0000 0.0000 28.7604
#
#
#
# Elastic Compliance Matrix: (Units=1/GPa)
#
#
# Indices 1 2 3 4 5 6 
#
# 1 0.008599 -0.002515 -0.000594 0.000000 0.000000 0.000000
# 2 -0.002515 0.008279 -0.000545 0.000000 0.000000 0.000000
# 3 -0.000594 -0.000545 0.007705 0.000000 0.000000 0.000000
# 4 0.000000 0.000000 0.000000 0.048132 0.000000 0.000000
# 5 0.000000 0.000000 0.000000 0.000000 0.025514 0.000000
# 6 0.000000 0.000000 0.000000 0.000000 0.000000 0.034770
#
#
# Mechanical properties :
#
#
# Convention : Reuss Voigt Hill
#
# Bulk Modulus (GPa) = 57.87981 58.31298 58.09639
# Shear Modulus (GPa) = 34.23152 39.67963 36.95558
#
# Velocity S-wave (km/s) = 3.83013 4.12368 3.97961
# Velocity P-wave (km/s) = 6.66065 6.90384 6.78333
#
# Compressibility (1/GPa) = 0.01727718
#
# Stress axis : x y z
#
# Youngs Moduli (GPa) = 116.29071 120.79228 129.77993
#
# Poissons Ratio (x) = 0.30375 0.07703
# Poissons Ratio (y) = 0.29243 0.07070
# Poissons Ratio (z) = 0.06902 0.06581
#
# Static dielectric constant tensor:
#      x y z
#    x 4.397190 0.000000 0.000000 
#    y 0.000000 3.851020 0.000000 
#    z 0.000000 0.000000 5.077970 
# 
# 
# High freq. dielectric constant tensor:
#      x y z
#    x 1.933320 0.000000 0.000000 
#    y 0.000000 1.896270 0.000000 
#    z 0.000000 0.000000 1.944830 
# 
# From -- ./inp_files/17662.got.cif
#   From: 2010.03.12/outbox.cif.g09.slc.cpg/sg24_9_cif.got.tgz:17662.got - 2010.04.14 03:06:53.
