data_PCOD8165832
_publ_section_title
;
Structure prediction by ZEFSAII (Michael W. Deem and Ramdas Pophale) SiO2 
 PCOD8165832
Probable space group: I 21 21 21
;
_chemical_formula_sum "Si O2"
_cell_formula_units_Z 40
_cell_length_a 8.226769
_cell_length_b 16.127859
_cell_length_c 14.975083
_cell_angle_alpha 90.000000
_cell_angle_beta 90.000000
_cell_angle_gamma 90.000000
_cell_volume 1986.896565
_symmetry_space_group_name_H-M "I 21 21 21"
_symmetry_group_IT_number 24
_symmetry_cell_setting 'orthorhombic'
loop_
_space_group_symop_operation_xyz
x,y,z
-x,1/2-y,z
x,-y,1/2-z
1/2-x,y,-z
1/2+x,1/2+y,1/2+z
1/2-x,-y,1/2+z
1/2+x,1/2-y,-z
-x,1/2+y,1/2-z
loop_
_atom_site_type_symbol
_atom_site_label
_atom_site_fract_x
_atom_site_fract_y
_atom_site_fract_z
Si Si1 0.500000 0.250000 0.065079
Si Si2 0.425161 0.584779 0.533857
Si Si3 0.175612 0.243569 0.763168
Si Si4 0.750000 0.484154 0.500000
Si Si5 0.188784 0.075890 0.310524
Si Si6 0.148367 0.586040 0.262656
O O1 0.345688 0.229982 0.129822
O O2 0.444810 0.324055 0.003885
O O3 0.250000 0.547877 0.500000
O O4 0.582007 0.535190 0.499351
O O5 0.430616 0.591924 0.639884
O O6 0.272191 0.165975 0.727435
O O7 0.256638 0.331197 0.739498
O O8 0.000000 0.250000 0.715833
O O9 0.744681 0.428576 0.411045
O O10 0.993547 0.072743 0.310472
O O11 0.260570 0.000000 0.250000
O O12 0.254576 0.500000 0.250000
#
# Coordination Sequence:
#
# PCOD8165832 Si02
#       6
#     4   8   8   4   8   8
#     4  10  24  36  64 108 134 174 230 294 362 424
#     4  12  24  41  67 108 139 179 233 300 358 432
#     4  10  23  42  64 102 137 180 229 286 352 420
#     4  12  26  44  72 102 138 186 254 274 364 424
#     4  11  23  44  69  98 140 189 227 294 352 424
#     4  11  23  43  68  98 143 187 228 290 370 412
#
# _framework density 20.131900000000002
#
# number of rings (size 3 to 8) (size 9 to 14) (size 15 to 20)
#    0.600    0.400    6.000    1.800    4.200    2.400 
#    0.000    2.000    2.200    0.000    0.000    0.000 
#    0.000    0.000    0.000    0.000    0.000    0.000 
#
# Total GULP energy -247809.001170 kJ/mol
# GULP energy per Si atom -12390.450058 kJ/mol
# Density = 2.008608 g / cm^3
# Si number density = 20.131900 Si / 1000 Ang^3
#
#
#
# Elastic Constant Matrix: (Units=GPa)
#
#
# Indices 1 2 3 4 5 6 
#
# 1 104.5279 57.3930 27.9490 0.0000 0.0000 0.0000
# 2 57.3930 183.1573 58.7175 0.0000 0.0000 0.0000
# 3 27.9490 58.7175 119.6468 0.0000 0.0000 0.0000
# 4 0.0000 0.0000 0.0000 32.1479 0.0000 0.0000
# 5 0.0000 0.0000 0.0000 0.0000 24.6694 0.0000
# 6 0.0000 0.0000 0.0000 0.0000 0.0000 4.8770
#
#
#
# Elastic Compliance Matrix: (Units=1/GPa)
#
#
# Indices 1 2 3 4 5 6 
#
# 1 0.011677 -0.003304 -0.001106 0.000000 0.000000 0.000000
# 2 -0.003304 0.007414 -0.002867 0.000000 0.000000 0.000000
# 3 -0.001106 -0.002867 0.010023 0.000000 0.000000 0.000000
# 4 0.000000 0.000000 0.000000 0.031106 0.000000 0.000000
# 5 0.000000 0.000000 0.000000 0.000000 0.040536 0.000000
# 6 0.000000 0.000000 0.000000 0.000000 0.000000 0.205043
#
#
# Mechanical properties :
#
#
# Convention : Reuss Voigt Hill
#
# Bulk Modulus (GPa) = 68.68110 77.27233 72.97671
# Shear Modulus (GPa) = 15.37479 29.89037 22.63258
#
# Velocity S-wave (km/s) = 2.76652 3.85740 3.35657
# Velocity P-wave (km/s) = 6.66291 7.63582 7.16590
#
# Compressibility (1/GPa) = 0.01456005
#
# Stress axis : x y z
#
# Youngs Moduli (GPa) = 85.63901 134.87512 99.76911
#
# Poissons Ratio (x) = 0.44569 0.11035
# Poissons Ratio (y) = 0.28299 0.28601
# Poissons Ratio (z) = 0.09472 0.38665
#
# Static dielectric constant tensor:
#      x y z
#    x 3.899530 0.000000 0.000000 
#    y 0.000000 3.906790 0.000000 
#    z 0.000000 0.000000 3.822980 
# 
# 
# High freq. dielectric constant tensor:
#      x y z
#    x 1.784480 0.000000 0.000000 
#    y 0.000000 1.792210 0.000000 
#    z 0.000000 0.000000 1.775280 
# 
# From -- ./inp_files/24551.got.cif
#   From: 2010.03.12/outbox.cif.g09.slc.cpg/sg24_13_cif.got.tgz:24551.got - 2010.04.14 03:06:53.
