data_PCOD8165653
_publ_section_title
;
Structure prediction by ZEFSAII (Michael W. Deem and Ramdas Pophale) SiO2 
 PCOD8165653
Probable space group: I 21 21 21
;
_chemical_formula_sum "Si O2"
_cell_formula_units_Z 56
_cell_length_a 15.359326
_cell_length_b 15.359336
_cell_length_c 11.019452
_cell_angle_alpha 90.000000
_cell_angle_beta 90.000000
_cell_angle_gamma 90.000000
_cell_volume 2599.588439
_symmetry_space_group_name_H-M "I 21 21 21"
_symmetry_group_IT_number 24
_symmetry_cell_setting 'orthorhombic'
loop_
_space_group_symop_operation_xyz
x,y,z
-x,1/2-y,z
x,-y,1/2-z
1/2-x,y,-z
1/2+x,1/2+y,1/2+z
1/2-x,-y,1/2+z
1/2+x,1/2-y,-z
-x,1/2+y,1/2-z
loop_
_atom_site_type_symbol
_atom_site_label
_atom_site_fract_x
_atom_site_fract_y
_atom_site_fract_z
Si Si1 0.956922 0.954594 0.630195
Si Si2 0.872280 0.193720 0.751103
Si Si3 0.295407 0.706922 0.880195
Si Si4 0.624227 0.388159 0.620337
Si Si5 0.670540 0.579460 0.625000
Si Si6 0.943721 0.122280 0.498897
Si Si7 0.361841 0.125773 0.129663
O O1 0.904328 0.863437 0.633057
O O2 0.060849 0.943937 0.640650
O O3 0.920846 0.000000 0.750000
O O4 0.933100 0.017363 0.516987
O O5 0.767363 0.183099 0.733013
O O6 0.923585 0.173585 0.625000
O O7 0.892060 0.292004 0.791438
O O8 0.306062 0.810849 0.890649
O O9 0.250000 0.670846 0.000000
O O10 0.386563 0.654328 0.883057
O O11 0.660902 0.480776 0.573766
O O12 0.604289 0.399951 0.764958
O O13 0.542004 0.357940 0.541437
O O14 0.769224 0.589099 0.676234
O O15 0.649950 0.645711 0.514958
#
# Coordination Sequence:
#
# PCOD8165653 Si02
#       7
#     8   8   8   8   8   8   8
#     4  10  22  37  65  91 133 171 229 279 326 395
#     4  10  22  42  67  97 134 179 228 283 336 400
#     4  10  22  37  65  91 133 171 229 279 326 395
#     4  11  21  41  65 100 136 172 219 277 346 411
#     4  10  24  38  67  96 141 172 212 274 348 416
#     4  10  22  42  67  97 134 179 228 283 336 400
#     4  11  21  41  65 100 136 172 219 277 346 411
#
# _framework density 21.541872999999999
#
# number of rings (size 3 to 8) (size 9 to 14) (size 15 to 20)
#    0.000    1.714    2.857    0.857    4.000    8.000 
#    0.000    2.857   44.000    0.000    0.000    0.000 
#    0.000    0.000    0.000    0.000    0.000    0.000 
#
# Total GULP energy -346874.231144 kJ/mol
# GULP energy per Si atom -12388.365398 kJ/mol
# Density = 2.149284 g / cm^3
# Si number density = 21.541873 Si / 1000 Ang^3
#
#
#
# Elastic Constant Matrix: (Units=GPa)
#
#
# Indices 1 2 3 4 5 6 
#
# 1 96.3040 57.0929 30.2353 0.0000 0.0000 0.0000
# 2 57.0929 96.3047 30.2353 0.0000 0.0000 0.0000
# 3 30.2353 30.2353 75.7660 0.0000 0.0000 0.0000
# 4 0.0000 0.0000 0.0000 34.9478 0.0000 0.0000
# 5 0.0000 0.0000 0.0000 0.0000 34.9477 0.0000
# 6 0.0000 0.0000 0.0000 0.0000 0.0000 36.9255
#
#
#
# Elastic Compliance Matrix: (Units=1/GPa)
#
#
# Indices 1 2 3 4 5 6 
#
# 1 0.016619 -0.008883 -0.003087 0.000000 0.000000 0.000000
# 2 -0.008883 0.016619 -0.003087 0.000000 0.000000 0.000000
# 3 -0.003087 -0.003087 0.015662 0.000000 0.000000 0.000000
# 4 0.000000 0.000000 0.000000 0.028614 0.000000 0.000000
# 5 0.000000 0.000000 0.000000 0.000000 0.028614 0.000000
# 6 0.000000 0.000000 0.000000 0.000000 0.000000 0.027082
#
#
# Mechanical properties :
#
#
# Convention : Reuss Voigt Hill
#
# Bulk Modulus (GPa) = 53.23142 55.94462 54.58802
# Shear Modulus (GPa) = 29.48315 31.41828 30.45071
#
# Velocity S-wave (km/s) = 3.70353 3.82314 3.76381
# Velocity P-wave (km/s) = 6.56144 6.74649 6.65461
#
# Compressibility (1/GPa) = 0.01878590
#
# Stress axis : x y z
#
# Youngs Moduli (GPa) = 60.17047 60.17091 63.84697
#
# Poissons Ratio (x) = 0.53452 0.19711
# Poissons Ratio (y) = 0.53452 0.19710
# Poissons Ratio (z) = 0.18576 0.18575
#
# Static dielectric constant tensor:
#      x y z
#    x 4.009900 0.000000 0.000000 
#    y 0.000000 4.009910 0.000000 
#    z 0.000000 0.000000 3.827260 
# 
# 
# High freq. dielectric constant tensor:
#      x y z
#    x 1.841510 0.000000 0.000000 
#    y 0.000000 1.841510 0.000000 
#    z 0.000000 0.000000 1.823150 
# 
# From -- ./inp_files/20832.got.cif
#   From: 2010.03.12/outbox.cif.g09.slc.cpg/sg24_11_cif.got.tgz:20832.got - 2010.04.14 03:06:53.
