data_PCOD8165906
_publ_section_title
;
Structure prediction by ZEFSAII (Michael W. Deem and Ramdas Pophale) SiO2 
 PCOD8165906
Probable space group: I 21 21 21
;
_chemical_formula_sum "Si O2"
_cell_formula_units_Z 28
_cell_length_a 21.452455
_cell_length_b 4.776888
_cell_length_c 11.359942
_cell_angle_alpha 90.000000
_cell_angle_beta 90.000000
_cell_angle_gamma 90.000000
_cell_volume 1164.121131
_symmetry_space_group_name_H-M "I 21 21 21"
_symmetry_group_IT_number 24
_symmetry_cell_setting 'orthorhombic'
loop_
_space_group_symop_operation_xyz
x,y,z
-x,1/2-y,z
x,-y,1/2-z
1/2-x,y,-z
1/2+x,1/2+y,1/2+z
1/2-x,-y,1/2+z
1/2+x,1/2-y,-z
-x,1/2+y,1/2-z
loop_
_atom_site_type_symbol
_atom_site_label
_atom_site_fract_x
_atom_site_fract_y
_atom_site_fract_z
Si Si1 0.250000 0.529607 0.000000
Si Si2 0.846512 0.254393 0.831101
Si Si3 0.927419 0.297487 0.034893
Si Si4 0.137280 0.307795 0.366099
O O1 0.208912 0.329137 0.918551
O O2 0.292167 0.726830 0.914710
O O3 0.819167 0.500000 0.750000
O O4 0.905244 0.389075 0.904239
O O5 0.869485 0.000000 0.750000
O O6 0.000000 0.250000 0.053780
O O7 0.897146 0.503265 0.136119
O O8 0.900629 0.984626 0.038989
O O9 0.134779 0.500000 0.250000
#
# Coordination Sequence:
#
# PCOD8165906 Si02
#       4
#     4   8   8   8
#     4  10  24  42  66 100 140 174 224 282 338 416
#     4  11  24  41  66  98 134 183 231 281 347 412
#     4  11  25  44  65  95 134 176 231 287 335 404
#     4  11  24  42  68  98 133 179 223 277 345 406
#
# _framework density 24.052481
#
# number of rings (size 3 to 8) (size 9 to 14) (size 15 to 20)
#    0.000    1.143    0.000    6.000    0.000   18.286 
#    0.000    0.000    0.000    0.000    0.000    0.000 
#    0.000    0.000    0.000    0.000    0.000    0.000 
#
# Total GULP energy -173452.506809 kJ/mol
# GULP energy per Si atom -12389.464772 kJ/mol
# Density = 2.399774 g / cm^3
# Si number density = 24.052481 Si / 1000 Ang^3
#
#
#
# Elastic Constant Matrix: (Units=GPa)
#
#
# Indices 1 2 3 4 5 6 
#
# 1 161.3804 40.6734 39.6061 0.0000 0.0000 0.0000
# 2 40.6734 111.1431 22.8071 0.0000 0.0000 0.0000
# 3 39.6061 22.8071 107.2129 0.0000 0.0000 0.0000
# 4 0.0000 0.0000 0.0000 34.7372 0.0000 0.0000
# 5 0.0000 0.0000 0.0000 0.0000 15.8841 0.0000
# 6 0.0000 0.0000 0.0000 0.0000 0.0000 26.0078
#
#
#
# Elastic Compliance Matrix: (Units=1/GPa)
#
#
# Indices 1 2 3 4 5 6 
#
# 1 0.007301 -0.002215 -0.002226 0.000000 0.000000 0.000000
# 2 -0.002215 0.010080 -0.001326 0.000000 0.000000 0.000000
# 3 -0.002226 -0.001326 0.010432 0.000000 0.000000 0.000000
# 4 0.000000 0.000000 0.000000 0.028788 0.000000 0.000000
# 5 0.000000 0.000000 0.000000 0.000000 0.062956 0.000000
# 6 0.000000 0.000000 0.000000 0.000000 0.000000 0.038450
#
#
# Mechanical properties :
#
#
# Convention : Reuss Voigt Hill
#
# Bulk Modulus (GPa) = 61.42982 65.10107 63.26545
# Shear Modulus (GPa) = 28.57682 33.76913 31.17297
#
# Velocity S-wave (km/s) = 3.45063 3.75103 3.60396
# Velocity P-wave (km/s) = 6.43981 6.77387 6.60895
#
# Compressibility (1/GPa) = 0.01627874
#
# Stress axis : x y z
#
# Youngs Moduli (GPa) = 136.96547 99.20495 95.86253
#
# Poissons Ratio (x) = 0.21975 0.21338
# Poissons Ratio (y) = 0.30339 0.12712
# Poissons Ratio (z) = 0.30488 0.13155
#
# Static dielectric constant tensor:
#      x y z
#    x 4.461360 0.000000 0.000000 
#    y 0.000000 4.498210 0.000000 
#    z 0.000000 0.000000 4.994410 
# 
# 
# High freq. dielectric constant tensor:
#      x y z
#    x 1.937240 0.000000 0.000000 
#    y 0.000000 1.961140 0.000000 
#    z 0.000000 0.000000 1.967960 
# 
# From -- ./inp_files/1877.got.cif
#   From: 2010.03.12/outbox.cif.g09.slc.cpg/sg24_1_cif.got.tgz:1877.got - 2010.04.14 03:06:53.
