data_PCOD8165491
_publ_section_title
;
Structure prediction by ZEFSAII (Michael W. Deem and Ramdas Pophale) SiO2 
 PCOD8165491
Probable space group: I 21 21 21
;
_chemical_formula_sum "Si O2"
_cell_formula_units_Z 36
_cell_length_a 5.286539
_cell_length_b 23.833517
_cell_length_c 13.982268
_cell_angle_alpha 90.000000
_cell_angle_beta 90.000000
_cell_angle_gamma 90.000000
_cell_volume 1761.721264
_symmetry_space_group_name_H-M "I 21 21 21"
_symmetry_group_IT_number 24
_symmetry_cell_setting 'orthorhombic'
loop_
_space_group_symop_operation_xyz
x,y,z
-x,1/2-y,z
x,-y,1/2-z
1/2-x,y,-z
1/2+x,1/2+y,1/2+z
1/2-x,-y,1/2+z
1/2+x,1/2-y,-z
-x,1/2+y,1/2-z
loop_
_atom_site_type_symbol
_atom_site_label
_atom_site_fract_x
_atom_site_fract_y
_atom_site_fract_z
Si Si1 0.116371 0.194835 0.910482
Si Si2 0.732006 0.377992 0.253318
Si Si3 0.750505 0.281050 0.612865
Si Si4 0.718258 0.059771 0.794629
Si Si5 0.750000 0.103466 0.000000
O O1 0.296251 0.166632 0.831241
O O2 0.000000 0.250000 0.858965
O O3 0.962622 0.144002 0.958609
O O4 0.250000 0.224278 0.000000
O O5 0.743289 0.345427 0.353190
O O6 0.449166 0.400835 0.237747
O O7 0.952087 0.423958 0.254205
O O8 0.500000 0.250000 0.652021
O O9 0.750000 0.282664 0.500000
O O10 0.000000 0.250000 0.652136
O O11 0.675754 0.062502 0.910403
O O12 0.788167 0.000000 0.750000
#
# Coordination Sequence:
#
# PCOD8165491 Si02
#       5
#     8   8   8   8   4
#     4  11  20  33  58  91 126 159 193 230 308 383
#     4  11  23  40  62  91 124 159 205 253 300 367
#     4  10  21  39  62  90 126 162 197 246 304 361
#     4  11  24  43  63  86 119 163 209 260 306 349
#     4  10  22  40  58  86 126 158 198 256 302 356
#
# _framework density 20.434560000000001
#
# number of rings (size 3 to 8) (size 9 to 14) (size 15 to 20)
#    0.000    1.333    3.333    2.667    0.000    2.667 
#    4.000    0.000    0.000    0.000    0.000    0.000 
#    0.000    0.000    0.000    0.000    0.000    0.000 
#
# Total GULP energy -223010.888678 kJ/mol
# GULP energy per Si atom -12389.493815 kJ/mol
# Density = 2.038805 g / cm^3
# Si number density = 20.434560 Si / 1000 Ang^3
#
#
#
# Elastic Constant Matrix: (Units=GPa)
#
#
# Indices 1 2 3 4 5 6 
#
# 1 111.2574 15.8050 23.9526 0.0000 0.0000 0.0000
# 2 15.8050 94.7183 44.9433 0.0000 0.0000 0.0000
# 3 23.9526 44.9433 47.9961 0.0000 0.0000 0.0000
# 4 0.0000 0.0000 0.0000 31.1082 0.0000 0.0000
# 5 0.0000 0.0000 0.0000 0.0000 15.9646 0.0000
# 6 0.0000 0.0000 0.0000 0.0000 0.0000 30.2343
#
#
#
# Elastic Compliance Matrix: (Units=1/GPa)
#
#
# Indices 1 2 3 4 5 6 
#
# 1 0.010155 0.001278 -0.006265 0.000000 0.000000 0.000000
# 2 0.001278 0.019160 -0.018579 0.000000 0.000000 0.000000
# 3 -0.006265 -0.018579 0.041359 0.000000 0.000000 0.000000
# 4 0.000000 0.000000 0.000000 0.032146 0.000000 0.000000
# 5 0.000000 0.000000 0.000000 0.000000 0.062638 0.000000
# 6 0.000000 0.000000 0.000000 0.000000 0.000000 0.033075
#
#
# Mechanical properties :
#
#
# Convention : Reuss Voigt Hill
#
# Bulk Modulus (GPa) = 42.47648 47.04151 44.75899
# Shear Modulus (GPa) = 19.72284 26.74616 23.23450
#
# Velocity S-wave (km/s) = 3.11009 3.62175 3.37563
# Velocity P-wave (km/s) = 5.80763 6.36867 6.09461
#
# Compressibility (1/GPa) = 0.02354244
#
# Stress axis : x y z
#
# Youngs Moduli (GPa) = 98.47017 52.19180 24.17856
#
# Poissons Ratio (x) = -0.06671 0.15147
# Poissons Ratio (y) = -0.12585 0.44922
# Poissons Ratio (z) = 0.61690 0.96968
#
# Static dielectric constant tensor:
#      x y z
#    x 4.062620 0.000000 0.000000 
#    y 0.000000 3.508710 0.000000 
#    z 0.000000 0.000000 3.981120 
# 
# 
# High freq. dielectric constant tensor:
#      x y z
#    x 1.802890 0.000000 0.000000 
#    y 0.000000 1.787030 0.000000 
#    z 0.000000 0.000000 1.804620 
# 
# From -- ./inp_files/3329.got.cif
#   From: 2010.03.12/outbox.cif.g09.slc.cpg/sg24_2_cif.got.tgz:3329.got - 2010.04.14 03:06:53.
