data_PCOD8165307
_publ_section_title
;
Structure prediction by ZEFSAII (Michael W. Deem and Ramdas Pophale) SiO2 
 PCOD8165307
Probable space group: I 21 21 21
;
_chemical_formula_sum "Si O2"
_cell_formula_units_Z 28
_cell_length_a 15.262762
_cell_length_b 5.483666
_cell_length_c 13.942978
_cell_angle_alpha 90.000000
_cell_angle_beta 90.000000
_cell_angle_gamma 90.000000
_cell_volume 1166.969940
_symmetry_space_group_name_H-M "I 21 21 21"
_symmetry_group_IT_number 24
_symmetry_cell_setting 'orthorhombic'
loop_
_space_group_symop_operation_xyz
x,y,z
-x,1/2-y,z
x,-y,1/2-z
1/2-x,y,-z
1/2+x,1/2+y,1/2+z
1/2-x,-y,1/2+z
1/2+x,1/2-y,-z
-x,1/2+y,1/2-z
loop_
_atom_site_type_symbol
_atom_site_label
_atom_site_fract_x
_atom_site_fract_y
_atom_site_fract_z
Si Si1 0.413338 0.874350 0.840374
Si Si2 0.345684 0.568841 0.007292
Si Si3 0.396321 0.750946 0.197638
Si Si4 0.500000 0.250000 0.976025
O O1 0.500000 0.750000 0.795218
O O2 0.357734 0.677920 0.900010
O O3 0.362201 0.000000 0.750000
O O4 0.439860 0.076239 0.915090
O O5 0.426909 0.392267 0.038290
O O6 0.250000 0.441248 0.000000
O O7 0.349034 0.766828 0.092905
O O8 0.500000 0.750000 0.184256
O O9 0.365049 0.500000 0.250000
O O10 0.365782 0.000000 0.250000
#
# Coordination Sequence:
#
# PCOD8165307 Si02
#       4
#     8   8   8   4
#     4  10  20  39  68  98 132 179 230 281 358 435
#     4  11  26  43  66 107 141 185 240 297 361 437
#     4  10  23  44  73 100 139 193 247 297 358 424
#     4  10  22  42  72  92 144 184 230 286 364 426
#
# _framework density 23.993763999999999
#
# number of rings (size 3 to 8) (size 9 to 14) (size 15 to 20)
#    0.000    1.714    1.429    2.571   10.000    2.286 
#    5.143    0.000    0.000    0.000    0.000    0.000 
#    0.000    0.000    0.000    0.000    0.000    0.000 
#
# Total GULP energy -173437.166190 kJ/mol
# GULP energy per Si atom -12388.369014 kJ/mol
# Density = 2.393915 g / cm^3
# Si number density = 23.993764 Si / 1000 Ang^3
#
#
#
# Elastic Constant Matrix: (Units=GPa)
#
#
# Indices 1 2 3 4 5 6 
#
# 1 127.1194 43.6210 51.3391 0.0000 0.0000 0.0000
# 2 43.6210 118.2391 36.3153 0.0000 0.0000 0.0000
# 3 51.3391 36.3153 118.8859 0.0000 0.0000 0.0000
# 4 0.0000 0.0000 0.0000 28.9121 0.0000 0.0000
# 5 0.0000 0.0000 0.0000 0.0000 49.4800 0.0000
# 6 0.0000 0.0000 0.0000 0.0000 0.0000 16.8627
#
#
#
# Elastic Compliance Matrix: (Units=1/GPa)
#
#
# Indices 1 2 3 4 5 6 
#
# 1 0.010239 -0.002670 -0.003606 0.000000 0.000000 0.000000
# 2 -0.002670 0.010029 -0.001911 0.000000 0.000000 0.000000
# 3 -0.003606 -0.001911 0.010552 0.000000 0.000000 0.000000
# 4 0.000000 0.000000 0.000000 0.034588 0.000000 0.000000
# 5 0.000000 0.000000 0.000000 0.000000 0.020210 0.000000
# 6 0.000000 0.000000 0.000000 0.000000 0.000000 0.059303
#
#
# Mechanical properties :
#
#
# Convention : Reuss Voigt Hill
#
# Bulk Modulus (GPa) = 69.21609 69.64392 69.43000
# Shear Modulus (GPa) = 30.10053 34.58222 32.34137
#
# Velocity S-wave (km/s) = 3.54576 3.80056 3.67537
# Velocity P-wave (km/s) = 6.75820 6.95327 6.85643
#
# Compressibility (1/GPa) = 0.01444751
#
# Stress axis : x y z
#
# Youngs Moduli (GPa) = 97.66428 99.70846 94.76634
#
# Poissons Ratio (x) = 0.26621 0.34173
# Poissons Ratio (y) = 0.26075 0.18106
# Poissons Ratio (z) = 0.35218 0.19050
#
# Static dielectric constant tensor:
#      x y z
#    x 3.994530 0.000000 0.000000 
#    y 0.000000 3.427760 0.000000 
#    z 0.000000 0.000000 4.295240 
# 
# 
# High freq. dielectric constant tensor:
#      x y z
#    x 1.917790 0.000000 0.000000 
#    y 0.000000 1.948400 0.000000 
#    z 0.000000 0.000000 1.960840 
# 
# From -- ./inp_files/4251.got.cif
#   From: 2010.03.12/outbox.cif.g09.slc.cpg/sg24_3_cif.got.tgz:4251.got - 2010.04.14 03:06:53.
