data_PCOD8165412
_publ_section_title
;
Structure prediction by ZEFSAII (Michael W. Deem and Ramdas Pophale) SiO2 
 PCOD8165412
Probable space group: I 21 21 21
;
_chemical_formula_sum "Si O2"
_cell_formula_units_Z 40
_cell_length_a 11.428555
_cell_length_b 18.880785
_cell_length_c 9.042446
_cell_angle_alpha 90.000000
_cell_angle_beta 90.000000
_cell_angle_gamma 90.000000
_cell_volume 1951.179810
_symmetry_space_group_name_H-M "I 21 21 21"
_symmetry_group_IT_number 24
_symmetry_cell_setting 'orthorhombic'
loop_
_space_group_symop_operation_xyz
x,y,z
-x,1/2-y,z
x,-y,1/2-z
1/2-x,y,-z
1/2+x,1/2+y,1/2+z
1/2-x,-y,1/2+z
1/2+x,1/2-y,-z
-x,1/2+y,1/2-z
loop_
_atom_site_type_symbol
_atom_site_label
_atom_site_fract_x
_atom_site_fract_y
_atom_site_fract_z
Si Si1 0.712172 0.339697 0.339909
Si Si2 0.695886 0.808034 0.280838
Si Si3 0.436346 0.082404 0.735448
Si Si4 0.476972 0.666730 0.037562
Si Si5 0.434938 0.678383 0.575443
O O1 0.750000 0.309327 0.500000
O O2 0.718203 0.276226 0.223223
O O3 0.798625 0.403397 0.293315
O O4 0.577948 0.365182 0.354519
O O5 0.646650 0.839549 0.125517
O O6 0.597350 0.821863 0.403808
O O7 0.820555 0.839787 0.324898
O O8 0.519398 0.120214 0.611650
O O9 0.473562 0.115392 0.892822
O O10 0.460062 0.000000 0.750000
O O11 0.500000 0.750000 0.002166
O O12 0.500000 0.750000 0.624471
#
# Coordination Sequence:
#
# PCOD8165412 Si02
#       5
#     8   8   8   8   8
#     4   9  18  36  62  90 120 155 206 256 301 362
#     4  10  21  36  61  93 121 152 206 261 308 358
#     4  11  23  39  60  90 128 167 205 245 308 377
#     4   9  19  38  64  92 119 156 210 254 303 365
#     4  11  21  37  60  92 122 158 206 256 312 359
#
# _framework density 20.500416999999999
#
# number of rings (size 3 to 8) (size 9 to 14) (size 15 to 20)
#    0.000    2.000    2.000    2.400    5.600    0.000 
#    0.000   17.000    0.000    0.000    0.000    0.000 
#    0.000    0.000    0.000    0.000    0.000    0.000 
#
# Total GULP energy -247830.818538 kJ/mol
# GULP energy per Si atom -12391.540927 kJ/mol
# Density = 2.045376 g / cm^3
# Si number density = 20.500417 Si / 1000 Ang^3
#
#
#
# Elastic Constant Matrix: (Units=GPa)
#
#
# Indices 1 2 3 4 5 6 
#
# 1 84.3494 28.8540 34.7298 -0.0001 0.0001 0.0000
# 2 28.8540 120.5389 46.4202 0.0002 0.0001 0.0000
# 3 34.7298 46.4202 75.9752 0.0003 0.0006 -0.0001
# 4 -0.0001 0.0002 0.0003 7.4581 0.0000 0.0000
# 5 0.0001 0.0001 0.0006 0.0000 29.0572 0.0000
# 6 0.0000 0.0000 -0.0001 0.0000 0.0000 24.7733
#
#
#
# Elastic Compliance Matrix: (Units=1/GPa)
#
#
# Indices 1 2 3 4 5 6 
#
# 1 0.014740 -0.001221 -0.005992 0.000000 0.000000 0.000000
# 2 -0.001221 0.010950 -0.006132 0.000000 0.000000 0.000000
# 3 -0.005992 -0.006132 0.019648 -0.000001 0.000000 0.000000
# 4 0.000000 0.000000 -0.000001 0.134082 0.000000 0.000000
# 5 0.000000 0.000000 0.000000 0.000000 0.034415 0.000000
# 6 0.000000 0.000000 0.000000 0.000000 0.000000 0.040366
#
#
# Mechanical properties :
#
#
# Convention : Reuss Voigt Hill
#
# Bulk Modulus (GPa) = 53.62568 55.65241 54.63904
# Shear Modulus (GPa) = 17.41510 23.64836 20.53173
#
# Velocity S-wave (km/s) = 2.91778 3.40009 3.16812
# Velocity P-wave (km/s) = 6.12914 6.52840 6.33192
#
# Compressibility (1/GPa) = 0.01864778
#
# Stress axis : x y z
#
# Youngs Moduli (GPa) = 67.84140 91.32538 50.89560
#
# Poissons Ratio (x) = 0.11149 0.30497
# Poissons Ratio (y) = 0.08282 0.31210
# Poissons Ratio (z) = 0.40652 0.56003
#
# Static dielectric constant tensor:
#      x y z
#    x 4.071670 0.000000 0.000000 
#    y 0.000000 3.129020 0.000000 
#    z 0.000000 0.000000 3.717010 
# 
# 
# High freq. dielectric constant tensor:
#      x y z
#    x 1.821120 0.000000 0.000000 
#    y 0.000000 1.738320 0.000000 
#    z 0.000000 0.000000 1.803350 
# 
# From -- ./inp_files/10687.got.cif
#   From: 2010.03.12/outbox.cif.g09.slc.cpg/sg24_6_cif.got.tgz:10687.got - 2010.04.14 03:06:53.
