data_PCOD8165745
_publ_section_title
;
Structure prediction by ZEFSAII (Michael W. Deem and Ramdas Pophale) SiO2 
 PCOD8165745
Probable space group: I 21 21 21
;
_chemical_formula_sum "Si O2"
_cell_formula_units_Z 52
_cell_length_a 18.417031
_cell_length_b 6.683068
_cell_length_c 19.863371
_cell_angle_alpha 90.000000
_cell_angle_beta 90.000000
_cell_angle_gamma 90.000000
_cell_volume 2444.828803
_symmetry_space_group_name_H-M "I 21 21 21"
_symmetry_group_IT_number 24
_symmetry_cell_setting 'orthorhombic'
loop_
_space_group_symop_operation_xyz
x,y,z
-x,1/2-y,z
x,-y,1/2-z
1/2-x,y,-z
1/2+x,1/2+y,1/2+z
1/2-x,-y,1/2+z
1/2+x,1/2-y,-z
-x,1/2+y,1/2-z
loop_
_atom_site_type_symbol
_atom_site_label
_atom_site_fract_x
_atom_site_fract_y
_atom_site_fract_z
Si Si1 0.127561 0.788733 0.010225
Si Si2 0.500000 0.750000 0.087905
Si Si3 0.700057 0.394574 0.812516
Si Si4 0.918846 0.693966 0.158659
Si Si5 0.686885 0.363980 0.081920
Si Si6 0.163520 0.500000 0.250000
Si Si7 0.750000 0.014354 0.000000
Si Si8 0.441543 0.911752 0.319611
O O1 0.188094 0.627273 0.030513
O O2 0.070571 0.699529 0.956848
O O3 0.163422 0.990957 0.979158
O O4 0.084219 0.827535 0.078332
O O5 0.514016 0.562936 0.134620
O O6 0.740285 0.500000 0.750000
O O7 0.616709 0.482242 0.816264
O O8 0.742639 0.456687 0.880363
O O9 0.706302 0.157460 0.797288
O O10 0.877624 0.876603 0.192954
O O11 0.000000 0.750000 0.180694
O O12 0.624430 0.324531 0.136616
O O13 0.710764 0.148332 0.055674
O O14 0.500000 0.750000 0.297329
O O15 0.409874 0.000000 0.250000
#
# Coordination Sequence:
#
# PCOD8165745 Si02
#       8
#     8   4   8   8   8   4   4   8
#     4  11  23  42  65  95 132 177 220 275 338 402
#     4  10  22  42  64  94 134 176 224 274 336 402
#     4  10  22  42  60  92 127 169 220 271 329 390
#     4  11  23  39  65  92 128 172 217 273 338 397
#     4  11  24  41  66  94 133 173 222 279 334 394
#     4  10  24  40  64  92 132 166 226 278 328 408
#     4  12  22  38  64  92 126 170 222 270 330 396
#     4  11  22  41  65  97 133 175 221 276 334 404
#
# _framework density 21.269383000000001
#
# number of rings (size 3 to 8) (size 9 to 14) (size 15 to 20)
#    0.000    1.231    1.538    4.615    3.231    1.231 
#    1.385    0.000    0.000    0.000    0.000    0.000 
#    0.000    0.000    0.000    0.000    0.000    0.000 
#
# Total GULP energy -322153.569834 kJ/mol
# GULP energy per Si atom -12390.521917 kJ/mol
# Density = 2.122097 g / cm^3
# Si number density = 21.269383 Si / 1000 Ang^3
#
#
#
# Elastic Constant Matrix: (Units=GPa)
#
#
# Indices 1 2 3 4 5 6 
#
# 1 87.9821 31.5531 14.3707 0.0000 0.0000 0.0000
# 2 31.5531 99.8984 25.3827 0.0000 0.0000 0.0000
# 3 14.3707 25.3827 110.9647 0.0000 0.0000 0.0000
# 4 0.0000 0.0000 0.0000 17.8604 0.0000 0.0000
# 5 0.0000 0.0000 0.0000 0.0000 19.0866 0.0000
# 6 0.0000 0.0000 0.0000 0.0000 0.0000 29.9008
#
#
#
# Elastic Compliance Matrix: (Units=1/GPa)
#
#
# Indices 1 2 3 4 5 6 
#
# 1 0.012882 -0.003870 -0.000783 0.000000 0.000000 0.000000
# 2 -0.003870 0.011790 -0.002196 0.000000 0.000000 0.000000
# 3 -0.000783 -0.002196 0.009616 0.000000 0.000000 0.000000
# 4 0.000000 0.000000 0.000000 0.055990 0.000000 0.000000
# 5 0.000000 0.000000 0.000000 0.000000 0.052393 0.000000
# 6 0.000000 0.000000 0.000000 0.000000 0.000000 0.033444
#
#
# Mechanical properties :
#
#
# Convention : Reuss Voigt Hill
#
# Bulk Modulus (GPa) = 48.56654 49.05090 48.80872
# Shear Modulus (GPa) = 25.42269 28.53880 26.98074
#
# Velocity S-wave (km/s) = 3.46102 3.66700 3.56550
# Velocity P-wave (km/s) = 6.23339 6.40633 6.32045
#
# Compressibility (1/GPa) = 0.02059031
#
# Stress axis : x y z
#
# Youngs Moduli (GPa) = 77.62977 84.81502 103.99784
#
# Poissons Ratio (x) = 0.32821 0.08144
# Poissons Ratio (y) = 0.30041 0.22836
# Poissons Ratio (z) = 0.06079 0.18624
#
# Static dielectric constant tensor:
#      x y z
#    x 3.900240 0.000000 0.000000 
#    y 0.000000 4.055390 0.000000 
#    z 0.000000 0.000000 4.021130 
# 
# 
# High freq. dielectric constant tensor:
#      x y z
#    x 1.830110 0.000000 0.000000 
#    y 0.000000 1.827170 0.000000 
#    z 0.000000 0.000000 1.857910 
# 
# From -- ./inp_files/34142.got.cif
#   From: 2010.03.12/outbox.cif.g09.slc.cpg/sg24_18_cif.got.tgz:34142.got - 2010.04.14 03:06:53.
