data_PCOD8165057
_publ_section_title
;
Structure prediction by ZEFSAII (Michael W. Deem and Ramdas Pophale) SiO2 
 PCOD8165057
Probable space group: I 21 21 21
;
_chemical_formula_sum "Si O2"
_cell_formula_units_Z 48
_cell_length_a 5.086770
_cell_length_b 26.138698
_cell_length_c 21.971456
_cell_angle_alpha 90.000000
_cell_angle_beta 90.000000
_cell_angle_gamma 90.000000
_cell_volume 2921.358732
_symmetry_space_group_name_H-M "I 21 21 21"
_symmetry_group_IT_number 24
_symmetry_cell_setting 'orthorhombic'
loop_
_space_group_symop_operation_xyz
x,y,z
-x,1/2-y,z
x,-y,1/2-z
1/2-x,y,-z
1/2+x,1/2+y,1/2+z
1/2-x,-y,1/2+z
1/2+x,1/2-y,-z
-x,1/2+y,1/2-z
loop_
_atom_site_type_symbol
_atom_site_label
_atom_site_fract_x
_atom_site_fract_y
_atom_site_fract_z
Si Si1 0.076252 0.495842 0.126537
Si Si2 0.250000 0.905054 0.500000
Si Si3 0.750000 0.026076 0.000000
Si Si4 0.580516 0.636570 0.255758
Si Si5 0.068019 0.308884 0.219489
Si Si6 0.584839 0.532054 0.192406
Si Si7 0.130592 0.882265 0.370693
O O1 0.306056 0.509710 0.172756
O O2 0.810608 0.527551 0.140964
O O3 0.024418 0.435555 0.131867
O O4 0.171768 0.509058 0.057878
O O5 0.499811 0.939524 0.482627
O O6 0.206086 0.869916 0.440501
O O7 0.350616 0.678902 0.251840
O O8 0.848019 0.665810 0.236558
O O9 0.532599 0.591029 0.208690
O O10 0.616074 0.614584 0.325169
O O11 0.000000 0.250000 0.211409
O O12 0.055110 0.336122 0.152908
O O13 0.690253 0.500000 0.250000
#
# Coordination Sequence:
#
# PCOD8165057 Si02
#       7
#     8   4   4   8   8   8   8
#     4  11  21  33  50  73 103 138 169 207 244 305
#     4  10  20  32  50  67  94 134 176 225 242 290
#     4  10  22  34  48  71 100 140 178 195 246 296
#     4  10  21  33  50  74  98 125 169 210 261 310
#     4  10  20  35  53  67  96 132 170 215 267 310
#     4  12  20  31  50  75 103 130 164 213 254 297
#     4   9  21  32  51  69  98 129 176 210 251 292
#
# _framework density 16.430712
#
# number of rings (size 3 to 8) (size 9 to 14) (size 15 to 20)
#    1.000    0.667    1.667    5.000    4.667    0.000 
#    0.000    0.000    3.667    0.000    0.000    0.000 
#    0.000    0.000    0.000   42.000    0.000    0.500 
#
# Total GULP energy -297409.916291 kJ/mol
# GULP energy per Si atom -12392.079845 kJ/mol
# Density = 1.639331 g / cm^3
# Si number density = 16.430712 Si / 1000 Ang^3
#
#
#
# Elastic Constant Matrix: (Units=GPa)
#
#
# Indices 1 2 3 4 5 6 
#
# 1 106.9032 29.0440 19.1054 0.0000 0.0000 0.0000
# 2 29.0440 89.2153 39.6623 0.0000 0.0000 0.0000
# 3 19.1054 39.6623 49.7286 0.0000 0.0000 0.0000
# 4 0.0000 0.0000 0.0000 40.8680 0.0000 0.0000
# 5 0.0000 0.0000 0.0000 0.0000 24.8072 0.0000
# 6 0.0000 0.0000 0.0000 0.0000 0.0000 27.3916
#
#
#
# Elastic Compliance Matrix: (Units=1/GPa)
#
#
# Indices 1 2 3 4 5 6 
#
# 1 0.010389 -0.002491 -0.002005 0.000000 0.000000 0.000000
# 2 -0.002491 0.017964 -0.013371 0.000000 0.000000 0.000000
# 3 -0.002005 -0.013371 0.031543 0.000000 0.000000 0.000000
# 4 0.000000 0.000000 0.000000 0.024469 0.000000 0.000000
# 5 0.000000 0.000000 0.000000 0.000000 0.040311 0.000000
# 6 0.000000 0.000000 0.000000 0.000000 0.000000 0.036508
#
#
# Mechanical properties :
#
#
# Convention : Reuss Voigt Hill
#
# Bulk Modulus (GPa) = 41.38384 46.83005 44.10695
# Shear Modulus (GPa) = 24.39366 29.14904 26.77135
#
# Velocity S-wave (km/s) = 3.85728 4.21653 4.04090
# Velocity P-wave (km/s) = 6.71414 7.22972 6.97670
#
# Compressibility (1/GPa) = 0.02416402
#
# Stress axis : x y z
#
# Youngs Moduli (GPa) = 96.25280 55.66718 31.70238
#
# Poissons Ratio (x) = 0.13867 0.06356
# Poissons Ratio (y) = 0.23976 0.42388
# Poissons Ratio (z) = 0.19296 0.74430
#
# Static dielectric constant tensor:
#      x y z
#    x 2.702640 0.000000 0.000000 
#    y 0.000000 2.779030 0.000000 
#    z 0.000000 0.000000 3.093110 
# 
# 
# High freq. dielectric constant tensor:
#      x y z
#    x 1.654820 0.000000 0.000000 
#    y 0.000000 1.595890 0.000000 
#    z 0.000000 0.000000 1.607000 
# 
# From -- ./inp_files/32237.got.cif
#   From: 2010.03.12/outbox.cif.g09.slc.cpg/sg24_17_cif.got.tgz:32237.got - 2010.04.14 03:06:53.
