data_PCOD8165203
_publ_section_title
;
Structure prediction by ZEFSAII (Michael W. Deem and Ramdas Pophale) SiO2 
 PCOD8165203
Probable space group: I 21 21 21
;
_chemical_formula_sum "Si O2"
_cell_formula_units_Z 64
_cell_length_a 8.575614
_cell_length_b 14.599058
_cell_length_c 23.530054
_cell_angle_alpha 90.000000
_cell_angle_beta 90.000000
_cell_angle_gamma 90.000000
_cell_volume 2945.865962
_symmetry_space_group_name_H-M "I 21 21 21"
_symmetry_group_IT_number 24
_symmetry_cell_setting 'orthorhombic'
loop_
_space_group_symop_operation_xyz
x,y,z
-x,1/2-y,z
x,-y,1/2-z
1/2-x,y,-z
1/2+x,1/2+y,1/2+z
1/2-x,-y,1/2+z
1/2+x,1/2-y,-z
-x,1/2+y,1/2-z
loop_
_atom_site_type_symbol
_atom_site_label
_atom_site_fract_x
_atom_site_fract_y
_atom_site_fract_z
Si Si1 0.882945 0.514401 0.577624
Si Si2 0.785861 0.328551 0.215933
Si Si3 0.280876 0.652990 0.647452
Si Si4 0.599719 0.165787 0.036897
Si Si5 0.570918 0.465205 0.864943
Si Si6 0.996997 0.063723 0.803365
Si Si7 0.120990 0.827669 0.155025
Si Si8 0.352148 0.814348 0.053395
O O1 0.701505 0.546126 0.585253
O O2 0.955019 0.506320 0.640743
O O3 0.901741 0.419520 0.543904
O O4 0.978543 0.582694 0.537944
O O5 0.848547 0.240625 0.180701
O O6 0.873964 0.419440 0.194132
O O7 0.602037 0.344906 0.204631
O O8 0.818950 0.313192 0.281580
O O9 0.160919 0.689043 0.599905
O O10 0.413321 0.589278 0.617908
O O11 0.183591 0.592691 0.692778
O O12 0.500000 0.250000 0.011834
O O13 0.750000 0.141295 0.000000
O O14 0.541650 0.572778 0.853767
O O15 0.025058 0.000000 0.750000
O O16 0.264017 0.811759 0.113104
O O17 0.000000 0.750000 0.138698
O O18 0.500000 0.750000 0.057860
O O19 0.250000 0.780657 0.000000
#
# Coordination Sequence:
#
# PCOD8165203 Si02
#       8
#     8   8   8   8   8   8   8   8
#     4   9  22  43  65  89 122 165 209 252 313 376
#     4  11  21  37  61  89 127 169 204 248 311 376
#     4  11  23  38  61  93 125 165 209 255 311 372
#     4  11  25  42  64  95 128 163 206 254 303 371
#     4  10  21  39  62  89 126 163 204 259 313 368
#     4  10  20  37  60  89 127 165 205 256 310 371
#     4  11  24  40  62  93 125 164 213 262 317 378
#     4  11  25  44  66  89 119 160 207 266 323 374
#
# _framework density 21.725360999999999
#
# number of rings (size 3 to 8) (size 9 to 14) (size 15 to 20)
#    0.000    1.500    0.000    6.750    0.000   11.000 
#    0.000    0.000    0.000    0.000    0.000    0.000 
#    0.000    0.000    0.000    0.000    0.000    0.000 
#
# Total GULP energy -396821.462588 kJ/mol
# GULP energy per Si atom -12400.670706 kJ/mol
# Density = 2.167591 g / cm^3
# Si number density = 21.725361 Si / 1000 Ang^3
#
#
#
# Elastic Constant Matrix: (Units=GPa)
#
#
# Indices 1 2 3 4 5 6 
#
# 1 124.6137 80.2995 15.8066 0.0000 0.0000 0.0000
# 2 80.2995 148.5400 36.2032 0.0000 0.0000 0.0000
# 3 15.8066 36.2032 52.5110 0.0000 0.0000 0.0000
# 4 0.0000 0.0000 0.0000 15.9970 0.0000 0.0000
# 5 0.0000 0.0000 0.0000 0.0000 28.7268 0.0000
# 6 0.0000 0.0000 0.0000 0.0000 0.0000 39.9181
#
#
#
# Elastic Compliance Matrix: (Units=1/GPa)
#
#
# Indices 1 2 3 4 5 6 
#
# 1 0.012364 -0.006944 0.001065 0.000000 0.000000 0.000000
# 2 -0.006944 0.011991 -0.006177 0.000000 0.000000 0.000000
# 3 0.001065 -0.006177 0.022982 0.000000 0.000000 0.000000
# 4 0.000000 0.000000 0.000000 0.062512 0.000000 0.000000
# 5 0.000000 0.000000 0.000000 0.000000 0.034811 0.000000
# 6 0.000000 0.000000 0.000000 0.000000 0.000000 0.025051
#
#
# Mechanical properties :
#
#
# Convention : Reuss Voigt Hill
#
# Bulk Modulus (GPa) = 43.05444 65.58704 54.32074
# Shear Modulus (GPa) = 24.80608 29.81875 27.31242
#
# Velocity S-wave (km/s) = 3.38272 3.70879 3.54950
# Velocity P-wave (km/s) = 5.92602 6.97100 6.46964
#
# Compressibility (1/GPa) = 0.02322641
#
# Stress axis : x y z
#
# Youngs Moduli (GPa) = 80.88007 83.39329 43.51277
#
# Poissons Ratio (x) = 0.57904 -0.04636
# Poissons Ratio (y) = 0.56159 0.26879
# Poissons Ratio (z) = -0.08617 0.51514
#
# Static dielectric constant tensor:
#      x y z
#    x 4.041760 0.000000 0.000000 
#    y 0.000000 4.023540 0.000000 
#    z 0.000000 0.000000 3.776520 
# 
# 
# High freq. dielectric constant tensor:
#      x y z
#    x 1.859270 0.000000 0.000000 
#    y 0.000000 1.853020 0.000000 
#    z 0.000000 0.000000 1.849130 
# 
# From -- ./inp_files/35292.got.cif
#   From: 2010.03.12/outbox.cif.g09.slc.cpg/sg24_18_cif.got.tgz:35292.got - 2010.04.14 03:06:53.
