data_PCOD8165143
_publ_section_title
;
Structure prediction by ZEFSAII (Michael W. Deem and Ramdas Pophale) SiO2 
 PCOD8165143
Probable space group: I 21 21 21
;
_chemical_formula_sum "Si O2"
_cell_formula_units_Z 48
_cell_length_a 28.698426
_cell_length_b 15.217873
_cell_length_c 5.169175
_cell_angle_alpha 90.000000
_cell_angle_beta 90.000000
_cell_angle_gamma 90.000000
_cell_volume 2257.528640
_symmetry_space_group_name_H-M "I 21 21 21"
_symmetry_group_IT_number 24
_symmetry_cell_setting 'orthorhombic'
loop_
_space_group_symop_operation_xyz
x,y,z
-x,1/2-y,z
x,-y,1/2-z
1/2-x,y,-z
1/2+x,1/2+y,1/2+z
1/2-x,-y,1/2+z
1/2+x,1/2-y,-z
-x,1/2+y,1/2-z
loop_
_atom_site_type_symbol
_atom_site_label
_atom_site_fract_x
_atom_site_fract_y
_atom_site_fract_z
Si Si1 0.018013 0.600936 0.756182
Si Si2 0.967402 0.604820 0.258836
Si Si3 0.117666 0.331488 0.670649
Si Si4 0.300489 0.417993 0.594297
Si Si5 0.120821 0.216967 0.179575
Si Si6 0.779259 0.270480 0.245055
O O1 0.004416 0.500000 0.750000
O O2 0.073504 0.608700 0.765956
O O3 0.998790 0.643637 0.492345
O O4 0.990693 0.644299 0.998461
O O5 0.966915 0.500000 0.250000
O O6 0.915012 0.637090 0.305416
O O7 0.164514 0.391362 0.641495
O O8 0.106825 0.288592 0.393177
O O9 0.123914 0.259182 0.893613
O O10 0.323053 0.500000 0.750000
O O11 0.250000 0.450349 0.500000
O O12 0.292843 0.332758 0.775244
O O13 0.171898 0.176949 0.247391
O O14 0.750000 0.291814 0.500000
O O15 0.750000 0.300696 0.000000
#
# Coordination Sequence:
#
# PCOD8165143 Si02
#       6
#     8   8   8   8   8   8
#     4  10  22  38  56  82 117 152 186 231 285 338
#     4  10  22  40  61  84 111 146 187 234 293 354
#     4  11  24  37  57  86 116 154 196 238 286 335
#     4  10  21  35  54  80 113 155 201 241 276 325
#     4  11  22  38  60  85 112 148 192 237 286 342
#     4  10  20  36  55  79 111 146 185 230 283 334
#
# _framework density 21.262187000000001
#
# number of rings (size 3 to 8) (size 9 to 14) (size 15 to 20)
#    0.000    1.667    0.000    5.500    0.000   10.667 
#    0.000    0.000    0.000    1.000    0.000    0.000 
#    0.000    0.000    0.000    0.000    0.000    0.000 
#
# Total GULP energy -297549.583973 kJ/mol
# GULP energy per Si atom -12397.899332 kJ/mol
# Density = 2.121379 g / cm^3
# Si number density = 21.262187 Si / 1000 Ang^3
#
#
#
# Elastic Constant Matrix: (Units=GPa)
#
#
# Indices 1 2 3 4 5 6 
#
# 1 183.8007 31.2444 69.5256 0.0000 -0.0002 0.0000
# 2 31.2444 23.6977 25.2688 0.0000 0.0000 0.0000
# 3 69.5256 25.2688 156.8639 0.0000 0.0000 -0.0011
# 4 0.0000 0.0000 0.0000 14.3573 0.0000 0.0000
# 5 -0.0002 0.0000 0.0000 0.0000 40.0150 0.0002
# 6 0.0000 0.0000 -0.0011 0.0000 0.0002 25.8280
#
#
#
# Elastic Compliance Matrix: (Units=1/GPa)
#
#
# Indices 1 2 3 4 5 6 
#
# 1 0.007546 -0.007707 -0.002103 0.000000 0.000000 0.000000
# 2 -0.007707 0.058821 -0.006059 0.000000 0.000000 0.000000
# 3 -0.002103 -0.006059 0.008283 0.000000 0.000000 0.000000
# 4 0.000000 0.000000 0.000000 0.069651 0.000000 0.000000
# 5 0.000000 0.000000 0.000000 0.000000 0.024991 0.000000
# 6 0.000000 0.000000 0.000000 0.000000 0.000000 0.038718
#
#
# Mechanical properties :
#
#
# Convention : Reuss Voigt Hill
#
# Bulk Modulus (GPa) = 23.30396 68.49332 45.89864
# Shear Modulus (GPa) = 19.68098 31.92829 25.80464
#
# Velocity S-wave (km/s) = 3.04572 3.87931 3.48751
# Velocity P-wave (km/s) = 4.83246 7.23526 6.15230
#
# Compressibility (1/GPa) = 0.04291116
#
# Stress axis : x y z
#
# Youngs Moduli (GPa) = 132.51420 17.00085 120.72559
#
# Poissons Ratio (x) = 0.13102 0.25391
# Poissons Ratio (y) = 1.02127 0.73152
# Poissons Ratio (z) = 0.27871 0.10301
#
# Static dielectric constant tensor:
#      x y z
#    x 4.110030 0.000000 0.000000 
#    y 0.000000 3.303240 0.000000 
#    z 0.000000 0.000000 4.213370 
# 
# 
# High freq. dielectric constant tensor:
#      x y z
#    x 1.852150 0.000000 0.000000 
#    y 0.000000 1.781310 0.000000 
#    z 0.000000 0.000000 1.851100 
# 
# From -- ./inp_files/7101.got.cif
#   From: 2010.03.12/outbox.cif.g09.slc.cpg/sg24_4_cif.got.tgz:7101.got - 2010.04.14 03:06:53.
