data_PCOD8165567
_publ_section_title
;
Structure prediction by ZEFSAII (Michael W. Deem and Ramdas Pophale) SiO2 
 PCOD8165567
Probable space group: I 21 21 21
;
_chemical_formula_sum "Si O2"
_cell_formula_units_Z 40
_cell_length_a 14.764890
_cell_length_b 11.887599
_cell_length_c 11.138656
_cell_angle_alpha 90.000000
_cell_angle_beta 90.000000
_cell_angle_gamma 90.000000
_cell_volume 1955.046783
_symmetry_space_group_name_H-M "I 21 21 21"
_symmetry_group_IT_number 24
_symmetry_cell_setting 'orthorhombic'
loop_
_space_group_symop_operation_xyz
x,y,z
-x,1/2-y,z
x,-y,1/2-z
1/2-x,y,-z
1/2+x,1/2+y,1/2+z
1/2-x,-y,1/2+z
1/2+x,1/2-y,-z
-x,1/2+y,1/2-z
loop_
_atom_site_type_symbol
_atom_site_label
_atom_site_fract_x
_atom_site_fract_y
_atom_site_fract_z
Si Si1 0.896417 0.516038 0.892057
Si Si2 0.850560 0.000000 0.250000
Si Si3 0.250000 0.858966 0.500000
Si Si4 0.597888 0.008658 0.486898
Si Si5 0.105786 0.737677 0.877868
Si Si6 0.713354 0.167162 0.161712
O O1 0.882642 0.500000 0.750000
O O2 0.859327 0.641167 0.925282
O O3 0.001112 0.493055 0.924040
O O4 0.838377 0.432476 0.974040
O O5 0.784823 0.892748 0.251760
O O6 0.912550 0.999494 0.369122
O O7 0.267727 0.774102 0.610047
O O8 0.637574 0.133338 0.460172
O O9 0.669851 0.915916 0.439416
O O10 0.131836 0.714240 0.740803
O O11 0.000000 0.750000 0.877395
#
# Coordination Sequence:
#
# PCOD8165567 Si02
#       6
#     8   4   4   8   8   8
#     4  11  24  45  66  93 132 176 220 262 325 399
#     4  12  24  40  62 102 132 162 216 274 332 372
#     4  12  26  42  62 104 130 168 222 264 336 386
#     4  11  23  42  67  98 129 172 218 274 325 384
#     4  10  21  41  70  94 122 170 227 266 316 387
#     4  12  22  40  67  99 130 167 217 277 325 381
#
# _framework density 20.459868
#
# number of rings (size 3 to 8) (size 9 to 14) (size 15 to 20)
#    0.000    0.800    6.000    2.400    0.000    1.600 
#    1.800    4.000    0.000    0.000    0.000    0.000 
#    0.000    0.000    0.000    0.000    0.000    0.000 
#
# Total GULP energy -247875.874418 kJ/mol
# GULP energy per Si atom -12393.793721 kJ/mol
# Density = 2.041330 g / cm^3
# Si number density = 20.459868 Si / 1000 Ang^3
#
#
#
# Elastic Constant Matrix: (Units=GPa)
#
#
# Indices 1 2 3 4 5 6 
#
# 1 48.3833 51.5402 27.5050 0.0000 0.0000 0.0000
# 2 51.5402 167.5302 44.9634 0.0000 0.0000 0.0000
# 3 27.5050 44.9634 109.4492 0.0000 0.0000 0.0000
# 4 0.0000 0.0000 0.0000 41.7701 0.0000 0.0000
# 5 0.0000 0.0000 0.0000 0.0000 35.8330 0.0000
# 6 0.0000 0.0000 0.0000 0.0000 0.0000 22.8657
#
#
#
# Elastic Compliance Matrix: (Units=1/GPa)
#
#
# Indices 1 2 3 4 5 6 
#
# 1 0.032672 -0.008820 -0.004587 0.000000 0.000000 0.000000
# 2 -0.008820 0.009090 -0.001518 0.000000 0.000000 0.000000
# 3 -0.004587 -0.001518 0.010913 0.000000 0.000000 0.000000
# 4 0.000000 0.000000 0.000000 0.023941 0.000000 0.000000
# 5 0.000000 0.000000 0.000000 0.000000 0.027907 0.000000
# 6 0.000000 0.000000 0.000000 0.000000 0.000000 0.043734
#
#
# Mechanical properties :
#
#
# Convention : Reuss Voigt Hill
#
# Bulk Modulus (GPa) = 43.81252 63.70887 53.76069
# Shear Modulus (GPa) = 26.92311 33.51737 30.22024
#
# Velocity S-wave (km/s) = 3.63147 4.05186 3.84741
# Velocity P-wave (km/s) = 6.24850 7.28671 6.78749
#
# Compressibility (1/GPa) = 0.02282453
#
# Stress axis : x y z
#
# Youngs Moduli (GPa) = 30.60755 110.01183 91.63467
#
# Poissons Ratio (x) = 0.97033 0.42033
# Poissons Ratio (y) = 0.26997 0.13908
# Poissons Ratio (z) = 0.14040 0.16697
#
# Static dielectric constant tensor:
#      x y z
#    x 3.445630 0.000000 0.000000 
#    y 0.000000 4.931570 0.000000 
#    z 0.000000 0.000000 3.656220 
# 
# 
# High freq. dielectric constant tensor:
#      x y z
#    x 1.781560 0.000000 0.000000 
#    y 0.000000 1.824630 0.000000 
#    z 0.000000 0.000000 1.792710 
# 
# From -- ./inp_files/13848.got.cif
#   From: 2010.03.12/outbox.cif.g09.slc.cpg/sg24_7_cif.got.tgz:13848.got - 2010.04.14 03:06:53.
