data_PCOD8165781
_publ_section_title
;
Structure prediction by ZEFSAII (Michael W. Deem and Ramdas Pophale) SiO2 
 PCOD8165781
Probable space group: I 21 21 21
;
_chemical_formula_sum "Si O2"
_cell_formula_units_Z 40
_cell_length_a 11.579862
_cell_length_b 28.441406
_cell_length_c 5.772476
_cell_angle_alpha 90.000000
_cell_angle_beta 90.000000
_cell_angle_gamma 90.000000
_cell_volume 1901.150866
_symmetry_space_group_name_H-M "I 21 21 21"
_symmetry_group_IT_number 24
_symmetry_cell_setting 'orthorhombic'
loop_
_space_group_symop_operation_xyz
x,y,z
-x,1/2-y,z
x,-y,1/2-z
1/2-x,y,-z
1/2+x,1/2+y,1/2+z
1/2-x,-y,1/2+z
1/2+x,1/2-y,-z
-x,1/2+y,1/2-z
loop_
_atom_site_type_symbol
_atom_site_label
_atom_site_fract_x
_atom_site_fract_y
_atom_site_fract_z
Si Si1 0.877943 0.596923 0.399226
Si Si2 0.376582 0.184852 0.586655
Si Si3 0.138114 0.727398 0.362178
Si Si4 0.458351 0.653460 0.293730
Si Si5 0.250000 0.663557 0.000000
Si Si6 0.681849 0.500000 0.750000
O O1 0.750000 0.598401 0.500000
O O2 0.899875 0.545429 0.288741
O O3 0.975641 0.608783 0.592073
O O4 0.881379 0.633388 0.192619
O O5 0.250000 0.199591 0.500000
O O6 0.421884 0.224031 0.771325
O O7 0.459975 0.183277 0.371094
O O8 0.250000 0.744846 0.500000
O O9 0.063078 0.693822 0.521311
O O10 0.164528 0.695999 0.141330
O O11 0.338483 0.634640 0.169922
O O12 0.750000 0.493159 0.500000
#
# Coordination Sequence:
#
# PCOD8165781 Si02
#       6
#     8   8   8   8   4   4
#     4  11  23  41  66  99 139 178 224 286 358 430
#     4  12  23  40  62  93 136 181 227 280 347 416
#     4  10  23  42  58  87 131 183 233 279 326 398
#     4  11  25  41  63  93 137 182 237 284 336 418
#     4  10  22  44  60  86 132 180 236 274 334 394
#     4  10  24  44  72 104 150 184 220 282 366 448
#
# _framework density 21.039885999999999
#
# number of rings (size 3 to 8) (size 9 to 14) (size 15 to 20)
#    0.000    1.200    3.000    2.400    2.800    4.800 
#    3.600    0.000    0.000    0.000    0.000    0.000 
#  135.000    0.000    0.000    0.000    0.000    0.000 
#
# Total GULP energy -247813.116036 kJ/mol
# GULP energy per Si atom -12390.655802 kJ/mol
# Density = 2.099200 g / cm^3
# Si number density = 21.039886 Si / 1000 Ang^3
#
#
#
# Elastic Constant Matrix: (Units=GPa)
#
#
# Indices 1 2 3 4 5 6 
#
# 1 114.7660 58.7599 58.8228 -0.0451 0.0212 -0.0157
# 2 58.7599 158.0497 67.3657 0.0050 0.0109 0.0133
# 3 58.8228 67.3657 134.8729 0.1130 0.2696 -0.0035
# 4 -0.0451 0.0050 0.1130 22.3048 -0.0674 0.0102
# 5 0.0212 0.0109 0.2696 -0.0674 60.4699 -0.0013
# 6 -0.0157 0.0133 -0.0035 0.0102 -0.0013 22.9692
#
#
#
# Elastic Compliance Matrix: (Units=1/GPa)
#
#
# Indices 1 2 3 4 5 6 
#
# 1 0.012170 -0.002874 -0.003872 0.000045 0.000014 0.000009
# 2 -0.002874 0.008717 -0.003101 0.000008 0.000013 -0.000007
# 3 -0.003872 -0.003101 0.010652 -0.000061 -0.000046 0.000001
# 4 0.000045 0.000008 -0.000061 0.044834 0.000050 -0.000020
# 5 0.000014 0.000013 -0.000046 0.000050 0.016537 0.000001
# 6 0.000009 -0.000007 0.000001 -0.000020 0.000001 0.043537
#
#
# Mechanical properties :
#
#
# Convention : Reuss Voigt Hill
#
# Bulk Modulus (GPa) = 84.42211 86.39838 85.41024
# Shear Modulus (GPa) = 31.23269 35.99810 33.61540
#
# Velocity S-wave (km/s) = 3.85704 4.14085 4.00146
# Velocity P-wave (km/s) = 7.74904 8.00096 7.87601
#
# Compressibility (1/GPa) = 0.01184524
#
# Stress axis : x y z
#
# Youngs Moduli (GPa) = 82.17253 114.71582 93.87922
#
# Poissons Ratio (x) = 0.32969 0.36351
# Poissons Ratio (y) = 0.23616 0.29108
# Poissons Ratio (z) = 0.31818 0.35569
#
# Static dielectric constant tensor:
#      x y z
#    x 4.044590 -0.000190 0.000200 
#    y -0.000190 3.841990 -0.000010 
#    z 0.000200 -0.000010 4.265050 
# 
# 
# High freq. dielectric constant tensor:
#      x y z
#    x 1.832920 0.000000 0.000000 
#    y 0.000000 1.784870 0.000000 
#    z 0.000000 0.000000 1.858460 
# 
# From -- ./inp_files/2502.got.cif
#   From: 2010.03.12/outbox.cif.g09.slc.cpg/sg24_2_cif.got.tgz:2502.got - 2010.04.14 03:06:53.
