data_PCOD8165789
_publ_section_title
;
Structure prediction by ZEFSAII (Michael W. Deem and Ramdas Pophale) SiO2 
 PCOD8165789
Probable space group: I 21 21 21
;
_chemical_formula_sum "Si O2"
_cell_formula_units_Z 28
_cell_length_a 25.495003
_cell_length_b 5.558396
_cell_length_c 8.597659
_cell_angle_alpha 90.000000
_cell_angle_beta 90.000000
_cell_angle_gamma 90.000000
_cell_volume 1218.385629
_symmetry_space_group_name_H-M "I 21 21 21"
_symmetry_group_IT_number 24
_symmetry_cell_setting 'orthorhombic'
loop_
_space_group_symop_operation_xyz
x,y,z
-x,1/2-y,z
x,-y,1/2-z
1/2-x,y,-z
1/2+x,1/2+y,1/2+z
1/2-x,-y,1/2+z
1/2+x,1/2-y,-z
-x,1/2+y,1/2-z
loop_
_atom_site_type_symbol
_atom_site_label
_atom_site_fract_x
_atom_site_fract_y
_atom_site_fract_z
Si Si1 0.750000 0.164395 0.500000
Si Si2 0.451411 0.428500 0.928551
Si Si3 0.847360 0.129918 0.911443
Si Si4 0.500000 0.750000 0.156525
Si Si5 0.783462 0.500000 0.750000
O O1 0.746781 0.311859 0.660826
O O2 0.803763 0.017314 0.494550
O O3 0.500000 0.250000 0.963543
O O4 0.450962 0.500000 0.750000
O O5 0.396830 0.308532 0.979118
O O6 0.454037 0.667215 0.038187
O O7 0.821152 0.384918 0.878478
O O8 0.864217 0.000000 0.750000
O O9 0.515463 0.500000 0.250000
#
# Coordination Sequence:
#
# PCOD8165789 Si02
#       5
#     4   8   8   4   4
#     4  10  22  44  70 106 150 180 250 304 380 464
#     4  12  27  48  73 110 158 201 262 331 397 463
#     4  10  24  44  70 109 144 198 255 307 383 470
#     4  12  26  48  78 106 148 206 262 320 388 470
#     4  10  22  44  74 106 146 198 244 312 382 466
#
# _framework density 22.981228999999999
#
# number of rings (size 3 to 8) (size 9 to 14) (size 15 to 20)
#    0.000    1.143    2.857    1.714    0.000   12.571 
#    2.571    0.000    3.143    0.000    0.000    0.000 
#    0.000    0.000    0.000    0.000    0.000    0.000 
#
# Total GULP energy -173457.507634 kJ/mol
# GULP energy per Si atom -12389.821974 kJ/mol
# Density = 2.292892 g / cm^3
# Si number density = 22.981229 Si / 1000 Ang^3
#
#
#
# Elastic Constant Matrix: (Units=GPa)
#
#
# Indices 1 2 3 4 5 6 
#
# 1 177.8143 64.5705 78.9341 0.0000 0.0000 0.0000
# 2 64.5705 133.5650 69.0388 0.0000 0.0000 0.0000
# 3 78.9341 69.0388 142.5703 0.0000 0.0000 0.0000
# 4 0.0000 0.0000 0.0000 34.4777 0.0000 0.0000
# 5 0.0000 0.0000 0.0000 0.0000 45.2832 0.0000
# 6 0.0000 0.0000 0.0000 0.0000 0.0000 -110.0619
#
#
#
# Elastic Compliance Matrix: (Units=1/GPa)
#
#
# Indices 1 2 3 4 5 6 
#
# 1 0.007863 -0.002069 -0.003351 0.000000 0.000000 0.000000
# 2 -0.002069 0.010531 -0.003954 0.000000 0.000000 0.000000
# 3 -0.003351 -0.003954 0.010784 0.000000 0.000000 0.000000
# 4 0.000000 0.000000 0.000000 0.029004 0.000000 0.000000
# 5 0.000000 0.000000 0.000000 0.000000 0.022083 0.000000
# 6 0.000000 0.000000 0.000000 0.000000 0.000000 -0.009086
#
#
# Mechanical properties :
#
#
# Convention : Reuss Voigt Hill
#
# Bulk Modulus (GPa) = 95.88328 97.67071 96.77699
# Shear Modulus (GPa) = 53.53009 10.03355 31.78182
#
# Velocity S-wave (km/s) = 4.83151 2.09176 3.72283
# Velocity P-wave (km/s) = 8.54036 6.95891 7.78987
#
# Compressibility (1/GPa) = 0.01042935
#
# Stress axis : x y z
#
# Youngs Moduli (GPa) = 127.17989 94.95735 92.72662
#
# Poissons Ratio (x) = 0.19646 0.31077
# Poissons Ratio (y) = 0.26312 0.36666
# Poissons Ratio (z) = 0.42624 0.37548
#
# Static dielectric constant tensor:
#      x y z
#    x 3.974660 0.000000 0.000000 
#    y 0.000000 4.375490 0.000000 
#    z 0.000000 0.000000 4.354370 
# 
# 
# High freq. dielectric constant tensor:
#      x y z
#    x 1.896200 0.000000 0.000000 
#    y 0.000000 1.911190 0.000000 
#    z 0.000000 0.000000 1.921360 
# 
# From -- ./inp_files/16191.got.cif
#   From: 2010.03.12/outbox.cif.g09.slc.cpg/sg24_9_cif.got.tgz:16191.got - 2010.04.14 03:06:53.
