data_PCOD8165889
_publ_section_title
;
Structure prediction by ZEFSAII (Michael W. Deem and Ramdas Pophale) SiO2 
 PCOD8165889
Probable space group: I 21 21 21
;
_chemical_formula_sum "Si O2"
_cell_formula_units_Z 60
_cell_length_a 17.302764
_cell_length_b 25.642414
_cell_length_c 6.505242
_cell_angle_alpha 90.000000
_cell_angle_beta 90.000000
_cell_angle_gamma 90.000000
_cell_volume 2886.275941
_symmetry_space_group_name_H-M "I 21 21 21"
_symmetry_group_IT_number 24
_symmetry_cell_setting 'orthorhombic'
loop_
_space_group_symop_operation_xyz
x,y,z
-x,1/2-y,z
x,-y,1/2-z
1/2-x,y,-z
1/2+x,1/2+y,1/2+z
1/2-x,-y,1/2+z
1/2+x,1/2-y,-z
-x,1/2+y,1/2-z
loop_
_atom_site_type_symbol
_atom_site_label
_atom_site_fract_x
_atom_site_fract_y
_atom_site_fract_z
Si Si1 0.808895 0.556478 0.824327
Si Si2 0.432801 0.635836 0.399293
Si Si3 0.574214 0.062137 0.732906
Si Si4 0.947811 0.388199 0.551002
Si Si5 0.076413 0.717230 0.246763
Si Si6 0.661823 0.135576 0.481279
Si Si7 0.675302 0.688946 0.855632
Si Si8 0.750000 0.370860 0.000000
O O1 0.784168 0.500000 0.750000
O O2 0.895944 0.560557 0.903683
O O3 0.807575 0.594441 0.631896
O O4 0.750000 0.576429 0.000000
O O5 0.424380 0.584520 0.537764
O O6 0.508207 0.631515 0.254859
O O7 0.433993 0.689652 0.530548
O O8 0.355845 0.634189 0.260164
O O9 0.501204 0.089331 0.626300
O O10 0.649759 0.079821 0.598641
O O11 0.569260 0.000000 0.750000
O O12 0.893821 0.340732 0.473569
O O13 0.149359 0.755053 0.228613
O O14 0.000000 0.750000 0.189658
O O15 0.095414 0.672933 0.079367
O O16 0.750000 0.154662 0.500000
O O17 0.694035 0.661362 0.643599
O O18 0.750000 0.695235 0.000000
#
# Coordination Sequence:
#
# PCOD8165889 Si02
#       8
#     8   8   8   8   8   8   8   4
#     4  12  25  41  63  96 135 182 227 273 327 392
#     4  10  24  44  66  93 131 170 217 271 335 399
#     4  10  24  42  65 100 130 168 224 270 335 404
#     4  11  24  41  64  95 135 174 219 283 321 391
#     4  11  25  42  66  97 128 174 222 269 333 406
#     4  10  23  47  68  96 136 167 219 283 330 403
#     4  12  25  42  64  97 133 174 225 280 330 392
#     4  12  24  42  60  92 138 170 226 274 328 388
#
# _framework density 20.788034
#
# number of rings (size 3 to 8) (size 9 to 14) (size 15 to 20)
#    0.000    1.067    3.333    2.800    5.600    8.000 
#    2.400    0.000    0.000    0.000    0.000    0.000 
#    0.000    0.000    0.000    0.000    0.000    0.000 
#
# Total GULP energy -371870.787855 kJ/mol
# GULP energy per Si atom -12395.692928 kJ/mol
# Density = 2.074072 g / cm^3
# Si number density = 20.788034 Si / 1000 Ang^3
#
#
#
# Elastic Constant Matrix: (Units=GPa)
#
#
# Indices 1 2 3 4 5 6 
#
# 1 123.9295 49.9518 63.9599 0.0000 0.0000 0.0000
# 2 49.9518 137.6716 64.5242 0.0000 0.0000 0.0000
# 3 63.9599 64.5242 153.5894 0.0000 0.0000 0.0000
# 4 0.0000 0.0000 0.0000 25.5903 0.0000 0.0000
# 5 0.0000 0.0000 0.0000 0.0000 25.5619 0.0000
# 6 0.0000 0.0000 0.0000 0.0000 0.0000 23.7186
#
#
#
# Elastic Compliance Matrix: (Units=1/GPa)
#
#
# Indices 1 2 3 4 5 6 
#
# 1 0.010814 -0.002257 -0.003555 0.000000 0.000000 0.000000
# 2 -0.002257 0.009516 -0.003058 0.000000 0.000000 0.000000
# 3 -0.003555 -0.003058 0.009276 0.000000 0.000000 0.000000
# 4 0.000000 0.000000 0.000000 0.039077 0.000000 0.000000
# 5 0.000000 0.000000 0.000000 0.000000 0.039121 0.000000
# 6 0.000000 0.000000 0.000000 0.000000 0.000000 0.042161
#
#
# Mechanical properties :
#
#
# Convention : Reuss Voigt Hill
#
# Bulk Modulus (GPa) = 84.27822 85.78472 85.03147
# Shear Modulus (GPa) = 29.12752 30.75780 29.94266
#
# Velocity S-wave (km/s) = 3.74728 3.85072 3.79935
# Velocity P-wave (km/s) = 7.70406 7.81836 7.76142
#
# Compressibility (1/GPa) = 0.01186546
#
# Stress axis : x y z
#
# Youngs Moduli (GPa) = 92.47584 105.08863 107.80852
#
# Poissons Ratio (x) = 0.23724 0.38324
# Poissons Ratio (y) = 0.20876 0.32963
# Poissons Ratio (z) = 0.32873 0.32132
#
# Static dielectric constant tensor:
#      x y z
#    x 3.854090 0.000000 0.000000 
#    y 0.000000 3.954260 0.000000 
#    z 0.000000 0.000000 4.118130 
# 
# 
# High freq. dielectric constant tensor:
#      x y z
#    x 1.816020 0.000000 0.000000 
#    y 0.000000 1.816140 0.000000 
#    z 0.000000 0.000000 1.827290 
# 
# From -- ./inp_files/5006.got.cif
#   From: 2010.03.12/outbox.cif.g09.slc.cpg/sg24_3_cif.got.tgz:5006.got - 2010.04.14 03:06:53.
