data_PCOD8165275
_publ_section_title
;
Structure prediction by ZEFSAII (Michael W. Deem and Ramdas Pophale) SiO2 
 PCOD8165275
Probable space group: I 21 21 21
;
_chemical_formula_sum "Si O2"
_cell_formula_units_Z 28
_cell_length_a 8.953871
_cell_length_b 5.632175
_cell_length_c 23.629799
_cell_angle_alpha 90.000000
_cell_angle_beta 90.000000
_cell_angle_gamma 90.000000
_cell_volume 1191.645291
_symmetry_space_group_name_H-M "I 21 21 21"
_symmetry_group_IT_number 24
_symmetry_cell_setting 'orthorhombic'
loop_
_space_group_symop_operation_xyz
x,y,z
-x,1/2-y,z
x,-y,1/2-z
1/2-x,y,-z
1/2+x,1/2+y,1/2+z
1/2-x,-y,1/2+z
1/2+x,1/2-y,-z
-x,1/2+y,1/2-z
loop_
_atom_site_type_symbol
_atom_site_label
_atom_site_fract_x
_atom_site_fract_y
_atom_site_fract_z
Si Si1 0.849498 0.621391 0.195347
Si Si2 0.500000 0.250000 0.882209
Si Si3 0.243148 0.423207 0.598044
Si Si4 0.250000 0.053626 0.500000
Si Si5 0.000000 0.250000 0.952183
O O1 0.768659 0.500000 0.250000
O O2 0.887205 0.408865 0.153648
O O3 0.747210 0.816443 0.162231
O O4 0.000000 0.750000 0.217141
O O5 0.387015 0.415982 0.917427
O O6 0.260111 0.204304 0.556319
O O7 0.090633 0.569309 0.588595
O O8 0.395444 0.890589 0.495516
#
# Coordination Sequence:
#
# PCOD8165275 Si02
#       5
#     8   4   8   4   4
#     4  10  20  38  67 109 141 180 231 292 348 404
#     4  10  22  41  68 110 136 180 228 297 334 412
#     4  11  26  42  70 107 144 185 235 283 354 412
#     4  12  28  48  70 104 140 190 236 280 356 422
#     4  12  28  47  66 102 148 188 228 293 342 424
#
# _framework density 23.496925000000001
#
# number of rings (size 3 to 8) (size 9 to 14) (size 15 to 20)
#    0.000    1.143    1.429    3.429    0.000   21.714 
#    0.000    0.000    0.000    0.000  104.000    0.000 
#    0.000    0.000    0.000    0.000    0.000    0.000 
#
# Total GULP energy -173569.667021 kJ/mol
# GULP energy per Si atom -12397.833359 kJ/mol
# Density = 2.344345 g / cm^3
# Si number density = 23.496925 Si / 1000 Ang^3
#
#
#
# Elastic Constant Matrix: (Units=GPa)
#
#
# Indices 1 2 3 4 5 6 
#
# 1 140.1644 79.9000 67.3494 0.0000 0.0000 0.0000
# 2 79.9000 151.5782 60.2520 0.0000 0.0000 0.0000
# 3 67.3494 60.2520 108.1355 0.0000 0.0000 0.0000
# 4 0.0000 0.0000 0.0000 26.9297 0.0000 0.0000
# 5 0.0000 0.0000 0.0000 0.0000 20.2289 0.0000
# 6 0.0000 0.0000 0.0000 0.0000 0.0000 45.2237
#
#
#
# Elastic Compliance Matrix: (Units=1/GPa)
#
#
# Indices 1 2 3 4 5 6 
#
# 1 0.012048 -0.004326 -0.005093 0.000000 0.000000 0.000000
# 2 -0.004326 0.010028 -0.002893 0.000000 0.000000 0.000000
# 3 -0.005093 -0.002893 0.014032 0.000000 0.000000 0.000000
# 4 0.000000 0.000000 0.000000 0.037134 0.000000 0.000000
# 5 0.000000 0.000000 0.000000 0.000000 0.049434 0.000000
# 6 0.000000 0.000000 0.000000 0.000000 0.000000 0.022112
#
#
# Mechanical properties :
#
#
# Convention : Reuss Voigt Hill
#
# Bulk Modulus (GPa) = 87.08726 90.54232 88.81479
# Shear Modulus (GPa) = 28.86181 31.30158 30.08169
#
# Velocity S-wave (km/s) = 3.50855 3.65383 3.58193
# Velocity P-wave (km/s) = 7.31826 7.51119 7.41535
#
# Compressibility (1/GPa) = 0.01148274
#
# Stress axis : x y z
#
# Youngs Moduli (GPa) = 83.00214 99.72534 71.26727
#
# Poissons Ratio (x) = 0.43143 0.36298
# Poissons Ratio (y) = 0.35908 0.20616
# Poissons Ratio (z) = 0.42275 0.28849
#
# Static dielectric constant tensor:
#      x y z
#    x 4.061290 0.000000 0.000000 
#    y 0.000000 5.373420 0.000000 
#    z 0.000000 0.000000 4.108020 
# 
# 
# High freq. dielectric constant tensor:
#      x y z
#    x 1.895870 0.000000 0.000000 
#    y 0.000000 1.967520 0.000000 
#    z 0.000000 0.000000 1.924400 
# 
# From -- ./inp_files/6809.got.cif
#   From: 2010.03.12/outbox.cif.g09.slc.cpg/sg24_4_cif.got.tgz:6809.got - 2010.04.14 03:06:53.
