data_PCOD8165087
_publ_section_title
;
Structure prediction by ZEFSAII (Michael W. Deem and Ramdas Pophale) SiO2 
 PCOD8165087
Probable space group: I 21 21 21
;
_chemical_formula_sum "Si O2"
_cell_formula_units_Z 64
_cell_length_a 8.946175
_cell_length_b 24.801563
_cell_length_c 15.719408
_cell_angle_alpha 90.000000
_cell_angle_beta 90.000000
_cell_angle_gamma 90.000000
_cell_volume 3487.808459
_symmetry_space_group_name_H-M "I 21 21 21"
_symmetry_group_IT_number 24
_symmetry_cell_setting 'orthorhombic'
loop_
_space_group_symop_operation_xyz
x,y,z
-x,1/2-y,z
x,-y,1/2-z
1/2-x,y,-z
1/2+x,1/2+y,1/2+z
1/2-x,-y,1/2+z
1/2+x,1/2-y,-z
-x,1/2+y,1/2-z
loop_
_atom_site_type_symbol
_atom_site_label
_atom_site_fract_x
_atom_site_fract_y
_atom_site_fract_z
Si Si1 0.458389 0.992014 0.074680
Si Si2 0.479601 0.423117 0.766476
Si Si3 0.991616 0.614685 0.839797
Si Si4 0.749742 0.677372 0.094758
Si Si5 0.694577 0.797016 0.092607
Si Si6 0.866056 0.053356 0.799427
Si Si7 0.526797 0.808114 0.796141
Si Si8 0.615608 0.494709 0.619837
O O1 0.536501 0.936107 0.101744
O O2 0.294291 0.989549 0.117770
O O3 0.561447 0.042695 0.106926
O O4 0.453707 0.994571 0.973620
O O5 0.311181 0.438754 0.794523
O O6 0.498876 0.358467 0.766873
O O7 0.529056 0.448951 0.675483
O O8 0.586625 0.446806 0.838888
O O9 0.815419 0.630764 0.842036
O O10 0.051155 0.668221 0.885212
O O11 0.050740 0.604658 0.744128
O O12 0.657137 0.733523 0.095011
O O13 0.916984 0.690419 0.123087
O O14 0.750000 0.652403 0.000000
O O15 0.809208 0.813485 0.166578
O O16 0.750000 0.814445 0.000000
O O17 0.916520 0.000000 0.750000
O O18 0.500000 0.750000 0.748914
#
# Coordination Sequence:
#
# PCOD8165087 Si02
#       8
#     8   8   8   8   8   8   8   8
#     4  10  24  38  55  85 109 142 185 234 274 339
#     4  11  21  38  58  81 111 148 181 226 275 335
#     4  11  21  32  55  74 110 147 180 224 268 320
#     4  10  21  33  49  76 108 146 192 223 264 315
#     4  10  20  34  49  74 110 148 186 226 260 318
#     4  10  21  38  52  80 110 142 183 224 276 321
#     4  10  21  35  52  77 108 141 184 226 270 322
#     4  10  23  39  59  82 111 145 188 224 283 330
#
# _framework density 18.349633000000001
#
# number of rings (size 3 to 8) (size 9 to 14) (size 15 to 20)
#    0.000    1.750    2.500    1.875   12.250    2.500 
#    0.000    0.000    0.000    0.000    0.000    5.250 
#    0.000    0.000    0.000    0.000    0.000    0.000 
#
# Total GULP energy -396571.911043 kJ/mol
# GULP energy per Si atom -12392.872220 kJ/mol
# Density = 1.830787 g / cm^3
# Si number density = 18.349633 Si / 1000 Ang^3
#
#
#
# Elastic Constant Matrix: (Units=GPa)
#
#
# Indices 1 2 3 4 5 6 
#
# 1 69.2509 26.9936 34.2683 0.0000 0.0000 0.0000
# 2 26.9936 105.9238 35.7526 0.0000 0.0000 0.0000
# 3 34.2683 35.7526 76.2470 -0.0001 0.0000 0.0000
# 4 0.0000 0.0000 -0.0001 22.7778 0.0000 0.0000
# 5 0.0000 0.0000 0.0000 0.0000 26.7656 0.0000
# 6 0.0000 0.0000 0.0000 0.0000 0.0000 30.6718
#
#
#
# Elastic Compliance Matrix: (Units=1/GPa)
#
#
# Indices 1 2 3 4 5 6 
#
# 1 0.019044 -0.002334 -0.007465 0.000000 0.000000 0.000000
# 2 -0.002334 0.011502 -0.004344 0.000000 0.000000 0.000000
# 3 -0.007465 -0.004344 0.018507 0.000000 0.000000 0.000000
# 4 0.000000 0.000000 0.000000 0.043902 0.000000 0.000000
# 5 0.000000 0.000000 0.000000 0.000000 0.037361 0.000000
# 6 0.000000 0.000000 0.000000 0.000000 0.000000 0.032603
#
#
# Mechanical properties :
#
#
# Convention : Reuss Voigt Hill
#
# Bulk Modulus (GPa) = 48.15248 49.49453 48.82351
# Shear Modulus (GPa) = 25.23623 26.33687 25.78655
#
# Velocity S-wave (km/s) = 3.71253 3.79262 3.75279
# Velocity P-wave (km/s) = 6.68399 6.79781 6.74114
#
# Compressibility (1/GPa) = 0.02076736
#
# Stress axis : x y z
#
# Youngs Moduli (GPa) = 52.51076 86.94277 54.03253
#
# Poissons Ratio (x) = 0.20288 0.40334
# Poissons Ratio (y) = 0.12253 0.23474
# Poissons Ratio (z) = 0.39198 0.37772
#
# Static dielectric constant tensor:
#      x y z
#    x 3.458290 0.000000 0.000000 
#    y 0.000000 3.506300 0.000000 
#    z 0.000000 0.000000 3.153810 
# 
# 
# High freq. dielectric constant tensor:
#      x y z
#    x 1.728770 0.000000 0.000000 
#    y 0.000000 1.710800 0.000000 
#    z 0.000000 0.000000 1.668910 
# 
# From -- ./inp_files/25219.got.cif
#   From: 2010.03.12/outbox.cif.g09.slc.cpg/sg24_13_cif.got.tgz:25219.got - 2010.04.14 03:06:53.
