data_PCOD8165044
_publ_section_title
;
Structure prediction by ZEFSAII (Michael W. Deem and Ramdas Pophale) SiO2 
 PCOD8165044
Probable space group: I 21 21 21
;
_chemical_formula_sum "Si O2"
_cell_formula_units_Z 60
_cell_length_a 24.840404
_cell_length_b 8.176950
_cell_length_c 13.251930
_cell_angle_alpha 90.000000
_cell_angle_beta 90.000000
_cell_angle_gamma 90.000000
_cell_volume 2691.715344
_symmetry_space_group_name_H-M "I 21 21 21"
_symmetry_group_IT_number 24
_symmetry_cell_setting 'orthorhombic'
loop_
_space_group_symop_operation_xyz
x,y,z
-x,1/2-y,z
x,-y,1/2-z
1/2-x,y,-z
1/2+x,1/2+y,1/2+z
1/2-x,-y,1/2+z
1/2+x,1/2-y,-z
-x,1/2+y,1/2-z
loop_
_atom_site_type_symbol
_atom_site_label
_atom_site_fract_x
_atom_site_fract_y
_atom_site_fract_z
Si Si1 0.932918 0.000000 0.750000
Si Si2 0.743146 0.690791 0.236821
Si Si3 0.423623 0.897137 0.969015
Si Si4 0.702893 0.884255 0.433424
Si Si5 0.114961 0.261038 0.061075
Si Si6 0.976969 0.070472 0.964062
Si Si7 0.861861 0.312859 0.278345
Si Si8 0.858176 0.804115 0.867944
O O1 0.970517 0.032909 0.845930
O O2 0.895190 0.159954 0.730435
O O3 0.747813 0.500000 0.250000
O O4 0.726673 0.791900 0.336107
O O5 0.801421 0.753931 0.194628
O O6 0.696792 0.710059 0.154029
O O7 0.405997 0.799930 0.867699
O O8 0.405992 0.083956 0.968751
O O9 0.395685 0.799476 0.058630
O O10 0.488308 0.920102 0.986763
O O11 0.750000 0.965815 0.500000
O O12 0.673541 0.758446 0.509060
O O13 0.658460 0.018320 0.407574
O O14 0.117138 0.286896 0.181669
O O15 0.080173 0.416180 0.021086
O O16 0.000000 0.250000 0.979984
O O17 0.855068 0.500000 0.250000
#
# Coordination Sequence:
#
# PCOD8165044 Si02
#       8
#     4   8   8   8   8   8   8   8
#     4  12  24  42  64  90 136 168 216 278 346 406
#     4  11  22  40  65  99 133 182 225 272 343 417
#     4  10  24  42  68  99 132 176 235 283 335 411
#     4  12  23  40  63 100 141 178 214 278 348 420
#     4  10  19  45  71  97 133 179 230 281 341 410
#     4  10  23  42  71  95 124 173 224 287 347 399
#     4   9  20  39  69  98 134 173 226 282 333 408
#     4  12  25  42  63  99 140 172 221 283 341 424
#
# _framework density 22.290617999999998
#
# number of rings (size 3 to 8) (size 9 to 14) (size 15 to 20)
#    0.000    1.333    4.000    0.800    3.733    1.067 
#    0.000    0.667   23.467    0.000    0.000    0.000 
#    0.000    0.000    0.000    0.000    0.000    0.000 
#
# Total GULP energy -371665.198144 kJ/mol
# GULP energy per Si atom -12388.839938 kJ/mol
# Density = 2.223988 g / cm^3
# Si number density = 22.290618 Si / 1000 Ang^3
#
#
#
# Elastic Constant Matrix: (Units=GPa)
#
#
# Indices 1 2 3 4 5 6 
#
# 1 107.6989 27.1613 60.3071 0.0000 0.0000 0.0000
# 2 27.1613 59.4818 30.1684 0.0000 0.0000 0.0000
# 3 60.3071 30.1684 127.7257 0.0000 0.0000 0.0000
# 4 0.0000 0.0000 0.0000 28.8703 0.0000 0.0000
# 5 0.0000 0.0000 0.0000 0.0000 28.6916 0.0000
# 6 0.0000 0.0000 0.0000 0.0000 0.0000 28.5620
#
#
#
# Elastic Compliance Matrix: (Units=1/GPa)
#
#
# Indices 1 2 3 4 5 6 
#
# 1 0.013151 -0.003245 -0.005443 0.000000 0.000000 0.000000
# 2 -0.003245 0.019900 -0.003168 0.000000 0.000000 0.000000
# 3 -0.005443 -0.003168 0.011148 0.000000 0.000000 0.000000
# 4 0.000000 0.000000 0.000000 0.034638 0.000000 0.000000
# 5 0.000000 0.000000 0.000000 0.000000 0.034853 0.000000
# 6 0.000000 0.000000 0.000000 0.000000 0.000000 0.035012
#
#
# Mechanical properties :
#
#
# Convention : Reuss Voigt Hill
#
# Bulk Modulus (GPa) = 48.81135 58.90889 53.86012
# Shear Modulus (GPa) = 27.89497 29.04276 28.46887
#
# Velocity S-wave (km/s) = 3.54138 3.61351 3.57763
# Velocity P-wave (km/s) = 6.21829 6.62533 6.42503
#
# Compressibility (1/GPa) = 0.02048704
#
# Stress axis : x y z
#
# Youngs Moduli (GPa) = 76.03745 50.25011 89.70441
#
# Poissons Ratio (x) = 0.16304 0.48828
# Poissons Ratio (y) = 0.24671 0.28422
# Poissons Ratio (z) = 0.41389 0.15921
#
# Static dielectric constant tensor:
#      x y z
#    x 4.699700 0.000000 0.000000 
#    y 0.000000 4.493680 0.000000 
#    z 0.000000 0.000000 4.011030 
# 
# 
# High freq. dielectric constant tensor:
#      x y z
#    x 1.898220 0.000000 0.000000 
#    y 0.000000 1.867690 0.000000 
#    z 0.000000 0.000000 1.872680 
# 
# From -- ./inp_files/22977.got.cif
#   From: 2010.03.12/outbox.cif.g09.slc.cpg/sg24_12_cif.got.tgz:22977.got - 2010.04.14 03:06:53.
