data_PCOD8165530
_publ_section_title
;
Structure prediction by ZEFSAII (Michael W. Deem and Ramdas Pophale) SiO2 
 PCOD8165530
Probable space group: I 21 21 21
;
_chemical_formula_sum "Si O2"
_cell_formula_units_Z 64
_cell_length_a 8.890478
_cell_length_b 11.982736
_cell_length_c 27.082249
_cell_angle_alpha 90.000000
_cell_angle_beta 90.000000
_cell_angle_gamma 90.000000
_cell_volume 2885.132942
_symmetry_space_group_name_H-M "I 21 21 21"
_symmetry_group_IT_number 24
_symmetry_cell_setting 'orthorhombic'
loop_
_space_group_symop_operation_xyz
x,y,z
-x,1/2-y,z
x,-y,1/2-z
1/2-x,y,-z
1/2+x,1/2+y,1/2+z
1/2-x,-y,1/2+z
1/2+x,1/2-y,-z
-x,1/2+y,1/2-z
loop_
_atom_site_type_symbol
_atom_site_label
_atom_site_fract_x
_atom_site_fract_y
_atom_site_fract_z
Si Si1 0.315332 0.983431 0.594012
Si Si2 0.174267 0.774784 0.052364
Si Si3 0.832858 0.199692 0.341843
Si Si4 0.333612 0.930985 0.704349
Si Si5 0.398222 0.647491 0.593331
Si Si6 0.674929 0.768017 0.253567
Si Si7 0.169288 0.208824 0.954185
Si Si8 0.170971 0.446268 0.190357
O O1 0.313845 0.999782 0.653132
O O2 0.483330 0.946804 0.575711
O O3 0.185941 0.888356 0.586521
O O4 0.283445 0.097067 0.564967
O O5 0.230597 0.705973 0.101398
O O6 0.000000 0.750000 0.044508
O O7 0.250000 0.739953 0.000000
O O8 0.733601 0.266122 0.301426
O O9 0.000000 0.250000 0.342815
O O10 0.824292 0.076717 0.319886
O O11 0.251559 0.811261 0.705016
O O12 0.510158 0.910546 0.712496
O O13 0.264657 0.000000 0.750000
O O14 0.500000 0.750000 0.611526
O O15 0.277075 0.682807 0.552428
O O16 0.294741 0.610413 0.638288
O O17 0.500000 0.750000 0.254477
O O18 0.710694 0.896993 0.269715
O O19 0.000000 0.250000 0.962340
O O20 0.250000 0.147292 0.000000
#
# Coordination Sequence:
#
# PCOD8165530 Si02
#       8
#     8   8   8   8   8   8   8   8
#     4  10  21  40  64  93 126 164 209 258 314 375
#     4  11  24  45  69  93 123 161 214 272 321 375
#     4  11  23  44  68  90 122 167 222 268 310 374
#     4  11  21  38  66  93 123 168 215 255 308 380
#     4   9  18  34  58  89 125 160 202 258 314 376
#     4  12  25  38  58  95 138 170 206 261 322 382
#     4  11  22  38  60  91 129 166 208 257 314 382
#     4  11  21  39  65  92 123 168 217 261 310 372
#
# _framework density 22.182687999999999
#
# number of rings (size 3 to 8) (size 9 to 14) (size 15 to 20)
#    0.000    1.250    0.000   10.500    0.000    3.500 
#    0.000   10.000    0.000    0.000    0.000    0.000 
#    0.000    0.000    0.000    0.000    0.000    0.000 
#
# Total GULP energy -396431.327641 kJ/mol
# GULP energy per Si atom -12388.478989 kJ/mol
# Density = 2.213220 g / cm^3
# Si number density = 22.182688 Si / 1000 Ang^3
#
#
#
# Elastic Constant Matrix: (Units=GPa)
#
#
# Indices 1 2 3 4 5 6 
#
# 1 117.4692 41.0992 53.9072 0.0000 0.0000 0.0000
# 2 41.0992 90.3207 36.0874 0.0000 0.0000 0.0000
# 3 53.9072 36.0874 118.2959 0.0000 0.0000 0.0000
# 4 0.0000 0.0000 0.0000 24.9513 0.0000 0.0000
# 5 0.0000 0.0000 0.0000 0.0000 37.8687 0.0000
# 6 0.0000 0.0000 0.0000 0.0000 0.0000 14.7884
#
#
#
# Elastic Compliance Matrix: (Units=1/GPa)
#
#
# Indices 1 2 3 4 5 6 
#
# 1 0.011732 -0.003647 -0.004234 0.000000 0.000000 0.000000
# 2 -0.003647 0.013742 -0.002530 0.000000 0.000000 0.000000
# 3 -0.004234 -0.002530 0.011155 0.000000 0.000000 0.000000
# 4 0.000000 0.000000 0.000000 0.040078 0.000000 0.000000
# 5 0.000000 0.000000 0.000000 0.000000 0.026407 0.000000
# 6 0.000000 0.000000 0.000000 0.000000 0.000000 0.067620
#
#
# Mechanical properties :
#
#
# Convention : Reuss Voigt Hill
#
# Bulk Modulus (GPa) = 63.26392 65.36370 64.31381
# Shear Modulus (GPa) = 25.40341 28.52116 26.96228
#
# Velocity S-wave (km/s) = 3.38774 3.58961 3.49013
# Velocity P-wave (km/s) = 6.62448 6.83451 6.73031
#
# Compressibility (1/GPa) = 0.01580680
#
# Stress axis : x y z
#
# Youngs Moduli (GPa) = 85.23992 72.76933 89.64981
#
# Poissons Ratio (x) = 0.26537 0.37954
# Poissons Ratio (y) = 0.31085 0.22684
# Poissons Ratio (z) = 0.36087 0.18413
#
# Static dielectric constant tensor:
#      x y z
#    x 3.718600 0.000000 0.000000 
#    y 0.000000 4.161960 0.000000 
#    z 0.000000 0.000000 4.429410 
# 
# 
# High freq. dielectric constant tensor:
#      x y z
#    x 1.836340 0.000000 0.000000 
#    y 0.000000 1.875010 0.000000 
#    z 0.000000 0.000000 1.891330 
# 
# From -- ./inp_files/38438.got.cif
#   From: 2010.03.12/outbox.cif.g09.slc.cpg/sg24_20_cif.got.tgz:38438.got - 2010.04.14 03:06:53.
