data_PCOD8165280
_publ_section_title
;
Structure prediction by ZEFSAII (Michael W. Deem and Ramdas Pophale) SiO2 
 PCOD8165280
Probable space group: I 21 21 21
;
_chemical_formula_sum "Si O2"
_cell_formula_units_Z 40
_cell_length_a 9.614323
_cell_length_b 8.377575
_cell_length_c 24.626272
_cell_angle_alpha 90.000000
_cell_angle_beta 90.000000
_cell_angle_gamma 90.000000
_cell_volume 1983.515986
_symmetry_space_group_name_H-M "I 21 21 21"
_symmetry_group_IT_number 24
_symmetry_cell_setting 'orthorhombic'
loop_
_space_group_symop_operation_xyz
x,y,z
-x,1/2-y,z
x,-y,1/2-z
1/2-x,y,-z
1/2+x,1/2+y,1/2+z
1/2-x,-y,1/2+z
1/2+x,1/2-y,-z
-x,1/2+y,1/2-z
loop_
_atom_site_type_symbol
_atom_site_label
_atom_site_fract_x
_atom_site_fract_y
_atom_site_fract_z
Si Si1 0.630517 0.143418 0.214798
Si Si2 0.803114 0.645963 0.892604
Si Si3 0.500000 0.250000 0.028551
Si Si4 0.750000 0.548239 0.500000
Si Si5 0.144258 0.161285 0.282024
Si Si6 0.600236 0.010588 0.391441
O O1 0.500000 0.250000 0.199563
O O2 0.750856 0.231455 0.247251
O O3 0.569473 0.000000 0.250000
O O4 0.685417 0.069994 0.158133
O O5 0.748872 0.557757 0.946040
O O6 0.699532 0.624646 0.842301
O O7 0.816693 0.831800 0.910033
O O8 0.947077 0.567433 0.872709
O O9 0.387950 0.155357 0.992853
O O10 0.410335 0.377892 0.062364
O O11 0.000000 0.250000 0.288605
O O12 0.117302 0.000000 0.250000
#
# Coordination Sequence:
#
# PCOD8165280 Si02
#       6
#     8   8   4   4   8   8
#     4  12  21  36  67  98 126 170 216 269 319 378
#     4  10  22  45  65  97 132 173 217 266 331 389
#     4  10  22  44  68 100 130 162 222 278 320 378
#     4  10  24  46  70  98 130 170 220 276 324 390
#     4  12  27  44  61  94 139 178 214 264 333 395
#     4  10  20  38  71  97 125 163 222 276 313 378
#
# _framework density 20.166208999999998
#
# number of rings (size 3 to 8) (size 9 to 14) (size 15 to 20)
#    0.000    1.200    3.000    3.600    2.800    0.800 
#   12.600    0.000    0.000    0.000    0.000    0.000 
#    0.000    0.000    0.000    0.000    0.000    0.000 
#
# Total GULP energy -247979.566144 kJ/mol
# GULP energy per Si atom -12398.978307 kJ/mol
# Density = 2.012031 g / cm^3
# Si number density = 20.166209 Si / 1000 Ang^3
#
#
#
# Elastic Constant Matrix: (Units=GPa)
#
#
# Indices 1 2 3 4 5 6 
#
# 1 94.8044 51.6150 66.7903 0.0000 0.0000 0.0000
# 2 51.6150 139.6192 71.4443 0.0000 0.0000 0.0000
# 3 66.7903 71.4443 138.2926 0.0000 0.0000 0.0000
# 4 0.0000 0.0000 0.0000 31.3008 0.0000 0.0000
# 5 0.0000 0.0000 0.0000 0.0000 25.7491 0.0000
# 6 0.0000 0.0000 0.0000 0.0000 0.0000 -1.9022
#
#
#
# Elastic Compliance Matrix: (Units=1/GPa)
#
#
# Indices 1 2 3 4 5 6 
#
# 1 0.016751 -0.002791 -0.006649 0.000000 0.000000 0.000000
# 2 -0.002791 0.010201 -0.003922 0.000000 0.000000 0.000000
# 3 -0.006649 -0.003922 0.012468 0.000000 0.000000 0.000000
# 4 0.000000 0.000000 0.000000 0.031948 0.000000 0.000000
# 5 0.000000 0.000000 0.000000 0.000000 0.038836 0.000000
# 6 0.000000 0.000000 0.000000 0.000000 0.000000 -0.525720
#
#
# Mechanical properties :
#
#
# Convention : Reuss Voigt Hill
#
# Bulk Modulus (GPa) = 78.75365 83.60171 81.17768
# Shear Modulus (GPa) = -13.00191 23.22065 5.10937
#
# Velocity S-wave (km/s) = -2.54192 3.39700 1.59346
# Velocity P-wave (km/s) = 5.52466 7.54536 6.61265
#
# Compressibility (1/GPa) = 0.01269782
#
# Stress axis : x y z
#
# Youngs Moduli (GPa) = 59.69679 98.02932 80.20253
#
# Poissons Ratio (x) = 0.27355 0.53324
# Poissons Ratio (y) = 0.16659 0.31458
# Poissons Ratio (z) = 0.39690 0.38450
#
# Static dielectric constant tensor:
#      x y z
#    x 3.328180 0.000000 0.000000 
#    y 0.000000 4.162060 0.000000 
#    z 0.000000 0.000000 3.635650 
# 
# 
# High freq. dielectric constant tensor:
#      x y z
#    x 1.767410 0.000000 0.000000 
#    y 0.000000 1.818280 0.000000 
#    z 0.000000 0.000000 1.785060 
# 
# From -- ./inp_files/9344.got.cif
#   From: 2010.03.12/outbox.cif.g09.slc.cpg/sg24_5_cif.got.tgz:9344.got - 2010.04.14 03:06:53.
