data_PCOD8165100
_publ_section_title
;
Structure prediction by ZEFSAII (Michael W. Deem and Ramdas Pophale) SiO2 
 PCOD8165100
Probable space group: I 21 21 21
;
_chemical_formula_sum "Si O2"
_cell_formula_units_Z 56
_cell_length_a 8.785338
_cell_length_b 22.654789
_cell_length_c 14.073053
_cell_angle_alpha 90.000000
_cell_angle_beta 90.000000
_cell_angle_gamma 90.000000
_cell_volume 2800.959439
_symmetry_space_group_name_H-M "I 21 21 21"
_symmetry_group_IT_number 24
_symmetry_cell_setting 'orthorhombic'
loop_
_space_group_symop_operation_xyz
x,y,z
-x,1/2-y,z
x,-y,1/2-z
1/2-x,y,-z
1/2+x,1/2+y,1/2+z
1/2-x,-y,1/2+z
1/2+x,1/2-y,-z
-x,1/2+y,1/2-z
loop_
_atom_site_type_symbol
_atom_site_label
_atom_site_fract_x
_atom_site_fract_y
_atom_site_fract_z
Si Si1 0.320253 0.136921 0.699751
Si Si2 0.830683 0.978987 0.856627
Si Si3 0.321289 0.595731 0.592357
Si Si4 0.819866 0.250000 0.604252
Si Si5 0.320253 0.636921 0.800249
Si Si6 0.821289 0.595731 0.407643
Si Si7 0.669316 0.478988 0.356627
O O1 0.233344 0.193627 0.662857
O O2 0.500000 0.144697 0.686962
O O3 0.274741 0.128699 0.810535
O O4 0.265623 0.081288 0.637375
O O5 0.734380 0.918710 0.862625
O O6 1.000000 0.969174 0.899529
O O7 0.845379 0.000000 0.750000
O O8 0.741439 0.029124 0.913187
O O9 0.250000 0.629157 0.500000
O O10 0.274741 0.628698 0.689465
O O11 0.500000 0.593585 0.582007
O O12 0.750000 0.250000 0.500000
O O13 0.766655 0.193628 0.662858
O O14 0.000000 0.250000 0.594836
O O15 0.750000 0.629158 0.500000
O O16 0.758560 0.529124 0.413187
O O17 0.654616 0.500000 0.250000
#
# Coordination Sequence:
#
# PCOD8165100 Si02
#       7
#     8   8   8   8   8   8   8
#     4  10  21  39  60  84 116 151 190 237 286 334
#     4   9  17  31  53  81 113 148 186 228 276 329
#     4  10  20  34  56  86 120 155 190 231 280 337
#     4  12  26  44  65  86 109 142 187 236 286 340
#     4  10  21  39  60  84 116 151 190 237 286 334
#     4  10  20  34  56  86 120 155 190 231 280 337
#     4   9  17  31  53  81 113 148 186 228 276 329
#
# _framework density 19.993148000000001
#
# number of rings (size 3 to 8) (size 9 to 14) (size 15 to 20)
#    0.000    2.000    0.000    3.857    0.000    8.000 
#    0.000    6.429    0.000    0.000    0.000    0.000 
#    0.000    0.000    0.000    0.000    0.000    0.000 
#
# Total GULP energy -347150.652528 kJ/mol
# GULP energy per Si atom -12398.237590 kJ/mol
# Density = 1.994764 g / cm^3
# Si number density = 19.993148 Si / 1000 Ang^3
#
#
#
# Elastic Constant Matrix: (Units=GPa)
#
#
# Indices 1 2 3 4 5 6 
#
# 1 139.2280 62.2885 64.1178 -0.0001 0.0000 0.0000
# 2 62.2885 121.6740 55.6353 0.0000 0.0000 0.0000
# 3 64.1178 55.6353 122.0283 -0.0004 0.0001 0.0000
# 4 -0.0001 0.0000 -0.0004 30.0842 0.0001 0.0000
# 5 0.0000 0.0000 0.0001 0.0001 34.1558 0.0000
# 6 0.0000 0.0000 0.0000 0.0000 0.0000 36.7999
#
#
#
# Elastic Compliance Matrix: (Units=1/GPa)
#
#
# Indices 1 2 3 4 5 6 
#
# 1 0.010617 -0.003644 -0.003917 0.000000 0.000000 0.000000
# 2 -0.003644 0.011634 -0.003390 0.000000 0.000000 0.000000
# 3 -0.003917 -0.003390 0.011798 0.000000 0.000000 0.000000
# 4 0.000000 0.000000 0.000000 0.033240 0.000000 0.000000
# 5 0.000000 0.000000 0.000000 0.000000 0.029278 0.000000
# 6 0.000000 0.000000 0.000000 0.000000 0.000000 0.027174
#
#
# Mechanical properties :
#
#
# Convention : Reuss Voigt Hill
#
# Bulk Modulus (GPa) = 82.31813 83.00150 82.65981
# Shear Modulus (GPa) = 33.40225 33.60057 33.50141
#
# Velocity S-wave (km/s) = 4.09184 4.10397 4.09790
# Velocity P-wave (km/s) = 7.97413 8.00386 7.98901
#
# Compressibility (1/GPa) = 0.01214799
#
# Stress axis : x y z
#
# Youngs Moduli (GPa) = 94.19270 85.95524 84.75805
#
# Poissons Ratio (x) = 0.31321 0.33199
# Poissons Ratio (y) = 0.34323 0.28729
# Poissons Ratio (z) = 0.36895 0.29135
#
# Static dielectric constant tensor:
#      x y z
#    x 3.836020 0.000000 0.000000 
#    y 0.000000 3.559470 0.000000 
#    z 0.000000 0.000000 3.913010 
# 
# 
# High freq. dielectric constant tensor:
#      x y z
#    x 1.797670 0.000000 0.000000 
#    y 0.000000 1.756410 0.000000 
#    z 0.000000 0.000000 1.789760 
# 
# From -- ./inp_files/13171.got.cif
#   From: 2010.03.12/outbox.cif.g09.slc.cpg/sg24_7_cif.got.tgz:13171.got - 2010.04.14 03:06:53.
