data_PCOD8165538
_publ_section_title
;
Structure prediction by ZEFSAII (Michael W. Deem and Ramdas Pophale) SiO2 
 PCOD8165538
Probable space group: I 21 21 21
;
_chemical_formula_sum "Si O2"
_cell_formula_units_Z 52
_cell_length_a 17.742965
_cell_length_b 8.344775
_cell_length_c 16.608567
_cell_angle_alpha 90.000000
_cell_angle_beta 90.000000
_cell_angle_gamma 90.000000
_cell_volume 2459.081882
_symmetry_space_group_name_H-M "I 21 21 21"
_symmetry_group_IT_number 24
_symmetry_cell_setting 'orthorhombic'
loop_
_space_group_symop_operation_xyz
x,y,z
-x,1/2-y,z
x,-y,1/2-z
1/2-x,y,-z
1/2+x,1/2+y,1/2+z
1/2-x,-y,1/2+z
1/2+x,1/2-y,-z
-x,1/2+y,1/2-z
loop_
_atom_site_type_symbol
_atom_site_label
_atom_site_fract_x
_atom_site_fract_y
_atom_site_fract_z
Si Si1 0.942563 0.500000 0.750000
Si Si2 0.085607 0.736535 0.491121
Si Si3 0.285673 0.929611 0.584980
Si Si4 0.278621 0.721145 0.877983
Si Si5 0.850126 0.261344 0.845659
Si Si6 0.633746 0.126165 0.479723
Si Si7 0.782563 0.000000 0.750000
Si Si8 0.000000 0.250000 0.626723
O O1 0.885632 0.360344 0.773972
O O2 0.992171 0.413073 0.680585
O O3 0.133713 0.843610 0.428495
O O4 0.092706 0.802214 0.581750
O O5 0.116614 0.558692 0.503516
O O6 0.000000 0.750000 0.461040
O O7 0.250000 0.981447 0.500000
O O8 0.234862 0.801948 0.630273
O O9 0.283527 0.088935 0.639643
O O10 0.208637 0.656045 0.929133
O O11 0.272719 0.630047 0.792321
O O12 0.354813 0.690487 0.929150
O O13 0.840498 0.079462 0.814509
O O14 0.569469 0.224104 0.433404
#
# Coordination Sequence:
#
# PCOD8165538 Si02
#       8
#     4   8   8   8   8   8   4   4
#     4  12  28  39  60  96 145 182 218 272 336 421
#     4  11  24  38  63  93 135 175 225 274 336 405
#     4  10  21  40  65  92 129 178 235 278 324 398
#     4  11  23  40  67  96 130 174 235 280 333 403
#     4  11  23  39  61  91 132 179 222 271 334 404
#     4  11  23  42  64  94 134 180 225 276 332 408
#     4  12  22  39  68  98 129 170 222 294 344 391
#     4  12  28  42  64  98 148 184 222 270 350 416
#
# _framework density 21.146103
#
# number of rings (size 3 to 8) (size 9 to 14) (size 15 to 20)
#    0.000    0.923    3.077    4.615   11.846    0.615 
#    0.000    0.000    0.000    0.000    8.000    1.077 
#    0.000    0.000    0.000    0.000    0.000    0.000 
#
# Total GULP energy -322166.918824 kJ/mol
# GULP energy per Si atom -12391.035339 kJ/mol
# Density = 2.109797 g / cm^3
# Si number density = 21.146103 Si / 1000 Ang^3
#
#
#
# Elastic Constant Matrix: (Units=GPa)
#
#
# Indices 1 2 3 4 5 6 
#
# 1 122.2442 37.6195 33.0459 0.0000 0.0000 0.0000
# 2 37.6195 118.1805 12.1980 0.0000 0.0000 0.0000
# 3 33.0459 12.1980 54.1373 0.0000 0.0000 0.0000
# 4 0.0000 0.0000 0.0000 46.3709 0.0000 0.0000
# 5 0.0000 0.0000 0.0000 0.0000 -10.9013 0.0000
# 6 0.0000 0.0000 0.0000 0.0000 0.0000 29.3981
#
#
#
# Elastic Compliance Matrix: (Units=1/GPa)
#
#
# Indices 1 2 3 4 5 6 
#
# 1 0.010617 -0.002775 -0.005856 0.000000 0.000000 0.000000
# 2 -0.002775 0.009389 -0.000421 0.000000 0.000000 0.000000
# 3 -0.005856 -0.000421 0.022141 0.000000 0.000000 0.000000
# 4 0.000000 0.000000 0.000000 0.021565 0.000000 0.000000
# 5 0.000000 0.000000 0.000000 0.000000 -0.091732 0.000000
# 6 0.000000 0.000000 0.000000 0.000000 0.000000 0.034016
#
#
# Mechanical properties :
#
#
# Convention : Reuss Voigt Hill
#
# Bulk Modulus (GPa) = 41.59350 51.14321 46.36835
# Shear Modulus (GPa) = 155.69335 27.08677 91.39006
#
# Velocity S-wave (km/s) = 8.58995 3.58290 6.58120
# Velocity P-wave (km/s) = 10.86717 6.43073 8.92888
#
# Compressibility (1/GPa) = 0.02404222
#
# Stress axis : x y z
#
# Youngs Moduli (GPa) = 94.18527 106.51245 45.16547
#
# Poissons Ratio (x) = 0.29561 0.26447
# Poissons Ratio (y) = 0.26140 0.01903
# Poissons Ratio (z) = 0.55151 0.04487
#
# Static dielectric constant tensor:
#      x y z
#    x 3.771910 0.000000 0.000000 
#    y 0.000000 4.079460 0.000000 
#    z 0.000000 0.000000 4.066130 
# 
# 
# High freq. dielectric constant tensor:
#      x y z
#    x 1.807710 0.000000 0.000000 
#    y 0.000000 1.849660 0.000000 
#    z 0.000000 0.000000 1.813940 
# 
# From -- ./inp_files/31174.got.cif
#   From: 2010.03.12/outbox.cif.g09.slc.cpg/sg24_16_cif.got.tgz:31174.got - 2010.04.14 03:06:53.
