data_PCOD8165780
_publ_section_title
;
Structure prediction by ZEFSAII (Michael W. Deem and Ramdas Pophale) SiO2 
 PCOD8165780
Probable space group: I 21 21 21
;
_chemical_formula_sum "Si O2"
_cell_formula_units_Z 56
_cell_length_a 21.399314
_cell_length_b 14.020784
_cell_length_c 8.928505
_cell_angle_alpha 90.000000
_cell_angle_beta 90.000000
_cell_angle_gamma 90.000000
_cell_volume 2678.865420
_symmetry_space_group_name_H-M "I 21 21 21"
_symmetry_group_IT_number 24
_symmetry_cell_setting 'orthorhombic'
loop_
_space_group_symop_operation_xyz
x,y,z
-x,1/2-y,z
x,-y,1/2-z
1/2-x,y,-z
1/2+x,1/2+y,1/2+z
1/2-x,-y,1/2+z
1/2+x,1/2-y,-z
-x,1/2+y,1/2-z
loop_
_atom_site_type_symbol
_atom_site_label
_atom_site_fract_x
_atom_site_fract_y
_atom_site_fract_z
Si Si1 0.390487 0.850270 0.405889
Si Si2 0.829653 0.230815 0.655919
Si Si3 0.573951 0.114911 0.740640
Si Si4 0.531795 0.500000 0.250000
Si Si5 0.304661 0.728224 0.820514
Si Si6 0.457695 0.341128 0.408643
Si Si7 0.500000 0.750000 0.548874
Si Si8 0.296613 0.087724 0.863334
O O1 0.341272 0.814787 0.278796
O O2 0.442643 0.771577 0.439411
O O3 0.361335 0.881157 0.563015
O O4 0.422845 0.946003 0.358657
O O5 0.829021 0.266841 0.481979
O O6 0.763433 0.174086 0.675584
O O7 0.889443 0.161969 0.668817
O O8 0.643552 0.162133 0.761497
O O9 0.546998 0.148764 0.584791
O O10 0.523747 0.157997 0.857212
O O11 0.579193 0.000000 0.750000
O O12 0.488648 0.435188 0.349844
O O13 0.279546 0.819886 0.731915
O O14 0.500000 0.250000 0.367270
O O15 0.303307 0.000000 0.750000
O O16 0.250000 0.063436 0.000000
#
# Coordination Sequence:
#
# PCOD8165780 Si02
#       8
#     8   8   8   4   8   8   4   8
#     4  12  25  40  68 100 137 181 229 288 351 418
#     4  10  22  43  73  92 134 182 231 285 355 413
#     4  11  24  44  72 103 140 184 240 289 356 432
#     4  12  26  40  66 102 140 180 232 284 350 426
#     4  10  23  47  70  96 135 185 230 293 351 415
#     4  11  22  44  68 101 139 184 230 292 360 415
#     4  12  24  44  68 104 140 186 230 294 358 424
#     4  12  28  42  67 104 137 182 236 289 354 423
#
# _framework density 20.904371999999999
#
# number of rings (size 3 to 8) (size 9 to 14) (size 15 to 20)
#    0.000    0.857    5.000    1.714    5.000    1.714 
#    1.286    0.000    9.429    0.000    0.000    0.000 
#    0.000    0.000    0.000    0.000    0.000    0.000 
#
# Total GULP energy -346875.891251 kJ/mol
# GULP energy per Si atom -12388.424688 kJ/mol
# Density = 2.085679 g / cm^3
# Si number density = 20.904372 Si / 1000 Ang^3
#
#
#
# Elastic Constant Matrix: (Units=GPa)
#
#
# Indices 1 2 3 4 5 6 
#
# 1 133.7208 37.5139 32.1925 0.0000 0.0000 0.0000
# 2 37.5139 98.6258 25.6115 0.0000 0.0000 0.0000
# 3 32.1925 25.6115 78.6706 0.0000 0.0000 0.0000
# 4 0.0000 0.0000 0.0000 24.0112 0.0000 0.0000
# 5 0.0000 0.0000 0.0000 0.0000 29.6376 0.0000
# 6 0.0000 0.0000 0.0000 0.0000 0.0000 32.9980
#
#
#
# Elastic Compliance Matrix: (Units=1/GPa)
#
#
# Indices 1 2 3 4 5 6 
#
# 1 0.008893 -0.002663 -0.002772 0.000000 0.000000 0.000000
# 2 -0.002663 0.011873 -0.002776 0.000000 0.000000 0.000000
# 3 -0.002772 -0.002776 0.014749 0.000000 0.000000 0.000000
# 4 0.000000 0.000000 0.000000 0.041647 0.000000 0.000000
# 5 0.000000 0.000000 0.000000 0.000000 0.033741 0.000000
# 6 0.000000 0.000000 0.000000 0.000000 0.000000 0.030305
#
#
# Mechanical properties :
#
#
# Convention : Reuss Voigt Hill
#
# Bulk Modulus (GPa) = 52.37263 55.73923 54.05593
# Shear Modulus (GPa) = 30.48908 31.70932 31.09920
#
# Velocity S-wave (km/s) = 3.82318 3.89893 3.86124
# Velocity P-wave (km/s) = 6.67808 6.85498 6.76711
#
# Compressibility (1/GPa) = 0.01909394
#
# Stress axis : x y z
#
# Youngs Moduli (GPa) = 112.45319 84.22549 67.80018
#
# Poissons Ratio (x) = 0.22426 0.18795
# Poissons Ratio (y) = 0.29941 0.18819
# Poissons Ratio (z) = 0.31173 0.23379
#
# Static dielectric constant tensor:
#      x y z
#    x 4.567950 0.000000 0.000000 
#    y 0.000000 3.396980 0.000000 
#    z 0.000000 0.000000 3.899060 
# 
# 
# High freq. dielectric constant tensor:
#      x y z
#    x 1.845110 0.000000 0.000000 
#    y 0.000000 1.788980 0.000000 
#    z 0.000000 0.000000 1.836190 
# 
# From -- ./inp_files/15291.got.cif
#   From: 2010.03.12/outbox.cif.g09.slc.cpg/sg24_8_cif.got.tgz:15291.got - 2010.04.14 03:06:53.
