data_PCOD8165337
_publ_section_title
;
Structure prediction by ZEFSAII (Michael W. Deem and Ramdas Pophale) SiO2 
 PCOD8165337
Probable space group: I 21 21 21
;
_chemical_formula_sum "Si O2"
_cell_formula_units_Z 56
_cell_length_a 13.912765
_cell_length_b 17.138768
_cell_length_c 11.343387
_cell_angle_alpha 90.000000
_cell_angle_beta 90.000000
_cell_angle_gamma 90.000000
_cell_volume 2704.803991
_symmetry_space_group_name_H-M "I 21 21 21"
_symmetry_group_IT_number 24
_symmetry_cell_setting 'orthorhombic'
loop_
_space_group_symop_operation_xyz
x,y,z
-x,1/2-y,z
x,-y,1/2-z
1/2-x,y,-z
1/2+x,1/2+y,1/2+z
1/2-x,-y,1/2+z
1/2+x,1/2-y,-z
-x,1/2+y,1/2-z
loop_
_atom_site_type_symbol
_atom_site_label
_atom_site_fract_x
_atom_site_fract_y
_atom_site_fract_z
Si Si1 0.553630 0.098644 0.920656
Si Si2 0.894856 0.590455 0.252847
Si Si3 0.788676 0.150375 0.249055
Si Si4 0.730896 0.309217 0.361308
Si Si5 0.484463 0.836854 0.122528
Si Si6 0.934548 0.078861 0.409295
Si Si7 0.593521 0.917307 0.307373
O O1 0.442351 0.115814 0.879719
O O2 0.630438 0.156215 0.855316
O O3 0.578329 0.011500 0.877556
O O4 0.561405 0.097245 0.059524
O O5 0.867184 0.500000 0.250000
O O6 0.801194 0.634870 0.210709
O O7 0.977188 0.614783 0.161946
O O8 0.736236 0.230380 0.285056
O O9 0.836224 0.120186 0.370236
O O10 0.708044 0.090779 0.203435
O O11 0.750000 0.295700 0.500000
O O12 0.627912 0.351605 0.357202
O O13 0.500000 0.750000 0.070190
O O14 0.538011 0.845973 0.246076
O O15 0.539151 0.901925 0.043696
O O16 0.561511 0.000000 0.250000
#
# Coordination Sequence:
#
# PCOD8165337 Si02
#       7
#     8   8   8   8   8   8   8
#     4  10  22  44  65  94 136 183 225 279 346 429
#     4   9  21  42  66  96 125 168 233 281 342 414
#     4  11  24  39  65 103 134 170 225 279 366 425
#     4  12  24  42  68  99 132 175 227 292 358 424
#     4  12  24  42  62  96 134 167 225 290 351 406
#     4  10  20  40  69  94 131 170 219 289 341 420
#     4  12  24  41  65  95 133 182 230 280 344 427
#
# _framework density 20.703903
#
# number of rings (size 3 to 8) (size 9 to 14) (size 15 to 20)
#    0.000    1.143    4.286    3.429    0.000    2.286 
#    2.571    0.714    0.000    0.000    0.000    0.000 
#    0.000    0.000    0.000    0.000    0.000    0.000 
#
# Total GULP energy -346964.858106 kJ/mol
# GULP energy per Si atom -12391.602075 kJ/mol
# Density = 2.065678 g / cm^3
# Si number density = 20.703903 Si / 1000 Ang^3
#
#
#
# Elastic Constant Matrix: (Units=GPa)
#
#
# Indices 1 2 3 4 5 6 
#
# 1 105.3356 12.9014 53.2598 0.0000 0.0000 0.0000
# 2 12.9014 51.2832 26.7607 0.0000 0.0000 0.0000
# 3 53.2598 26.7607 145.4315 0.0000 0.0000 0.0000
# 4 0.0000 0.0000 0.0000 31.3372 0.0000 0.0000
# 5 0.0000 0.0000 0.0000 0.0000 36.3610 0.0000
# 6 0.0000 0.0000 0.0000 0.0000 0.0000 30.3499
#
#
#
# Elastic Compliance Matrix: (Units=1/GPa)
#
#
# Indices 1 2 3 4 5 6 
#
# 1 0.011679 -0.000781 -0.004133 0.000000 0.000000 0.000000
# 2 -0.000781 0.021623 -0.003693 0.000000 0.000000 0.000000
# 3 -0.004133 -0.003693 0.009069 0.000000 0.000000 0.000000
# 4 0.000000 0.000000 0.000000 0.031911 0.000000 0.000000
# 5 0.000000 0.000000 0.000000 0.000000 0.027502 0.000000
# 6 0.000000 0.000000 0.000000 0.000000 0.000000 0.032949
#
#
# Mechanical properties :
#
#
# Convention : Reuss Voigt Hill
#
# Bulk Modulus (GPa) = 39.75077 54.21047 46.98062
# Shear Modulus (GPa) = 31.18501 33.55154 32.36827
#
# Velocity S-wave (km/s) = 3.88524 4.02996 3.95826
# Velocity P-wave (km/s) = 6.27440 6.92060 6.60541
#
# Compressibility (1/GPa) = 0.02515674
#
# Stress axis : x y z
#
# Youngs Moduli (GPa) = 85.62345 46.24700 110.26231
#
# Poissons Ratio (x) = 0.03613 0.45575
# Poissons Ratio (y) = 0.06689 0.40717
# Poissons Ratio (z) = 0.35391 0.17078
#
# Static dielectric constant tensor:
#      x y z
#    x 3.857910 0.000000 0.000000 
#    y 0.000000 3.631730 0.000000 
#    z 0.000000 0.000000 3.906780 
# 
# 
# High freq. dielectric constant tensor:
#      x y z
#    x 1.814090 0.000000 0.000000 
#    y 0.000000 1.797370 0.000000 
#    z 0.000000 0.000000 1.813470 
# 
# From -- ./inp_files/20836.got.cif
#   From: 2010.03.12/outbox.cif.g09.slc.cpg/sg24_11_cif.got.tgz:20836.got - 2010.04.14 03:06:53.
