data_PCOD8165285
_publ_section_title
;
Structure prediction by ZEFSAII (Michael W. Deem and Ramdas Pophale) SiO2 
 PCOD8165285
Probable space group: I 21 21 21
;
_chemical_formula_sum "Si O2"
_cell_formula_units_Z 40
_cell_length_a 7.715679
_cell_length_b 8.934951
_cell_length_c 27.221646
_cell_angle_alpha 90.000000
_cell_angle_beta 90.000000
_cell_angle_gamma 90.000000
_cell_volume 1876.638873
_symmetry_space_group_name_H-M "I 21 21 21"
_symmetry_group_IT_number 24
_symmetry_cell_setting 'orthorhombic'
loop_
_space_group_symop_operation_xyz
x,y,z
-x,1/2-y,z
x,-y,1/2-z
1/2-x,y,-z
1/2+x,1/2+y,1/2+z
1/2-x,-y,1/2+z
1/2+x,1/2-y,-z
-x,1/2+y,1/2-z
loop_
_atom_site_type_symbol
_atom_site_label
_atom_site_fract_x
_atom_site_fract_y
_atom_site_fract_z
Si Si1 0.781711 0.378649 0.945177
Si Si2 0.624650 0.066936 0.095655
Si Si3 0.013892 0.573199 0.101370
Si Si4 0.564735 0.085788 0.204275
Si Si5 0.466875 0.576234 0.702763
O O1 0.798505 0.237183 0.907962
O O2 0.624656 0.490227 0.933152
O O3 0.969703 0.462509 0.943326
O O4 0.750000 0.317620 0.000000
O O5 0.529565 0.033631 0.148197
O O6 0.788223 0.961145 0.085618
O O7 0.000000 0.750000 0.097250
O O8 0.969755 0.516941 0.155937
O O9 0.500000 0.250000 0.211799
O O10 0.765825 0.062407 0.210546
O O11 0.471949 0.000000 0.250000
O O12 0.500000 0.750000 0.695790
O O13 0.560798 0.500000 0.750000
#
# Coordination Sequence:
#
# PCOD8165285 Si02
#       5
#     8   8   8   8   8
#     4  11  24  43  72  98 124 180 232 285 346 390
#     4  10  23  44  68 100 134 163 239 285 324 415
#     4  11  24  43  64  96 141 176 215 277 343 409
#     4  10  20  39  58  93 128 169 209 267 330 395
#     4  10  21  38  63  93 129 170 225 271 332 402
#
# _framework density 21.314703000000002
#
# number of rings (size 3 to 8) (size 9 to 14) (size 15 to 20)
#    0.000    1.600    2.000    3.600    5.600    1.600 
#   14.400    0.000    0.000    0.000    0.000    0.000 
#    0.000    0.000    0.000    0.000    0.000    0.000 
#
# Total GULP energy -247767.790103 kJ/mol
# GULP energy per Si atom -12388.389505 kJ/mol
# Density = 2.126619 g / cm^3
# Si number density = 21.314703 Si / 1000 Ang^3
#
#
#
# Elastic Constant Matrix: (Units=GPa)
#
#
# Indices 1 2 3 4 5 6 
#
# 1 56.9393 36.1922 48.1909 0.0000 0.0000 0.0000
# 2 36.1922 98.1587 32.3402 0.0000 0.0000 0.0000
# 3 48.1909 32.3402 108.2757 0.0000 0.0000 0.0000
# 4 0.0000 0.0000 0.0000 26.4978 0.0000 0.0000
# 5 0.0000 0.0000 0.0000 0.0000 24.9912 0.0000
# 6 0.0000 0.0000 0.0000 0.0000 0.0000 19.6056
#
#
#
# Elastic Compliance Matrix: (Units=1/GPa)
#
#
# Indices 1 2 3 4 5 6 
#
# 1 0.033199 -0.008177 -0.012334 0.000000 0.000000 0.000000
# 2 -0.008177 0.013314 -0.000337 0.000000 0.000000 0.000000
# 3 -0.012334 -0.000337 0.014826 0.000000 0.000000 0.000000
# 4 0.000000 0.000000 0.000000 0.037739 0.000000 0.000000
# 5 0.000000 0.000000 0.000000 0.000000 0.040014 0.000000
# 6 0.000000 0.000000 0.000000 0.000000 0.000000 0.051006
#
#
# Mechanical properties :
#
#
# Convention : Reuss Voigt Hill
#
# Bulk Modulus (GPa) = 50.91023 55.20226 53.05624
# Shear Modulus (GPa) = 20.97841 23.99563 22.48702
#
# Velocity S-wave (km/s) = 3.14064 3.35890 3.25160
# Velocity P-wave (km/s) = 6.09002 6.40296 6.24845
#
# Compressibility (1/GPa) = 0.01964242
#
# Stress axis : x y z
#
# Youngs Moduli (GPa) = 30.12158 75.11069 67.45034
#
# Poissons Ratio (x) = 0.61420 0.83190
# Poissons Ratio (y) = 0.24631 0.02274
# Poissons Ratio (z) = 0.37151 0.02532
#
# Static dielectric constant tensor:
#      x y z
#    x 4.031300 0.000000 0.000000 
#    y 0.000000 3.728650 0.000000 
#    z 0.000000 0.000000 4.575410 
# 
# 
# High freq. dielectric constant tensor:
#      x y z
#    x 1.843880 0.000000 0.000000 
#    y 0.000000 1.812600 0.000000 
#    z 0.000000 0.000000 1.845290 
# 
# From -- ./inp_files/36764.got.cif
#   From: 2010.03.12/outbox.cif.g09.slc.cpg/sg24_19_cif.got.tgz:36764.got - 2010.04.14 03:06:53.
