data_PCOD8165014
_publ_section_title
;
Structure prediction by ZEFSAII (Michael W. Deem and Ramdas Pophale) SiO2 
 PCOD8165014
Probable space group: I 21 21 21
;
_chemical_formula_sum "Si O2"
_cell_formula_units_Z 56
_cell_length_a 19.510008
_cell_length_b 15.198612
_cell_length_c 9.346797
_cell_angle_alpha 90.000000
_cell_angle_beta 90.000000
_cell_angle_gamma 90.000000
_cell_volume 2771.559370
_symmetry_space_group_name_H-M "I 21 21 21"
_symmetry_group_IT_number 24
_symmetry_cell_setting 'orthorhombic'
loop_
_space_group_symop_operation_xyz
x,y,z
-x,1/2-y,z
x,-y,1/2-z
1/2-x,y,-z
1/2+x,1/2+y,1/2+z
1/2-x,-y,1/2+z
1/2+x,1/2-y,-z
-x,1/2+y,1/2-z
loop_
_atom_site_type_symbol
_atom_site_label
_atom_site_fract_x
_atom_site_fract_y
_atom_site_fract_z
Si Si1 0.338611 0.729013 0.286869
Si Si2 0.235844 0.086071 0.828445
Si Si3 0.477660 0.595095 0.778636
Si Si4 0.923935 0.781122 0.993020
Si Si5 0.624619 0.350272 0.719559
Si Si6 0.602878 0.802277 0.582425
Si Si7 0.727590 0.913832 0.656248
O O1 0.314235 0.830471 0.302001
O O2 0.381182 0.703599 0.148287
O O3 0.390901 0.701370 0.412623
O O4 0.272667 0.667392 0.286851
O O5 0.305294 0.096068 0.734341
O O6 0.201907 0.000000 0.750000
O O7 0.250000 0.073876 0.000000
O O8 0.446432 0.500000 0.750000
O O9 0.559262 0.586146 0.801862
O O10 0.470102 0.662964 0.642945
O O11 0.435492 0.630426 0.915481
O O12 0.000000 0.750000 0.953168
O O13 0.877320 0.713807 0.083138
O O14 0.620355 0.294950 0.865273
O O15 0.651531 0.875990 0.654228
O O16 0.750000 0.943379 0.500000
O O17 0.734782 0.000000 0.750000
#
# Coordination Sequence:
#
# PCOD8165014 Si02
#       7
#     8   8   8   8   8   8   8
#     4  11  22  41  62  88 130 163 204 268 321 372
#     4  12  25  43  65  97 130 168 215 266 322 386
#     4  10  21  39  62  93 121 164 217 260 304 381
#     4   9  22  39  62  91 120 159 211 257 316 379
#     4  10  20  41  64  86 123 165 208 255 310 377
#     4  10  19  38  62  83 123 165 205 250 317 374
#     4  10  21  36  57  88 122 162 206 255 310 376
#
# _framework density 20.205231999999999
#
# number of rings (size 3 to 8) (size 9 to 14) (size 15 to 20)
#    0.000    1.714    2.857    2.571    2.000    5.714 
#    0.000    0.000    0.000    0.857    0.000    0.000 
#    0.000    0.000    0.000    0.000    0.000    0.000 
#
# Total GULP energy -346973.197662 kJ/mol
# GULP energy per Si atom -12391.899917 kJ/mol
# Density = 2.015924 g / cm^3
# Si number density = 20.205232 Si / 1000 Ang^3
#
#
#
# Elastic Constant Matrix: (Units=GPa)
#
#
# Indices 1 2 3 4 5 6 
#
# 1 50.6916 13.3130 44.8463 0.0000 0.0000 0.0000
# 2 13.3130 129.5795 50.1365 0.0000 0.0000 0.0000
# 3 44.8463 50.1365 133.9668 0.0000 0.0000 0.0000
# 4 0.0000 0.0000 0.0000 4.6453 0.0000 0.0000
# 5 0.0000 0.0000 0.0000 0.0000 -35.8146 0.0000
# 6 0.0000 0.0000 0.0000 0.0000 0.0000 11.7010
#
#
#
# Elastic Compliance Matrix: (Units=1/GPa)
#
#
# Indices 1 2 3 4 5 6 
#
# 1 0.028113 0.000880 -0.009741 0.000000 0.000000 0.000000
# 2 0.000880 0.009052 -0.003682 0.000000 0.000000 0.000000
# 3 -0.009741 -0.003682 0.012103 0.000000 0.000000 0.000000
# 4 0.000000 0.000000 0.000000 0.215273 0.000000 0.000000
# 5 0.000000 0.000000 0.000000 0.000000 -0.027922 0.000000
# 6 0.000000 0.000000 0.000000 0.000000 0.000000 0.085463
#
#
# Mechanical properties :
#
#
# Convention : Reuss Voigt Hill
#
# Bulk Modulus (GPa) = 41.35071 58.98105 50.16588
# Shear Modulus (GPa) = 14.07547 9.83581 11.95564
#
# Velocity S-wave (km/s) = 2.64223 2.20874 2.43515
# Velocity P-wave (km/s) = 5.46061 5.97989 5.72614
#
# Compressibility (1/GPa) = 0.02418338
#
# Stress axis : x y z
#
# Youngs Moduli (GPa) = 35.57026 110.47853 82.62171
#
# Poissons Ratio (x) = -0.09727 0.80479
# Poissons Ratio (y) = -0.03132 0.30423
# Poissons Ratio (z) = 0.34648 0.40681
#
# Static dielectric constant tensor:
#      x y z
#    x 4.801560 0.000000 0.000000 
#    y 0.000000 3.684170 0.000000 
#    z 0.000000 0.000000 3.598990 
# 
# 
# High freq. dielectric constant tensor:
#      x y z
#    x 1.786870 0.000000 0.000000 
#    y 0.000000 1.793500 0.000000 
#    z 0.000000 0.000000 1.783560 
# 
# From -- ./inp_files/15251.got.cif
#   From: 2010.03.12/outbox.cif.g09.slc.cpg/sg24_8_cif.got.tgz:15251.got - 2010.04.14 03:06:53.
