data_PCOD8165022
_publ_section_title
;
Structure prediction by ZEFSAII (Michael W. Deem and Ramdas Pophale) SiO2 
 PCOD8165022
Probable space group: I 21 21 21
;
_chemical_formula_sum "Si O2"
_cell_formula_units_Z 60
_cell_length_a 9.166108
_cell_length_b 24.875172
_cell_length_c 12.130353
_cell_angle_alpha 90.000000
_cell_angle_beta 90.000000
_cell_angle_gamma 90.000000
_cell_volume 2765.823751
_symmetry_space_group_name_H-M "I 21 21 21"
_symmetry_group_IT_number 24
_symmetry_cell_setting 'orthorhombic'
loop_
_space_group_symop_operation_xyz
x,y,z
-x,1/2-y,z
x,-y,1/2-z
1/2-x,y,-z
1/2+x,1/2+y,1/2+z
1/2-x,-y,1/2+z
1/2+x,1/2-y,-z
-x,1/2+y,1/2-z
loop_
_atom_site_type_symbol
_atom_site_label
_atom_site_fract_x
_atom_site_fract_y
_atom_site_fract_z
Si Si1 0.001329 0.510898 0.125158
Si Si2 0.971612 0.812411 0.818575
Si Si3 0.080730 0.698393 0.474415
Si Si4 0.747931 0.931963 0.377501
Si Si5 0.046742 0.115080 0.866155
Si Si6 0.914314 0.123116 0.467524
Si Si7 0.847272 0.165215 0.249036
Si Si8 0.250000 0.949866 0.500000
O O1 0.945493 0.500000 0.250000
O O2 0.889723 0.482714 0.041491
O O3 0.169930 0.489513 0.117232
O O4 0.000053 0.571628 0.079365
O O5 0.816928 0.813248 0.757469
O O6 0.000000 0.750000 0.843400
O O7 0.079440 0.842636 0.732734
O O8 0.988789 0.847319 0.929658
O O9 0.250000 0.701815 0.500000
O O10 0.061763 0.698461 0.341042
O O11 0.000000 0.750000 0.524179
O O12 0.007107 0.646075 0.525342
O O13 0.750000 0.906308 0.500000
O O14 0.578963 0.929955 0.335384
O O15 0.843240 0.896500 0.293599
O O16 0.197104 0.085768 0.896042
O O17 0.750000 0.106864 0.500000
O O18 0.919229 0.167256 0.369365
#
# Coordination Sequence:
#
# PCOD8165022 Si02
#       8
#     8   8   8   8   8   8   8   4
#     4  12  25  43  70 101 140 178 228 286 351 414
#     4  10  22  41  69  93 137 181 228 285 336 399
#     4  12  23  37  63  98 133 170 222 286 349 408
#     4  11  17  39  69  95 123 174 219 279 335 399
#     4  11  23  42  66  99 140 179 228 280 345 417
#     4  10  23  42  69 100 128 174 241 283 328 412
#     4  10  19  38  64  95 127 165 229 285 335 403
#     4  12  28  40  66 102 148 184 222 278 364 424
#
# _framework density 21.693356999999999
#
# number of rings (size 3 to 8) (size 9 to 14) (size 15 to 20)
#    0.000    1.067    6.667    0.800    0.933    1.600 
#    0.000    0.667   16.133    0.000    0.000    0.000 
#    0.000    0.000    0.000    0.000    0.000    0.000 
#
# Total GULP energy -371714.321906 kJ/mol
# GULP energy per Si atom -12390.477397 kJ/mol
# Density = 2.164398 g / cm^3
# Si number density = 21.693357 Si / 1000 Ang^3
#
#
#
# Elastic Constant Matrix: (Units=GPa)
#
#
# Indices 1 2 3 4 5 6 
#
# 1 49.3310 33.5196 15.8451 0.0000 0.0001 0.0000
# 2 33.5196 105.7060 37.7076 0.0002 -0.0001 0.0000
# 3 15.8451 37.7076 145.6046 0.0018 0.0004 0.0005
# 4 0.0000 0.0002 0.0018 31.5439 -0.0003 0.0003
# 5 0.0001 -0.0001 0.0004 -0.0003 18.7406 -0.0001
# 6 0.0000 0.0000 0.0005 0.0003 -0.0001 21.2454
#
#
#
# Elastic Compliance Matrix: (Units=1/GPa)
#
#
# Indices 1 2 3 4 5 6 
#
# 1 0.025915 -0.007946 -0.000762 0.000000 0.000000 0.000000
# 2 -0.007946 0.012859 -0.002466 0.000000 0.000000 0.000000
# 3 -0.000762 -0.002466 0.007589 0.000000 0.000000 0.000000
# 4 0.000000 0.000000 0.000000 0.031702 0.000001 0.000000
# 5 0.000000 0.000000 0.000000 0.000001 0.053360 0.000000
# 6 0.000000 0.000000 0.000000 0.000000 0.000000 0.047069
#
#
# Mechanical properties :
#
#
# Convention : Reuss Voigt Hill
#
# Bulk Modulus (GPa) = 41.63822 52.75402 47.19612
# Shear Modulus (GPa) = 23.94088 28.54393 26.24240
#
# Velocity S-wave (km/s) = 3.32566 3.63132 3.48184
# Velocity P-wave (km/s) = 5.82944 6.47710 6.16178
#
# Compressibility (1/GPa) = 0.02401640
#
# Stress axis : x y z
#
# Youngs Moduli (GPa) = 38.58753 77.76451 131.76286
#
# Poissons Ratio (x) = 0.61790 0.10046
# Poissons Ratio (y) = 0.30661 0.32487
# Poissons Ratio (z) = 0.02942 0.19173
#
# Static dielectric constant tensor:
#      x y z
#    x 3.712710 0.000000 0.000000 
#    y 0.000000 3.778900 0.000000 
#    z 0.000000 0.000000 4.344260 
# 
# 
# High freq. dielectric constant tensor:
#      x y z
#    x 1.818500 0.000000 0.000000 
#    y 0.000000 1.841070 0.000000 
#    z 0.000000 0.000000 1.867720 
# 
# From -- ./inp_files/18821.got.cif
#   From: 2010.03.12/outbox.cif.g09.slc.cpg/sg24_10_cif.got.tgz:18821.got - 2010.04.14 03:06:53.
