data_PCOD8165030
_publ_section_title
;
Structure prediction by ZEFSAII (Michael W. Deem and Ramdas Pophale) SiO2 
 PCOD8165030
Probable space group: I 21 21 21
;
_chemical_formula_sum "Si O2"
_cell_formula_units_Z 52
_cell_length_a 10.666755
_cell_length_b 9.908894
_cell_length_c 26.077596
_cell_angle_alpha 90.000000
_cell_angle_beta 90.000000
_cell_angle_gamma 90.000000
_cell_volume 2756.290927
_symmetry_space_group_name_H-M "I 21 21 21"
_symmetry_group_IT_number 24
_symmetry_cell_setting 'orthorhombic'
loop_
_space_group_symop_operation_xyz
x,y,z
-x,1/2-y,z
x,-y,1/2-z
1/2-x,y,-z
1/2+x,1/2+y,1/2+z
1/2-x,-y,1/2+z
1/2+x,1/2-y,-z
-x,1/2+y,1/2-z
loop_
_atom_site_type_symbol
_atom_site_label
_atom_site_fract_x
_atom_site_fract_y
_atom_site_fract_z
Si Si1 0.289705 0.990424 0.053070
Si Si2 0.557508 0.887549 0.066514
Si Si3 0.782613 0.669554 0.353928
Si Si4 0.750000 0.767329 0.000000
Si Si5 0.000000 0.750000 0.287537
Si Si6 0.046242 0.114122 0.790486
Si Si7 0.687655 0.954976 0.350373
Si Si8 0.346168 0.500000 0.750000
O O1 0.221107 0.066649 0.099050
O O2 0.442109 0.991844 0.058509
O O3 0.250000 0.065751 0.000000
O O4 0.236615 0.835107 0.049326
O O5 0.500000 0.750000 0.089866
O O6 0.669339 0.938178 0.103914
O O7 0.626556 0.857974 0.011529
O O8 0.914247 0.660285 0.325045
O O9 0.685447 0.625860 0.310684
O O10 0.758581 0.823273 0.372358
O O11 0.926310 0.860780 0.252981
O O12 0.000000 0.250000 0.762213
O O13 0.954267 0.086195 0.837591
O O14 0.038220 0.000000 0.750000
O O15 0.759806 0.014544 0.300769
#
# Coordination Sequence:
#
# PCOD8165030 Si02
#       8
#     8   8   8   4   4   8   8   4
#     4   9  19  38  61  83 118 154 197 251 295 358
#     4  10  19  39  60  90 122 154 195 252 304 360
#     4  10  21  41  59  84 120 163 204 251 300 361
#     4   8  20  38  56  88 128 148 190 256 300 360
#     4  10  24  44  60  82 132 166 208 244 304 380
#     4  10  20  35  59  94 119 150 199 255 306 356
#     4  10  20  38  63  86 124 150 200 265 302 348
#     4  10  22  46  58  88 126 166 206 254 304 370
#
# _framework density 18.865932999999998
#
# number of rings (size 3 to 8) (size 9 to 14) (size 15 to 20)
#    0.462    1.846    2.308    0.000    1.077    0.615 
#   12.462    0.000    0.000    0.000    0.000    0.000 
#    0.000    0.000    0.000    0.000    0.000    0.000 
#
# Total GULP energy -322101.499383 kJ/mol
# GULP energy per Si atom -12388.519207 kJ/mol
# Density = 1.882299 g / cm^3
# Si number density = 18.865933 Si / 1000 Ang^3
#
#
#
# Elastic Constant Matrix: (Units=GPa)
#
#
# Indices 1 2 3 4 5 6 
#
# 1 100.4932 33.2006 45.9003 0.0000 0.0000 0.0000
# 2 33.2006 85.2153 51.1218 0.0000 0.0000 0.0000
# 3 45.9003 51.1218 87.9889 0.0000 0.0000 0.0000
# 4 0.0000 0.0000 0.0000 39.9978 0.0000 0.0000
# 5 0.0000 0.0000 0.0000 0.0000 14.6973 0.0000
# 6 0.0000 0.0000 0.0000 0.0000 0.0000 10.7330
#
#
#
# Elastic Compliance Matrix: (Units=1/GPa)
#
#
# Indices 1 2 3 4 5 6 
#
# 1 0.013196 -0.001553 -0.005982 0.000000 0.000000 0.000000
# 2 -0.001553 0.018196 -0.009762 0.000000 0.000000 0.000000
# 3 -0.005982 -0.009762 0.020157 0.000000 0.000000 0.000000
# 4 0.000000 0.000000 0.000000 0.025001 0.000000 0.000000
# 5 0.000000 0.000000 0.000000 0.000000 0.068040 0.000000
# 6 0.000000 0.000000 0.000000 0.000000 0.000000 0.093170
#
#
# Mechanical properties :
#
#
# Convention : Reuss Voigt Hill
#
# Bulk Modulus (GPa) = 58.97427 59.34918 59.16172
# Shear Modulus (GPa) = 17.98519 22.65061 20.31790
#
# Velocity S-wave (km/s) = 3.09093 3.46874 3.28527
# Velocity P-wave (km/s) = 6.63822 6.89707 6.76888
#
# Compressibility (1/GPa) = 0.01695655
#
# Stress axis : x y z
#
# Youngs Moduli (GPa) = 75.78017 54.95592 49.60987
#
# Poissons Ratio (x) = 0.08534 0.29675
# Poissons Ratio (y) = 0.11767 0.48430
# Poissons Ratio (z) = 0.45329 0.53649
#
# Static dielectric constant tensor:
#      x y z
#    x 3.593450 0.000000 0.000000 
#    y 0.000000 3.480200 0.000000 
#    z 0.000000 0.000000 3.234070 
# 
# 
# High freq. dielectric constant tensor:
#      x y z
#    x 1.737760 0.000000 0.000000 
#    y 0.000000 1.728160 0.000000 
#    z 0.000000 0.000000 1.708740 
# 
# From -- ./inp_files/38371.got.cif
#   From: 2010.03.12/outbox.cif.g09.slc.cpg/sg24_20_cif.got.tgz:38371.got - 2010.04.14 03:06:53.
