data_PCOD8165470
_publ_section_title
;
Structure prediction by ZEFSAII (Michael W. Deem and Ramdas Pophale) SiO2 
 PCOD8165470
Probable space group: I 21 21 21
;
_chemical_formula_sum "Si O2"
_cell_formula_units_Z 48
_cell_length_a 26.372884
_cell_length_b 9.700302
_cell_length_c 8.396728
_cell_angle_alpha 90.000000
_cell_angle_beta 90.000000
_cell_angle_gamma 90.000000
_cell_volume 2148.092432
_symmetry_space_group_name_H-M "I 21 21 21"
_symmetry_group_IT_number 24
_symmetry_cell_setting 'orthorhombic'
loop_
_space_group_symop_operation_xyz
x,y,z
-x,1/2-y,z
x,-y,1/2-z
1/2-x,y,-z
1/2+x,1/2+y,1/2+z
1/2-x,-y,1/2+z
1/2+x,1/2-y,-z
-x,1/2+y,1/2-z
loop_
_atom_site_type_symbol
_atom_site_label
_atom_site_fract_x
_atom_site_fract_y
_atom_site_fract_z
Si Si1 0.379804 0.535851 0.572442
Si Si2 0.554651 0.706682 0.599156
Si Si3 0.892835 0.535126 0.921431
Si Si4 0.054116 0.276691 0.458063
Si Si5 0.715714 0.382545 0.353697
Si Si6 0.211908 0.382847 0.861214
O O1 0.358409 0.500000 0.750000
O O2 0.401712 0.687266 0.554558
O O3 0.427335 0.434145 0.540034
O O4 0.336008 0.536794 0.440084
O O5 0.500000 0.750000 0.522444
O O6 0.576619 0.559195 0.546092
O O7 0.548206 0.705056 0.787311
O O8 0.915032 0.500000 0.750000
O O9 0.831798 0.529719 0.925086
O O10 0.902930 0.695726 0.948694
O O11 0.000000 0.250000 0.544162
O O12 0.745310 0.500000 0.250000
O O13 0.750000 0.329193 0.500000
O O14 0.699012 0.252317 0.244482
O O15 0.237412 0.500000 0.750000
O O16 0.250000 0.335609 0.000000
#
# Coordination Sequence:
#
# PCOD8165470 Si02
#       6
#     8   8   8   8   8   8
#     4  10  21  38  63  93 125 163 209 261 316 371
#     4  10  21  39  63  91 123 162 209 257 305 368
#     4  11  23  39  59  90 126 161 203 256 315 371
#     4  10  21  39  63  90 122 164 211 255 304 368
#     4  11  25  44  66  94 127 166 214 264 321 384
#     4  12  25  43  65  92 128 168 215 267 320 382
#
# _framework density 22.345407000000002
#
# number of rings (size 3 to 8) (size 9 to 14) (size 15 to 20)
#    0.000    1.333    0.000    6.000    0.000    7.333 
#    0.000    3.333    0.000    0.000    0.000    0.000 
#    0.000    0.000    0.000    0.000    0.000    0.000 
#
# Total GULP energy -297410.215587 kJ/mol
# GULP energy per Si atom -12392.092316 kJ/mol
# Density = 2.229455 g / cm^3
# Si number density = 22.345407 Si / 1000 Ang^3
#
#
#
# Elastic Constant Matrix: (Units=GPa)
#
#
# Indices 1 2 3 4 5 6 
#
# 1 97.6586 25.3162 43.2286 0.0000 0.0000 0.0000
# 2 25.3162 105.3584 33.4888 0.0000 0.0000 0.0000
# 3 43.2286 33.4888 79.5969 0.0000 0.0000 0.0000
# 4 0.0000 0.0000 0.0000 41.8941 0.0000 0.0000
# 5 0.0000 0.0000 0.0000 0.0000 28.5989 0.0000
# 6 0.0000 0.0000 0.0000 0.0000 0.0000 20.9620
#
#
#
# Elastic Compliance Matrix: (Units=1/GPa)
#
#
# Indices 1 2 3 4 5 6 
#
# 1 0.013582 -0.001061 -0.006930 0.000000 0.000000 0.000000
# 2 -0.001061 0.011040 -0.004068 0.000000 0.000000 0.000000
# 3 -0.006930 -0.004068 0.018039 0.000000 0.000000 0.000000
# 4 0.000000 0.000000 0.000000 0.023870 0.000000 0.000000
# 5 0.000000 0.000000 0.000000 0.000000 0.034966 0.000000
# 6 0.000000 0.000000 0.000000 0.000000 0.000000 0.047705
#
#
# Mechanical properties :
#
#
# Convention : Reuss Voigt Hill
#
# Bulk Modulus (GPa) = 53.93279 54.07569 54.00424
# Shear Modulus (GPa) = 27.85487 30.32969 29.09228
#
# Velocity S-wave (km/s) = 3.53449 3.68817 3.61215
# Velocity P-wave (km/s) = 6.39103 6.51070 6.45114
#
# Compressibility (1/GPa) = 0.01854160
#
# Stress axis : x y z
#
# Youngs Moduli (GPa) = 73.62453 90.58366 55.43604
#
# Poissons Ratio (x) = 0.09610 0.38418
# Poissons Ratio (y) = 0.07811 0.22554
# Poissons Ratio (z) = 0.51023 0.36854
#
# Static dielectric constant tensor:
#      x y z
#    x 3.886950 0.000000 0.000000 
#    y 0.000000 3.920600 0.000000 
#    z 0.000000 0.000000 4.060730 
# 
# 
# High freq. dielectric constant tensor:
#      x y z
#    x 1.874880 0.000000 0.000000 
#    y 0.000000 1.892270 0.000000 
#    z 0.000000 0.000000 1.875050 
# 
# From -- ./inp_files/16840.got.cif
#   From: 2010.03.12/outbox.cif.g09.slc.cpg/sg24_9_cif.got.tgz:16840.got - 2010.04.14 03:06:53.
