data_PCOD8165503
_publ_section_title
;
Structure prediction by ZEFSAII (Michael W. Deem and Ramdas Pophale) SiO2 
 PCOD8165503
Probable space group: I 21 21 21
;
_chemical_formula_sum "Si O2"
_cell_formula_units_Z 64
_cell_length_a 8.936870
_cell_length_b 17.769411
_cell_length_c 20.032253
_cell_angle_alpha 90.000000
_cell_angle_beta 90.000000
_cell_angle_gamma 90.000000
_cell_volume 3181.180192
_symmetry_space_group_name_H-M "I 21 21 21"
_symmetry_group_IT_number 24
_symmetry_cell_setting 'orthorhombic'
loop_
_space_group_symop_operation_xyz
x,y,z
-x,1/2-y,z
x,-y,1/2-z
1/2-x,y,-z
1/2+x,1/2+y,1/2+z
1/2-x,-y,1/2+z
1/2+x,1/2-y,-z
-x,1/2+y,1/2-z
loop_
_atom_site_type_symbol
_atom_site_label
_atom_site_fract_x
_atom_site_fract_y
_atom_site_fract_z
Si Si1 0.962003 0.495364 0.822966
Si Si2 0.792857 0.044492 0.315328
Si Si3 0.023372 0.556473 0.400678
Si Si4 0.220855 0.057502 0.424026
Si Si5 0.469259 0.166715 0.666592
Si Si6 0.397893 0.820938 0.686542
Si Si7 0.064964 0.173812 0.860387
Si Si8 0.083218 0.683819 0.496055
O O1 0.881185 0.500000 0.750000
O O2 0.113318 0.545286 0.818872
O O3 0.867449 0.534177 0.881773
O O4 0.994874 0.406057 0.832402
O O5 0.870600 0.126848 0.316988
O O6 0.848097 0.000000 0.250000
O O7 0.849568 0.002615 0.381592
O O8 0.875517 0.517635 0.428725
O O9 0.985587 0.604860 0.335610
O O10 0.089823 0.604850 0.459934
O O11 0.250000 0.084604 0.500000
O O12 0.130109 0.123178 0.387249
O O13 0.500000 0.250000 0.637919
O O14 0.371130 0.173112 0.734116
O O15 0.500000 0.750000 0.669078
O O16 0.242966 0.818893 0.646102
O O17 0.000000 0.250000 0.824260
O O18 0.009478 0.175126 0.936115
O O19 0.250000 0.713957 0.500000
O O20 0.000000 0.750000 0.453984
#
# Coordination Sequence:
#
# PCOD8165503 Si02
#       8
#     8   8   8   8   8   8   8   8
#     4  11  23  40  66  94 132 165 215 275 330 388
#     4  10  21  39  64  97 124 163 212 267 331 395
#     4  11  22  36  63  83 127 166 219 258 314 390
#     4  11  24  42  67  95 126 172 219 268 335 403
#     4  10  23  45  68  95 126 164 216 273 340 411
#     4  11  23  36  64  92 128 168 221 268 332 393
#     4  11  25  40  58  90 133 175 219 267 321 388
#     4  11  26  39  55  83 129 177 222 259 314 385
#
# _framework density 20.118320000000001
#
# number of rings (size 3 to 8) (size 9 to 14) (size 15 to 20)
#    0.000    1.250    2.500    2.625    8.750    1.000 
#    0.000    3.750    0.000    0.000    0.000    0.000 
#    0.000    0.000    0.000    0.000    0.000    0.000 
#
# Total GULP energy -396605.043327 kJ/mol
# GULP energy per Si atom -12393.907604 kJ/mol
# Density = 2.007253 g / cm^3
# Si number density = 20.118320 Si / 1000 Ang^3
#
#
#
# Elastic Constant Matrix: (Units=GPa)
#
#
# Indices 1 2 3 4 5 6 
#
# 1 116.4894 39.5360 43.5864 0.0000 0.0000 0.0000
# 2 39.5360 126.8951 34.4700 0.0000 0.0000 0.0000
# 3 43.5864 34.4700 115.1063 0.0000 0.0000 0.0000
# 4 0.0000 0.0000 0.0000 20.0518 0.0000 0.0000
# 5 0.0000 0.0000 0.0000 0.0000 29.1149 0.0000
# 6 0.0000 0.0000 0.0000 0.0000 0.0000 28.0919
#
#
#
# Elastic Compliance Matrix: (Units=1/GPa)
#
#
# Indices 1 2 3 4 5 6 
#
# 1 0.010642 -0.002418 -0.003306 0.000000 0.000000 0.000000
# 2 -0.002418 0.009128 -0.001818 0.000000 0.000000 0.000000
# 3 -0.003306 -0.001818 0.010484 0.000000 0.000000 0.000000
# 4 0.000000 0.000000 0.000000 0.049871 0.000000 0.000000
# 5 0.000000 0.000000 0.000000 0.000000 0.034347 0.000000
# 6 0.000000 0.000000 0.000000 0.000000 0.000000 0.035597
#
#
# Mechanical properties :
#
#
# Convention : Reuss Voigt Hill
#
# Bulk Modulus (GPa) = 65.91631 65.96396 65.94014
# Shear Modulus (GPa) = 29.37589 31.51162 30.44376
#
# Velocity S-wave (km/s) = 3.82534 3.96196 3.89425
# Velocity P-wave (km/s) = 7.23509 7.33408 7.28475
#
# Compressibility (1/GPa) = 0.01517075
#
# Stress axis : x y z
#
# Youngs Moduli (GPa) = 93.96818 109.55784 95.38571
#
# Poissons Ratio (x) = 0.26488 0.31531
# Poissons Ratio (y) = 0.22719 0.17340
# Poissons Ratio (z) = 0.31063 0.19916
#
# Static dielectric constant tensor:
#      x y z
#    x 3.552790 0.000000 0.000000 
#    y 0.000000 3.994190 0.000000 
#    z 0.000000 0.000000 3.613040 
# 
# 
# High freq. dielectric constant tensor:
#      x y z
#    x 1.785890 0.000000 0.000000 
#    y 0.000000 1.788820 0.000000 
#    z 0.000000 0.000000 1.781150 
# 
# From -- ./inp_files/32964.got.cif
#   From: 2010.03.12/outbox.cif.g09.slc.cpg/sg24_17_cif.got.tgz:32964.got - 2010.04.14 03:06:53.
