data_PCOD8165942
_publ_section_title
;
Structure prediction by ZEFSAII (Michael W. Deem and Ramdas Pophale) SiO2 
 PCOD8165942
Probable space group: I 21 21 21
;
_chemical_formula_sum "Si O2"
_cell_formula_units_Z 64
_cell_length_a 8.614843
_cell_length_b 13.923309
_cell_length_c 25.427358
_cell_angle_alpha 90.000000
_cell_angle_beta 90.000000
_cell_angle_gamma 90.000000
_cell_volume 3049.938389
_symmetry_space_group_name_H-M "I 21 21 21"
_symmetry_group_IT_number 24
_symmetry_cell_setting 'orthorhombic'
loop_
_space_group_symop_operation_xyz
x,y,z
-x,1/2-y,z
x,-y,1/2-z
1/2-x,y,-z
1/2+x,1/2+y,1/2+z
1/2-x,-y,1/2+z
1/2+x,1/2-y,-z
-x,1/2+y,1/2-z
loop_
_atom_site_type_symbol
_atom_site_label
_atom_site_fract_x
_atom_site_fract_y
_atom_site_fract_z
Si Si1 0.657288 0.515287 0.051308
Si Si2 0.392212 0.101136 0.630195
Si Si3 0.107183 0.662997 0.959853
Si Si4 0.316357 0.750732 0.335389
Si Si5 0.146650 0.067645 0.208878
Si Si6 0.706825 0.193629 0.642555
Si Si7 0.188969 0.606966 0.253721
Si Si8 0.342826 0.801704 0.446339
O O1 0.774040 0.583928 0.082729
O O2 0.493155 0.565749 0.040339
O O3 0.624676 0.410022 0.075667
O O4 0.750000 0.488989 0.000000
O O5 0.565974 0.134329 0.614491
O O6 0.324498 0.195589 0.658537
O O7 0.406695 0.001528 0.661601
O O8 0.155855 0.684552 0.899654
O O9 0.000000 0.750000 0.980624
O O10 0.250000 0.651454 0.000000
O O11 0.500000 0.750000 0.333534
O O12 0.254808 0.846660 0.308186
O O13 0.255582 0.657761 0.305367
O O14 0.260137 0.748197 0.396542
O O15 0.997751 0.109309 0.240546
O O16 0.240878 0.000000 0.250000
O O17 0.748327 0.152502 0.699533
O O18 0.254590 0.500000 0.250000
O O19 0.500000 0.750000 0.460929
O O20 0.250000 0.794527 0.500000
#
# Coordination Sequence:
#
# PCOD8165942 Si02
#       8
#     8   8   8   8   8   8   8   8
#     4  11  23  45  69  99 138 178 229 277 345 417
#     4  11  21  40  66  96 132 178 220 281 336 400
#     4  12  26  43  67 101 140 185 230 285 350 417
#     4  11  25  43  65 100 138 176 221 286 352 408
#     4  11  21  42  68  95 129 182 231 274 340 408
#     4  11  24  40  67  98 138 178 232 281 338 407
#     4  11  24  44  66 102 133 178 236 282 335 420
#     4  10  24  46  70  97 132 173 224 281 340 408
#
# _framework density 20.984031000000002
#
# number of rings (size 3 to 8) (size 9 to 14) (size 15 to 20)
#    0.000    1.000    5.000    2.250    3.500    4.500 
#    2.250    0.000    0.000    0.000    0.000    0.000 
#    0.000    0.000    0.000    0.000    0.000    0.000 
#
# Total GULP energy -396559.331580 kJ/mol
# GULP energy per Si atom -12392.479112 kJ/mol
# Density = 2.093627 g / cm^3
# Si number density = 20.984031 Si / 1000 Ang^3
#
#
#
# Elastic Constant Matrix: (Units=GPa)
#
#
# Indices 1 2 3 4 5 6 
#
# 1 73.6365 38.9015 39.4241 0.0000 0.0000 0.0000
# 2 38.9015 134.5991 50.2708 0.0000 0.0000 0.0000
# 3 39.4241 50.2708 127.6958 0.0000 0.0000 0.0000
# 4 0.0000 0.0000 0.0000 33.1522 0.0000 0.0000
# 5 0.0000 0.0000 0.0000 0.0000 35.1269 0.0000
# 6 0.0000 0.0000 0.0000 0.0000 0.0000 -59.1857
#
#
#
# Elastic Compliance Matrix: (Units=1/GPa)
#
#
# Indices 1 2 3 4 5 6 
#
# 1 0.017636 -0.003592 -0.004031 0.000000 0.000000 0.000000
# 2 -0.003592 0.009442 -0.002608 0.000000 0.000000 0.000000
# 3 -0.004031 -0.002608 0.010102 0.000000 0.000000 0.000000
# 4 0.000000 0.000000 0.000000 0.030164 0.000000 0.000000
# 5 0.000000 0.000000 0.000000 0.000000 0.028468 0.000000
# 6 0.000000 0.000000 0.000000 0.000000 0.000000 -0.016896
#
#
# Mechanical properties :
#
#
# Convention : Reuss Voigt Hill
#
# Bulk Modulus (GPa) = 59.81361 65.90269 62.85815
# Shear Modulus (GPa) = 47.64197 15.64102 31.64149
#
# Velocity S-wave (km/s) = 4.77003 2.73312 3.88736
# Velocity P-wave (km/s) = 7.67488 6.43694 7.08301
#
# Compressibility (1/GPa) = 0.01671860
#
# Stress axis : x y z
#
# Youngs Moduli (GPa) = 56.70329 105.91456 98.98731
#
# Poissons Ratio (x) = 0.38040 0.39900
# Poissons Ratio (y) = 0.20365 0.25817
# Poissons Ratio (z) = 0.22856 0.27623
#
# Static dielectric constant tensor:
#      x y z
#    x 3.658290 0.000000 0.000000 
#    y 0.000000 4.130590 0.000000 
#    z 0.000000 0.000000 3.973150 
# 
# 
# High freq. dielectric constant tensor:
#      x y z
#    x 1.804800 0.000000 0.000000 
#    y 0.000000 1.839670 0.000000 
#    z 0.000000 0.000000 1.831130 
# 
# From -- ./inp_files/35298.got.cif
#   From: 2010.03.12/outbox.cif.g09.slc.cpg/sg24_18_cif.got.tgz:35298.got - 2010.04.14 03:06:53.
