data_PCOD8165913
_publ_section_title
;
Structure prediction by ZEFSAII (Michael W. Deem and Ramdas Pophale) SiO2 
 PCOD8165913
Probable space group: I 21 21 21
;
_chemical_formula_sum "Si O2"
_cell_formula_units_Z 48
_cell_length_a 28.966792
_cell_length_b 8.707888
_cell_length_c 8.750761
_cell_angle_alpha 90.000000
_cell_angle_beta 90.000000
_cell_angle_gamma 90.000000
_cell_volume 2207.288283
_symmetry_space_group_name_H-M "I 21 21 21"
_symmetry_group_IT_number 24
_symmetry_cell_setting 'orthorhombic'
loop_
_space_group_symop_operation_xyz
x,y,z
-x,1/2-y,z
x,-y,1/2-z
1/2-x,y,-z
1/2+x,1/2+y,1/2+z
1/2-x,-y,1/2+z
1/2+x,1/2-y,-z
-x,1/2+y,1/2-z
loop_
_atom_site_type_symbol
_atom_site_label
_atom_site_fract_x
_atom_site_fract_y
_atom_site_fract_z
Si Si1 0.719211 0.640774 0.648264
Si Si2 0.551080 0.202761 0.983393
Si Si3 0.116582 0.962737 0.416502
Si Si4 0.393501 0.500000 0.750000
Si Si5 0.920532 0.000000 0.750000
Si Si6 0.229375 0.632077 0.850264
Si Si7 0.637402 0.205572 0.477557
O O1 0.735852 0.500000 0.750000
O O2 0.750000 0.651044 0.500000
O O3 0.665590 0.626080 0.602807
O O4 0.729673 0.786953 0.755150
O O5 0.500000 0.250000 0.934271
O O6 0.582398 0.353752 0.011399
O O7 0.573328 0.110569 0.844463
O O8 0.547946 0.101653 0.137412
O O9 0.118033 0.124006 0.503451
O O10 0.095974 0.000000 0.250000
O O11 0.362506 0.394687 0.635393
O O12 0.890351 0.115944 0.650959
O O13 0.205791 0.500000 0.750000
O O14 0.188634 0.740711 0.912526
O O15 0.250000 0.550649 0.000000
#
# Coordination Sequence:
#
# PCOD8165913 Si02
#       7
#     8   8   8   4   4   8   8
#     4  11  24  43  65 100 138 182 238 292 351 418
#     4  11  26  46  74 108 144 186 233 287 359 419
#     4  11  23  43  71 102 136 187 235 293 345 411
#     4  10  24  42  75 102 142 182 239 294 340 440
#     4  10  26  46  69 106 142 188 225 292 356 428
#     4  12  26  41  65  98 139 191 240 292 352 422
#     4  11  23  46  70 102 142 186 240 287 360 419
#
# _framework density 21.746141000000001
#
# number of rings (size 3 to 8) (size 9 to 14) (size 15 to 20)
#    0.000    1.000    2.500    4.000    4.667    3.333 
#    0.000    3.333    0.000    0.000    0.000    0.000 
#    0.000    0.000    0.000    0.000    0.000    0.000 
#
# Total GULP energy -297514.831922 kJ/mol
# GULP energy per Si atom -12396.451330 kJ/mol
# Density = 2.169665 g / cm^3
# Si number density = 21.746141 Si / 1000 Ang^3
#
#
#
# Elastic Constant Matrix: (Units=GPa)
#
#
# Indices 1 2 3 4 5 6 
#
# 1 107.6547 58.8224 42.1306 0.0000 0.0000 0.0000
# 2 58.8224 140.2360 52.3315 0.0000 0.0000 0.0000
# 3 42.1306 52.3315 120.2351 0.0000 0.0000 0.0000
# 4 0.0000 0.0000 0.0000 32.4907 0.0000 0.0000
# 5 0.0000 0.0000 0.0000 0.0000 19.1766 0.0000
# 6 0.0000 0.0000 0.0000 0.0000 0.0000 24.5940
#
#
#
# Elastic Compliance Matrix: (Units=1/GPa)
#
#
# Indices 1 2 3 4 5 6 
#
# 1 0.012668 -0.004366 -0.002539 0.000000 0.000000 0.000000
# 2 -0.004366 0.010019 -0.002831 0.000000 0.000000 0.000000
# 3 -0.002539 -0.002831 0.010438 0.000000 0.000000 0.000000
# 4 0.000000 0.000000 0.000000 0.030778 0.000000 0.000000
# 5 0.000000 0.000000 0.000000 0.000000 0.052147 0.000000
# 6 0.000000 0.000000 0.000000 0.000000 0.000000 0.040660
#
#
# Mechanical properties :
#
#
# Convention : Reuss Voigt Hill
#
# Bulk Modulus (GPa) = 73.23647 74.96609 74.10128
# Shear Modulus (GPa) = 27.66515 29.57503 28.62009
#
# Velocity S-wave (km/s) = 3.57064 3.69184 3.63174
# Velocity P-wave (km/s) = 7.12393 7.26092 7.19275
#
# Compressibility (1/GPa) = 0.01365440
#
# Stress axis : x y z
#
# Youngs Moduli (GPa) = 78.93779 99.81432 95.79922
#
# Poissons Ratio (x) = 0.43583 0.24319
# Poissons Ratio (y) = 0.34468 0.27116
# Poissons Ratio (z) = 0.20038 0.28253
#
# Static dielectric constant tensor:
#      x y z
#    x 3.664750 0.000000 0.000000 
#    y 0.000000 4.060140 0.000000 
#    z 0.000000 0.000000 4.193810 
# 
# 
# High freq. dielectric constant tensor:
#      x y z
#    x 1.835180 0.000000 0.000000 
#    y 0.000000 1.865360 0.000000 
#    z 0.000000 0.000000 1.870540 
# 
# From -- ./inp_files/16888.got.cif
#   From: 2010.03.12/outbox.cif.g09.slc.cpg/sg24_9_cif.got.tgz:16888.got - 2010.04.14 03:06:53.
