data_PCOD8165408
_publ_section_title
;
Structure prediction by ZEFSAII (Michael W. Deem and Ramdas Pophale) SiO2 
 PCOD8165408
Probable space group: I 21 21 21
;
_chemical_formula_sum "Si O2"
_cell_formula_units_Z 56
_cell_length_a 27.192099
_cell_length_b 5.277523
_cell_length_c 18.332930
_cell_angle_alpha 90.000000
_cell_angle_beta 90.000000
_cell_angle_gamma 90.000000
_cell_volume 2630.902464
_symmetry_space_group_name_H-M "I 21 21 21"
_symmetry_group_IT_number 24
_symmetry_cell_setting 'orthorhombic'
loop_
_space_group_symop_operation_xyz
x,y,z
-x,1/2-y,z
x,-y,1/2-z
1/2-x,y,-z
1/2+x,1/2+y,1/2+z
1/2-x,-y,1/2+z
1/2+x,1/2-y,-z
-x,1/2+y,1/2-z
loop_
_atom_site_type_symbol
_atom_site_label
_atom_site_fract_x
_atom_site_fract_y
_atom_site_fract_z
Si Si1 0.018897 0.500421 0.629462
Si Si2 0.626097 0.522095 0.597538
Si Si3 0.725034 0.314841 0.573724
Si Si4 0.628033 0.999474 0.164724
Si Si5 0.655207 0.966270 0.833677
Si Si6 0.522884 0.499365 0.967461
Si Si7 0.312042 0.999845 0.335400
O O1 0.077483 0.503904 0.619413
O O2 0.000000 0.750000 0.672713
O O3 0.990768 0.500477 0.552319
O O4 0.000000 0.250000 0.672363
O O5 0.677528 0.489120 0.553382
O O6 0.625227 0.790332 0.638684
O O7 0.581616 0.506355 0.540588
O O8 0.622023 0.287907 0.655403
O O9 0.750000 0.214625 0.500000
O O10 0.761112 0.490032 0.621292
O O11 0.706480 0.072759 0.621319
O O12 0.656459 0.745872 0.142422
O O13 0.614683 0.000000 0.250000
O O14 0.659572 0.244306 0.142264
O O15 0.669660 0.000000 0.750000
O O16 0.500000 0.250000 0.929038
O O17 0.500000 0.750000 0.929651
O O18 0.299767 0.000000 0.250000
#
# Coordination Sequence:
#
# PCOD8165408 Si02
#       7
#     8   8   8   8   8   8   8
#     4  10  21  36  59  90 119 174 216 263 325 390
#     4  10  23  41  66  98 132 170 224 273 326 398
#     4  10  26  41  66 102 135 172 224 281 329 394
#     4  10  22  40  60  92 130 170 220 270 316 388
#     4  10  23  42  70  94 128 176 221 266 329 402
#     4  10  21  39  64  92 126 165 213 264 337 398
#     4  10  23  41  65  91 133 178 215 267 329 396
#
# _framework density 21.285473
#
# number of rings (size 3 to 8) (size 9 to 14) (size 15 to 20)
#    0.857    1.143    0.000    2.143    4.000    6.286 
#    2.571    0.000    0.000    8.571    0.000    0.000 
#    0.000    0.000    0.000    0.000    0.000    0.000 
#
# Total GULP energy -347033.072227 kJ/mol
# GULP energy per Si atom -12394.038294 kJ/mol
# Density = 2.123703 g / cm^3
# Si number density = 21.285473 Si / 1000 Ang^3
#
#
#
# Elastic Constant Matrix: (Units=GPa)
#
#
# Indices 1 2 3 4 5 6 
#
# 1 171.6450 60.2006 52.0918 0.0000 0.0000 0.0000
# 2 60.2006 199.3940 27.4779 0.0000 0.0000 0.0000
# 3 52.0918 27.4779 85.4460 0.0000 0.0000 0.0000
# 4 0.0000 0.0000 0.0000 7.4990 0.0000 0.0000
# 5 0.0000 0.0000 0.0000 0.0000 26.0014 0.0000
# 6 0.0000 0.0000 0.0000 0.0000 0.0000 28.4193
#
#
#
# Elastic Compliance Matrix: (Units=1/GPa)
#
#
# Indices 1 2 3 4 5 6 
#
# 1 0.007693 -0.001754 -0.004126 0.000000 0.000000 0.000000
# 2 -0.001754 0.005648 -0.000747 0.000000 0.000000 0.000000
# 3 -0.004126 -0.000747 0.014459 0.000000 0.000000 0.000000
# 4 0.000000 0.000000 0.000000 0.133350 0.000000 0.000000
# 5 0.000000 0.000000 0.000000 0.000000 0.038459 0.000000
# 6 0.000000 0.000000 0.000000 0.000000 0.000000 0.035187
#
#
# Mechanical properties :
#
#
# Convention : Reuss Voigt Hill
#
# Bulk Modulus (GPa) = 68.74800 81.78061 75.26431
# Shear Modulus (GPa) = 19.77065 33.49827 26.63446
#
# Velocity S-wave (km/s) = 3.05098 3.97137 3.54121
# Velocity P-wave (km/s) = 6.69175 7.71578 7.22194
#
# Compressibility (1/GPa) = 0.01454588
#
# Stress axis : x y z
#
# Youngs Moduli (GPa) = 129.98079 177.06251 69.16132
#
# Poissons Ratio (x) = 0.31060 0.28537
# Poissons Ratio (y) = 0.22801 0.05165
# Poissons Ratio (z) = 0.53632 0.13223
#
# Static dielectric constant tensor:
#      x y z
#    x 3.705190 0.000000 0.000000 
#    y 0.000000 6.001870 0.000000 
#    z 0.000000 0.000000 3.386200 
# 
# 
# High freq. dielectric constant tensor:
#      x y z
#    x 1.832330 0.000000 0.000000 
#    y 0.000000 1.858600 0.000000 
#    z 0.000000 0.000000 1.796780 
# 
# From -- ./inp_files/34256.got.cif
#   From: 2010.03.12/outbox.cif.g09.slc.cpg/sg24_18_cif.got.tgz:34256.got - 2010.04.14 03:06:53.
