data_PCOD8165322
_publ_section_title
;
Structure prediction by ZEFSAII (Michael W. Deem and Ramdas Pophale) SiO2 
 PCOD8165322
Probable space group: I 21 21 21
;
_chemical_formula_sum "Si O2"
_cell_formula_units_Z 32
_cell_length_a 8.780046
_cell_length_b 10.348777
_cell_length_c 17.332948
_cell_angle_alpha 90.000000
_cell_angle_beta 90.000000
_cell_angle_gamma 90.000000
_cell_volume 1574.919115
_symmetry_space_group_name_H-M "I 21 21 21"
_symmetry_group_IT_number 24
_symmetry_cell_setting 'orthorhombic'
loop_
_space_group_symop_operation_xyz
x,y,z
-x,1/2-y,z
x,-y,1/2-z
1/2-x,y,-z
1/2+x,1/2+y,1/2+z
1/2-x,-y,1/2+z
1/2+x,1/2-y,-z
-x,1/2+y,1/2-z
loop_
_atom_site_type_symbol
_atom_site_label
_atom_site_fract_x
_atom_site_fract_y
_atom_site_fract_z
Si Si1 0.428925 0.890054 0.519085
Si Si2 0.743746 0.500000 0.250000
Si Si3 0.985916 0.392216 0.353173
Si Si4 0.009573 0.603171 0.641830
Si Si5 0.737485 0.000000 0.750000
O O1 0.500000 0.750000 0.542379
O O2 0.250000 0.873375 0.500000
O O3 0.509088 0.958605 0.444143
O O4 0.462131 0.991299 0.587217
O O5 0.846056 0.392883 0.292868
O O6 0.641981 0.569474 0.312855
O O7 0.000000 0.250000 0.392741
O O8 0.138451 0.406395 0.302918
O O9 0.159239 0.579770 0.691067
O O10 0.000000 0.750000 0.619091
#
# Coordination Sequence:
#
# PCOD8165322 Si02
#       5
#     8   4   8   8   4
#     4  11  25  44  69  95 129 174 220 266 324 391
#     4  10  20  40  64  90 132 166 214 266 322 388
#     4  11  24  42  65  97 131 170 215 271 326 383
#     4  10  21  40  64  91 124 169 219 265 317 387
#     4  10  24  40  64  96 124 172 216 266 328 382
#
# _framework density 20.318504999999998
#
# number of rings (size 3 to 8) (size 9 to 14) (size 15 to 20)
#    0.000    1.500    2.500    1.500    7.000    4.000 
#    4.500    1.250    0.000    0.000    0.000    0.000 
#    0.000    0.000    0.000    0.000    0.000    0.000 
#
# Total GULP energy -198261.971519 kJ/mol
# GULP energy per Si atom -12391.373220 kJ/mol
# Density = 2.027226 g / cm^3
# Si number density = 20.318505 Si / 1000 Ang^3
#
#
#
# Elastic Constant Matrix: (Units=GPa)
#
#
# Indices 1 2 3 4 5 6 
#
# 1 132.9269 48.0263 50.5736 0.0000 0.0000 0.0000
# 2 48.0263 124.6866 61.8197 0.0000 0.0000 0.0000
# 3 50.5736 61.8197 126.9754 0.0000 0.0000 0.0000
# 4 0.0000 0.0000 0.0000 34.7278 0.0000 0.0000
# 5 0.0000 0.0000 0.0000 0.0000 -163.4180 0.0000
# 6 0.0000 0.0000 0.0000 0.0000 0.0000 11.4086
#
#
#
# Elastic Compliance Matrix: (Units=1/GPa)
#
#
# Indices 1 2 3 4 5 6 
#
# 1 0.009346 -0.002313 -0.002597 0.000000 0.000000 0.000000
# 2 -0.002313 0.011144 -0.004505 0.000000 0.000000 0.000000
# 3 -0.002597 -0.004505 0.011103 0.000000 0.000000 0.000000
# 4 0.000000 0.000000 0.000000 0.028795 0.000000 0.000000
# 5 0.000000 0.000000 0.000000 0.000000 -0.006119 0.000000
# 6 0.000000 0.000000 0.000000 0.000000 0.000000 0.087653
#
#
# Mechanical properties :
#
#
# Convention : Reuss Voigt Hill
#
# Bulk Modulus (GPa) = 78.33458 78.38089 78.35774
# Shear Modulus (GPa) = 30.30192 -8.51170 10.89511
#
# Velocity S-wave (km/s) = 3.86598 -2.04896 2.31815
# Velocity P-wave (km/s) = 7.65276 5.74998 6.76857
#
# Compressibility (1/GPa) = 0.01276575
#
# Stress axis : x y z
#
# Youngs Moduli (GPa) = 106.99292 89.73230 90.06607
#
# Poissons Ratio (x) = 0.20751 0.23388
# Poissons Ratio (y) = 0.24743 0.40572
# Poissons Ratio (z) = 0.27783 0.40421
#
# Static dielectric constant tensor:
#      x y z
#    x 2.256970 0.000000 0.000000 
#    y 0.000000 3.466490 0.000000 
#    z 0.000000 0.000000 3.957140 
# 
# 
# High freq. dielectric constant tensor:
#      x y z
#    x 1.810690 0.000000 0.000000 
#    y 0.000000 1.773400 0.000000 
#    z 0.000000 0.000000 1.812830 
# 
# From -- ./inp_files/8974.got.cif
#   From: 2010.03.12/outbox.cif.g09.slc.cpg/sg24_5_cif.got.tgz:8974.got - 2010.04.14 03:06:53.
