data_PCOD8165878
_publ_section_title
;
Structure prediction by ZEFSAII (Michael W. Deem and Ramdas Pophale) SiO2 
 PCOD8165878
Probable space group: I 21 21 21
;
_chemical_formula_sum "Si O2"
_cell_formula_units_Z 40
_cell_length_a 14.234645
_cell_length_b 14.609775
_cell_length_c 9.540514
_cell_angle_alpha 90.000000
_cell_angle_beta 90.000000
_cell_angle_gamma 90.000000
_cell_volume 1984.092619
_symmetry_space_group_name_H-M "I 21 21 21"
_symmetry_group_IT_number 24
_symmetry_cell_setting 'orthorhombic'
loop_
_space_group_symop_operation_xyz
x,y,z
-x,1/2-y,z
x,-y,1/2-z
1/2-x,y,-z
1/2+x,1/2+y,1/2+z
1/2-x,-y,1/2+z
1/2+x,1/2-y,-z
-x,1/2+y,1/2-z
loop_
_atom_site_type_symbol
_atom_site_label
_atom_site_fract_x
_atom_site_fract_y
_atom_site_fract_z
Si Si1 0.360422 0.166348 0.024648
Si Si2 0.000000 0.250000 0.194137
Si Si3 0.897666 0.712179 0.833661
Si Si4 0.586147 0.917921 0.856542
Si Si5 0.453782 0.978572 0.095797
Si Si6 0.750000 0.169340 0.500000
O O1 0.383078 0.219724 0.167338
O O2 0.395897 0.061943 0.029461
O O3 0.250000 0.166263 0.000000
O O4 0.411305 0.220786 0.899903
O O5 0.028407 0.333185 0.294155
O O6 0.884643 0.608210 0.887561
O O7 0.000000 0.750000 0.873737
O O8 0.820486 0.769944 0.911699
O O9 0.586856 0.000000 0.750000
O O10 0.541072 0.953567 0.999749
O O11 0.693155 0.891846 0.889560
O O12 0.495513 0.000000 0.250000
#
# Coordination Sequence:
#
# PCOD8165878 Si02
#       6
#     8   4   8   8   8   4
#     4  11  24  44  70 104 136 180 232 282 354 414
#     4  12  24  46  72 100 148 178 230 302 348 414
#     4  11  22  45  72  97 138 183 228 286 348 411
#     4  12  25  46  69 104 138 187 230 288 352 414
#     4  10  23  45  70  96 140 181 222 289 349 406
#     4  12  26  44  70 104 136 184 242 278 350 430
#
# _framework density 20.160350000000001
#
# number of rings (size 3 to 8) (size 9 to 14) (size 15 to 20)
#    0.000    0.800    5.000    2.400    1.400    0.800 
#   12.600    0.000    0.000    0.000    0.000    0.000 
#    0.000    0.000    0.000    0.000    0.000    0.000 
#
# Total GULP energy -248086.568683 kJ/mol
# GULP energy per Si atom -12404.328434 kJ/mol
# Density = 2.011446 g / cm^3
# Si number density = 20.160350 Si / 1000 Ang^3
#
#
#
# Elastic Constant Matrix: (Units=GPa)
#
#
# Indices 1 2 3 4 5 6 
#
# 1 154.8049 61.2128 68.6319 0.0000 0.0000 0.0000
# 2 61.2128 130.8041 62.8766 0.0000 0.0000 0.0000
# 3 68.6319 62.8766 117.4555 0.0000 0.0000 0.0000
# 4 0.0000 0.0000 0.0000 -708.7987 0.0000 0.0000
# 5 0.0000 0.0000 0.0000 0.0000 34.9542 0.0000
# 6 0.0000 0.0000 0.0000 0.0000 0.0000 27.3852
#
#
#
# Elastic Compliance Matrix: (Units=1/GPa)
#
#
# Indices 1 2 3 4 5 6 
#
# 1 0.009213 -0.002321 -0.004141 0.000000 0.000000 0.000000
# 2 -0.002321 0.010879 -0.004467 0.000000 0.000000 0.000000
# 3 -0.004141 -0.004467 0.013325 0.000000 0.000000 0.000000
# 4 0.000000 0.000000 0.000000 -0.001411 0.000000 0.000000
# 5 0.000000 0.000000 0.000000 0.000000 0.028609 0.000000
# 6 0.000000 0.000000 0.000000 0.000000 0.000000 0.036516
#
#
# Mechanical properties :
#
#
# Convention : Reuss Voigt Hill
#
# Bulk Modulus (GPa) = 86.51897 87.61189 87.06543
# Shear Modulus (GPa) = 40.70235 -115.26899 -37.28332
#
# Velocity S-wave (km/s) = 4.49813 -7.56969 -4.30506
# Velocity P-wave (km/s) = 8.36577 5.73135 4.30916
#
# Compressibility (1/GPa) = 0.01155816
#
# Stress axis : x y z
#
# Youngs Moduli (GPa) = 108.53667 91.92332 75.04641
#
# Poissons Ratio (x) = 0.21336 0.31078
# Poissons Ratio (y) = 0.25192 0.33526
# Poissons Ratio (z) = 0.44946 0.41065
#
# Static dielectric constant tensor:
#      x y z
#    x 29.330070 0.000000 0.000000 
#    y 0.000000 4.013500 0.000000 
#    z 0.000000 0.000000 3.927040 
# 
# 
# High freq. dielectric constant tensor:
#      x y z
#    x 1.781040 0.000000 0.000000 
#    y 0.000000 1.803840 0.000000 
#    z 0.000000 0.000000 1.807290 
# 
# From -- ./inp_files/12361.got.cif
#   From: 2010.03.12/outbox.cif.g09.slc.cpg/sg24_7_cif.got.tgz:12361.got - 2010.04.14 03:06:53.
