data_PCOD8165413
_publ_section_title
;
Structure prediction by ZEFSAII (Michael W. Deem and Ramdas Pophale) SiO2 
 PCOD8165413
Probable space group: I 21 21 21
;
_chemical_formula_sum "Si O2"
_cell_formula_units_Z 36
_cell_length_a 16.686133
_cell_length_b 12.635724
_cell_length_c 7.755988
_cell_angle_alpha 90.000000
_cell_angle_beta 90.000000
_cell_angle_gamma 90.000000
_cell_volume 1635.283145
_symmetry_space_group_name_H-M "I 21 21 21"
_symmetry_group_IT_number 24
_symmetry_cell_setting 'orthorhombic'
loop_
_space_group_symop_operation_xyz
x,y,z
-x,1/2-y,z
x,-y,1/2-z
1/2-x,y,-z
1/2+x,1/2+y,1/2+z
1/2-x,-y,1/2+z
1/2+x,1/2-y,-z
-x,1/2+y,1/2-z
loop_
_atom_site_type_symbol
_atom_site_label
_atom_site_fract_x
_atom_site_fract_y
_atom_site_fract_z
Si Si1 0.715362 0.334375 0.322623
Si Si2 0.161869 0.668872 0.560828
Si Si3 0.060267 0.500000 0.750000
Si Si4 0.381344 0.850519 0.673916
Si Si5 0.424948 0.942863 0.016488
O O1 0.750000 0.285457 0.500000
O O2 0.667672 0.242271 0.227385
O O3 0.787268 0.379337 0.203259
O O4 0.652994 0.427135 0.364541
O O5 0.250000 0.632719 0.500000
O O6 0.113290 0.565812 0.615507
O O7 0.114176 0.732771 0.408802
O O8 0.004299 0.425323 0.630871
O O9 0.426947 0.858864 0.857824
O O10 0.420066 0.935883 0.546521
#
# Coordination Sequence:
#
# PCOD8165413 Si02
#       5
#     8   8   4   8   8
#     4   9  19  36  63  95 125 163 210 257 311 377
#     4  10  23  44  66  84 117 169 223 267 309 374
#     4  12  26  42  62  92 128 170 212 262 320 380
#     4   9  20  39  62  95 130 168 208 254 316 387
#     4  10  21  36  62 101 135 158 195 260 335 388
#
# _framework density 22.014538000000002
#
# number of rings (size 3 to 8) (size 9 to 14) (size 15 to 20)
#    0.000    2.222    0.000    1.333    0.000   24.889 
#    0.000   22.222    0.000    0.000    0.000    0.000 
#    0.000    0.000    0.000    0.000    0.000    0.000 
#
# Total GULP energy -223148.490118 kJ/mol
# GULP energy per Si atom -12397.138340 kJ/mol
# Density = 2.196443 g / cm^3
# Si number density = 22.014538 Si / 1000 Ang^3
#
#
#
# Elastic Constant Matrix: (Units=GPa)
#
#
# Indices 1 2 3 4 5 6 
#
# 1 85.6467 42.0272 58.2491 0.0000 0.0000 0.0000
# 2 42.0272 75.3370 49.3192 0.0000 0.0000 0.0000
# 3 58.2491 49.3192 126.0505 0.0000 0.0000 0.0000
# 4 0.0000 0.0000 0.0000 37.3077 0.0000 0.0000
# 5 0.0000 0.0000 0.0000 0.0000 41.2147 0.0000
# 6 0.0000 0.0000 0.0000 0.0000 0.0000 15.7654
#
#
#
# Elastic Compliance Matrix: (Units=1/GPa)
#
#
# Indices 1 2 3 4 5 6 
#
# 1 0.019184 -0.006585 -0.006289 0.000000 0.000000 0.000000
# 2 -0.006585 0.020105 -0.004823 0.000000 0.000000 0.000000
# 3 -0.006289 -0.004823 0.012727 0.000000 0.000000 0.000000
# 4 0.000000 0.000000 0.000000 0.026804 0.000000 0.000000
# 5 0.000000 0.000000 0.000000 0.000000 0.024263 0.000000
# 6 0.000000 0.000000 0.000000 0.000000 0.000000 0.063430
#
#
# Mechanical properties :
#
#
# Convention : Reuss Voigt Hill
#
# Bulk Modulus (GPa) = 60.16333 65.13611 62.64972
# Shear Modulus (GPa) = 24.10250 28.02015 26.06133
#
# Velocity S-wave (km/s) = 3.31243 3.57151 3.44441
# Velocity P-wave (km/s) = 6.48212 6.83078 6.65873
#
# Compressibility (1/GPa) = 0.01662142
#
# Stress axis : x y z
#
# Youngs Moduli (GPa) = 52.12621 49.73940 78.57604
#
# Poissons Ratio (x) = 0.32754 0.49414
# Poissons Ratio (y) = 0.34326 0.37899
# Poissons Ratio (z) = 0.32780 0.23990
#
# Static dielectric constant tensor:
#      x y z
#    x 3.865720 0.000000 0.000000 
#    y 0.000000 3.443020 0.000000 
#    z 0.000000 0.000000 4.329510 
# 
# 
# High freq. dielectric constant tensor:
#      x y z
#    x 1.856380 0.000000 0.000000 
#    y 0.000000 1.822710 0.000000 
#    z 0.000000 0.000000 1.889380 
# 
# From -- ./inp_files/12200.got.cif
#   From: 2010.03.12/outbox.cif.g09.slc.cpg/sg24_7_cif.got.tgz:12200.got - 2010.04.14 03:06:53.
