data_PCOD8165167
_publ_section_title
;
Structure prediction by ZEFSAII (Michael W. Deem and Ramdas Pophale) SiO2 
 PCOD8165167
Probable space group: I 21 21 21
;
_chemical_formula_sum "Si O2"
_cell_formula_units_Z 48
_cell_length_a 27.838585
_cell_length_b 9.937850
_cell_length_c 8.590869
_cell_angle_alpha 90.000000
_cell_angle_beta 90.000000
_cell_angle_gamma 90.000000
_cell_volume 2376.712722
_symmetry_space_group_name_H-M "I 21 21 21"
_symmetry_group_IT_number 24
_symmetry_cell_setting 'orthorhombic'
loop_
_space_group_symop_operation_xyz
x,y,z
-x,1/2-y,z
x,-y,1/2-z
1/2-x,y,-z
1/2+x,1/2+y,1/2+z
1/2-x,-y,1/2+z
1/2+x,1/2-y,-z
-x,1/2+y,1/2-z
loop_
_atom_site_type_symbol
_atom_site_label
_atom_site_fract_x
_atom_site_fract_y
_atom_site_fract_z
Si Si1 0.558898 0.479870 0.930337
Si Si2 0.551616 0.026308 0.570169
Si Si3 0.199526 0.341124 0.431001
Si Si4 0.800612 0.843394 0.431135
Si Si5 0.104382 0.231239 0.567428
Si Si6 0.602076 0.778026 0.429469
O O1 0.569922 0.500000 0.750000
O O2 0.503900 0.510393 0.970882
O O3 0.592969 0.576529 0.030510
O O4 0.569841 0.326767 0.974961
O O5 0.567776 0.177462 0.531835
O O6 0.562905 0.000000 0.750000
O O7 0.583155 0.926549 0.466483
O O8 0.250000 0.292334 0.500000
O O9 0.192053 0.498737 0.461086
O O10 0.197160 0.306526 0.249624
O O11 0.159056 0.259993 0.522245
O O12 0.750000 0.794289 0.500000
O O13 0.842431 0.763715 0.520432
O O14 0.096279 0.254529 0.748146
#
# Coordination Sequence:
#
# PCOD8165167 Si02
#       6
#     8   8   8   8   8   8
#     4  11  25  43  62  85 122 165 205 249 303 363
#     4  11  23  41  64  89 118 161 209 251 299 357
#     4  10  20  36  61  90 122 157 199 247 298 355
#     4  10  20  36  61  90 122 157 199 247 298 355
#     4  12  24  39  62  92 125 159 201 251 304 358
#     4  12  24  39  62  92 125 159 201 251 304 358
#
# _framework density 20.195961
#
# number of rings (size 3 to 8) (size 9 to 14) (size 15 to 20)
#    0.000    1.000    1.667    6.000    0.000    8.000 
#    0.000    0.833    0.000    0.000    0.000    0.000 
#    0.000    0.000    0.000    0.000    0.000    0.000 
#
# Total GULP energy -297813.375553 kJ/mol
# GULP energy per Si atom -12408.890648 kJ/mol
# Density = 2.014999 g / cm^3
# Si number density = 20.195961 Si / 1000 Ang^3
#
#
#
# Elastic Constant Matrix: (Units=GPa)
#
#
# Indices 1 2 3 4 5 6 
#
# 1 117.8771 14.0383 39.1339 0.0000 0.0000 0.0000
# 2 14.0383 46.7818 5.0684 0.0000 0.0000 0.0000
# 3 39.1339 5.0684 103.0692 0.0000 0.0000 0.0000
# 4 0.0000 0.0000 0.0000 33.1811 0.0000 0.0000
# 5 0.0000 0.0000 0.0000 0.0000 114.7965 0.0000
# 6 0.0000 0.0000 0.0000 0.0000 0.0000 18.8298
#
#
#
# Elastic Compliance Matrix: (Units=1/GPa)
#
#
# Indices 1 2 3 4 5 6 
#
# 1 0.010014 -0.002607 -0.003674 0.000000 0.000000 0.000000
# 2 -0.002607 0.022169 -0.000100 0.000000 0.000000 0.000000
# 3 -0.003674 -0.000100 0.011102 0.000000 0.000000 0.000000
# 4 0.000000 0.000000 0.000000 0.030138 0.000000 0.000000
# 5 0.000000 0.000000 0.000000 0.000000 0.008711 0.000000
# 6 0.000000 0.000000 0.000000 0.000000 0.000000 0.053107
#
#
# Mechanical properties :
#
#
# Convention : Reuss Voigt Hill
#
# Bulk Modulus (GPa) = 32.76272 42.68993 37.72633
# Shear Modulus (GPa) = 31.61023 47.32733 39.46878
#
# Velocity S-wave (km/s) = 3.96052 4.84613 4.42553
# Velocity P-wave (km/s) = 6.09688 7.24548 6.69585
#
# Compressibility (1/GPa) = 0.03052249
#
# Stress axis : x y z
#
# Youngs Moduli (GPa) = 99.86486 45.10812 90.07344
#
# Poissons Ratio (x) = 0.11759 0.33091
# Poissons Ratio (y) = 0.26033 0.00904
# Poissons Ratio (z) = 0.36688 0.00453
#
# Static dielectric constant tensor:
#      x y z
#    x 3.813220 0.000000 0.000000 
#    y 0.000000 0.068410 0.000000 
#    z 0.000000 0.000000 3.520960 
# 
# 
# High freq. dielectric constant tensor:
#      x y z
#    x 1.804220 0.000000 0.000000 
#    y 0.000000 1.770320 0.000000 
#    z 0.000000 0.000000 1.803450 
# 
# From -- ./inp_files/16800.got.cif
#   From: 2010.03.12/outbox.cif.g09.slc.cpg/sg24_9_cif.got.tgz:16800.got - 2010.04.14 03:06:53.
