data_PCOD8165374
_publ_section_title
;
Structure prediction by ZEFSAII (Michael W. Deem and Ramdas Pophale) SiO2 
 PCOD8165374
Probable space group: I 21 21 21
;
_chemical_formula_sum "Si O2"
_cell_formula_units_Z 48
_cell_length_a 14.887111
_cell_length_b 8.973615
_cell_length_c 16.615096
_cell_angle_alpha 90.000000
_cell_angle_beta 90.000000
_cell_angle_gamma 90.000000
_cell_volume 2219.630656
_symmetry_space_group_name_H-M "I 21 21 21"
_symmetry_group_IT_number 24
_symmetry_cell_setting 'orthorhombic'
loop_
_space_group_symop_operation_xyz
x,y,z
-x,1/2-y,z
x,-y,1/2-z
1/2-x,y,-z
1/2+x,1/2+y,1/2+z
1/2-x,-y,1/2+z
1/2+x,1/2-y,-z
-x,1/2+y,1/2-z
loop_
_atom_site_type_symbol
_atom_site_label
_atom_site_fract_x
_atom_site_fract_y
_atom_site_fract_z
Si Si1 0.350042 0.088530 0.376403
Si Si2 0.750000 0.217995 0.500000
Si Si3 0.708819 0.500000 0.750000
Si Si4 0.398832 0.769220 0.642409
Si Si5 0.839975 0.688847 0.529993
Si Si6 0.500000 0.750000 0.216211
Si Si7 0.123916 0.500000 0.750000
Si Si8 0.745895 0.036090 0.887694
O O1 0.324747 0.181858 0.456205
O O2 0.271330 0.096868 0.309629
O O3 0.442353 0.145384 0.341123
O O4 0.375999 0.916778 0.398914
O O5 0.704048 0.103278 0.563515
O O6 0.646350 0.601826 0.694580
O O7 0.500000 0.750000 0.675068
O O8 0.406185 0.803823 0.546620
O O9 0.337143 0.622245 0.653772
O O10 0.750000 0.604032 0.500000
O O11 0.809050 0.852507 0.559837
O O12 0.436594 0.644943 0.270474
O O13 0.187012 0.539580 0.824545
#
# Coordination Sequence:
#
# PCOD8165374 Si02
#       8
#     8   4   4   8   8   4   4   8
#     4  12  24  43  70 100 138 181 233 283 347 423
#     4  12  22  42  68 104 134 184 224 278 348 412
#     4  12  23  47  70  94 138 196 220 277 359 414
#     4  11  24  42  68 101 128 179 237 280 332 415
#     4  10  20  43  70  90 127 184 221 266 349 418
#     4  12  28  40  66 108 136 170 236 296 342 412
#     4  12  27  45  64 106 138 186 226 287 365 410
#     4  11  23  45  69  94 139 185 222 282 359 414
#
# _framework density 21.625219000000001
#
# number of rings (size 3 to 8) (size 9 to 14) (size 15 to 20)
#    0.000    0.667    8.333    1.500    2.333    3.333 
#    0.000    0.000    1.833    0.000    0.000    0.000 
#    0.000    0.000    0.000    0.000    0.000    0.000 
#
# Total GULP energy -297446.690310 kJ/mol
# GULP energy per Si atom -12393.612096 kJ/mol
# Density = 2.157600 g / cm^3
# Si number density = 21.625219 Si / 1000 Ang^3
#
#
#
# Elastic Constant Matrix: (Units=GPa)
#
#
# Indices 1 2 3 4 5 6 
#
# 1 115.6575 29.6829 34.7638 0.0000 0.0000 0.0000
# 2 29.6829 88.2489 26.8760 0.0000 0.0000 0.0000
# 3 34.7638 26.8760 83.9521 0.0000 0.0000 0.0000
# 4 0.0000 0.0000 0.0000 24.9030 0.0000 0.0000
# 5 0.0000 0.0000 0.0000 0.0000 21.1751 0.0000
# 6 0.0000 0.0000 0.0000 0.0000 0.0000 28.0924
#
#
#
# Elastic Compliance Matrix: (Units=1/GPa)
#
#
# Indices 1 2 3 4 5 6 
#
# 1 0.010316 -0.002403 -0.003502 0.000000 0.000000 0.000000
# 2 -0.002403 0.013116 -0.003204 0.000000 0.000000 0.000000
# 3 -0.003502 -0.003204 0.014387 0.000000 0.000000 0.000000
# 4 0.000000 0.000000 0.000000 0.040156 0.000000 0.000000
# 5 0.000000 0.000000 0.000000 0.000000 0.047225 0.000000
# 6 0.000000 0.000000 0.000000 0.000000 0.000000 0.035597
#
#
# Mechanical properties :
#
#
# Convention : Reuss Voigt Hill
#
# Bulk Modulus (GPa) = 51.01900 52.27820 51.64860
# Shear Modulus (GPa) = 26.94717 27.93648 27.44182
#
# Velocity S-wave (km/s) = 3.53384 3.59813 3.56613
# Velocity P-wave (km/s) = 6.34778 6.44121 6.39466
#
# Compressibility (1/GPa) = 0.01960054
#
# Stress axis : x y z
#
# Youngs Moduli (GPa) = 96.93987 76.24539 69.50517
#
# Poissons Ratio (x) = 0.18323 0.24343
# Poissons Ratio (y) = 0.23296 0.22267
# Poissons Ratio (z) = 0.33951 0.24426
#
# Static dielectric constant tensor:
#      x y z
#    x 3.730930 0.000000 0.000000 
#    y 0.000000 3.948260 0.000000 
#    z 0.000000 0.000000 4.405770 
# 
# 
# High freq. dielectric constant tensor:
#      x y z
#    x 1.825160 0.000000 0.000000 
#    y 0.000000 1.861650 0.000000 
#    z 0.000000 0.000000 1.853630 
# 
# From -- ./inp_files/27110.got.cif
#   From: 2010.03.12/outbox.cif.g09.slc.cpg/sg24_14_cif.got.tgz:27110.got - 2010.04.14 03:06:53.
