data_PCOD8165682
_publ_section_title
;
Structure prediction by ZEFSAII (Michael W. Deem and Ramdas Pophale) SiO2 
 PCOD8165682
Probable space group: I 21 21 21
;
_chemical_formula_sum "Si O2"
_cell_formula_units_Z 60
_cell_length_a 6.251025
_cell_length_b 18.774754
_cell_length_c 24.360242
_cell_angle_alpha 90.000000
_cell_angle_beta 90.000000
_cell_angle_gamma 90.000000
_cell_volume 2858.953485
_symmetry_space_group_name_H-M "I 21 21 21"
_symmetry_group_IT_number 24
_symmetry_cell_setting 'orthorhombic'
loop_
_space_group_symop_operation_xyz
x,y,z
-x,1/2-y,z
x,-y,1/2-z
1/2-x,y,-z
1/2+x,1/2+y,1/2+z
1/2-x,-y,1/2+z
1/2+x,1/2-y,-z
-x,1/2+y,1/2-z
loop_
_atom_site_type_symbol
_atom_site_label
_atom_site_fract_x
_atom_site_fract_y
_atom_site_fract_z
Si Si1 0.291105 0.426822 0.325477
Si Si2 0.792453 0.419476 0.890817
Si Si3 0.750000 0.883883 0.000000
Si Si4 0.633976 0.079090 0.201025
Si Si5 0.887572 0.574150 0.921411
Si Si6 0.407946 0.322039 0.860092
Si Si7 0.597831 0.822194 0.455420
Si Si8 0.009687 0.667554 0.101520
O O1 0.398784 0.414251 0.265954
O O2 0.232665 0.510748 0.322506
O O3 0.475795 0.410156 0.367877
O O4 0.087252 0.379541 0.345246
O O5 0.762845 0.499280 0.914000
O O6 0.568735 0.379593 0.885791
O O7 0.908666 0.417725 0.831263
O O8 0.925780 0.379753 0.937653
O O9 0.544444 0.928604 0.024377
O O10 0.824658 0.835662 0.050878
O O11 0.783786 0.145628 0.190632
O O12 0.714230 0.637685 0.922389
O O13 0.500000 0.250000 0.835265
O O14 0.239029 0.296448 0.904804
O O15 0.500000 0.750000 0.481343
O O16 0.750000 0.859832 0.500000
O O17 0.000000 0.750000 0.120179
#
# Coordination Sequence:
#
# PCOD8165682 Si02
#       8
#     8   8   4   8   8   8   8   8
#     4   9  20  41  62  92 122 156 206 253 307 373
#     4  10  22  39  61  86 121 164 205 257 305 362
#     4  10  24  40  62  90 126 160 208 256 314 380
#     4   9  20  38  64  87 123 164 200 254 307 365
#     4  10  22  42  63  90 121 158 212 254 312 373
#     4  11  21  37  57  86 123 160 206 245 301 365
#     4  11  23  38  56  83 120 163 206 250 298 355
#     4  11  24  40  65  91 127 161 205 258 319 384
#
# _framework density 20.986699999999999
#
# number of rings (size 3 to 8) (size 9 to 14) (size 15 to 20)
#    0.000    1.867    1.333    1.600    2.800    4.267 
#    2.400    4.000    0.000    0.000    0.000    0.000 
#    0.000    0.000    0.000    0.000    0.000    0.000 
#
# Total GULP energy -371741.791107 kJ/mol
# GULP energy per Si atom -12391.393037 kJ/mol
# Density = 2.093893 g / cm^3
# Si number density = 20.986700 Si / 1000 Ang^3
#
#
#
# Elastic Constant Matrix: (Units=GPa)
#
#
# Indices 1 2 3 4 5 6 
#
# 1 60.4934 25.3367 3.8722 0.0000 0.0000 0.0000
# 2 25.3367 107.4327 10.8049 0.0000 0.0000 0.0000
# 3 3.8722 10.8049 76.2426 0.0000 0.0000 0.0000
# 4 0.0000 0.0000 0.0000 26.9517 0.0000 0.0000
# 5 0.0000 0.0000 0.0000 0.0000 14.4436 0.0000
# 6 0.0000 0.0000 0.0000 0.0000 0.0000 28.0221
#
#
#
# Elastic Compliance Matrix: (Units=1/GPa)
#
#
# Indices 1 2 3 4 5 6 
#
# 1 0.018350 -0.004295 -0.000323 0.000000 0.000000 0.000000
# 2 -0.004295 0.010448 -0.001263 0.000000 0.000000 0.000000
# 3 -0.000323 -0.001263 0.013311 0.000000 0.000000 0.000000
# 4 0.000000 0.000000 0.000000 0.037103 0.000000 0.000000
# 5 0.000000 0.000000 0.000000 0.000000 0.069235 0.000000
# 6 0.000000 0.000000 0.000000 0.000000 0.000000 0.035686
#
#
# Mechanical properties :
#
#
# Convention : Reuss Voigt Hill
#
# Bulk Modulus (GPa) = 32.95127 36.02181 34.48654
# Shear Modulus (GPa) = 24.27041 27.49380 25.88211
#
# Velocity S-wave (km/s) = 3.40438 3.62340 3.51559
# Velocity P-wave (km/s) = 5.58463 5.89124 5.73999
#
# Compressibility (1/GPa) = 0.03034784
#
# Stress axis : x y z
#
# Youngs Moduli (GPa) = 54.49466 95.71108 75.12378
#
# Poissons Ratio (x) = 0.41110 0.02429
# Poissons Ratio (y) = 0.23407 0.09485
# Poissons Ratio (z) = 0.01762 0.12084
#
# Static dielectric constant tensor:
#      x y z
#    x 3.801320 0.000000 0.000000 
#    y 0.000000 3.830640 0.000000 
#    z 0.000000 0.000000 3.787030 
# 
# 
# High freq. dielectric constant tensor:
#      x y z
#    x 1.820840 0.000000 0.000000 
#    y 0.000000 1.818120 0.000000 
#    z 0.000000 0.000000 1.819650 
# 
# From -- ./inp_files/34807.got.cif
#   From: 2010.03.12/outbox.cif.g09.slc.cpg/sg24_18_cif.got.tgz:34807.got - 2010.04.14 03:06:53.
