data_PCOD8165962
_publ_section_title
;
Structure prediction by ZEFSAII (Michael W. Deem and Ramdas Pophale) SiO2 
 PCOD8165962
Probable space group: I 21 21 21
;
_chemical_formula_sum "Si O2"
_cell_formula_units_Z 56
_cell_length_a 14.724372
_cell_length_b 13.176420
_cell_length_c 12.275814
_cell_angle_alpha 90.000000
_cell_angle_beta 90.000000
_cell_angle_gamma 90.000000
_cell_volume 2381.686034
_symmetry_space_group_name_H-M "I 21 21 21"
_symmetry_group_IT_number 24
_symmetry_cell_setting 'orthorhombic'
loop_
_space_group_symop_operation_xyz
x,y,z
-x,1/2-y,z
x,-y,1/2-z
1/2-x,y,-z
1/2+x,1/2+y,1/2+z
1/2-x,-y,1/2+z
1/2+x,1/2-y,-z
-x,1/2+y,1/2-z
loop_
_atom_site_type_symbol
_atom_site_label
_atom_site_fract_x
_atom_site_fract_y
_atom_site_fract_z
Si Si1 0.492038 0.433938 0.139511
Si Si2 0.854312 0.198030 0.755203
Si Si3 0.765668 0.000000 0.250000
Si Si4 0.650385 0.251540 0.482126
Si Si5 0.695295 0.379432 0.104736
Si Si6 0.313895 0.000000 0.750000
Si Si7 0.546099 0.649212 0.834525
Si Si8 0.105699 0.463647 0.436208
O O1 0.501547 0.500000 0.250000
O O2 0.444104 0.329444 0.175873
O O3 0.590050 0.411048 0.086421
O O4 0.426577 0.480800 0.046431
O O5 0.883085 0.249413 0.641744
O O6 0.796388 0.283372 0.815992
O O7 0.795610 0.098241 0.730524
O O8 0.823057 0.975051 0.360331
O O9 0.750000 0.299340 0.500000
O O10 0.578595 0.321152 0.544432
O O11 0.654107 0.140579 0.534124
O O12 0.748143 0.478617 0.148512
O O13 0.750000 0.343368 0.000000
O O14 0.372404 0.103205 0.736310
O O15 0.500000 0.750000 0.778472
O O16 0.476939 0.557544 0.853739
#
# Coordination Sequence:
#
# PCOD8165962 Si02
#       8
#     8   8   4   8   8   4   8   8
#     4  12  25  47  75 109 151 201 253 319 378 456
#     4  12  26  45  75 110 150 196 255 316 383 445
#     4  12  25  45  76 112 154 202 250 317 379 452
#     4  11  21  41  69 108 142 185 256 315 366 439
#     4  12  30  48  73 110 149 199 251 305 392 460
#     4  12  25  51  76 102 146 196 248 309 379 460
#     4  10  25  43  72 108 144 192 245 310 371 449
#     4  11  24  41  71 108 148 194 247 302 384 443
#
# _framework density 23.512754999999999
#
# number of rings (size 3 to 8) (size 9 to 14) (size 15 to 20)
#    0.000    0.571    4.286    2.571    6.000    4.000 
#    0.000    1.429    0.000    0.000    0.000    0.000 
#    0.000    0.000    0.000    0.000    0.000    0.000 
#
# Total GULP energy -347140.694176 kJ/mol
# GULP energy per Si atom -12397.881935 kJ/mol
# Density = 2.345924 g / cm^3
# Si number density = 23.512755 Si / 1000 Ang^3
#
#
#
# Elastic Constant Matrix: (Units=GPa)
#
#
# Indices 1 2 3 4 5 6 
#
# 1 128.3160 29.5565 33.4592 0.0000 0.0000 0.0000
# 2 29.5565 76.5802 19.8050 0.0000 0.0000 0.0000
# 3 33.4592 19.8050 104.6686 0.0000 0.0000 0.0000
# 4 0.0000 0.0000 0.0000 21.2687 0.0000 0.0000
# 5 0.0000 0.0000 0.0000 0.0000 44.0202 0.0000
# 6 0.0000 0.0000 0.0000 0.0000 0.0000 28.8602
#
#
#
# Elastic Compliance Matrix: (Units=1/GPa)
#
#
# Indices 1 2 3 4 5 6 
#
# 1 0.009073 -0.002893 -0.002353 0.000000 0.000000 0.000000
# 2 -0.002893 0.014653 -0.001848 0.000000 0.000000 0.000000
# 3 -0.002353 -0.001848 0.010656 0.000000 0.000000 0.000000
# 4 0.000000 0.000000 0.000000 0.047017 0.000000 0.000000
# 5 0.000000 0.000000 0.000000 0.000000 0.022717 0.000000
# 6 0.000000 0.000000 0.000000 0.000000 0.000000 0.034650
#
#
# Mechanical properties :
#
#
# Convention : Reuss Voigt Hill
#
# Bulk Modulus (GPa) = 49.52002 52.80069 51.16036
# Shear Modulus (GPa) = 31.31165 33.94609 32.62887
#
# Velocity S-wave (km/s) = 3.65319 3.80377 3.72924
# Velocity P-wave (km/s) = 6.23707 6.46502 6.35207
#
# Compressibility (1/GPa) = 0.02019385
#
# Stress axis : x y z
#
# Youngs Moduli (GPa) = 110.21381 68.24664 93.84622
#
# Poissons Ratio (x) = 0.19746 0.22082
# Poissons Ratio (y) = 0.31889 0.17339
# Poissons Ratio (z) = 0.25933 0.12609
#
# Static dielectric constant tensor:
#      x y z
#    x 4.503740 0.000000 0.000000 
#    y 0.000000 4.185770 0.000000 
#    z 0.000000 0.000000 4.219130 
# 
# 
# High freq. dielectric constant tensor:
#      x y z
#    x 1.952290 0.000000 0.000000 
#    y 0.000000 1.921270 0.000000 
#    z 0.000000 0.000000 1.924260 
# 
# From -- ./inp_files/20891.got.cif
#   From: 2010.03.12/outbox.cif.g09.slc.cpg/sg24_11_cif.got.tgz:20891.got - 2010.04.14 03:06:53.
