data_PCOD8165103
_publ_section_title
;
Structure prediction by ZEFSAII (Michael W. Deem and Ramdas Pophale) SiO2 
 PCOD8165103
Probable space group: I 21 21 21
;
_chemical_formula_sum "Si O2"
_cell_formula_units_Z 32
_cell_length_a 12.830512
_cell_length_b 23.569672
_cell_length_c 4.934595
_cell_angle_alpha 90.000000
_cell_angle_beta 90.000000
_cell_angle_gamma 90.000000
_cell_volume 1492.275608
_symmetry_space_group_name_H-M "I 21 21 21"
_symmetry_group_IT_number 24
_symmetry_cell_setting 'orthorhombic'
loop_
_space_group_symop_operation_xyz
x,y,z
-x,1/2-y,z
x,-y,1/2-z
1/2-x,y,-z
1/2+x,1/2+y,1/2+z
1/2-x,-y,1/2+z
1/2+x,1/2-y,-z
-x,1/2+y,1/2-z
loop_
_atom_site_type_symbol
_atom_site_label
_atom_site_fract_x
_atom_site_fract_y
_atom_site_fract_z
Si Si1 0.320735 0.215108 0.738293
Si Si2 0.461711 0.886735 0.644894
Si Si3 0.860666 0.438534 0.620146
Si Si4 0.820440 0.841628 0.244112
O O1 0.250000 0.190393 0.500000
O O2 0.419663 0.174208 0.761011
O O3 0.361196 0.278574 0.663594
O O4 0.250000 0.213984 0.000000
O O5 0.412703 0.898830 0.349619
O O6 0.586575 0.882982 0.661084
O O7 0.434322 0.937047 0.856589
O O8 0.847128 0.500000 0.750000
O O9 0.750000 0.416762 0.500000
O O10 0.750000 0.833538 0.500000
O O11 0.750000 0.867679 0.000000
#
# Coordination Sequence:
#
# PCOD8165103 Si02
#       4
#     8   8   8   8
#     4  10  20  34  56  89 123 152 191 239 293 357
#     4  12  22  38  64  87 118 162 201 238 298 362
#     4  12  25  41  62  90 121 150 190 248 309 365
#     4  10  22  39  58  86 123 160 200 245 287 342
#
# _framework density 21.443762
#
# number of rings (size 3 to 8) (size 9 to 14) (size 15 to 20)
#    0.000    1.000    0.000    9.000    0.000    0.000 
#    0.000   10.000    0.000   15.000    0.000    0.000 
#    0.000    0.000    0.000    0.000    0.000    0.000 
#
# Total GULP energy -198293.902020 kJ/mol
# GULP energy per Si atom -12393.368876 kJ/mol
# Density = 2.139495 g / cm^3
# Si number density = 21.443762 Si / 1000 Ang^3
#
#
#
# Elastic Constant Matrix: (Units=GPa)
#
#
# Indices 1 2 3 4 5 6 
#
# 1 124.2957 43.1235 44.8939 0.0706 -0.0034 -0.0429
# 2 43.1235 53.5395 22.1163 0.0859 -0.0514 -0.0830
# 3 44.8939 22.1163 135.7346 0.6708 -0.0448 -0.1835
# 4 0.0706 0.0859 0.6708 43.7951 -0.0066 -0.0581
# 5 -0.0034 -0.0514 -0.0448 -0.0066 36.6806 -0.0311
# 6 -0.0429 -0.0830 -0.1835 -0.0581 -0.0311 25.7693
#
#
#
# Elastic Compliance Matrix: (Units=1/GPa)
#
#
# Indices 1 2 3 4 5 6 
#
# 1 0.011938 -0.008560 -0.002554 0.000037 -0.000014 -0.000026
# 2 -0.008560 0.026164 -0.001432 -0.000015 0.000034 0.000060
# 3 -0.002554 -0.001432 0.008446 -0.000122 0.000008 0.000051
# 4 0.000037 -0.000015 -0.000122 0.022836 0.000004 0.000051
# 5 -0.000014 0.000034 0.000008 0.000004 0.027262 0.000033
# 6 -0.000026 0.000060 0.000051 0.000051 0.000033 0.038807
#
#
# Mechanical properties :
#
#
# Convention : Reuss Voigt Hill
#
# Bulk Modulus (GPa) = 46.60645 59.31525 52.96085
# Shear Modulus (GPa) = 29.81582 34.81139 32.31361
#
# Velocity S-wave (km/s) = 3.73288 4.03349 3.88609
# Velocity P-wave (km/s) = 6.35300 7.02944 6.69976
#
# Compressibility (1/GPa) = 0.02145626
#
# Stress axis : x y z
#
# Youngs Moduli (GPa) = 83.76850 38.21998 118.40039
#
# Poissons Ratio (x) = 0.32718 0.30237
# Poissons Ratio (y) = 0.71709 0.16951
# Poissons Ratio (z) = 0.21392 0.05472
#
# Static dielectric constant tensor:
#      x y z
#    x 3.636570 -0.000070 0.000040 
#    y -0.000070 3.748880 -0.000760 
#    z 0.000040 -0.000760 4.082130 
# 
# 
# High freq. dielectric constant tensor:
#      x y z
#    x 1.827580 0.000000 0.000000 
#    y 0.000000 1.823090 -0.000020 
#    z 0.000000 -0.000020 1.863570 
# 
# From -- ./inp_files/2154.got.cif
#   From: 2010.03.12/outbox.cif.g09.slc.cpg/sg24_2_cif.got.tgz:2154.got - 2010.04.14 03:06:53.
