data_PCOD8165859
_publ_section_title
;
Structure prediction by ZEFSAII (Michael W. Deem and Ramdas Pophale) SiO2 
 PCOD8165859
Probable space group: I 21 21 21
;
_chemical_formula_sum "Si O2"
_cell_formula_units_Z 60
_cell_length_a 9.391659
_cell_length_b 13.978479
_cell_length_c 22.761335
_cell_angle_alpha 90.000000
_cell_angle_beta 90.000000
_cell_angle_gamma 90.000000
_cell_volume 2988.133281
_symmetry_space_group_name_H-M "I 21 21 21"
_symmetry_group_IT_number 24
_symmetry_cell_setting 'orthorhombic'
loop_
_space_group_symop_operation_xyz
x,y,z
-x,1/2-y,z
x,-y,1/2-z
1/2-x,y,-z
1/2+x,1/2+y,1/2+z
1/2-x,-y,1/2+z
1/2+x,1/2-y,-z
-x,1/2+y,1/2-z
loop_
_atom_site_type_symbol
_atom_site_label
_atom_site_fract_x
_atom_site_fract_y
_atom_site_fract_z
Si Si1 0.301138 0.485852 0.367947
Si Si2 0.250000 0.698333 0.000000
Si Si3 0.565567 0.498646 0.056069
Si Si4 0.235598 0.839871 0.101938
Si Si5 0.345587 0.789742 0.443551
Si Si6 0.338943 0.285997 0.300899
Si Si7 0.034542 0.566266 0.060057
Si Si8 0.848675 0.804369 0.670632
O O1 0.404138 0.483762 0.423816
O O2 0.320586 0.392658 0.327121
O O3 0.141097 0.489824 0.395866
O O4 0.344990 0.579944 0.331342
O O5 0.210134 0.762165 0.944532
O O6 0.386014 0.635978 0.984613
O O7 0.662673 0.571348 0.091726
O O8 0.634270 0.399048 0.074714
O O9 0.562629 0.501887 0.984302
O O10 0.245769 0.792382 0.165613
O O11 0.071345 0.869990 0.098596
O O12 0.500000 0.750000 0.459730
O O13 0.250000 0.772201 0.500000
O O14 0.269523 0.736001 0.387708
O O15 0.500000 0.250000 0.304798
O O16 0.281035 0.281015 0.233895
O O17 0.000000 0.750000 0.666680
#
# Coordination Sequence:
#
# PCOD8165859 Si02
#       8
#     8   4   8   8   8   8   8   8
#     4  12  22  38  66  95 125 167 219 261 323 377
#     4  12  22  34  58  90 132 170 206 242 312 386
#     4  12  22  41  59  98 131 167 212 264 318 383
#     4  12  24  38  60  95 138 173 204 259 324 389
#     4  11  24  42  68  92 125 162 211 272 322 370
#     4  11  23  39  66  95 127 168 217 259 318 381
#     4  12  24  36  63  94 138 170 206 258 326 392
#     4  10  23  44  65  94 122 163 224 276 307 370
#
# _framework density 20.079426000000002
#
# number of rings (size 3 to 8) (size 9 to 14) (size 15 to 20)
#    0.000    0.533    8.000    1.600    1.867    0.000 
#    0.000    0.667    2.933    1.600    0.000    0.000 
#    0.000    0.000    0.000    0.000    0.000    0.000 
#
# Total GULP energy -371797.553333 kJ/mol
# GULP energy per Si atom -12393.251778 kJ/mol
# Density = 2.003372 g / cm^3
# Si number density = 20.079426 Si / 1000 Ang^3
#
#
#
# Elastic Constant Matrix: (Units=GPa)
#
#
# Indices 1 2 3 4 5 6 
#
# 1 73.6262 37.7154 52.4683 0.0000 0.0000 0.0000
# 2 37.7154 128.1930 64.8203 0.0000 0.0000 0.0000
# 3 52.4683 64.8203 161.9203 0.0000 0.0000 0.0000
# 4 0.0000 0.0000 0.0000 19.3999 0.0000 0.0000
# 5 0.0000 0.0000 0.0000 0.0000 33.5477 0.0000
# 6 0.0000 0.0000 0.0000 0.0000 0.0000 37.3532
#
#
#
# Elastic Compliance Matrix: (Units=1/GPa)
#
#
# Indices 1 2 3 4 5 6 
#
# 1 0.018555 -0.003033 -0.004799 0.000000 0.000000 0.000000
# 2 -0.003033 0.010276 -0.003131 0.000000 0.000000 0.000000
# 3 -0.004799 -0.003131 0.008984 0.000000 0.000000 0.000000
# 4 0.000000 0.000000 0.000000 0.051547 0.000000 0.000000
# 5 0.000000 0.000000 0.000000 0.000000 0.029808 0.000000
# 6 0.000000 0.000000 0.000000 0.000000 0.000000 0.026771
#
#
# Mechanical properties :
#
#
# Convention : Reuss Voigt Hill
#
# Bulk Modulus (GPa) = 62.92879 74.86085 68.89482
# Shear Modulus (GPa) = 28.87441 31.97587 30.42514
#
# Velocity S-wave (km/s) = 3.79622 3.99490 3.89683
# Velocity P-wave (km/s) = 7.11499 7.65783 7.39139
#
# Compressibility (1/GPa) = 0.01589098
#
# Stress axis : x y z
#
# Youngs Moduli (GPa) = 53.89319 97.31214 111.30631
#
# Poissons Ratio (x) = 0.29512 0.53410
# Poissons Ratio (y) = 0.16344 0.34851
# Poissons Ratio (z) = 0.25861 0.30469
#
# Static dielectric constant tensor:
#      x y z
#    x 3.491430 0.000000 0.000000 
#    y 0.000000 4.020900 0.000000 
#    z 0.000000 0.000000 3.905120 
# 
# 
# High freq. dielectric constant tensor:
#      x y z
#    x 1.764610 0.000000 0.000000 
#    y 0.000000 1.796350 0.000000 
#    z 0.000000 0.000000 1.783380 
# 
# From -- ./inp_files/35247.got.cif
#   From: 2010.03.12/outbox.cif.g09.slc.cpg/sg24_18_cif.got.tgz:35247.got - 2010.04.14 03:06:53.
