data_PCOD8165722
_publ_section_title
;
Structure prediction by ZEFSAII (Michael W. Deem and Ramdas Pophale) SiO2 
 PCOD8165722
Probable space group: I 21 21 21
;
_chemical_formula_sum "Si O2"
_cell_formula_units_Z 40
_cell_length_a 8.500845
_cell_length_b 9.622662
_cell_length_c 22.940009
_cell_angle_alpha 90.000000
_cell_angle_beta 90.000000
_cell_angle_gamma 90.000000
_cell_volume 1876.510128
_symmetry_space_group_name_H-M "I 21 21 21"
_symmetry_group_IT_number 24
_symmetry_cell_setting 'orthorhombic'
loop_
_space_group_symop_operation_xyz
x,y,z
-x,1/2-y,z
x,-y,1/2-z
1/2-x,y,-z
1/2+x,1/2+y,1/2+z
1/2-x,-y,1/2+z
1/2+x,1/2-y,-z
-x,1/2+y,1/2-z
loop_
_atom_site_type_symbol
_atom_site_label
_atom_site_fract_x
_atom_site_fract_y
_atom_site_fract_z
Si Si1 0.686176 0.735681 0.378390
Si Si2 0.815363 0.982656 0.438753
Si Si3 0.659234 0.165664 0.243105
Si Si4 0.184076 0.973567 0.064947
Si Si5 0.315330 0.720524 0.131198
O O1 0.500000 0.750000 0.384745
O O2 0.773566 0.821448 0.429165
O O3 0.752828 0.793082 0.315928
O O4 0.732605 0.576464 0.389193
O O5 0.750000 0.035652 0.500000
O O6 0.720379 0.065078 0.389324
O O7 0.999756 0.004136 0.435809
O O8 0.500000 0.250000 0.235272
O O9 0.742355 0.226186 0.301312
O O10 0.630367 0.000000 0.250000
O O11 0.215973 0.821044 0.089942
O O12 0.250000 0.990840 0.000000
O O13 0.500000 0.750000 0.126139
#
# Coordination Sequence:
#
# PCOD8165722 Si02
#       5
#     8   8   8   8   8
#     4  11  23  42  68  96 132 172 222 272 325 393
#     4  12  24  43  66  93 133 174 218 276 335 396
#     4  10  22  40  69 101 134 174 224 271 328 396
#     4  12  26  43  64  99 133 174 222 270 337 398
#     4  11  23  42  68  96 132 172 222 272 325 393
#
# _framework density 21.316164000000001
#
# number of rings (size 3 to 8) (size 9 to 14) (size 15 to 20)
#    0.000    0.800    2.000    6.000    8.400    0.000 
#    0.000    6.000    0.000    0.000    0.000    0.000 
#    0.000    0.000    0.000    0.000    0.000    0.000 
#
# Total GULP energy -247995.330724 kJ/mol
# GULP energy per Si atom -12399.766536 kJ/mol
# Density = 2.126765 g / cm^3
# Si number density = 21.316164 Si / 1000 Ang^3
#
#
#
# Elastic Constant Matrix: (Units=GPa)
#
#
# Indices 1 2 3 4 5 6 
#
# 1 106.2370 6.7477 38.8601 -0.0001 0.0000 0.0000
# 2 6.7477 81.6896 31.6897 -0.0005 0.0000 0.0000
# 3 38.8601 31.6897 145.8448 -0.0001 0.0000 0.0000
# 4 -0.0001 -0.0005 -0.0001 289.8914 -0.0001 -0.0001
# 5 0.0000 0.0000 0.0000 -0.0001 20.5281 0.0000
# 6 0.0000 0.0000 0.0000 -0.0001 0.0000 40.5581
#
#
#
# Elastic Compliance Matrix: (Units=1/GPa)
#
#
# Indices 1 2 3 4 5 6 
#
# 1 0.010434 0.000237 -0.002831 0.000000 0.000000 0.000000
# 2 0.000237 0.013374 -0.002969 0.000000 0.000000 0.000000
# 3 -0.002831 -0.002969 0.008256 0.000000 0.000000 0.000000
# 4 0.000000 0.000000 0.000000 0.003450 0.000000 0.000000
# 5 0.000000 0.000000 0.000000 0.000000 0.048714 0.000000
# 6 0.000000 0.000000 0.000000 0.000000 0.000000 0.024656
#
#
# Mechanical properties :
#
#
# Convention : Reuss Voigt Hill
#
# Bulk Modulus (GPa) = 47.76503 54.26295 51.01399
# Shear Modulus (GPa) = 39.37356 87.29378 63.33367
#
# Velocity S-wave (km/s) = 4.30248 6.40631 5.45675
# Velocity P-wave (km/s) = 6.86573 8.95727 7.98032
#
# Compressibility (1/GPa) = 0.02093582
#
# Stress axis : x y z
#
# Youngs Moduli (GPa) = 95.84431 74.77395 121.12220
#
# Poissons Ratio (x) = -0.01769 0.34295
# Poissons Ratio (y) = -0.02267 0.35960
# Poissons Ratio (z) = 0.27137 0.22200
#
# Static dielectric constant tensor:
#      x y z
#    x 3.549930 0.000000 0.000000 
#    y 0.000000 4.401200 0.000000 
#    z 0.000000 0.000000 4.401830 
# 
# 
# High freq. dielectric constant tensor:
#      x y z
#    x 1.815020 0.000000 0.000000 
#    y 0.000000 1.851330 0.000000 
#    z 0.000000 0.000000 1.858980 
# 
# From -- ./inp_files/9222.got.cif
#   From: 2010.03.12/outbox.cif.g09.slc.cpg/sg24_5_cif.got.tgz:9222.got - 2010.04.14 03:06:53.
