data_PCOD8165619
_publ_section_title
;
Structure prediction by ZEFSAII (Michael W. Deem and Ramdas Pophale) SiO2 
 PCOD8165619
Probable space group: I 21 21 21
;
_chemical_formula_sum "Si O2"
_cell_formula_units_Z 32
_cell_length_a 14.303549
_cell_length_b 7.524756
_cell_length_c 14.853832
_cell_angle_alpha 90.000000
_cell_angle_beta 90.000000
_cell_angle_gamma 90.000000
_cell_volume 1598.728576
_symmetry_space_group_name_H-M "I 21 21 21"
_symmetry_group_IT_number 24
_symmetry_cell_setting 'orthorhombic'
loop_
_space_group_symop_operation_xyz
x,y,z
-x,1/2-y,z
x,-y,1/2-z
1/2-x,y,-z
1/2+x,1/2+y,1/2+z
1/2-x,-y,1/2+z
1/2+x,1/2-y,-z
-x,1/2+y,1/2-z
loop_
_atom_site_type_symbol
_atom_site_label
_atom_site_fract_x
_atom_site_fract_y
_atom_site_fract_z
Si Si1 0.148033 0.449038 0.017146
Si Si2 0.204426 0.335397 0.317518
Si Si3 0.585648 0.881935 0.163625
Si Si4 0.909569 0.500000 0.250000
Si Si5 0.500000 0.250000 0.882205
O O1 0.162344 0.616008 0.084743
O O2 0.090576 0.287628 0.058637
O O3 0.250000 0.365812 0.000000
O O4 0.094492 0.502146 0.926527
O O5 0.188489 0.500000 0.250000
O O6 0.314389 0.285446 0.322180
O O7 0.153337 0.161037 0.283506
O O8 0.500000 0.750000 0.148848
O O9 0.560818 0.000000 0.250000
O O10 0.979146 0.572165 0.325990
#
# Coordination Sequence:
#
# PCOD8165619 Si02
#       5
#     8   8   8   4   4
#     4  10  23  45  64  93 137 169 212 276 323 382
#     4  10  21  45  67  96 136 169 210 275 330 382
#     4  10  24  42  66  91 131 177 224 270 316 388
#     4  12  24  40  72 100 130 166 216 270 336 392
#     4  12  24  40  70 100 128 170 218 266 332 400
#
# _framework density 20.015905
#
# number of rings (size 3 to 8) (size 9 to 14) (size 15 to 20)
#    0.000    1.500    2.500    1.500    7.000    0.000 
#    4.500    0.000    0.000    0.000    0.000    0.000 
#    0.000    0.000    0.000    0.000    0.000    0.000 
#
# Total GULP energy -198399.005286 kJ/mol
# GULP energy per Si atom -12399.937830 kJ/mol
# Density = 1.997035 g / cm^3
# Si number density = 20.015905 Si / 1000 Ang^3
#
#
#
# Elastic Constant Matrix: (Units=GPa)
#
#
# Indices 1 2 3 4 5 6 
#
# 1 143.9516 70.0531 63.2390 0.0000 0.0000 0.0000
# 2 70.0531 106.2228 53.5520 0.0000 0.0000 0.0000
# 3 63.2390 53.5520 145.0368 0.0000 0.0000 0.0000
# 4 0.0000 0.0000 0.0000 28.6007 0.0000 0.0000
# 5 0.0000 0.0000 0.0000 0.0000 12.3716 0.0000
# 6 0.0000 0.0000 0.0000 0.0000 0.0000 20.5599
#
#
#
# Elastic Compliance Matrix: (Units=1/GPa)
#
#
# Indices 1 2 3 4 5 6 
#
# 1 0.010971 -0.005927 -0.002595 0.000000 0.000000 0.000000
# 2 -0.005927 0.014769 -0.002869 0.000000 0.000000 0.000000
# 3 -0.002595 -0.002869 0.009086 0.000000 0.000000 0.000000
# 4 0.000000 0.000000 0.000000 0.034964 0.000000 0.000000
# 5 0.000000 0.000000 0.000000 0.000000 0.080831 0.000000
# 6 0.000000 0.000000 0.000000 0.000000 0.000000 0.048638
#
#
# Mechanical properties :
#
#
# Convention : Reuss Voigt Hill
#
# Bulk Modulus (GPa) = 83.03050 85.43329 84.23190
# Shear Modulus (GPa) = 22.11834 26.19756 24.15795
#
# Velocity S-wave (km/s) = 3.32782 3.62171 3.47787
# Velocity P-wave (km/s) = 7.50587 7.76302 7.63553
#
# Compressibility (1/GPa) = 0.01204377
#
# Stress axis : x y z
#
# Youngs Moduli (GPa) = 91.14718 67.70740 110.06307
#
# Poissons Ratio (x) = 0.40131 0.28564
# Poissons Ratio (y) = 0.54024 0.31577
# Poissons Ratio (z) = 0.23655 0.19425
#
# Static dielectric constant tensor:
#      x y z
#    x 3.906090 0.000000 0.000000 
#    y 0.000000 3.894700 0.000000 
#    z 0.000000 0.000000 3.982400 
# 
# 
# High freq. dielectric constant tensor:
#      x y z
#    x 1.806320 0.000000 0.000000 
#    y 0.000000 1.751590 0.000000 
#    z 0.000000 0.000000 1.799850 
# 
# From -- ./inp_files/12110.got.cif
#   From: 2010.03.12/outbox.cif.g09.slc.cpg/sg24_7_cif.got.tgz:12110.got - 2010.04.14 03:06:53.
