data_PCOD8165757
_publ_section_title
;
Structure prediction by ZEFSAII (Michael W. Deem and Ramdas Pophale) SiO2 
 PCOD8165757
Probable space group: I 21 21 21
;
_chemical_formula_sum "Si O2"
_cell_formula_units_Z 40
_cell_length_a 26.843492
_cell_length_b 7.503483
_cell_length_c 8.875286
_cell_angle_alpha 90.000000
_cell_angle_beta 90.000000
_cell_angle_gamma 90.000000
_cell_volume 1787.657318
_symmetry_space_group_name_H-M "I 21 21 21"
_symmetry_group_IT_number 24
_symmetry_cell_setting 'orthorhombic'
loop_
_space_group_symop_operation_xyz
x,y,z
-x,1/2-y,z
x,-y,1/2-z
1/2-x,y,-z
1/2+x,1/2+y,1/2+z
1/2-x,-y,1/2+z
1/2+x,1/2-y,-z
-x,1/2+y,1/2-z
loop_
_atom_site_type_symbol
_atom_site_label
_atom_site_fract_x
_atom_site_fract_y
_atom_site_fract_z
Si Si1 0.027526 0.931331 0.910192
Si Si2 0.630778 0.721711 0.183790
Si Si3 0.422973 0.500000 0.750000
Si Si4 0.217833 0.000000 0.750000
Si Si5 0.250000 0.249240 0.000000
Si Si6 0.000000 0.750000 0.362180
Si Si7 0.355365 0.411635 0.031604
O O1 0.085613 0.884621 0.890811
O O2 0.000000 0.750000 0.957717
O O3 0.005364 0.000000 0.750000
O O4 0.018733 0.084018 0.035429
O O5 0.680674 0.613276 0.143862
O O6 0.623031 0.746569 0.367219
O O7 0.642300 0.914871 0.129389
O O8 0.457436 0.677939 0.751997
O O9 0.388988 0.535404 0.607825
O O10 0.251909 0.873515 0.648446
O O11 0.201451 0.372413 0.013708
#
# Coordination Sequence:
#
# PCOD8165757 Si02
#       7
#     8   8   4   4   4   4   8
#     4  12  24  42  75 107 139 188 251 306 356 431
#     4  10  22  43  72  99 134 185 239 302 347 431
#     4  12  28  48  67 102 156 199 236 300 378 444
#     4  10  22  42  69 102 140 173 226 296 376 434
#     4  10  24  44  72 106 138 180 244 304 370 462
#     4  12  30  46  66 108 156 200 248 300 372 454
#     4  10  24  45  71 102 140 187 245 298 371 438
#
# _framework density 22.375654999999998
#
# number of rings (size 3 to 8) (size 9 to 14) (size 15 to 20)
#    0.000    1.200    2.000    2.400    9.800    5.600 
#    0.000    1.000    0.000    0.000    0.000    0.000 
#    0.000    0.000    0.000    0.000    0.000    0.000 
#
# Total GULP energy -247771.739870 kJ/mol
# GULP energy per Si atom -12388.586994 kJ/mol
# Density = 2.232473 g / cm^3
# Si number density = 22.375655 Si / 1000 Ang^3
#
#
#
# Elastic Constant Matrix: (Units=GPa)
#
#
# Indices 1 2 3 4 5 6 
#
# 1 144.3100 62.6549 69.5590 0.0000 0.0000 0.0000
# 2 62.6549 139.7738 50.8801 0.0000 0.0000 0.0000
# 3 69.5590 50.8801 88.8055 0.0000 0.0000 0.0000
# 4 0.0000 0.0000 0.0000 31.2482 0.0000 0.0000
# 5 0.0000 0.0000 0.0000 0.0000 23.0052 0.0000
# 6 0.0000 0.0000 0.0000 0.0000 0.0000 43.8328
#
#
#
# Elastic Compliance Matrix: (Units=1/GPa)
#
#
# Indices 1 2 3 4 5 6 
#
# 1 0.011747 -0.002421 -0.007814 0.000000 0.000000 0.000000
# 2 -0.002421 0.009539 -0.003569 0.000000 0.000000 0.000000
# 3 -0.007814 -0.003569 0.019426 0.000000 0.000000 0.000000
# 4 0.000000 0.000000 0.000000 0.032002 0.000000 0.000000
# 5 0.000000 0.000000 0.000000 0.000000 0.043468 0.000000
# 6 0.000000 0.000000 0.000000 0.000000 0.000000 0.022814
#
#
# Mechanical properties :
#
#
# Convention : Reuss Voigt Hill
#
# Bulk Modulus (GPa) = 76.31361 82.11969 79.21665
# Shear Modulus (GPa) = 29.24460 32.27027 30.75743
#
# Velocity S-wave (km/s) = 3.61914 3.80176 3.71157
# Velocity P-wave (km/s) = 7.18637 7.48674 7.33809
#
# Compressibility (1/GPa) = 0.01310382
#
# Stress axis : x y z
#
# Youngs Moduli (GPa) = 85.12626 104.83448 51.47836
#
# Poissons Ratio (x) = 0.25384 0.40225
# Poissons Ratio (y) = 0.20612 0.18370
# Poissons Ratio (z) = 0.66518 0.37411
#
# Static dielectric constant tensor:
#      x y z
#    x 4.095880 0.000000 0.000000 
#    y 0.000000 4.583540 0.000000 
#    z 0.000000 0.000000 4.867190 
# 
# 
# High freq. dielectric constant tensor:
#      x y z
#    x 1.880050 0.000000 0.000000 
#    y 0.000000 1.908590 0.000000 
#    z 0.000000 0.000000 1.875130 
# 
# From -- ./inp_files/15685.got.cif
#   From: 2010.03.12/outbox.cif.g09.slc.cpg/sg24_8_cif.got.tgz:15685.got - 2010.04.14 03:06:53.
