data_PCOD8165424
_publ_section_title
;
Structure prediction by ZEFSAII (Michael W. Deem and Ramdas Pophale) SiO2 
 PCOD8165424
Probable space group: I 21 21 21
;
_chemical_formula_sum "Si O2"
_cell_formula_units_Z 60
_cell_length_a 9.027617
_cell_length_b 12.109856
_cell_length_c 27.971674
_cell_angle_alpha 90.000000
_cell_angle_beta 90.000000
_cell_angle_gamma 90.000000
_cell_volume 3057.951286
_symmetry_space_group_name_H-M "I 21 21 21"
_symmetry_group_IT_number 24
_symmetry_cell_setting 'orthorhombic'
loop_
_space_group_symop_operation_xyz
x,y,z
-x,1/2-y,z
x,-y,1/2-z
1/2-x,y,-z
1/2+x,1/2+y,1/2+z
1/2-x,-y,1/2+z
1/2+x,1/2-y,-z
-x,1/2+y,1/2-z
loop_
_atom_site_type_symbol
_atom_site_label
_atom_site_fract_x
_atom_site_fract_y
_atom_site_fract_z
Si Si1 0.833581 0.110537 0.451796
Si Si2 0.000000 0.250000 0.271165
Si Si3 0.631846 0.530293 0.802712
Si Si4 0.326427 0.239761 0.050908
Si Si5 0.828384 0.629393 0.047467
Si Si6 0.163404 0.417408 0.209473
Si Si7 0.332271 0.971220 0.386709
Si Si8 0.679896 0.053921 0.113677
O O1 0.750000 0.069574 0.500000
O O2 0.818504 0.240516 0.446046
O O3 0.006312 0.080349 0.454535
O O4 0.765583 0.054730 0.404462
O O5 0.087354 0.161209 0.304708
O O6 0.124419 0.303781 0.236538
O O7 0.683894 0.500000 0.750000
O O8 0.483355 0.464478 0.816090
O O9 0.765417 0.482261 0.833966
O O10 0.500000 0.250000 0.042124
O O11 0.280774 0.137936 0.084987
O O12 0.272647 0.350235 0.077108
O O13 0.250000 0.225377 0.000000
O O14 0.734190 0.580553 0.090127
O O15 0.750000 0.587926 0.000000
O O16 0.225769 0.500000 0.250000
O O17 0.282108 0.405313 0.167214
O O18 0.508022 0.975259 0.385551
#
# Coordination Sequence:
#
# PCOD8165424 Si02
#       8
#     8   4   8   8   8   8   8   8
#     4  10  21  38  58  85 117 149 195 241 295 350
#     4   8  18  38  62  86 116 144 198 248 296 354
#     4   9  20  37  60  87 114 151 194 243 297 354
#     4  10  24  41  57  85 121 159 200 245 289 347
#     4  10  21  37  59  84 115 154 190 242 294 350
#     4   9  20  37  60  85 114 151 195 244 297 352
#     4  11  23  38  58  86 121 155 198 240 295 357
#     4  11  23  38  60  85 121 156 197 244 295 353
#
# _framework density 19.620979999999999
#
# number of rings (size 3 to 8) (size 9 to 14) (size 15 to 20)
#    0.000    2.400    0.000    2.400    3.733    9.600 
#    0.000    0.000    0.000    0.000    0.000    0.000 
#    0.000    0.000    0.000    0.000    0.000    0.000 
#
# Total GULP energy -371882.196440 kJ/mol
# GULP energy per Si atom -12396.073215 kJ/mol
# Density = 1.957632 g / cm^3
# Si number density = 19.620980 Si / 1000 Ang^3
#
#
#
# Elastic Constant Matrix: (Units=GPa)
#
#
# Indices 1 2 3 4 5 6 
#
# 1 108.3465 45.4662 59.7283 0.0000 0.0000 0.0000
# 2 45.4662 76.7630 36.5031 0.0000 0.0000 0.0000
# 3 59.7283 36.5031 112.0098 0.0000 0.0000 0.0000
# 4 0.0000 0.0000 0.0000 24.9239 0.0000 0.0000
# 5 0.0000 0.0000 0.0000 0.0000 40.6501 0.0000
# 6 0.0000 0.0000 0.0000 0.0000 0.0000 33.8243
#
#
#
# Elastic Compliance Matrix: (Units=1/GPa)
#
#
# Indices 1 2 3 4 5 6 
#
# 1 0.015134 -0.006066 -0.006093 0.000000 0.000000 0.000000
# 2 -0.006066 0.017848 -0.002582 0.000000 0.000000 0.000000
# 3 -0.006093 -0.002582 0.013018 0.000000 0.000000 0.000000
# 4 0.000000 0.000000 0.000000 0.040122 0.000000 0.000000
# 5 0.000000 0.000000 0.000000 0.000000 0.024600 0.000000
# 6 0.000000 0.000000 0.000000 0.000000 0.000000 0.029565
#
#
# Mechanical properties :
#
#
# Convention : Reuss Voigt Hill
#
# Bulk Modulus (GPa) = 60.54038 64.50162 62.52100
# Shear Modulus (GPa) = 28.52642 30.24110 29.38376
#
# Velocity S-wave (km/s) = 3.81711 3.93015 3.87404
# Velocity P-wave (km/s) = 7.09570 7.31710 7.20725
#
# Compressibility (1/GPa) = 0.01651790
#
# Stress axis : x y z
#
# Youngs Moduli (GPa) = 66.07447 56.02909 76.81495
#
# Poissons Ratio (x) = 0.33990 0.46806
# Poissons Ratio (y) = 0.40084 0.19830
# Poissons Ratio (z) = 0.40261 0.14464
#
# Static dielectric constant tensor:
#      x y z
#    x 3.315450 0.000000 0.000000 
#    y 0.000000 3.680330 0.000000 
#    z 0.000000 0.000000 2.898420 
# 
# 
# High freq. dielectric constant tensor:
#      x y z
#    x 1.755260 0.000000 0.000000 
#    y 0.000000 1.772750 0.000000 
#    z 0.000000 0.000000 1.768280 
# 
# From -- ./inp_files/38381.got.cif
#   From: 2010.03.12/outbox.cif.g09.slc.cpg/sg24_20_cif.got.tgz:38381.got - 2010.04.14 03:06:53.
