data_PCOD8165261
_publ_section_title
;
Structure prediction by ZEFSAII (Michael W. Deem and Ramdas Pophale) SiO2 
 PCOD8165261
Probable space group: I 21 21 21
;
_chemical_formula_sum "Si O2"
_cell_formula_units_Z 40
_cell_length_a 15.323370
_cell_length_b 14.012675
_cell_length_c 8.756277
_cell_angle_alpha 90.000000
_cell_angle_beta 90.000000
_cell_angle_gamma 90.000000
_cell_volume 1880.160089
_symmetry_space_group_name_H-M "I 21 21 21"
_symmetry_group_IT_number 24
_symmetry_cell_setting 'orthorhombic'
loop_
_space_group_symop_operation_xyz
x,y,z
-x,1/2-y,z
x,-y,1/2-z
1/2-x,y,-z
1/2+x,1/2+y,1/2+z
1/2-x,-y,1/2+z
1/2+x,1/2-y,-z
-x,1/2+y,1/2-z
loop_
_atom_site_type_symbol
_atom_site_label
_atom_site_fract_x
_atom_site_fract_y
_atom_site_fract_z
Si Si1 0.276277 0.599656 0.672209
Si Si2 0.443428 0.095613 0.339075
Si Si3 0.398019 0.731932 0.809647
Si Si4 0.831454 0.576416 0.116793
Si Si5 0.379849 0.303828 0.343998
O O1 0.291499 0.500000 0.750000
O O2 0.250000 0.582917 0.500000
O O3 0.367403 0.657500 0.680048
O O4 0.206134 0.660622 0.764000
O O5 0.421104 0.071141 0.516475
O O6 0.391954 0.192982 0.292685
O O7 0.543165 0.121792 0.302012
O O8 0.414587 0.000000 0.250000
O O9 0.500000 0.750000 0.788382
O O10 0.338329 0.825617 0.789585
O O11 0.374946 0.688868 0.974284
O O12 0.823607 0.500000 0.250000
O O13 0.750000 0.571914 0.000000
#
# Coordination Sequence:
#
# PCOD8165261 Si02
#       5
#     8   8   8   8   8
#     4  12  27  46  70 102 136 181 235 285 342 417
#     4  10  20  38  64  96 133 173 224 275 340 407
#     4  11  22  46  70  96 135 181 223 283 344 404
#     4  11  23  40  64  96 134 175 218 275 341 408
#     4  10  20  44  67  95 132 180 227 279 346 403
#
# _framework density 21.274782999999999
#
# number of rings (size 3 to 8) (size 9 to 14) (size 15 to 20)
#    0.000    1.200    4.000    5.400    0.000    3.200 
#   10.800    0.000    0.000    0.000    0.000    0.000 
#    0.000    0.000    0.000    0.000    0.000    0.000 
#
# Total GULP energy -247839.964707 kJ/mol
# GULP energy per Si atom -12391.998235 kJ/mol
# Density = 2.122636 g / cm^3
# Si number density = 21.274783 Si / 1000 Ang^3
#
#
#
# Elastic Constant Matrix: (Units=GPa)
#
#
# Indices 1 2 3 4 5 6 
#
# 1 109.5387 56.0202 53.3885 0.0000 0.0000 0.0000
# 2 56.0202 167.1743 73.3560 0.0000 0.0000 0.0000
# 3 53.3885 73.3560 90.6122 0.0000 0.0000 0.0000
# 4 0.0000 0.0000 0.0000 18.4421 0.0000 0.0000
# 5 0.0000 0.0000 0.0000 0.0000 -190.0357 0.0000
# 6 0.0000 0.0000 0.0000 0.0000 0.0000 21.5506
#
#
#
# Elastic Compliance Matrix: (Units=1/GPa)
#
#
# Indices 1 2 3 4 5 6 
#
# 1 0.013061 -0.001551 -0.006440 0.000000 0.000000 0.000000
# 2 -0.001551 0.009462 -0.006746 0.000000 0.000000 0.000000
# 3 -0.006440 -0.006746 0.020292 0.000000 0.000000 0.000000
# 4 0.000000 0.000000 0.000000 0.054224 0.000000 0.000000
# 5 0.000000 0.000000 0.000000 0.000000 -0.005262 0.000000
# 6 0.000000 0.000000 0.000000 0.000000 0.000000 0.046402
#
#
# Mechanical properties :
#
#
# Convention : Reuss Voigt Hill
#
# Bulk Modulus (GPa) = 74.95852 81.42829 78.19340
# Shear Modulus (GPa) = 29.05299 -17.70456 5.67421
#
# Velocity S-wave (km/s) = 3.69942 -2.88789 1.63490
# Velocity P-wave (km/s) = 7.31831 5.21898 6.35592
#
# Compressibility (1/GPa) = 0.01334071
#
# Stress axis : x y z
#
# Youngs Moduli (GPa) = 76.56248 105.69029 49.28111
#
# Poissons Ratio (x) = 0.16392 0.31737
# Poissons Ratio (y) = 0.11874 0.33245
# Poissons Ratio (z) = 0.49307 0.71298
#
# Static dielectric constant tensor:
#      x y z
#    x 3.987730 0.000000 0.000000 
#    y 0.000000 7.183460 0.000000 
#    z 0.000000 0.000000 3.741770 
# 
# 
# High freq. dielectric constant tensor:
#      x y z
#    x 1.842360 0.000000 0.000000 
#    y 0.000000 1.852660 0.000000 
#    z 0.000000 0.000000 1.810640 
# 
# From -- ./inp_files/12320.got.cif
#   From: 2010.03.12/outbox.cif.g09.slc.cpg/sg24_7_cif.got.tgz:12320.got - 2010.04.14 03:06:53.
