data_PCOD8165120
_publ_section_title
;
Structure prediction by ZEFSAII (Michael W. Deem and Ramdas Pophale) SiO2 
 PCOD8165120
Probable space group: I 21 21 21
;
_chemical_formula_sum "Si O2"
_cell_formula_units_Z 32
_cell_length_a 20.882244
_cell_length_b 5.065074
_cell_length_c 15.313450
_cell_angle_alpha 90.000000
_cell_angle_beta 90.000000
_cell_angle_gamma 90.000000
_cell_volume 1619.705309
_symmetry_space_group_name_H-M "I 21 21 21"
_symmetry_group_IT_number 24
_symmetry_cell_setting 'orthorhombic'
loop_
_space_group_symop_operation_xyz
x,y,z
-x,1/2-y,z
x,-y,1/2-z
1/2-x,y,-z
1/2+x,1/2+y,1/2+z
1/2-x,-y,1/2+z
1/2+x,1/2-y,-z
-x,1/2+y,1/2-z
loop_
_atom_site_type_symbol
_atom_site_label
_atom_site_fract_x
_atom_site_fract_y
_atom_site_fract_z
Si Si1 0.500000 0.250000 0.688921
Si Si2 0.674939 0.772310 0.500141
Si Si3 0.868477 0.722074 0.101462
Si Si4 0.832817 0.257787 0.803529
Si Si5 0.210838 0.000000 0.250000
O O1 0.513705 0.500000 0.750000
O O2 0.440698 0.302173 0.624440
O O3 0.750000 0.701344 0.500000
O O4 0.634346 0.558361 0.553237
O O5 0.644454 0.771188 0.402949
O O6 0.664572 0.059420 0.541267
O O7 0.831108 0.696897 0.192378
O O8 0.865831 0.500000 0.750000
O O9 0.755868 0.309325 0.808802
O O10 0.850832 0.000000 0.750000
#
# Coordination Sequence:
#
# PCOD8165120 Si02
#       5
#     4   8   8   8   4
#     4  12  26  46  64  88 126 180 228 248 300 374
#     4  12  22  38  59  94 124 160 206 264 324 376
#     4  12  25  38  63  88 127 170 210 258 305 377
#     4  10  20  35  57  87 126 156 194 246 321 382
#     4  10  22  36  58  86 126 164 202 244 308 386
#
# _framework density 19.756681
#
# number of rings (size 3 to 8) (size 9 to 14) (size 15 to 20)
#    0.750    0.000    3.750    5.250    0.000    0.000 
#    0.000    0.000    0.000    0.000    0.000   17.500 
#    0.000    0.000    0.000    0.000    0.000    0.000 
#
# Total GULP energy -198402.433540 kJ/mol
# GULP energy per Si atom -12400.152096 kJ/mol
# Density = 1.971171 g / cm^3
# Si number density = 19.756681 Si / 1000 Ang^3
#
#
#
# Elastic Constant Matrix: (Units=GPa)
#
#
# Indices 1 2 3 4 5 6 
#
# 1 49.4357 2.6607 17.3638 0.0000 0.0000 0.0000
# 2 2.6607 115.3405 37.7236 0.0000 0.0000 0.0000
# 3 17.3638 37.7236 124.7611 0.0000 0.0000 0.0000
# 4 0.0000 0.0000 0.0000 52.1715 0.0000 0.0000
# 5 0.0000 0.0000 0.0000 0.0000 20.8640 0.0000
# 6 0.0000 0.0000 0.0000 0.0000 0.0000 21.9297
#
#
#
# Elastic Compliance Matrix: (Units=1/GPa)
#
#
# Indices 1 2 3 4 5 6 
#
# 1 0.021297 0.000531 -0.003125 0.000000 0.000000 0.000000
# 2 0.000531 0.009635 -0.002987 0.000000 0.000000 0.000000
# 3 -0.003125 -0.002987 0.009353 0.000000 0.000000 0.000000
# 4 0.000000 0.000000 0.000000 0.019168 0.000000 0.000000
# 5 0.000000 0.000000 0.000000 0.000000 0.047930 0.000000
# 6 0.000000 0.000000 0.000000 0.000000 0.000000 0.045600
#
#
# Mechanical properties :
#
#
# Convention : Reuss Voigt Hill
#
# Bulk Modulus (GPa) = 34.33670 45.00372 39.67021
# Shear Modulus (GPa) = 28.76005 34.44564 31.60285
#
# Velocity S-wave (km/s) = 3.81952 4.18005 4.00384
# Velocity P-wave (km/s) = 6.07200 6.79157 6.44184
#
# Compressibility (1/GPa) = 0.02912336
#
# Stress axis : x y z
#
# Youngs Moduli (GPa) = 46.95453 103.79149 106.91332
#
# Poissons Ratio (x) = -0.05507 0.33405
# Poissons Ratio (y) = -0.02492 0.31936
# Poissons Ratio (z) = 0.14671 0.31003
#
# Static dielectric constant tensor:
#      x y z
#    x 3.151000 0.000000 0.000000 
#    y 0.000000 3.635830 0.000000 
#    z 0.000000 0.000000 3.804530 
# 
# 
# High freq. dielectric constant tensor:
#      x y z
#    x 1.720030 0.000000 0.000000 
#    y 0.000000 1.784880 0.000000 
#    z 0.000000 0.000000 1.786930 
# 
# From -- ./inp_files/4312.got.cif
#   From: 2010.03.12/outbox.cif.g09.slc.cpg/sg24_3_cif.got.tgz:4312.got - 2010.04.14 03:06:53.
