data_PCOD8165150
_publ_section_title
;
Structure prediction by ZEFSAII (Michael W. Deem and Ramdas Pophale) SiO2 
 PCOD8165150
Probable space group: I 21 21 21
;
_chemical_formula_sum "Si O2"
_cell_formula_units_Z 64
_cell_length_a 12.535222
_cell_length_b 31.323042
_cell_length_c 8.095957
_cell_angle_alpha 90.000000
_cell_angle_beta 90.000000
_cell_angle_gamma 90.000000
_cell_volume 3178.806961
_symmetry_space_group_name_H-M "I 21 21 21"
_symmetry_group_IT_number 24
_symmetry_cell_setting 'orthorhombic'
loop_
_space_group_symop_operation_xyz
x,y,z
-x,1/2-y,z
x,-y,1/2-z
1/2-x,y,-z
1/2+x,1/2+y,1/2+z
1/2-x,-y,1/2+z
1/2+x,1/2-y,-z
-x,1/2+y,1/2-z
loop_
_atom_site_type_symbol
_atom_site_label
_atom_site_fract_x
_atom_site_fract_y
_atom_site_fract_z
Si Si1 0.971782 0.799462 0.802956
Si Si2 0.129716 0.874905 0.803678
Si Si3 0.134357 0.128555 0.313675
Si Si4 0.247586 0.546606 0.305461
Si Si5 0.015472 0.547069 0.693510
Si Si6 0.369524 0.333957 0.988860
Si Si7 0.959370 0.916505 0.366521
Si Si8 0.529078 0.201185 0.675537
O O1 0.887859 0.806848 0.655903
O O2 0.000000 0.750000 0.795832
O O3 0.071876 0.830185 0.762882
O O4 0.928166 0.810103 0.989241
O O5 0.249238 0.871991 0.725929
O O6 0.068558 0.916892 0.742405
O O7 0.145335 0.880682 0.995838
O O8 0.062625 0.089709 0.245580
O O9 0.077017 0.173993 0.283127
O O10 0.214382 0.500000 0.250000
O O11 0.250000 0.549438 0.500000
O O12 0.365188 0.558713 0.233983
O O13 0.147506 0.577009 0.252043
O O14 0.978777 0.500000 0.750000
O O15 0.021528 0.544444 0.493151
O O16 0.446152 0.374917 0.984331
O O17 0.383738 0.307423 0.817947
O O18 0.250000 0.351025 0.000000
O O19 0.500000 0.250000 0.684711
#
# Coordination Sequence:
#
# PCOD8165150 Si02
#       8
#     8   8   8   8   8   8   8   8
#     4  10  21  38  62  87 118 165 204 247 312 360
#     4  10  20  40  58  81 118 153 199 253 292 365
#     4   9  21  37  59  81 113 161 193 246 312 341
#     4   9  19  34  56  82 114 150 188 238 296 349
#     4  10  20  36  58  83 114 153 192 237 296 354
#     4  11  21  35  58  87 123 155 195 254 310 359
#     4  10  20  37  56  85 117 153 196 243 300 358
#     4   9  20  39  58  85 121 155 209 255 294 370
#
# _framework density 20.13334
#
# number of rings (size 3 to 8) (size 9 to 14) (size 15 to 20)
#    0.000    2.250    1.250    1.500    0.000    5.000 
#    0.000    5.625    0.000    0.000    0.000    0.000 
#    0.000    0.000    0.000    0.000    0.000    0.000 
#
# Total GULP energy -396452.135778 kJ/mol
# GULP energy per Si atom -12389.129243 kJ/mol
# Density = 2.008752 g / cm^3
# Si number density = 20.133340 Si / 1000 Ang^3
#
#
#
# Elastic Constant Matrix: (Units=GPa)
#
#
# Indices 1 2 3 4 5 6 
#
# 1 129.7484 49.8595 35.0806 -0.0030 0.0018 -0.0008
# 2 49.8595 98.9333 20.3723 -0.0009 -0.0005 -0.0006
# 3 35.0806 20.3723 71.8740 0.0109 -0.0038 -0.0008
# 4 -0.0030 -0.0009 0.0109 33.5580 0.0021 -0.0010
# 5 0.0018 -0.0005 -0.0038 0.0021 18.4460 0.0015
# 6 -0.0008 -0.0006 -0.0008 -0.0010 0.0015 24.6252
#
#
#
# Elastic Compliance Matrix: (Units=1/GPa)
#
#
# Indices 1 2 3 4 5 6 
#
# 1 0.010469 -0.004486 -0.003838 0.000002 -0.000002 0.000000
# 2 -0.004486 0.012656 -0.001398 0.000000 0.000000 0.000000
# 3 -0.003838 -0.001398 0.016183 -0.000006 0.000004 0.000000
# 4 0.000002 0.000000 -0.000006 0.029799 -0.000003 0.000001
# 5 -0.000002 0.000000 0.000004 -0.000003 0.054212 -0.000003
# 6 0.000000 0.000000 0.000000 0.000001 -0.000003 0.040609
#
#
# Mechanical properties :
#
#
# Convention : Reuss Voigt Hill
#
# Bulk Modulus (GPa) = 50.34162 56.79783 53.56972
# Shear Modulus (GPa) = 26.31675 28.34205 27.32940
#
# Velocity S-wave (km/s) = 3.61934 3.75603 3.68832
# Velocity P-wave (km/s) = 6.52108 6.86166 6.69354
#
# Compressibility (1/GPa) = 0.01986428
#
# Stress axis : x y z
#
# Youngs Moduli (GPa) = 95.52309 79.01207 61.79378
#
# Poissons Ratio (x) = 0.35441 0.23718
# Poissons Ratio (y) = 0.42847 0.08639
# Poissons Ratio (z) = 0.36664 0.11046
#
# Static dielectric constant tensor:
#      x y z
#    x 4.012580 0.000000 0.000020 
#    y 0.000000 3.562850 -0.000020 
#    z 0.000020 -0.000020 3.848900 
# 
# 
# High freq. dielectric constant tensor:
#      x y z
#    x 1.777130 0.000000 0.000000 
#    y 0.000000 1.780580 0.000000 
#    z 0.000000 0.000000 1.782950 
# 
# From -- ./inp_files/11647.got.cif
#   From: 2010.03.12/outbox.cif.g09.slc.cpg/sg24_6_cif.got.tgz:11647.got - 2010.04.14 03:06:53.
