data_PCOD8165909
_publ_section_title
;
Structure prediction by ZEFSAII (Michael W. Deem and Ramdas Pophale) SiO2 
 PCOD8165909
Probable space group: I 21 21 21
;
_chemical_formula_sum "Si O2"
_cell_formula_units_Z 56
_cell_length_a 15.104424
_cell_length_b 15.845978
_cell_length_c 10.464396
_cell_angle_alpha 90.000000
_cell_angle_beta 90.000000
_cell_angle_gamma 90.000000
_cell_volume 2504.594272
_symmetry_space_group_name_H-M "I 21 21 21"
_symmetry_group_IT_number 24
_symmetry_cell_setting 'orthorhombic'
loop_
_space_group_symop_operation_xyz
x,y,z
-x,1/2-y,z
x,-y,1/2-z
1/2-x,y,-z
1/2+x,1/2+y,1/2+z
1/2-x,-y,1/2+z
1/2+x,1/2-y,-z
-x,1/2+y,1/2-z
loop_
_atom_site_type_symbol
_atom_site_label
_atom_site_fract_x
_atom_site_fract_y
_atom_site_fract_z
Si Si1 0.347635 0.362469 0.007205
Si Si2 0.085773 0.307890 0.475584
Si Si3 0.165531 0.922270 0.673251
Si Si4 0.861942 0.430614 0.109059
Si Si5 0.041337 0.507984 0.108770
Si Si6 0.394133 0.743186 0.246740
Si Si7 0.104295 0.757181 0.285054
O O1 0.422025 0.432413 0.979512
O O2 0.348198 0.289543 0.901066
O O3 0.250000 0.404301 0.000000
O O4 0.362269 0.320920 0.144996
O O5 0.061969 0.405598 0.461472
O O6 0.136363 0.295486 0.609818
O O7 0.141043 0.279072 0.350152
O O8 0.000000 0.250000 0.481081
O O9 0.263172 0.959938 0.641935
O O10 0.121882 0.902152 0.537036
O O11 0.155533 0.834011 0.748012
O O12 0.118476 0.000000 0.750000
O O13 0.876463 0.355197 0.207636
O O14 0.935025 0.503110 0.129564
O O15 0.085790 0.500000 0.250000
O O16 0.500000 0.750000 0.257499
O O17 0.000000 0.750000 0.296808
#
# Coordination Sequence:
#
# PCOD8165909 Si02
#       7
#     8   8   8   8   8   8   8
#     4  12  24  43  69  97 134 179 233 283 339 417
#     4  10  24  42  68 105 134 175 232 289 349 417
#     4  11  25  42  64 104 143 179 229 294 353 421
#     4  11  23  42  72  98 134 182 237 285 353 420
#     4  12  23  45  73  98 129 180 240 289 337 424
#     4  11  24  46  68 102 143 186 228 284 359 427
#     4  11  19  42  70  99 126 180 233 274 335 423
#
# _framework density 22.358910000000002
#
# number of rings (size 3 to 8) (size 9 to 14) (size 15 to 20)
#    0.000    0.857    4.286    3.429    4.000    0.571 
#    5.143    2.143    0.000    0.000    0.000    0.000 
#    0.000    0.000    0.000    0.000    0.000    0.000 
#
# Total GULP energy -347049.856950 kJ/mol
# GULP energy per Si atom -12394.637748 kJ/mol
# Density = 2.230802 g / cm^3
# Si number density = 22.358910 Si / 1000 Ang^3
#
#
#
# Elastic Constant Matrix: (Units=GPa)
#
#
# Indices 1 2 3 4 5 6 
#
# 1 67.8189 7.1582 18.9530 0.0000 0.0000 0.0000
# 2 7.1582 148.7843 69.9136 0.0000 0.0000 0.0000
# 3 18.9530 69.9136 181.7245 0.0000 0.0000 0.0000
# 4 0.0000 0.0000 0.0000 43.5040 0.0000 0.0000
# 5 0.0000 0.0000 0.0000 0.0000 10.8095 0.0000
# 6 0.0000 0.0000 0.0000 0.0000 0.0000 25.7263
#
#
#
# Elastic Compliance Matrix: (Units=1/GPa)
#
#
# Indices 1 2 3 4 5 6 
#
# 1 0.015188 0.000017 -0.001590 0.000000 0.000000 0.000000
# 2 0.000017 0.008204 -0.003158 0.000000 0.000000 0.000000
# 3 -0.001590 -0.003158 0.006884 0.000000 0.000000 0.000000
# 4 0.000000 0.000000 0.000000 0.022986 0.000000 0.000000
# 5 0.000000 0.000000 0.000000 0.000000 0.092512 0.000000
# 6 0.000000 0.000000 0.000000 0.000000 0.000000 0.038871
#
#
# Mechanical properties :
#
#
# Convention : Reuss Voigt Hill
#
# Bulk Modulus (GPa) = 48.04904 65.59750 56.82327
# Shear Modulus (GPa) = 24.86994 36.16146 30.51570
#
# Velocity S-wave (km/s) = 3.33874 4.02595 3.69834
# Velocity P-wave (km/s) = 6.03320 7.14235 6.61108
#
# Compressibility (1/GPa) = 0.02081207
#
# Stress axis : x y z
#
# Youngs Moduli (GPa) = 65.84202 121.88668 145.27040
#
# Poissons Ratio (x) = -0.00203 0.23104
# Poissons Ratio (y) = -0.00109 0.45878
# Poissons Ratio (z) = 0.10472 0.38493
#
# Static dielectric constant tensor:
#      x y z
#    x 3.832660 0.000000 0.000000 
#    y 0.000000 4.005320 0.000000 
#    z 0.000000 0.000000 4.906510 
# 
# 
# High freq. dielectric constant tensor:
#      x y z
#    x 1.859880 0.000000 0.000000 
#    y 0.000000 1.877390 0.000000 
#    z 0.000000 0.000000 1.904360 
# 
# From -- ./inp_files/20865.got.cif
#   From: 2010.03.12/outbox.cif.g09.slc.cpg/sg24_11_cif.got.tgz:20865.got - 2010.04.14 03:06:53.
