data_PCOD8165945
_publ_section_title
;
Structure prediction by ZEFSAII (Michael W. Deem and Ramdas Pophale) SiO2 
 PCOD8165945
Probable space group: I 21 21 21
;
_chemical_formula_sum "Si O2"
_cell_formula_units_Z 44
_cell_length_a 26.554366
_cell_length_b 9.466649
_cell_length_c 8.287495
_cell_angle_alpha 90.000000
_cell_angle_beta 90.000000
_cell_angle_gamma 90.000000
_cell_volume 2083.317640
_symmetry_space_group_name_H-M "I 21 21 21"
_symmetry_group_IT_number 24
_symmetry_cell_setting 'orthorhombic'
loop_
_space_group_symop_operation_xyz
x,y,z
-x,1/2-y,z
x,-y,1/2-z
1/2-x,y,-z
1/2+x,1/2+y,1/2+z
1/2-x,-y,1/2+z
1/2+x,1/2-y,-z
-x,1/2+y,1/2-z
loop_
_atom_site_type_symbol
_atom_site_label
_atom_site_fract_x
_atom_site_fract_y
_atom_site_fract_z
Si Si1 0.053309 0.700684 0.177292
Si Si2 0.966978 0.500000 0.750000
Si Si3 0.553519 0.917517 0.483570
Si Si4 0.848468 0.846821 0.716823
Si Si5 0.116333 0.132899 0.535258
Si Si6 0.302713 0.081780 0.084353
O O1 0.067019 0.562372 0.074804
O O2 0.050186 0.693515 0.370663
O O3 0.000000 0.750000 0.108680
O O4 0.095278 0.818113 0.137471
O O5 0.930158 0.393182 0.657417
O O6 0.001605 0.580731 0.618337
O O7 0.597288 0.876243 0.361123
O O8 0.852494 0.761053 0.884064
O O9 0.814559 0.749132 0.598888
O O10 0.822401 0.000000 0.750000
O O11 0.150637 0.996261 0.495354
O O12 0.298545 0.000000 0.250000
O O13 0.250000 0.060771 0.000000
#
# Coordination Sequence:
#
# PCOD8165945 Si02
#       6
#     8   4   8   8   8   8
#     4  11  23  38  53  93 143 181 220 280 329 404
#     4  12  20  40  64  96 132 196 228 266 328 440
#     4  11  24  35  60  94 139 180 224 268 344 404
#     4  11  21  41  67  97 128 172 227 274 335 429
#     4  11  22  41  65  94 134 177 237 273 339 409
#     4  10  24  46  71  98 125 171 233 296 346 405
#
# _framework density 21.120156999999999
#
# number of rings (size 3 to 8) (size 9 to 14) (size 15 to 20)
#    0.000    1.091    7.273    0.000    2.545    1.455 
#    0.000    3.636    4.000    0.000    0.000    0.000 
#    0.000    0.000    0.000    0.000    0.000    0.000 
#
# Total GULP energy -272664.839924 kJ/mol
# GULP energy per Si atom -12393.856360 kJ/mol
# Density = 2.107209 g / cm^3
# Si number density = 21.120157 Si / 1000 Ang^3
#
#
#
# Elastic Constant Matrix: (Units=GPa)
#
#
# Indices 1 2 3 4 5 6 
#
# 1 105.0597 50.3550 36.6301 0.0000 0.0000 0.0000
# 2 50.3550 136.1827 41.1130 0.0000 0.0000 0.0000
# 3 36.6301 41.1130 64.3986 0.0000 0.0000 0.0000
# 4 0.0000 0.0000 0.0000 36.6671 0.0000 0.0000
# 5 0.0000 0.0000 0.0000 0.0000 34.9365 0.0000
# 6 0.0000 0.0000 0.0000 0.0000 0.0000 25.7695
#
#
#
# Elastic Compliance Matrix: (Units=1/GPa)
#
#
# Indices 1 2 3 4 5 6 
#
# 1 0.012885 -0.003161 -0.005311 0.000000 0.000000 0.000000
# 2 -0.003161 0.009872 -0.004504 0.000000 0.000000 0.000000
# 3 -0.005311 -0.004504 0.021425 0.000000 0.000000 0.000000
# 4 0.000000 0.000000 0.000000 0.027272 0.000000 0.000000
# 5 0.000000 0.000000 0.000000 0.000000 0.028623 0.000000
# 6 0.000000 0.000000 0.000000 0.000000 0.000000 0.038806
#
#
# Mechanical properties :
#
#
# Convention : Reuss Voigt Hill
#
# Bulk Modulus (GPa) = 54.85760 62.42637 58.64198
# Shear Modulus (GPa) = 29.25476 31.31080 30.28278
#
# Velocity S-wave (km/s) = 3.72581 3.85451 3.79071
# Velocity P-wave (km/s) = 6.67378 7.03076 6.85459
#
# Compressibility (1/GPa) = 0.01822901
#
# Stress axis : x y z
#
# Youngs Moduli (GPa) = 77.60805 101.29951 46.67477
#
# Poissons Ratio (x) = 0.32021 0.24790
# Poissons Ratio (y) = 0.24532 0.21023
# Poissons Ratio (z) = 0.41219 0.45628
#
# Static dielectric constant tensor:
#      x y z
#    x 3.302330 0.000000 0.000000 
#    y 0.000000 3.403930 0.000000 
#    z 0.000000 0.000000 3.836120 
# 
# 
# High freq. dielectric constant tensor:
#      x y z
#    x 1.801220 0.000000 0.000000 
#    y 0.000000 1.838400 0.000000 
#    z 0.000000 0.000000 1.822940 
# 
# From -- ./inp_files/16723.got.cif
#   From: 2010.03.12/outbox.cif.g09.slc.cpg/sg24_9_cif.got.tgz:16723.got - 2010.04.14 03:06:53.
