data_PCOD8165794
_publ_section_title
;
Structure prediction by ZEFSAII (Michael W. Deem and Ramdas Pophale) SiO2 
 PCOD8165794
Probable space group: I 21 21 21
;
_chemical_formula_sum "Si O2"
_cell_formula_units_Z 32
_cell_length_a 6.709045
_cell_length_b 17.338160
_cell_length_c 12.023409
_cell_angle_alpha 90.000000
_cell_angle_beta 90.000000
_cell_angle_gamma 90.000000
_cell_volume 1398.592941
_symmetry_space_group_name_H-M "I 21 21 21"
_symmetry_group_IT_number 24
_symmetry_cell_setting 'orthorhombic'
loop_
_space_group_symop_operation_xyz
x,y,z
-x,1/2-y,z
x,-y,1/2-z
1/2-x,y,-z
1/2+x,1/2+y,1/2+z
1/2-x,-y,1/2+z
1/2+x,1/2-y,-z
-x,1/2+y,1/2-z
loop_
_atom_site_type_symbol
_atom_site_label
_atom_site_fract_x
_atom_site_fract_y
_atom_site_fract_z
Si Si1 0.519168 0.956864 0.025372
Si Si2 0.077974 0.332313 0.703318
Si Si3 0.322775 0.111731 0.111500
Si Si4 0.523850 0.082444 0.713868
O O1 0.485625 0.893161 0.118775
O O2 0.408726 0.031333 0.069085
O O3 0.750000 0.974499 0.000000
O O4 0.424172 0.927568 0.908560
O O5 0.316075 0.347279 0.709482
O O6 0.000000 0.250000 0.658778
O O7 0.996420 0.341439 0.828418
O O8 0.142934 0.897195 0.302520
O O9 0.250000 0.156722 0.000000
O O10 0.625105 0.000000 0.750000
#
# Coordination Sequence:
#
# PCOD8165794 Si02
#       4
#     8   8   8   8
#     4  10  22  44  72 104 133 179 240 301 353 407
#     4  11  26  46  64  98 143 186 226 284 357 429
#     4  12  25  41  70 103 132 181 237 291 348 417
#     4  11  22  44  73 103 135 177 236 300 350 411
#
# _framework density 22.880136
#
# number of rings (size 3 to 8) (size 9 to 14) (size 15 to 20)
#    0.000    1.000    2.500    5.250    0.000    1.000 
#   18.000    0.000    0.000    0.000    0.000    0.000 
#    0.000    0.000    0.000    0.000    0.000    0.000 
#
# Total GULP energy -198309.600999 kJ/mol
# GULP energy per Si atom -12394.350062 kJ/mol
# Density = 2.282806 g / cm^3
# Si number density = 22.880136 Si / 1000 Ang^3
#
#
#
# Elastic Constant Matrix: (Units=GPa)
#
#
# Indices 1 2 3 4 5 6 
#
# 1 59.1965 11.9873 6.3191 0.0000 0.0000 0.0000
# 2 11.9873 50.5863 -1.7444 0.0000 0.0000 0.0000
# 3 6.3191 -1.7444 150.3768 0.0000 0.0000 0.0000
# 4 0.0000 0.0000 0.0000 2.7471 0.0000 0.0000
# 5 0.0000 0.0000 0.0000 0.0000 47.9948 0.0000
# 6 0.0000 0.0000 0.0000 0.0000 0.0000 15.7008
#
#
#
# Elastic Compliance Matrix: (Units=1/GPa)
#
#
# Indices 1 2 3 4 5 6 
#
# 1 0.017840 -0.004255 -0.000799 0.000000 0.000000 0.000000
# 2 -0.004255 0.020791 0.000420 0.000000 0.000000 0.000000
# 3 -0.000799 0.000420 0.006688 0.000000 0.000000 0.000000
# 4 0.000000 0.000000 0.000000 0.364016 0.000000 0.000000
# 5 0.000000 0.000000 0.000000 0.000000 0.020836 0.000000
# 6 0.000000 0.000000 0.000000 0.000000 0.000000 0.063691
#
#
# Mechanical properties :
#
#
# Convention : Reuss Voigt Hill
#
# Bulk Modulus (GPa) = 27.73838 32.58706 30.16272
# Shear Modulus (GPa) = 9.70598 29.52840 19.61719
#
# Velocity S-wave (km/s) = 2.06187 3.59635 2.93130
# Velocity P-wave (km/s) = 4.22115 5.61412 4.96671
#
# Compressibility (1/GPa) = 0.03605113
#
# Stress axis : x y z
#
# Youngs Moduli (GPa) = 56.05441 48.09778 149.51240
#
# Poissons Ratio (x) = 0.20466 0.11946
# Poissons Ratio (y) = 0.23851 -0.06279
# Poissons Ratio (z) = 0.04479 -0.02020
#
# Static dielectric constant tensor:
#      x y z
#    x 4.335800 0.000000 0.000000 
#    y 0.000000 3.817180 0.000000 
#    z 0.000000 0.000000 5.048160 
# 
# 
# High freq. dielectric constant tensor:
#      x y z
#    x 1.917400 0.000000 0.000000 
#    y 0.000000 1.862150 0.000000 
#    z 0.000000 0.000000 1.934280 
# 
# From -- ./inp_files/24425.got.cif
#   From: 2010.03.12/outbox.cif.g09.slc.cpg/sg24_13_cif.got.tgz:24425.got - 2010.04.14 03:06:53.
