data_PCOD8165661
_publ_section_title
;
Structure prediction by ZEFSAII (Michael W. Deem and Ramdas Pophale) SiO2 
 PCOD8165661
Probable space group: I 21 21 21
;
_chemical_formula_sum "Si O2"
_cell_formula_units_Z 64
_cell_length_a 8.962717
_cell_length_b 23.996454
_cell_length_c 14.969494
_cell_angle_alpha 90.000000
_cell_angle_beta 90.000000
_cell_angle_gamma 90.000000
_cell_volume 3219.540363
_symmetry_space_group_name_H-M "I 21 21 21"
_symmetry_group_IT_number 24
_symmetry_cell_setting 'orthorhombic'
loop_
_space_group_symop_operation_xyz
x,y,z
-x,1/2-y,z
x,-y,1/2-z
1/2-x,y,-z
1/2+x,1/2+y,1/2+z
1/2-x,-y,1/2+z
1/2+x,1/2-y,-z
-x,1/2+y,1/2-z
loop_
_atom_site_type_symbol
_atom_site_label
_atom_site_fract_x
_atom_site_fract_y
_atom_site_fract_z
Si Si1 0.317702 0.494005 0.902764
Si Si2 0.647549 0.495758 0.854060
Si Si3 0.328267 0.184243 0.252253
Si Si4 0.176395 0.102075 0.591741
Si Si5 0.824391 0.897223 0.903695
Si Si6 0.827628 0.812090 0.753893
Si Si7 0.173531 0.872914 0.407109
Si Si8 0.823766 0.871038 0.404058
O O1 0.494183 0.506826 0.907184
O O2 0.233108 0.545525 0.854896
O O3 0.288589 0.432585 0.861882
O O4 0.250000 0.492570 0.000000
O O5 0.610306 0.500000 0.750000
O O6 0.769799 0.540307 0.883407
O O7 0.715362 0.435552 0.877281
O O8 0.271774 0.145750 0.333200
O O9 0.301434 0.248067 0.279311
O O10 0.501566 0.173453 0.231505
O O11 0.234155 0.170510 0.164842
O O12 0.250000 0.122549 0.500000
O O13 0.999933 0.100616 0.582028
O O14 0.773945 0.847059 0.839618
O O15 0.750000 0.888156 0.000000
O O16 0.733086 0.825825 0.665945
O O17 0.250000 0.858390 0.500000
O O18 0.998671 0.864080 0.417679
O O19 0.750000 0.861201 0.500000
#
# Coordination Sequence:
#
# PCOD8165661 Si02
#       8
#     8   8   8   8   8   8   8   8
#     4   9  20  37  58  89 124 155 193 237 289 354
#     4  11  22  38  62  93 126 158 197 245 298 358
#     4  10  23  43  59  88 115 156 206 246 299 349
#     4  11  22  39  63  88 122 158 196 246 298 357
#     4  10  22  38  60  91 119 157 200 241 297 357
#     4  10  23  41  63  81 120 157 199 255 293 350
#     4  11  23  39  63  89 121 157 196 245 296 358
#     4  10  22  39  60  90 118 157 197 241 297 354
#
# _framework density 19.878613999999999
#
# number of rings (size 3 to 8) (size 9 to 14) (size 15 to 20)
#    0.000    1.750    1.250    2.625    3.500    6.500 
#    0.000    0.000    0.000    0.000    0.000    0.000 
#    0.000    0.000    0.000    0.000    0.000    0.000 
#
# Total GULP energy -396838.282480 kJ/mol
# GULP energy per Si atom -12401.196327 kJ/mol
# Density = 1.983337 g / cm^3
# Si number density = 19.878614 Si / 1000 Ang^3
#
#
#
# Elastic Constant Matrix: (Units=GPa)
#
#
# Indices 1 2 3 4 5 6 
#
# 1 83.2657 28.2180 43.5455 -0.0002 -0.0001 -0.0001
# 2 28.2180 79.0209 24.9994 -0.0002 0.0000 -0.0001
# 3 43.5455 24.9994 108.2100 0.0001 0.0000 -0.0005
# 4 -0.0002 -0.0002 0.0001 20.0717 0.0001 0.0001
# 5 -0.0001 0.0000 0.0000 0.0001 29.9234 -0.0001
# 6 -0.0001 -0.0001 -0.0005 0.0001 -0.0001 32.4380
#
#
#
# Elastic Compliance Matrix: (Units=1/GPa)
#
#
# Indices 1 2 3 4 5 6 
#
# 1 0.016329 -0.004048 -0.005636 0.000000 0.000000 0.000000
# 2 -0.004048 0.014656 -0.001757 0.000000 0.000000 0.000000
# 3 -0.005636 -0.001757 0.011915 0.000000 0.000000 0.000000
# 4 0.000000 0.000000 0.000000 0.049821 0.000000 0.000000
# 5 0.000000 0.000000 0.000000 0.000000 0.033419 0.000000
# 6 0.000000 0.000000 0.000000 0.000000 0.000000 0.030828
#
#
# Mechanical properties :
#
#
# Convention : Reuss Voigt Hill
#
# Bulk Modulus (GPa) = 49.95338 51.55804 50.75571
# Shear Modulus (GPa) = 26.80632 28.06886 27.43759
#
# Velocity S-wave (km/s) = 3.67618 3.76175 3.71921
# Velocity P-wave (km/s) = 6.57288 6.69779 6.63563
#
# Compressibility (1/GPa) = 0.02001867
#
# Stress axis : x y z
#
# Youngs Moduli (GPa) = 61.24083 68.23022 83.92662
#
# Poissons Ratio (x) = 0.27620 0.47300
# Poissons Ratio (y) = 0.24790 0.14746
# Poissons Ratio (z) = 0.34514 0.11988
#
# Static dielectric constant tensor:
#      x y z
#    x 3.609230 0.000000 0.000000 
#    y 0.000000 3.966590 0.000000 
#    z 0.000000 0.000000 3.613380 
# 
# 
# High freq. dielectric constant tensor:
#      x y z
#    x 1.779040 0.000000 0.000000 
#    y 0.000000 1.779290 0.000000 
#    z 0.000000 0.000000 1.776960 
# 
# From -- ./inp_files/25209.got.cif
#   From: 2010.03.12/outbox.cif.g09.slc.cpg/sg24_13_cif.got.tgz:25209.got - 2010.04.14 03:06:53.
