data_PCOD8165457
_publ_section_title
;
Structure prediction by ZEFSAII (Michael W. Deem and Ramdas Pophale) SiO2 
 PCOD8165457
Probable space group: I 21 21 21
;
_chemical_formula_sum "Si O2"
_cell_formula_units_Z 64
_cell_length_a 8.708066
_cell_length_b 17.749719
_cell_length_c 20.239111
_cell_angle_alpha 90.000000
_cell_angle_beta 90.000000
_cell_angle_gamma 90.000000
_cell_volume 3128.272856
_symmetry_space_group_name_H-M "I 21 21 21"
_symmetry_group_IT_number 24
_symmetry_cell_setting 'orthorhombic'
loop_
_space_group_symop_operation_xyz
x,y,z
-x,1/2-y,z
x,-y,1/2-z
1/2-x,y,-z
1/2+x,1/2+y,1/2+z
1/2-x,-y,1/2+z
1/2+x,1/2-y,-z
-x,1/2+y,1/2-z
loop_
_atom_site_type_symbol
_atom_site_label
_atom_site_fract_x
_atom_site_fract_y
_atom_site_fract_z
Si Si1 0.049865 0.933366 0.385065
Si Si2 0.570324 0.331485 0.005833
Si Si3 0.429089 0.172920 0.498350
Si Si4 0.591939 0.425652 0.131975
Si Si5 0.413153 0.407305 0.613394
Si Si6 0.143651 0.413069 0.241690
Si Si7 0.445872 0.416434 0.383067
Si Si8 0.963510 0.837518 0.748658
O O1 0.977545 0.903429 0.316931
O O2 0.005781 0.873682 0.441379
O O3 0.230972 0.946410 0.378165
O O4 0.979580 0.012233 0.407351
O O5 0.500000 0.250000 0.011089
O O6 0.525627 0.377227 0.071351
O O7 0.750000 0.322173 0.000000
O O8 0.500000 0.250000 0.470559
O O9 0.250000 0.184814 0.500000
O O10 0.501445 0.155853 0.570213
O O11 0.461938 0.104752 0.448622
O O12 0.486420 0.499095 0.137410
O O13 0.579168 0.380220 0.199965
O O14 0.443093 0.389277 0.690744
O O15 0.232347 0.407684 0.599803
O O16 0.200865 0.500000 0.250000
O O17 0.288640 0.358858 0.228528
O O18 0.496121 0.361883 0.323595
O O19 0.000000 0.750000 0.740998
#
# Coordination Sequence:
#
# PCOD8165457 Si02
#       8
#     8   8   8   8   8   8   8   8
#     4  10  21  38  61  89 120 156 202 252 298 354
#     4  10  23  39  56  84 119 154 194 243 297 354
#     4  12  25  41  62  90 124 159 200 250 303 361
#     4  11  22  38  62  90 119 156 203 250 299 355
#     4  10  21  40  63  88 118 158 202 247 298 356
#     4   9  20  40  62  86 119 157 199 246 296 359
#     4  11  23  41  64  89 120 159 203 248 298 360
#     4  11  23  39  60  88 122 157 198 246 300 361
#
# _framework density 20.458573999999999
#
# number of rings (size 3 to 8) (size 9 to 14) (size 15 to 20)
#    0.000    1.500    0.000    6.000    0.000   10.000 
#    0.000    0.625    0.000    0.000    0.000    0.000 
#    0.000    0.000    0.000    0.000    0.000    0.000 
#
# Total GULP energy -396951.533669 kJ/mol
# GULP energy per Si atom -12404.735427 kJ/mol
# Density = 2.041201 g / cm^3
# Si number density = 20.458574 Si / 1000 Ang^3
#
#
#
# Elastic Constant Matrix: (Units=GPa)
#
#
# Indices 1 2 3 4 5 6 
#
# 1 98.6839 46.1804 48.5815 0.0000 0.0000 0.0000
# 2 46.1804 121.2421 39.4408 0.0000 0.0000 0.0000
# 3 48.5815 39.4408 111.3804 0.0000 0.0000 0.0000
# 4 0.0000 0.0000 0.0000 32.4714 0.0000 0.0000
# 5 0.0000 0.0000 0.0000 0.0000 34.0822 0.0000
# 6 0.0000 0.0000 0.0000 0.0000 0.0000 34.2730
#
#
#
# Elastic Compliance Matrix: (Units=1/GPa)
#
#
# Indices 1 2 3 4 5 6 
#
# 1 0.014354 -0.003877 -0.004888 0.000000 0.000000 0.000000
# 2 -0.003877 0.010369 -0.001981 0.000000 0.000000 0.000000
# 3 -0.004888 -0.001981 0.011812 0.000000 0.000000 0.000000
# 4 0.000000 0.000000 0.000000 0.030796 0.000000 0.000000
# 5 0.000000 0.000000 0.000000 0.000000 0.029341 0.000000
# 6 0.000000 0.000000 0.000000 0.000000 0.000000 0.029177
#
#
# Mechanical properties :
#
#
# Convention : Reuss Voigt Hill
#
# Bulk Modulus (GPa) = 66.47562 66.63464 66.55513
# Shear Modulus (GPa) = 32.81798 33.30557 33.06178
#
# Velocity S-wave (km/s) = 4.00949 4.03917 4.02436
# Velocity P-wave (km/s) = 7.34833 7.37525 7.36181
#
# Compressibility (1/GPa) = 0.01504311
#
# Stress axis : x y z
#
# Youngs Moduli (GPa) = 69.66650 96.44027 84.66270
#
# Poissons Ratio (x) = 0.37393 0.41382
# Poissons Ratio (y) = 0.27012 0.16768
# Poissons Ratio (z) = 0.34052 0.19101
#
# Static dielectric constant tensor:
#      x y z
#    x 3.651660 0.000000 0.000000 
#    y 0.000000 3.588360 0.000000 
#    z 0.000000 0.000000 3.962760 
# 
# 
# High freq. dielectric constant tensor:
#      x y z
#    x 1.800430 0.000000 0.000000 
#    y 0.000000 1.799090 0.000000 
#    z 0.000000 0.000000 1.817100 
# 
# From -- ./inp_files/32942.got.cif
#   From: 2010.03.12/outbox.cif.g09.slc.cpg/sg24_17_cif.got.tgz:32942.got - 2010.04.14 03:06:53.
