data_PCOD8165522
_publ_section_title
;
Structure prediction by ZEFSAII (Michael W. Deem and Ramdas Pophale) SiO2 
 PCOD8165522
Probable space group: I 21 21 21
;
_chemical_formula_sum "Si O2"
_cell_formula_units_Z 64
_cell_length_a 15.937011
_cell_length_b 8.599765
_cell_length_c 21.068048
_cell_angle_alpha 90.000000
_cell_angle_beta 90.000000
_cell_angle_gamma 90.000000
_cell_volume 2887.471825
_symmetry_space_group_name_H-M "I 21 21 21"
_symmetry_group_IT_number 24
_symmetry_cell_setting 'orthorhombic'
loop_
_space_group_symop_operation_xyz
x,y,z
-x,1/2-y,z
x,-y,1/2-z
1/2-x,y,-z
1/2+x,1/2+y,1/2+z
1/2-x,-y,1/2+z
1/2+x,1/2-y,-z
-x,1/2+y,1/2-z
loop_
_atom_site_type_symbol
_atom_site_label
_atom_site_fract_x
_atom_site_fract_y
_atom_site_fract_z
Si Si1 0.822604 0.238463 0.128656
Si Si2 0.963483 0.577024 0.680712
Si Si3 0.783148 0.987245 0.562687
Si Si4 0.559763 0.984146 0.822058
Si Si5 0.823947 0.743567 0.116738
Si Si6 0.929049 0.475303 0.064974
Si Si7 0.782522 0.503655 0.678428
Si Si8 0.526626 0.073019 0.442884
O O1 0.734466 0.150960 0.112667
O O2 0.878076 0.311087 0.070175
O O3 0.796981 0.385686 0.170158
O O4 0.875697 0.125153 0.172107
O O5 0.974522 0.500000 0.750000
O O6 0.869868 0.567065 0.649429
O O7 0.000000 0.750000 0.684239
O O8 0.014514 0.481040 0.628927
O O9 0.750000 0.903913 0.500000
O O10 0.717611 0.125542 0.574390
O O11 0.874670 0.051881 0.550764
O O12 0.606773 0.819363 0.835528
O O13 0.524491 0.000000 0.750000
O O14 0.487427 0.008479 0.873283
O O15 0.866180 0.622217 0.067822
O O16 0.746340 0.665685 0.154687
O O17 0.979614 0.474626 0.998359
O O18 0.808851 0.500000 0.750000
O O19 0.500000 0.250000 0.452011
#
# Coordination Sequence:
#
# PCOD8165522 Si02
#       8
#     8   8   8   8   8   8   8   8
#     4  10  23  40  59  90 127 167 209 255 310 376
#     4  11  25  44  67  96 128 165 213 267 327 392
#     4  11  23  41  63  89 123 163 208 256 315 380
#     4  11  22  37  61  93 128 168 213 261 311 369
#     4  10  22  40  61  89 124 164 209 256 311 378
#     4  11  24  41  63  92 129 167 211 258 314 379
#     4  10  21  40  63  89 124 164 206 255 311 375
#     4  12  24  43  70  96 127 166 214 274 331 387
#
# _framework density 22.164719999999999
#
# number of rings (size 3 to 8) (size 9 to 14) (size 15 to 20)
#    0.000    1.250    0.000    6.375    0.000    8.000 
#    0.000    5.625    0.000    0.000    0.000    0.000 
#    0.000    0.000    0.000    0.000    0.000    0.000 
#
# Total GULP energy -396491.454443 kJ/mol
# GULP energy per Si atom -12390.357951 kJ/mol
# Density = 2.211427 g / cm^3
# Si number density = 22.164720 Si / 1000 Ang^3
#
#
#
# Elastic Constant Matrix: (Units=GPa)
#
#
# Indices 1 2 3 4 5 6 
#
# 1 113.5514 29.2576 28.2572 0.0000 0.0000 0.0000
# 2 29.2576 90.2576 15.7928 0.0000 0.0000 0.0000
# 3 28.2572 15.7928 106.1227 0.0000 0.0000 0.0000
# 4 0.0000 0.0000 0.0000 21.8360 0.0000 0.0000
# 5 0.0000 0.0000 0.0000 0.0000 39.5820 0.0000
# 6 0.0000 0.0000 0.0000 0.0000 0.0000 27.2734
#
#
#
# Elastic Compliance Matrix: (Units=1/GPa)
#
#
# Indices 1 2 3 4 5 6 
#
# 1 0.010112 -0.002882 -0.002264 0.000000 0.000000 0.000000
# 2 -0.002882 0.012197 -0.001048 0.000000 0.000000 0.000000
# 3 -0.002264 -0.001048 0.010182 0.000000 0.000000 0.000000
# 4 0.000000 0.000000 0.000000 0.045796 0.000000 0.000000
# 5 0.000000 0.000000 0.000000 0.000000 0.025264 0.000000
# 6 0.000000 0.000000 0.000000 0.000000 0.000000 0.036666
#
#
# Mechanical properties :
#
#
# Convention : Reuss Voigt Hill
#
# Bulk Modulus (GPa) = 49.74060 50.72743 50.23401
# Shear Modulus (GPa) = 31.38631 33.51323 32.44977
#
# Velocity S-wave (km/s) = 3.76712 3.89267 3.83041
# Velocity P-wave (km/s) = 6.43519 6.56811 6.50199
#
# Compressibility (1/GPa) = 0.02010430
#
# Stress axis : x y z
#
# Youngs Moduli (GPa) = 98.88777 81.98787 98.21506
#
# Poissons Ratio (x) = 0.23628 0.22234
# Poissons Ratio (y) = 0.28499 0.10290
# Poissons Ratio (z) = 0.22386 0.08590
#
# Static dielectric constant tensor:
#      x y z
#    x 4.437880 0.000000 0.000000 
#    y 0.000000 4.175750 0.000000 
#    z 0.000000 0.000000 3.978520 
# 
# 
# High freq. dielectric constant tensor:
#      x y z
#    x 1.885510 0.000000 0.000000 
#    y 0.000000 1.883580 0.000000 
#    z 0.000000 0.000000 1.864300 
# 
# From -- ./inp_files/35864.got.cif
#   From: 2010.03.12/outbox.cif.g09.slc.cpg/sg24_18_cif.got.tgz:35864.got - 2010.04.14 03:06:53.
