data_PCOD8165743
_publ_section_title
;
Structure prediction by ZEFSAII (Michael W. Deem and Ramdas Pophale) SiO2 
 PCOD8165743
Probable space group: I 21 21 21
;
_chemical_formula_sum "Si O2"
_cell_formula_units_Z 40
_cell_length_a 23.989708
_cell_length_b 8.340481
_cell_length_c 8.497761
_cell_angle_alpha 90.000000
_cell_angle_beta 90.000000
_cell_angle_gamma 90.000000
_cell_volume 1700.280490
_symmetry_space_group_name_H-M "I 21 21 21"
_symmetry_group_IT_number 24
_symmetry_cell_setting 'orthorhombic'
loop_
_space_group_symop_operation_xyz
x,y,z
-x,1/2-y,z
x,-y,1/2-z
1/2-x,y,-z
1/2+x,1/2+y,1/2+z
1/2-x,-y,1/2+z
1/2+x,1/2-y,-z
-x,1/2+y,1/2-z
loop_
_atom_site_type_symbol
_atom_site_label
_atom_site_fract_x
_atom_site_fract_y
_atom_site_fract_z
Si Si1 0.751863 0.323254 0.812751
Si Si2 0.846288 0.899000 0.615688
Si Si3 0.940713 0.677751 0.955927
Si Si4 0.345199 0.634013 0.863076
Si Si5 0.940869 0.317519 0.917531
O O1 0.764932 0.500000 0.750000
O O2 0.803389 0.206117 0.780464
O O3 0.697542 0.251465 0.727015
O O4 0.750000 0.333260 0.000000
O O5 0.890480 0.792128 0.516240
O O6 0.879500 0.000000 0.750000
O O7 0.815199 0.022521 0.496670
O O8 0.893395 0.763750 0.056152
O O9 0.000000 0.750000 0.007190
O O10 0.936290 0.490434 0.997049
O O11 0.932648 0.690470 0.769692
O O12 0.372225 0.500000 0.750000
O O13 0.000000 0.250000 0.970574
#
# Coordination Sequence:
#
# PCOD8165743 Si02
#       5
#     8   8   8   8   8
#     4  12  31  50  72 103 147 198 250 308 375 442
#     4  12  26  45  75 109 146 195 248 302 365 436
#     4  10  22  43  75 112 152 196 242 299 364 434
#     4  12  26  50  74 105 151 193 246 304 368 439
#     4  10  22  41  75 115 152 190 247 301 357 434
#
# _framework density 23.525531000000001
#
# number of rings (size 3 to 8) (size 9 to 14) (size 15 to 20)
#    0.000    0.800    4.000    1.800   11.200    0.000 
#    0.000    4.000    0.000    0.000    0.000    0.000 
#    0.000    0.000    0.000    0.000    0.000    0.000 
#
# Total GULP energy -247835.274253 kJ/mol
# GULP energy per Si atom -12391.763713 kJ/mol
# Density = 2.347199 g / cm^3
# Si number density = 23.525531 Si / 1000 Ang^3
#
#
#
# Elastic Constant Matrix: (Units=GPa)
#
#
# Indices 1 2 3 4 5 6 
#
# 1 152.6706 83.2056 47.5884 0.0000 0.0000 0.0000
# 2 83.2056 204.8374 74.9481 0.0000 0.0000 0.0000
# 3 47.5884 74.9481 80.7906 0.0000 0.0000 0.0000
# 4 0.0000 0.0000 0.0000 31.4583 0.0000 0.0000
# 5 0.0000 0.0000 0.0000 0.0000 20.2225 0.0000
# 6 0.0000 0.0000 0.0000 0.0000 0.0000 36.3122
#
#
#
# Elastic Compliance Matrix: (Units=1/GPa)
#
#
# Indices 1 2 3 4 5 6 
#
# 1 0.008821 -0.002546 -0.002834 0.000000 0.000000 0.000000
# 2 -0.002546 0.008126 -0.006038 0.000000 0.000000 0.000000
# 3 -0.002834 -0.006038 0.019648 0.000000 0.000000 0.000000
# 4 0.000000 0.000000 0.000000 0.031788 0.000000 0.000000
# 5 0.000000 0.000000 0.000000 0.000000 0.049450 0.000000
# 6 0.000000 0.000000 0.000000 0.000000 0.000000 0.027539
#
#
# Mechanical properties :
#
#
# Convention : Reuss Voigt Hill
#
# Bulk Modulus (GPa) = 72.68162 94.42032 83.55097
# Shear Modulus (GPa) = 28.93614 33.10235 31.01925
#
# Velocity S-wave (km/s) = 3.51092 3.75518 3.63510
# Velocity P-wave (km/s) = 6.88457 7.68272 7.29457
#
# Compressibility (1/GPa) = 0.01375864
#
# Stress axis : x y z
#
# Youngs Moduli (GPa) = 113.36468 123.06933 50.89519
#
# Poissons Ratio (x) = 0.31337 0.14422
# Poissons Ratio (y) = 0.28866 0.30731
# Poissons Ratio (z) = 0.32125 0.74310
#
# Static dielectric constant tensor:
#      x y z
#    x 4.089820 0.000000 0.000000 
#    y 0.000000 4.777410 0.000000 
#    z 0.000000 0.000000 4.266320 
# 
# 
# High freq. dielectric constant tensor:
#      x y z
#    x 1.920120 0.000000 0.000000 
#    y 0.000000 1.961400 0.000000 
#    z 0.000000 0.000000 1.925130 
# 
# From -- ./inp_files/15643.got.cif
#   From: 2010.03.12/outbox.cif.g09.slc.cpg/sg24_8_cif.got.tgz:15643.got - 2010.04.14 03:06:53.
