data_PCOD8165009
_publ_section_title
;
Structure prediction by ZEFSAII (Michael W. Deem and Ramdas Pophale) SiO2 
 PCOD8165009
Probable space group: I 21 21 21
;
_chemical_formula_sum "Si O2"
_cell_formula_units_Z 48
_cell_length_a 7.883732
_cell_length_b 26.835018
_cell_length_c 12.682740
_cell_angle_alpha 90.000000
_cell_angle_beta 90.000000
_cell_angle_gamma 90.000000
_cell_volume 2683.161617
_symmetry_space_group_name_H-M "I 21 21 21"
_symmetry_group_IT_number 24
_symmetry_cell_setting 'orthorhombic'
loop_
_space_group_symop_operation_xyz
x,y,z
-x,1/2-y,z
x,-y,1/2-z
1/2-x,y,-z
1/2+x,1/2+y,1/2+z
1/2-x,-y,1/2+z
1/2+x,1/2-y,-z
-x,1/2+y,1/2-z
loop_
_atom_site_type_symbol
_atom_site_label
_atom_site_fract_x
_atom_site_fract_y
_atom_site_fract_z
Si Si1 0.608859 0.148179 0.301044
Si Si2 0.425720 0.897866 0.376781
Si Si3 0.448606 0.806220 0.998477
Si Si4 0.735288 0.054674 0.207824
Si Si5 0.558183 0.805558 0.766606
Si Si6 0.453417 0.891183 0.614448
O O1 0.462817 0.144901 0.211202
O O2 0.531752 0.157485 0.415614
O O3 0.714231 0.095516 0.302217
O O4 0.737101 0.191795 0.263732
O O5 0.559985 0.943509 0.360451
O O6 0.460444 0.875222 0.492173
O O7 0.231297 0.916001 0.362736
O O8 0.500000 0.750000 0.025977
O O9 0.250000 0.812339 0.000000
O O10 0.509832 0.823013 0.884062
O O11 0.899910 0.068998 0.138862
O O12 0.766465 0.000000 0.250000
O O13 0.500000 0.750000 0.741628
O O14 0.471846 0.840958 0.681175
#
# Coordination Sequence:
#
# PCOD8165009 Si02
#       6
#     8   8   8   8   8   8
#     4   9  20  36  57  80 114 149 188 241 286 332
#     4   9  20  36  60  84 115 150 186 237 287 341
#     4  11  20  33  54  80 115 154 194 237 287 338
#     4   9  20  37  61  85 109 150 190 238 285 347
#     4  10  20  34  55  82 114 151 193 235 281 342
#     4  10  19  38  60  83 117 153 188 232 294 336
#
# _framework density 17.889343
#
# number of rings (size 3 to 8) (size 9 to 14) (size 15 to 20)
#    1.000    1.333    0.000    4.000    0.000    0.667 
#    0.000   10.833    3.667    0.000    0.000    0.000 
#    0.000    0.000    0.000    0.000    0.000    0.000 
#
# Total GULP energy -297381.203277 kJ/mol
# GULP energy per Si atom -12390.883470 kJ/mol
# Density = 1.784863 g / cm^3
# Si number density = 17.889343 Si / 1000 Ang^3
#
#
#
# Elastic Constant Matrix: (Units=GPa)
#
#
# Indices 1 2 3 4 5 6 
#
# 1 125.7653 29.6600 27.0748 0.0072 0.0002 0.0003
# 2 29.6600 79.7940 39.3349 0.0111 0.0004 0.0005
# 3 27.0748 39.3349 106.3938 0.0196 0.0008 0.0009
# 4 0.0072 0.0111 0.0196 38.7604 0.0022 0.0003
# 5 0.0002 0.0004 0.0008 0.0022 34.5804 0.0004
# 6 0.0003 0.0005 0.0009 0.0003 0.0004 20.2700
#
#
#
# Elastic Compliance Matrix: (Units=1/GPa)
#
#
# Indices 1 2 3 4 5 6 
#
# 1 0.008853 -0.002666 -0.001267 0.000000 0.000000 0.000000
# 2 -0.002666 0.016128 -0.005284 -0.000001 0.000000 0.000000
# 3 -0.001267 -0.005284 0.011675 -0.000004 0.000000 0.000000
# 4 0.000000 -0.000001 -0.000004 0.025800 -0.000002 0.000000
# 5 0.000000 0.000000 0.000000 -0.000002 0.028918 -0.000001
# 6 0.000000 0.000000 0.000000 0.000000 -0.000001 0.049334
#
#
# Mechanical properties :
#
#
# Convention : Reuss Voigt Hill
#
# Bulk Modulus (GPa) = 54.88118 56.01028 55.44573
# Shear Modulus (GPa) = 30.26328 33.11437 31.68883
#
# Velocity S-wave (km/s) = 4.11748 4.30707 4.21334
# Velocity P-wave (km/s) = 7.30408 7.49078 7.39802
#
# Compressibility (1/GPa) = 0.01822118
#
# Stress axis : x y z
#
# Youngs Moduli (GPa) = 112.95780 62.00323 85.65169
#
# Poissons Ratio (x) = 0.16530 0.10854
# Poissons Ratio (y) = 0.30115 0.45261
# Poissons Ratio (z) = 0.14314 0.32765
#
# Static dielectric constant tensor:
#      x y z
#    x 3.536080 0.000010 0.000050 
#    y 0.000010 2.887060 0.000000 
#    z 0.000050 0.000000 1.749390 
# 
# 
# High freq. dielectric constant tensor:
#      x y z
#    x 1.715360 0.000000 0.000000 
#    y 0.000000 1.652420 0.000000 
#    z 0.000000 0.000000 1.694470 
# 
# From -- ./inp_files/18700.got.cif
#   From: 2010.03.12/outbox.cif.g09.slc.cpg/sg24_10_cif.got.tgz:18700.got - 2010.04.14 03:06:53.
