data_PCOD8165459
_publ_section_title
;
Structure prediction by ZEFSAII (Michael W. Deem and Ramdas Pophale) SiO2 
 PCOD8165459
Probable space group: I 21 21 21
;
_chemical_formula_sum "Si O2"
_cell_formula_units_Z 32
_cell_length_a 7.862391
_cell_length_b 5.007298
_cell_length_c 35.745020
_cell_angle_alpha 90.000000
_cell_angle_beta 90.000000
_cell_angle_gamma 90.000000
_cell_volume 1407.257657
_symmetry_space_group_name_H-M "I 21 21 21"
_symmetry_group_IT_number 24
_symmetry_cell_setting 'orthorhombic'
loop_
_space_group_symop_operation_xyz
x,y,z
-x,1/2-y,z
x,-y,1/2-z
1/2-x,y,-z
1/2+x,1/2+y,1/2+z
1/2-x,-y,1/2+z
1/2+x,1/2-y,-z
-x,1/2+y,1/2-z
loop_
_atom_site_type_symbol
_atom_site_label
_atom_site_fract_x
_atom_site_fract_y
_atom_site_fract_z
Si Si1 0.811732 0.669791 0.102270
Si Si2 0.110359 0.990004 0.970203
Si Si3 0.198520 0.251828 0.225378
Si Si4 0.189448 0.684883 0.643138
O O1 0.694926 0.641004 0.066110
O O2 0.820833 0.388281 0.123670
O O3 0.000000 0.750000 0.089321
O O4 0.734842 0.885241 0.131052
O O5 0.000000 0.750000 0.988280
O O6 0.250000 0.086075 0.000000
O O7 0.000000 0.250000 0.959466
O O8 0.250968 0.500000 0.250000
O O9 0.303514 0.272988 0.187420
O O10 0.000000 0.250000 0.215084
O O11 0.253023 0.000000 0.250000
O O12 0.000000 0.750000 0.629172
#
# Coordination Sequence:
#
# PCOD8165459 Si02
#       4
#     8   8   8   8
#     4  12  25  44  69  97 132 176 223 271 330 396
#     4  12  26  46  71 101 137 175 221 274 335 398
#     4  10  21  38  61  90 127 171 218 268 326 393
#     4  12  25  42  66  98 134 172 219 277 335 393
#
# _framework density 22.739263000000001
#
# number of rings (size 3 to 8) (size 9 to 14) (size 15 to 20)
#    0.000    0.500    0.000    9.750    0.000    5.000 
#    0.000    0.000    0.000    0.000    0.000    0.000 
#    0.000    0.000    0.000    0.000    0.000    0.000 
#
# Total GULP energy -198510.367714 kJ/mol
# GULP energy per Si atom -12406.897982 kJ/mol
# Density = 2.268751 g / cm^3
# Si number density = 22.739263 Si / 1000 Ang^3
#
#
#
# Elastic Constant Matrix: (Units=GPa)
#
#
# Indices 1 2 3 4 5 6 
#
# 1 109.2588 37.0502 34.8216 0.0000 0.0000 0.0000
# 2 37.0502 141.3005 42.3883 0.0000 0.0000 0.0000
# 3 34.8216 42.3883 125.1050 0.0000 0.0000 0.0000
# 4 0.0000 0.0000 0.0000 67.3534 0.0000 0.0000
# 5 0.0000 0.0000 0.0000 0.0000 30.8265 0.0000
# 6 0.0000 0.0000 0.0000 0.0000 0.0000 37.7083
#
#
#
# Elastic Compliance Matrix: (Units=1/GPa)
#
#
# Indices 1 2 3 4 5 6 
#
# 1 0.010577 -0.002104 -0.002231 0.000000 0.000000 0.000000
# 2 -0.002104 0.008296 -0.002225 0.000000 0.000000 0.000000
# 3 -0.002231 -0.002225 0.009368 0.000000 0.000000 0.000000
# 4 0.000000 0.000000 0.000000 0.014847 0.000000 0.000000
# 5 0.000000 0.000000 0.000000 0.000000 0.032440 0.000000
# 6 0.000000 0.000000 0.000000 0.000000 0.000000 0.026519
#
#
# Mechanical properties :
#
#
# Convention : Reuss Voigt Hill
#
# Bulk Modulus (GPa) = 66.13448 67.13160 66.63304
# Shear Modulus (GPa) = 41.59410 44.60457 43.09933
#
# Velocity S-wave (km/s) = 4.28153 4.43376 4.35831
# Velocity P-wave (km/s) = 7.32045 7.46977 7.39548
#
# Compressibility (1/GPa) = 0.01512071
#
# Stress axis : x y z
#
# Youngs Moduli (GPa) = 94.54325 120.53404 106.74313
#
# Poissons Ratio (x) = 0.25362 0.23816
# Poissons Ratio (y) = 0.19893 0.23754
# Poissons Ratio (z) = 0.21094 0.26823
#
# Static dielectric constant tensor:
#      x y z
#    x 4.034310 0.000000 0.000000 
#    y 0.000000 4.227350 0.000000 
#    z 0.000000 0.000000 3.961700 
# 
# 
# High freq. dielectric constant tensor:
#      x y z
#    x 1.902150 0.000000 0.000000 
#    y 0.000000 1.913740 0.000000 
#    z 0.000000 0.000000 1.902930 
# 
# From -- ./inp_files/16564.got.cif
#   From: 2010.03.12/outbox.cif.g09.slc.cpg/sg24_9_cif.got.tgz:16564.got - 2010.04.14 03:06:53.
