data_PCOD8165097
_publ_section_title
;
Structure prediction by ZEFSAII (Michael W. Deem and Ramdas Pophale) SiO2 
 PCOD8165097
Probable space group: I 21 21 21
;
_chemical_formula_sum "Si O2"
_cell_formula_units_Z 40
_cell_length_a 16.642182
_cell_length_b 24.469687
_cell_length_c 4.929475
_cell_angle_alpha 90.000000
_cell_angle_beta 90.000000
_cell_angle_gamma 90.000000
_cell_volume 2007.425099
_symmetry_space_group_name_H-M "I 21 21 21"
_symmetry_group_IT_number 24
_symmetry_cell_setting 'orthorhombic'
loop_
_space_group_symop_operation_xyz
x,y,z
-x,1/2-y,z
x,-y,1/2-z
1/2-x,y,-z
1/2+x,1/2+y,1/2+z
1/2-x,-y,1/2+z
1/2+x,1/2-y,-z
-x,1/2+y,1/2-z
loop_
_atom_site_type_symbol
_atom_site_label
_atom_site_fract_x
_atom_site_fract_y
_atom_site_fract_z
Si Si1 0.118055 0.561236 0.168229
Si Si2 0.466205 0.877300 0.873925
Si Si3 0.168855 0.624511 0.664408
Si Si4 0.305206 0.937081 0.751074
Si Si5 0.017405 0.313285 0.862190
O O1 0.141903 0.500000 0.250000
O O2 0.118889 0.587945 0.461426
O O3 0.026302 0.571024 0.071608
O O4 0.179032 0.589051 0.945395
O O5 0.382556 0.898926 0.760966
O O6 0.501903 0.832917 0.667137
O O7 0.457965 0.846233 0.160486
O O8 0.250000 0.640903 0.500000
O O9 0.111805 0.676949 0.722852
O O10 0.250000 0.921755 0.500000
O O11 0.333424 0.000000 0.750000
O O12 0.250000 0.923046 0.000000
O O13 0.000000 0.250000 0.837513
#
# Coordination Sequence:
#
# PCOD8165097 Si02
#       5
#     8   8   8   8   8
#     4  10  20  34  55  81 109 146 183 218 269 334
#     4  10  20  36  57  80 110 144 188 233 271 334
#     4  10  21  36  54  79 112 143 179 228 277 326
#     4  10  20  34  54  82 117 151 179 219 278 333
#     4  10  21  38  59  80 105 146 191 234 283 327
#
# _framework density 19.926024000000002
#
# number of rings (size 3 to 8) (size 9 to 14) (size 15 to 20)
#    0.000    2.000    0.000    3.600    0.000    1.600 
#    0.000    9.000    0.000    2.400    0.000    0.000 
#    0.000    0.000    0.000    0.000    0.000    0.000 
#
# Total GULP energy -247772.013305 kJ/mol
# GULP energy per Si atom -12388.600665 kJ/mol
# Density = 1.988067 g / cm^3
# Si number density = 19.926024 Si / 1000 Ang^3
#
#
#
# Elastic Constant Matrix: (Units=GPa)
#
#
# Indices 1 2 3 4 5 6 
#
# 1 118.5895 54.2890 18.0424 0.0000 0.0000 0.0000
# 2 54.2890 104.4346 24.0391 0.0000 0.0000 0.0000
# 3 18.0424 24.0391 102.9038 0.0000 0.0000 0.0000
# 4 0.0000 0.0000 0.0000 26.7769 0.0000 0.0000
# 5 0.0000 0.0000 0.0000 0.0000 41.6915 0.0000
# 6 0.0000 0.0000 0.0000 0.0000 0.0000 15.1729
#
#
#
# Elastic Compliance Matrix: (Units=1/GPa)
#
#
# Indices 1 2 3 4 5 6 
#
# 1 0.011105 -0.005627 -0.000632 0.000000 0.000000 0.000000
# 2 -0.005627 0.012971 -0.002043 0.000000 0.000000 0.000000
# 3 -0.000632 -0.002043 0.010306 0.000000 0.000000 0.000000
# 4 0.000000 0.000000 0.000000 0.037346 0.000000 0.000000
# 5 0.000000 0.000000 0.000000 0.000000 0.023986 0.000000
# 6 0.000000 0.000000 0.000000 0.000000 0.000000 0.065907
#
#
# Mechanical properties :
#
#
# Convention : Reuss Voigt Hill
#
# Bulk Modulus (GPa) = 56.25689 57.62989 56.94339
# Shear Modulus (GPa) = 27.15162 32.03209 29.59185
#
# Velocity S-wave (km/s) = 3.69537 4.01378 3.85786
# Velocity P-wave (km/s) = 6.81923 7.10389 6.96301
#
# Compressibility (1/GPa) = 0.01777560
#
# Stress axis : x y z
#
# Youngs Moduli (GPa) = 90.05212 77.09565 97.03008
#
# Poissons Ratio (x) = 0.43382 0.06137
# Poissons Ratio (y) = 0.50673 0.19828
# Poissons Ratio (z) = 0.05696 0.15754
#
# Static dielectric constant tensor:
#      x y z
#    x 3.619460 0.000000 0.000000 
#    y 0.000000 3.536390 0.000000 
#    z 0.000000 0.000000 3.847370 
# 
# 
# High freq. dielectric constant tensor:
#      x y z
#    x 1.773620 0.000000 0.000000 
#    y 0.000000 1.746950 0.000000 
#    z 0.000000 0.000000 1.802540 
# 
# From -- ./inp_files/3501.got.cif
#   From: 2010.03.12/outbox.cif.g09.slc.cpg/sg24_2_cif.got.tgz:3501.got - 2010.04.14 03:06:53.
