data_PCOD8165996
_publ_section_title
;
Structure prediction by ZEFSAII (Michael W. Deem and Ramdas Pophale) SiO2 
 PCOD8165996
Probable space group: I 21 21 21
;
_chemical_formula_sum "Si O2"
_cell_formula_units_Z 48
_cell_length_a 20.401956
_cell_length_b 9.223383
_cell_length_c 15.033115
_cell_angle_alpha 90.000000
_cell_angle_beta 90.000000
_cell_angle_gamma 90.000000
_cell_volume 2828.857229
_symmetry_space_group_name_H-M "I 21 21 21"
_symmetry_group_IT_number 24
_symmetry_cell_setting 'orthorhombic'
loop_
_space_group_symop_operation_xyz
x,y,z
-x,1/2-y,z
x,-y,1/2-z
1/2-x,y,-z
1/2+x,1/2+y,1/2+z
1/2-x,-y,1/2+z
1/2+x,1/2-y,-z
-x,1/2+y,1/2-z
loop_
_atom_site_type_symbol
_atom_site_label
_atom_site_fract_x
_atom_site_fract_y
_atom_site_fract_z
Si Si1 0.269497 0.663196 0.765253
Si Si2 0.385575 0.336779 0.264749
Si Si3 0.885833 0.423737 0.844763
Si Si4 0.310606 0.819754 0.938019
Si Si5 0.240090 0.921742 0.344101
Si Si6 0.067276 0.186860 0.560564
O O1 0.292908 0.500000 0.750000
O O2 0.191872 0.675498 0.781362
O O3 0.308238 0.720669 0.850511
O O4 0.285989 0.758656 0.676385
O O5 0.409367 0.500000 0.250000
O O6 0.407543 0.242126 0.177431
O O7 0.420640 0.281920 0.352468
O O8 0.882638 0.500000 0.750000
O O9 0.812858 0.423553 0.887768
O O10 0.933208 0.515013 0.911164
O O11 0.307356 0.990192 0.910228
O O12 0.250000 0.775734 0.000000
O O13 0.378345 0.786151 0.986191
O O14 0.244586 0.000000 0.250000
O O15 0.000000 0.250000 0.519647
#
# Coordination Sequence:
#
# PCOD8165996 Si02
#       6
#     8   8   8   8   8   8
#     4   9  17  31  52  77 101 125 161 209 257 300
#     4   9  17  30  49  74 102 133 163 191 245 317
#     4   8  14  28  46  67  95 127 163 193 233 298
#     4  11  17  31  52  71  97 131 168 209 251 292
#     4   8  14  27  50  72  91 123 161 199 241 296
#     4  11  21  31  46  71 100 134 169 210 248 289
#
# _framework density 16.967983
#
# number of rings (size 3 to 8) (size 9 to 14) (size 15 to 20)
#    0.000    2.667    3.333    2.000    0.000    2.000 
#    0.000    2.500    0.000    3.000    0.000    0.000 
#    0.000    0.000    0.000    0.000    0.000    0.000 
#
# Total GULP energy -297359.325365 kJ/mol
# GULP energy per Si atom -12389.971890 kJ/mol
# Density = 1.692936 g / cm^3
# Si number density = 16.967983 Si / 1000 Ang^3
#
#
#
# Elastic Constant Matrix: (Units=GPa)
#
#
# Indices 1 2 3 4 5 6 
#
# 1 85.3380 38.4186 38.5817 0.0000 0.0000 0.0000
# 2 38.4186 141.3505 32.9045 0.0000 0.0000 0.0000
# 3 38.5817 32.9045 52.6263 0.0000 0.0000 0.0000
# 4 0.0000 0.0000 0.0000 17.5963 0.0000 0.0000
# 5 0.0000 0.0000 0.0000 0.0000 19.5485 0.0000
# 6 0.0000 0.0000 0.0000 0.0000 0.0000 13.5792
#
#
#
# Elastic Compliance Matrix: (Units=1/GPa)
#
#
# Indices 1 2 3 4 5 6 
#
# 1 0.018063 -0.002138 -0.011906 0.000000 0.000000 0.000000
# 2 -0.002138 0.008533 -0.003768 0.000000 0.000000 0.000000
# 3 -0.011906 -0.003768 0.030086 0.000000 0.000000 0.000000
# 4 0.000000 0.000000 0.000000 0.056830 0.000000 0.000000
# 5 0.000000 0.000000 0.000000 0.000000 0.051155 0.000000
# 6 0.000000 0.000000 0.000000 0.000000 0.000000 0.073642
#
#
# Mechanical properties :
#
#
# Convention : Reuss Voigt Hill
#
# Bulk Modulus (GPa) = 47.48541 55.45827 51.47184
# Shear Modulus (GPa) = 17.79661 21.43878 19.61770
#
# Velocity S-wave (km/s) = 3.24208 3.55841 3.40392
# Velocity P-wave (km/s) = 6.48544 7.04543 6.77122
#
# Compressibility (1/GPa) = 0.02105910
#
# Stress axis : x y z
#
# Youngs Moduli (GPa) = 55.36072 117.19498 33.23786
#
# Poissons Ratio (x) = 0.25057 0.39573
# Poissons Ratio (y) = 0.11836 0.12523
# Poissons Ratio (z) = 0.65912 0.44155
#
# Static dielectric constant tensor:
#      x y z
#    x 2.845280 0.000000 0.000000 
#    y 0.000000 3.740670 0.000000 
#    z 0.000000 0.000000 2.997070 
# 
# 
# High freq. dielectric constant tensor:
#      x y z
#    x 1.613180 0.000000 0.000000 
#    y 0.000000 1.661680 0.000000 
#    z 0.000000 0.000000 1.628800 
# 
# From -- ./inp_files/12969.got.cif
#   From: 2010.03.12/outbox.cif.g09.slc.cpg/sg24_7_cif.got.tgz:12969.got - 2010.04.14 03:06:53.
